MODEL 1
REMARK VINA RESULT:     -10.8      0.000      0.000
REMARK SMILES O=C(NCCCCCCNC(=O)C(Cl)(c1ccccc1)c1ccccc1)c1ccc(-c2c3nc(c(-c4ccccc4)c4ccc([nH]4)c(-c4ccccc4)c4nc(c(-c5ccccc5)c5ccc2[nH]5)C=C4)C=C3)cc1
REMARK SMILES IDX 6 1 5 2 4 3 3 4 1 5 2 6 27 8 28 9 74 10 29 11 73 12 30 13
REMARK SMILES IDX 31 14 32 15 67 16 33 17 72 18 66 19 68 20 34 21 71 22 65 23
REMARK SMILES IDX 64 24 35 26 57 27 42 28 56 29 43 30 46 31 55 32 69 33 44 34
REMARK SMILES IDX 45 35 54 37 70 38 47 39 36 40 37 41 41 42 38 43 40 44 39 45
REMARK SMILES IDX 58 46 59 47 63 48 60 49 62 50 61 51 48 52 49 53 53 54 50 55
REMARK SMILES IDX 52 56 51 57 7 58 8 59 9 60 10 61 11 62 12 64 13 65 14 66
REMARK SMILES IDX 15 67 16 68 20 69 17 70 19 71 18 72 21 73 22 74 26 75 23 76
REMARK SMILES IDX 25 77 24 78
REMARK H PARENT 3 7 68 25 46 36 10 63
REMARK Flexibility Score: inf
ROOT
ATOM      1  C   UNL A   1      31.627  27.173  26.335  1.00  0.00     0.002 C 
ENDROOT
BRANCH   1   2
ATOM      2  C   UNL A   1      32.269  27.823  27.561  1.00  0.00     0.021 C 
BRANCH   2   3
ATOM      3  C   UNL A   1      33.601  28.509  27.290  1.00  0.00     0.116 C 
BRANCH   3   4
ATOM      4  N   UNL A   1      33.544  29.939  27.540  1.00  0.00    -0.352 N 
ATOM      5  O   UNL A   1      34.203  31.912  28.416  1.00  0.00    -0.269 OA
ATOM      6  C   UNL A   1      34.486  30.758  28.109  1.00  0.00     0.251 C 
ATOM      7  H   UNL A   1      32.711  30.384  27.261  1.00  0.00     0.163 HD
BRANCH   6   8
ATOM      8  C   UNL A   1      35.841  30.235  28.372  1.00  0.00     0.039 A 
ATOM      9  C   UNL A   1      36.168  29.700  29.621  1.00  0.00     0.014 A 
ATOM     10  C   UNL A   1      36.793  30.279  27.351  1.00  0.00     0.014 A 
ATOM     11  C   UNL A   1      37.480  29.329  29.891  1.00  0.00     0.010 A 
ATOM     12  C   UNL A   1      38.089  29.827  27.598  1.00  0.00     0.010 A 
ATOM     13  C   UNL A   1      38.449  29.373  28.878  1.00  0.00    -0.014 A 
BRANCH  13  14
ATOM     14  C   UNL A   1      39.824  28.889  29.149  1.00  0.00     0.031 A 
ATOM     15  C   UNL A   1      40.845  29.782  29.794  1.00  0.00     0.074 A 
ATOM     16  C   UNL A   1      40.153  27.634  28.791  1.00  0.00     0.049 A 
ATOM     17  N   UNL A   1      42.104  29.538  30.056  1.00  0.00    -0.248 NA
ATOM     18  C   UNL A   1      40.397  31.126  30.190  1.00  0.00     0.031 C 
ATOM     19  C   UNL A   1      39.246  26.670  28.162  1.00  0.00     0.029 A 
ATOM     20  N   UNL A   1      41.337  26.952  28.904  1.00  0.00    -0.354 N 
ATOM     21  C   UNL A   1      42.606  30.703  30.623  1.00  0.00     0.074 A 
ATOM     22  C   UNL A   1      41.522  31.661  30.643  1.00  0.00     0.031 C 
ATOM     23  C   UNL A   1      39.898  25.515  27.970  1.00  0.00     0.029 A 
ATOM     24  C   UNL A   1      41.283  25.678  28.394  1.00  0.00     0.049 A 
ATOM     25  H   UNL A   1      42.147  27.338  29.309  1.00  0.00     0.167 HD
ATOM     26  C   UNL A   1      43.857  30.949  31.085  1.00  0.00     0.031 A 
ATOM     27  C   UNL A   1      42.247  24.751  28.254  1.00  0.00     0.031 A 
ATOM     28  C   UNL A   1      44.935  29.994  31.046  1.00  0.00     0.049 A 
ATOM     29  C   UNL A   1      43.638  25.067  28.719  1.00  0.00     0.074 A 
ATOM     30  C   UNL A   1      46.230  30.135  31.514  1.00  0.00     0.029 A 
ATOM     31  N   UNL A   1      44.847  28.723  30.495  1.00  0.00    -0.354 N 
ATOM     32  N   UNL A   1      44.089  26.160  29.285  1.00  0.00    -0.248 NA
ATOM     33  C   UNL A   1      44.650  24.021  28.530  1.00  0.00     0.031 C 
ATOM     34  C   UNL A   1      46.943  28.977  31.187  1.00  0.00     0.029 A 
ATOM     35  C   UNL A   1      46.073  28.083  30.584  1.00  0.00     0.049 A 
ATOM     36  H   UNL A   1      44.033  28.334  30.100  1.00  0.00     0.167 HD
ATOM     37  C   UNL A   1      45.431  25.923  29.547  1.00  0.00     0.074 A 
ATOM     38  C   UNL A   1      45.716  24.578  29.087  1.00  0.00     0.031 C 
ATOM     39  C   UNL A   1      46.343  26.745  30.122  1.00  0.00     0.031 A 
BRANCH  26  40
ATOM     40  C   UNL A   1      44.136  32.323  31.632  1.00  0.00    -0.014 A 
ATOM     41  C   UNL A   1      44.582  33.367  30.806  1.00  0.00     0.009 A 
ATOM     42  C   UNL A   1      43.922  32.585  32.995  1.00  0.00     0.009 A 
ATOM     43  C   UNL A   1      44.855  34.629  31.342  1.00  0.00     0.001 A 
ATOM     44  C   UNL A   1      44.163  33.855  33.522  1.00  0.00     0.001 A 
ATOM     45  C   UNL A   1      44.641  34.873  32.698  1.00  0.00     0.000 A 
ENDBRANCH  26  40
BRANCH  27  46
ATOM     46  C   UNL A   1      41.921  23.442  27.629  1.00  0.00    -0.014 A 
ATOM     47  C   UNL A   1      42.188  23.211  26.272  1.00  0.00     0.009 A 
ATOM     48  C   UNL A   1      41.367  22.406  28.398  1.00  0.00     0.009 A 
ATOM     49  C   UNL A   1      41.889  21.977  25.694  1.00  0.00     0.001 A 
ATOM     50  C   UNL A   1      41.099  21.162  27.826  1.00  0.00     0.001 A 
ATOM     51  C   UNL A   1      41.352  20.951  26.472  1.00  0.00     0.000 A 
ENDBRANCH  27  46
BRANCH  39  52
ATOM     52  C   UNL A   1      47.726  26.195  30.335  1.00  0.00    -0.014 A 
ATOM     53  C   UNL A   1      48.677  26.173  29.302  1.00  0.00     0.009 A 
ATOM     54  C   UNL A   1      48.096  25.732  31.608  1.00  0.00     0.009 A 
ATOM     55  C   UNL A   1      49.959  25.670  29.534  1.00  0.00     0.001 A 
ATOM     56  C   UNL A   1      49.386  25.260  31.845  1.00  0.00     0.001 A 
ATOM     57  C   UNL A   1      50.314  25.220  30.806  1.00  0.00     0.000 A 
ENDBRANCH  39  52
ENDBRANCH  13  14
ENDBRANCH   6   8
ENDBRANCH   3   4
ENDBRANCH   2   3
ENDBRANCH   1   2
BRANCH   1  58
ATOM     58  C   UNL A   1      32.203  25.807  25.948  1.00  0.00     0.002 C 
BRANCH  58  59
ATOM     59  C   UNL A   1      32.492  25.620  24.455  1.00  0.00     0.021 C 
BRANCH  59  60
ATOM     60  C   UNL A   1      31.520  24.689  23.740  1.00  0.00     0.116 C 
BRANCH  60  61
ATOM     61  N   UNL A   1      31.165  23.560  24.573  1.00  0.00    -0.354 N 
ATOM     62  C   UNL A   1      31.736  22.325  24.711  1.00  0.00     0.250 C 
ATOM     63  H   UNL A   1      30.374  23.706  25.140  1.00  0.00     0.163 HD
ATOM     64  O   UNL A   1      31.253  21.648  25.630  1.00  0.00    -0.272 OA
BRANCH  62  65
ATOM     65  C   UNL A   1      32.973  21.837  23.842  1.00  0.00     0.173 C 
ATOM     66  Cl  UNL A   1      32.637  22.301  22.108  1.00  0.00    -0.098 Cl
BRANCH  65  67
ATOM     67  C   UNL A   1      34.228  22.533  24.431  1.00  0.00    -0.013 A 
ATOM     68  C   UNL A   1      35.286  22.864  23.553  1.00  0.00     0.006 A 
ATOM     69  C   UNL A   1      34.437  22.763  25.804  1.00  0.00     0.006 A 
ATOM     70  C   UNL A   1      36.495  23.376  24.026  1.00  0.00     0.000 A 
ATOM     71  C   UNL A   1      35.663  23.240  26.280  1.00  0.00     0.000 A 
ATOM     72  C   UNL A   1      36.690  23.545  25.392  1.00  0.00     0.000 A 
ENDBRANCH  65  67
BRANCH  65  73
ATOM     73  C   UNL A   1      33.062  20.287  23.785  1.00  0.00    -0.013 A 
ATOM     74  C   UNL A   1      32.297  19.564  22.841  1.00  0.00     0.006 A 
ATOM     75  C   UNL A   1      33.928  19.548  24.610  1.00  0.00     0.006 A 
ATOM     76  C   UNL A   1      32.320  18.170  22.795  1.00  0.00     0.000 A 
ATOM     77  C   UNL A   1      33.947  18.149  24.566  1.00  0.00     0.000 A 
ATOM     78  C   UNL A   1      33.134  17.461  23.671  1.00  0.00     0.000 A 
ENDBRANCH  65  73
ENDBRANCH  62  65
ENDBRANCH  60  61
ENDBRANCH  59  60
ENDBRANCH  58  59
ENDBRANCH   1  58
TORSDOF 15
ENDMDL
MODEL 2
REMARK VINA RESULT:     -10.8      2.577      8.092
REMARK SMILES O=C(NCCCCCCNC(=O)C(Cl)(c1ccccc1)c1ccccc1)c1ccc(-c2c3nc(c(-c4ccccc4)c4ccc([nH]4)c(-c4ccccc4)c4nc(c(-c5ccccc5)c5ccc2[nH]5)C=C4)C=C3)cc1
REMARK SMILES IDX 6 1 5 2 4 3 3 4 1 5 2 6 27 8 28 9 74 10 29 11 73 12 30 13
REMARK SMILES IDX 31 14 32 15 67 16 33 17 72 18 66 19 68 20 34 21 71 22 65 23
REMARK SMILES IDX 64 24 35 26 57 27 42 28 56 29 43 30 46 31 55 32 69 33 44 34
REMARK SMILES IDX 45 35 54 37 70 38 47 39 36 40 37 41 41 42 38 43 40 44 39 45
REMARK SMILES IDX 58 46 59 47 63 48 60 49 62 50 61 51 48 52 49 53 53 54 50 55
REMARK SMILES IDX 52 56 51 57 7 58 8 59 9 60 10 61 11 62 12 64 13 65 14 66
REMARK SMILES IDX 15 67 16 68 20 69 17 70 19 71 18 72 21 73 22 74 26 75 23 76
REMARK SMILES IDX 25 77 24 78
REMARK H PARENT 3 7 68 25 46 36 10 63
REMARK Flexibility Score: inf
ROOT
ATOM      1  C   UNL A   1      34.583  22.984  25.654  1.00  0.00     0.002 C 
ENDROOT
BRANCH   1   2
ATOM      2  C   UNL A   1      35.787  23.880  25.949  1.00  0.00     0.021 C 
BRANCH   2   3
ATOM      3  C   UNL A   1      36.958  23.703  24.991  1.00  0.00     0.116 C 
BRANCH   3   4
ATOM      4  N   UNL A   1      37.874  22.663  25.428  1.00  0.00    -0.352 N 
ATOM      5  O   UNL A   1      39.796  21.815  26.253  1.00  0.00    -0.269 OA
ATOM      6  C   UNL A   1      39.048  22.780  26.126  1.00  0.00     0.251 C 
ATOM      7  H   UNL A   1      37.614  21.744  25.188  1.00  0.00     0.163 HD
BRANCH   6   8
ATOM      8  C   UNL A   1      39.421  24.084  26.709  1.00  0.00     0.039 A 
ATOM      9  C   UNL A   1      40.140  25.019  25.960  1.00  0.00     0.014 A 
ATOM     10  C   UNL A   1      39.040  24.373  28.021  1.00  0.00     0.014 A 
ATOM     11  C   UNL A   1      40.592  26.187  26.564  1.00  0.00     0.010 A 
ATOM     12  C   UNL A   1      39.422  25.583  28.599  1.00  0.00     0.010 A 
ATOM     13  C   UNL A   1      40.223  26.489  27.883  1.00  0.00    -0.014 A 
BRANCH  13  14
ATOM     14  C   UNL A   1      40.631  27.779  28.489  1.00  0.00     0.031 A 
ATOM     15  C   UNL A   1      42.039  27.998  28.963  1.00  0.00     0.074 A 
ATOM     16  C   UNL A   1      39.712  28.753  28.623  1.00  0.00     0.049 A 
ATOM     17  N   UNL A   1      42.553  29.044  29.562  1.00  0.00    -0.248 NA
ATOM     18  C   UNL A   1      42.994  26.900  28.746  1.00  0.00     0.031 C 
ATOM     19  C   UNL A   1      38.314  28.659  28.195  1.00  0.00     0.029 A 
ATOM     20  N   UNL A   1      39.813  30.011  29.158  1.00  0.00    -0.354 N 
ATOM     21  C   UNL A   1      43.880  28.721  29.814  1.00  0.00     0.074 A 
ATOM     22  C   UNL A   1      44.086  27.374  29.328  1.00  0.00     0.031 C 
ATOM     23  C   UNL A   1      37.696  29.819  28.458  1.00  0.00     0.029 A 
ATOM     24  C   UNL A   1      38.631  30.709  29.136  1.00  0.00     0.049 A 
ATOM     25  H   UNL A   1      40.651  30.378  29.523  1.00  0.00     0.167 HD
ATOM     26  C   UNL A   1      44.839  29.482  30.398  1.00  0.00     0.031 A 
ATOM     27  C   UNL A   1      38.321  31.920  29.634  1.00  0.00     0.031 A 
ATOM     28  C   UNL A   1      44.621  30.816  30.894  1.00  0.00     0.049 A 
ATOM     29  C   UNL A   1      39.383  32.718  30.328  1.00  0.00     0.074 A 
ATOM     30  C   UNL A   1      45.534  31.680  31.476  1.00  0.00     0.029 A 
ATOM     31  N   UNL A   1      43.402  31.477  30.879  1.00  0.00    -0.354 N 
ATOM     32  N   UNL A   1      40.644  32.414  30.529  1.00  0.00    -0.248 NA
ATOM     33  C   UNL A   1      38.984  34.027  30.860  1.00  0.00     0.031 C 
ATOM     34  C   UNL A   1      44.852  32.835  31.872  1.00  0.00     0.029 A 
ATOM     35  C   UNL A   1      43.531  32.725  31.469  1.00  0.00     0.049 A 
ATOM     36  H   UNL A   1      42.566  31.114  30.504  1.00  0.00     0.167 HD
ATOM     37  C   UNL A   1      41.195  33.507  31.184  1.00  0.00     0.074 A 
ATOM     38  C   UNL A   1      40.134  34.483  31.336  1.00  0.00     0.031 C 
ATOM     39  C   UNL A   1      42.467  33.686  31.616  1.00  0.00     0.031 A 
BRANCH  26  40
ATOM     40  C   UNL A   1      46.202  28.865  30.571  1.00  0.00    -0.014 A 
ATOM     41  C   UNL A   1      47.196  28.988  29.587  1.00  0.00     0.009 A 
ATOM     42  C   UNL A   1      46.504  28.171  31.753  1.00  0.00     0.009 A 
ATOM     43  C   UNL A   1      48.446  28.389  29.762  1.00  0.00     0.001 A 
ATOM     44  C   UNL A   1      47.766  27.601  31.941  1.00  0.00     0.001 A 
ATOM     45  C   UNL A   1      48.731  27.699  30.940  1.00  0.00     0.000 A 
ENDBRANCH  26  40
BRANCH  27  46
ATOM     46  C   UNL A   1      36.932  32.434  29.500  1.00  0.00    -0.014 A 
ATOM     47  C   UNL A   1      35.986  32.207  30.509  1.00  0.00     0.009 A 
ATOM     48  C   UNL A   1      36.557  33.182  28.372  1.00  0.00     0.009 A 
ATOM     49  C   UNL A   1      34.687  32.701  30.382  1.00  0.00     0.001 A 
ATOM     50  C   UNL A   1      35.268  33.703  28.263  1.00  0.00     0.001 A 
ATOM     51  C   UNL A   1      34.331  33.455  29.264  1.00  0.00     0.000 A 
ENDBRANCH  27  46
BRANCH  39  52
ATOM     52  C   UNL A   1      42.800  35.008  32.249  1.00  0.00    -0.014 A 
ATOM     53  C   UNL A   1      42.545  35.258  33.607  1.00  0.00     0.009 A 
ATOM     54  C   UNL A   1      43.420  36.005  31.479  1.00  0.00     0.009 A 
ATOM     55  C   UNL A   1      42.877  36.492  34.171  1.00  0.00     0.001 A 
ATOM     56  C   UNL A   1      43.780  37.224  32.053  1.00  0.00     0.001 A 
ATOM     57  C   UNL A   1      43.500  37.470  33.395  1.00  0.00     0.000 A 
ENDBRANCH  39  52
ENDBRANCH  13  14
ENDBRANCH   6   8
ENDBRANCH   3   4
ENDBRANCH   2   3
ENDBRANCH   1   2
BRANCH   1  58
ATOM     58  C   UNL A   1      34.071  23.039  24.211  1.00  0.00     0.002 C 
BRANCH  58  59
ATOM     59  C   UNL A   1      32.554  22.897  24.051  1.00  0.00     0.021 C 
BRANCH  59  60
ATOM     60  C   UNL A   1      31.809  24.220  23.929  1.00  0.00     0.116 C 
BRANCH  60  61
ATOM     61  N   UNL A   1      31.479  24.760  25.230  1.00  0.00    -0.354 N 
ATOM     62  C   UNL A   1      31.566  26.030  25.730  1.00  0.00     0.250 C 
ATOM     63  H   UNL A   1      31.130  24.097  25.868  1.00  0.00     0.163 HD
ATOM     64  O   UNL A   1      31.058  26.165  26.852  1.00  0.00    -0.272 OA
BRANCH  62  65
ATOM     65  C   UNL A   1      32.174  27.247  24.908  1.00  0.00     0.173 C 
ATOM     66  Cl  UNL A   1      33.643  26.624  24.019  1.00  0.00    -0.098 Cl
BRANCH  65  67
ATOM     67  C   UNL A   1      31.050  27.746  23.963  1.00  0.00    -0.013 A 
ATOM     68  C   UNL A   1      31.349  28.792  23.060  1.00  0.00     0.006 A 
ATOM     69  C   UNL A   1      29.714  27.303  24.015  1.00  0.00     0.006 A 
ATOM     70  C   UNL A   1      30.360  29.377  22.267  1.00  0.00     0.000 A 
ATOM     71  C   UNL A   1      28.718  27.917  23.248  1.00  0.00     0.000 A 
ATOM     72  C   UNL A   1      29.041  28.953  22.377  1.00  0.00     0.000 A 
ENDBRANCH  65  67
BRANCH  65  73
ATOM     73  C   UNL A   1      32.761  28.338  25.846  1.00  0.00    -0.013 A 
ATOM     74  C   UNL A   1      31.997  29.480  26.177  1.00  0.00     0.006 A 
ATOM     75  C   UNL A   1      34.030  28.221  26.441  1.00  0.00     0.006 A 
ATOM     76  C   UNL A   1      32.513  30.498  26.979  1.00  0.00     0.000 A 
ATOM     77  C   UNL A   1      34.549  29.245  27.242  1.00  0.00     0.000 A 
ATOM     78  C   UNL A   1      33.797  30.388  27.497  1.00  0.00     0.000 A 
ENDBRANCH  65  73
ENDBRANCH  62  65
ENDBRANCH  60  61
ENDBRANCH  59  60
ENDBRANCH  58  59
ENDBRANCH   1  58
TORSDOF 15
ENDMDL
MODEL 3
REMARK VINA RESULT:     -10.7      2.244      7.364
REMARK SMILES O=C(NCCCCCCNC(=O)C(Cl)(c1ccccc1)c1ccccc1)c1ccc(-c2c3nc(c(-c4ccccc4)c4ccc([nH]4)c(-c4ccccc4)c4nc(c(-c5ccccc5)c5ccc2[nH]5)C=C4)C=C3)cc1
REMARK SMILES IDX 6 1 5 2 4 3 3 4 1 5 2 6 27 8 28 9 74 10 29 11 73 12 30 13
REMARK SMILES IDX 31 14 32 15 67 16 33 17 72 18 66 19 68 20 34 21 71 22 65 23
REMARK SMILES IDX 64 24 35 26 57 27 42 28 56 29 43 30 46 31 55 32 69 33 44 34
REMARK SMILES IDX 45 35 54 37 70 38 47 39 36 40 37 41 41 42 38 43 40 44 39 45
REMARK SMILES IDX 58 46 59 47 63 48 60 49 62 50 61 51 48 52 49 53 53 54 50 55
REMARK SMILES IDX 52 56 51 57 7 58 8 59 9 60 10 61 11 62 12 64 13 65 14 66
REMARK SMILES IDX 15 67 16 68 20 69 17 70 19 71 18 72 21 73 22 74 26 75 23 76
REMARK SMILES IDX 25 77 24 78
REMARK H PARENT 3 7 68 25 46 36 10 63
REMARK Flexibility Score: inf
ROOT
ATOM      1  C   UNL A   1      36.476  19.148  24.964  1.00  0.00     0.002 C 
ENDROOT
BRANCH   1   2
ATOM      2  C   UNL A   1      37.804  19.797  24.575  1.00  0.00     0.021 C 
BRANCH   2   3
ATOM      3  C   UNL A   1      38.716  20.127  25.749  1.00  0.00     0.116 C 
BRANCH   3   4
ATOM      4  N   UNL A   1      39.873  19.248  25.811  1.00  0.00    -0.352 N 
ATOM      5  O   UNL A   1      42.064  18.722  25.927  1.00  0.00    -0.269 OA
ATOM      6  C   UNL A   1      41.178  19.553  26.100  1.00  0.00     0.251 C 
ATOM      7  H   UNL A   1      39.693  18.299  25.618  1.00  0.00     0.163 HD
BRANCH   6   8
ATOM      8  C   UNL A   1      41.516  20.899  26.603  1.00  0.00     0.039 A 
ATOM      9  C   UNL A   1      41.891  21.915  25.719  1.00  0.00     0.014 A 
ATOM     10  C   UNL A   1      41.452  21.145  27.976  1.00  0.00     0.014 A 
ATOM     11  C   UNL A   1      42.328  23.137  26.218  1.00  0.00     0.010 A 
ATOM     12  C   UNL A   1      41.810  22.400  28.468  1.00  0.00     0.010 A 
ATOM     13  C   UNL A   1      42.275  23.397  27.595  1.00  0.00    -0.014 A 
BRANCH  13  14
ATOM     14  C   UNL A   1      42.656  24.735  28.110  1.00  0.00     0.031 A 
ATOM     15  C   UNL A   1      41.619  25.797  28.344  1.00  0.00     0.074 A 
ATOM     16  C   UNL A   1      43.955  24.992  28.351  1.00  0.00     0.049 A 
ATOM     17  N   UNL A   1      41.783  27.034  28.740  1.00  0.00    -0.248 NA
ATOM     18  C   UNL A   1      40.218  25.425  28.093  1.00  0.00     0.031 C 
ATOM     19  C   UNL A   1      45.052  24.039  28.167  1.00  0.00     0.029 A 
ATOM     20  N   UNL A   1      44.573  26.130  28.801  1.00  0.00    -0.354 N 
ATOM     21  C   UNL A   1      40.513  27.595  28.763  1.00  0.00     0.074 A 
ATOM     22  C   UNL A   1      39.592  26.573  28.316  1.00  0.00     0.031 C 
ATOM     23  C   UNL A   1      46.204  24.622  28.528  1.00  0.00     0.029 A 
ATOM     24  C   UNL A   1      45.937  26.006  28.897  1.00  0.00     0.049 A 
ATOM     25  H   UNL A   1      44.087  26.955  29.031  1.00  0.00     0.167 HD
ATOM     26  C   UNL A   1      40.149  28.850  29.125  1.00  0.00     0.031 A 
ATOM     27  C   UNL A   1      46.877  26.914  29.218  1.00  0.00     0.031 A 
ATOM     28  C   UNL A   1      41.074  29.868  29.553  1.00  0.00     0.049 A 
ATOM     29  C   UNL A   1      46.455  28.313  29.558  1.00  0.00     0.074 A 
ATOM     30  C   UNL A   1      40.803  31.161  29.968  1.00  0.00     0.029 A 
ATOM     31  N   UNL A   1      42.452  29.712  29.610  1.00  0.00    -0.354 N 
ATOM     32  N   UNL A   1      45.247  28.821  29.608  1.00  0.00    -0.248 NA
ATOM     33  C   UNL A   1      47.524  29.263  29.888  1.00  0.00     0.031 C 
ATOM     34  C   UNL A   1      42.020  31.807  30.211  1.00  0.00     0.029 A 
ATOM     35  C   UNL A   1      43.046  30.895  30.023  1.00  0.00     0.049 A 
ATOM     36  H   UNL A   1      42.936  28.884  29.389  1.00  0.00     0.167 HD
ATOM     37  C   UNL A   1      45.409  30.141  30.006  1.00  0.00     0.074 A 
ATOM     38  C   UNL A   1      46.830  30.350  30.192  1.00  0.00     0.031 C 
ATOM     39  C   UNL A   1      44.462  31.091  30.203  1.00  0.00     0.031 A 
BRANCH  26  40
ATOM     40  C   UNL A   1      38.688  29.203  29.028  1.00  0.00    -0.014 A 
ATOM     41  C   UNL A   1      37.824  29.068  30.127  1.00  0.00     0.009 A 
ATOM     42  C   UNL A   1      38.174  29.705  27.822  1.00  0.00     0.009 A 
ATOM     43  C   UNL A   1      36.468  29.382  30.006  1.00  0.00     0.001 A 
ATOM     44  C   UNL A   1      36.825  30.050  27.713  1.00  0.00     0.001 A 
ATOM     45  C   UNL A   1      35.971  29.876  28.800  1.00  0.00     0.000 A 
ENDBRANCH  26  40
BRANCH  27  46
ATOM     46  C   UNL A   1      48.310  26.520  29.214  1.00  0.00    -0.014 A 
ATOM     47  C   UNL A   1      48.916  26.021  30.376  1.00  0.00     0.009 A 
ATOM     48  C   UNL A   1      49.070  26.612  28.037  1.00  0.00     0.009 A 
ATOM     49  C   UNL A   1      50.260  25.642  30.363  1.00  0.00     0.001 A 
ATOM     50  C   UNL A   1      50.403  26.201  28.018  1.00  0.00     0.001 A 
ATOM     51  C   UNL A   1      51.000  25.725  29.184  1.00  0.00     0.000 A 
ENDBRANCH  27  46
BRANCH  39  52
ATOM     52  C   UNL A   1      44.927  32.433  30.695  1.00  0.00    -0.014 A 
ATOM     53  C   UNL A   1      45.241  33.474  29.806  1.00  0.00     0.009 A 
ATOM     54  C   UNL A   1      45.009  32.671  32.076  1.00  0.00     0.009 A 
ATOM     55  C   UNL A   1      45.657  34.715  30.293  1.00  0.00     0.001 A 
ATOM     56  C   UNL A   1      45.393  33.921  32.560  1.00  0.00     0.001 A 
ATOM     57  C   UNL A   1      45.726  34.939  31.668  1.00  0.00     0.000 A 
ENDBRANCH  39  52
ENDBRANCH  13  14
ENDBRANCH   6   8
ENDBRANCH   3   4
ENDBRANCH   2   3
ENDBRANCH   1   2
BRANCH   1  58
ATOM     58  C   UNL A   1      35.260  20.080  24.918  1.00  0.00     0.002 C 
BRANCH  58  59
ATOM     59  C   UNL A   1      33.899  19.378  24.948  1.00  0.00     0.021 C 
BRANCH  59  60
ATOM     60  C   UNL A   1      32.705  20.325  24.929  1.00  0.00     0.116 C 
BRANCH  60  61
ATOM     61  N   UNL A   1      32.500  20.885  23.611  1.00  0.00    -0.354 N 
ATOM     62  C   UNL A   1      32.621  22.166  23.145  1.00  0.00     0.250 C 
ATOM     63  H   UNL A   1      32.225  20.231  22.929  1.00  0.00     0.163 HD
ATOM     64  O   UNL A   1      32.507  22.266  21.915  1.00  0.00    -0.272 OA
BRANCH  62  65
ATOM     65  C   UNL A   1      32.976  23.400  24.080  1.00  0.00     0.173 C 
ATOM     66  Cl  UNL A   1      31.973  23.239  25.599  1.00  0.00    -0.098 Cl
BRANCH  65  67
ATOM     67  C   UNL A   1      34.503  23.331  24.343  1.00  0.00    -0.013 A 
ATOM     68  C   UNL A   1      34.974  23.636  25.641  1.00  0.00     0.006 A 
ATOM     69  C   UNL A   1      35.469  23.089  23.347  1.00  0.00     0.006 A 
ATOM     70  C   UNL A   1      36.339  23.716  25.921  1.00  0.00     0.000 A 
ATOM     71  C   UNL A   1      36.836  23.208  23.621  1.00  0.00     0.000 A 
ATOM     72  C   UNL A   1      37.269  23.522  24.906  1.00  0.00     0.000 A 
ENDBRANCH  65  67
BRANCH  65  73
ATOM     73  C   UNL A   1      32.486  24.744  23.472  1.00  0.00    -0.013 A 
ATOM     74  C   UNL A   1      31.139  25.146  23.623  1.00  0.00     0.006 A 
ATOM     75  C   UNL A   1      33.349  25.632  22.806  1.00  0.00     0.006 A 
ATOM     76  C   UNL A   1      30.658  26.323  23.050  1.00  0.00     0.000 A 
ATOM     77  C   UNL A   1      32.865  26.811  22.227  1.00  0.00     0.000 A 
ATOM     78  C   UNL A   1      31.519  27.147  22.336  1.00  0.00     0.000 A 
ENDBRANCH  65  73
ENDBRANCH  62  65
ENDBRANCH  60  61
ENDBRANCH  59  60
ENDBRANCH  58  59
ENDBRANCH   1  58
TORSDOF 15
ENDMDL
