MODEL 1
REMARK VINA RESULT:      -9.8      0.000      0.000
REMARK SMILES CC[C@H]([NH2+][C@@H](C)c1c(C)noc1C)C(=O)NCCCCCCNC(=O)c1ccc(-c2c3nc(c(-c4ccccc4)c4ccc([nH]4)c(-c4ccccc4)c4nc(c(-c5ccccc5)c5ccc2[nH]5)C=C4)C=C3)cc1
REMARK SMILES IDX 19 1 18 2 17 3 16 4 14 5 15 6 3 8 2 9 1 10 4 11 5 14 6 15
REMARK SMILES IDX 7 16 8 17 12 18 9 19 10 20 11 21 13 22 20 23 21 24 22 25
REMARK SMILES IDX 23 26 24 27 25 29 26 30 27 31 73 32 28 33 72 34 29 35 30 36
REMARK SMILES IDX 31 37 66 38 32 39 71 40 65 41 67 42 33 43 70 44 64 45 63 46
REMARK SMILES IDX 34 48 56 49 41 50 55 51 42 52 45 53 54 54 68 55 43 56 44 57
REMARK SMILES IDX 53 59 69 60 46 61 35 62 36 63 40 64 37 65 39 66 38 67 57 68
REMARK SMILES IDX 58 69 62 70 59 71 61 72 60 73 47 74 48 75 52 76 49 77 51 78
REMARK SMILES IDX 50 79
REMARK H PARENT 16 7 4 12 4 13 23 28 67 47 45 58
REMARK Flexibility Score: inf
ROOT
ATOM      1  C   UNL A   1      34.449  32.293  29.037  1.00  0.00     0.002 C 
ENDROOT
BRANCH   1   2
ATOM      2  C   UNL A   1      34.970  31.708  27.723  1.00  0.00     0.021 C 
BRANCH   2   3
ATOM      3  C   UNL A   1      35.089  30.184  27.680  1.00  0.00     0.116 C 
BRANCH   3   4
ATOM      4  N   UNL A   1      33.804  29.534  27.886  1.00  0.00    -0.351 N 
ATOM      5  C   UNL A   1      33.160  28.590  27.133  1.00  0.00     0.278 C 
ATOM      6  O   UNL A   1      32.027  28.250  27.487  1.00  0.00    -0.268 OA
ATOM      7  H   UNL A   1      33.321  29.818  28.694  1.00  0.00     0.163 HD
BRANCH   5   8
ATOM      8  C   UNL A   1      33.809  27.961  25.865  1.00  0.00     0.272 C 
BRANCH   8   9
ATOM      9  C   UNL A   1      33.168  28.570  24.599  1.00  0.00     0.072 C 
ATOM     10  C   UNL A   1      34.070  28.616  23.369  1.00  0.00     0.011 C 
ENDBRANCH   8   9
BRANCH   8  11
ATOM     11  N   UNL A   1      33.888  26.510  26.100  1.00  0.00    -0.330 N 
ATOM     12  H   UNL A   1      33.505  26.345  27.030  1.00  0.00     0.347 HD
ATOM     13  H   UNL A   1      34.877  26.310  25.948  1.00  0.00     0.347 HD
BRANCH  11  14
ATOM     14  C   UNL A   1      33.228  25.577  25.207  1.00  0.00     0.216 C 
ATOM     15  C   UNL A   1      34.249  24.754  24.411  1.00  0.00     0.081 C 
BRANCH  14  16
ATOM     16  C   UNL A   1      32.363  24.703  26.061  1.00  0.00     0.074 A 
ATOM     17  C   UNL A   1      32.738  23.592  26.879  1.00  0.00     0.090 A 
ATOM     18  C   UNL A   1      31.003  24.809  26.281  1.00  0.00     0.143 A 
ATOM     19  C   UNL A   1      34.091  23.041  27.140  1.00  0.00     0.071 C 
ATOM     20  N   UNL A   1      31.678  23.059  27.500  1.00  0.00    -0.085 NA
ATOM     21  O   UNL A   1      30.598  23.830  27.131  1.00  0.00    -0.361 OA
ATOM     22  C   UNL A   1      29.954  25.741  25.826  1.00  0.00     0.091 C 
ENDBRANCH  14  16
ENDBRANCH  11  14
ENDBRANCH   8  11
ENDBRANCH   5   8
ENDBRANCH   3   4
ENDBRANCH   2   3
ENDBRANCH   1   2
BRANCH   1  23
ATOM     23  C   UNL A   1      34.527  33.819  29.175  1.00  0.00     0.002 C 
BRANCH  23  24
ATOM     24  C   UNL A   1      33.209  34.598  29.079  1.00  0.00     0.021 C 
BRANCH  24  25
ATOM     25  C   UNL A   1      33.228  36.037  29.594  1.00  0.00     0.116 C 
BRANCH  25  26
ATOM     26  N   UNL A   1      32.473  36.206  30.826  1.00  0.00    -0.352 N 
ATOM     27  C   UNL A   1      32.702  35.726  32.089  1.00  0.00     0.251 C 
ATOM     28  H   UNL A   1      31.662  36.757  30.738  1.00  0.00     0.163 HD
ATOM     29  O   UNL A   1      31.844  35.885  32.961  1.00  0.00    -0.269 OA
BRANCH  27  30
ATOM     30  C   UNL A   1      33.945  34.998  32.431  1.00  0.00     0.039 A 
ATOM     31  C   UNL A   1      33.839  33.675  32.876  1.00  0.00     0.014 A 
ATOM     32  C   UNL A   1      35.200  35.613  32.385  1.00  0.00     0.014 A 
ATOM     33  C   UNL A   1      34.987  32.953  33.217  1.00  0.00     0.010 A 
ATOM     34  C   UNL A   1      36.351  34.875  32.675  1.00  0.00     0.010 A 
ATOM     35  C   UNL A   1      36.256  33.539  33.095  1.00  0.00    -0.014 A 
BRANCH  35  36
ATOM     36  C   UNL A   1      37.487  32.763  33.399  1.00  0.00     0.031 A 
ATOM     37  C   UNL A   1      38.253  33.007  34.670  1.00  0.00     0.074 A 
ATOM     38  C   UNL A   1      37.945  31.863  32.506  1.00  0.00     0.049 A 
ATOM     39  N   UNL A   1      39.366  32.453  35.083  1.00  0.00    -0.248 NA
ATOM     40  C   UNL A   1      37.706  34.016  35.590  1.00  0.00     0.031 C 
ATOM     41  C   UNL A   1      37.315  31.546  31.223  1.00  0.00     0.029 A 
ATOM     42  N   UNL A   1      39.053  31.053  32.543  1.00  0.00    -0.354 N 
ATOM     43  C   UNL A   1      39.660  33.054  36.300  1.00  0.00     0.074 A 
ATOM     44  C   UNL A   1      38.629  34.040  36.542  1.00  0.00     0.031 C 
ATOM     45  C   UNL A   1      38.036  30.598  30.603  1.00  0.00     0.029 A 
ATOM     46  C   UNL A   1      39.194  30.264  31.427  1.00  0.00     0.049 A 
ATOM     47  H   UNL A   1      39.685  31.038  33.296  1.00  0.00     0.167 HD
ATOM     48  C   UNL A   1      40.687  32.802  37.146  1.00  0.00     0.031 A 
ATOM     49  C   UNL A   1      40.151  29.376  31.096  1.00  0.00     0.031 A 
ATOM     50  C   UNL A   1      41.711  31.818  36.916  1.00  0.00     0.049 A 
ATOM     51  C   UNL A   1      41.288  29.125  32.047  1.00  0.00     0.074 A 
ATOM     52  C   UNL A   1      42.763  31.458  37.743  1.00  0.00     0.029 A 
ATOM     53  N   UNL A   1      41.815  31.038  35.775  1.00  0.00    -0.354 N 
ATOM     54  N   UNL A   1      41.518  29.661  33.221  1.00  0.00    -0.248 NA
ATOM     55  C   UNL A   1      42.294  28.137  31.629  1.00  0.00     0.031 C 
ATOM     56  C   UNL A   1      43.528  30.489  37.083  1.00  0.00     0.029 A 
ATOM     57  C   UNL A   1      42.924  30.213  35.867  1.00  0.00     0.049 A 
ATOM     58  H   UNL A   1      41.193  31.067  35.013  1.00  0.00     0.167 HD
ATOM     59  C   UNL A   1      42.675  29.056  33.693  1.00  0.00     0.074 A 
ATOM     60  C   UNL A   1      43.095  28.104  32.685  1.00  0.00     0.031 C 
ATOM     61  C   UNL A   1      43.331  29.270  34.859  1.00  0.00     0.031 A 
BRANCH  48  62
ATOM     62  C   UNL A   1      40.761  33.616  38.407  1.00  0.00    -0.014 A 
ATOM     63  C   UNL A   1      41.332  34.899  38.410  1.00  0.00     0.009 A 
ATOM     64  C   UNL A   1      40.212  33.113  39.597  1.00  0.00     0.009 A 
ATOM     65  C   UNL A   1      41.382  35.648  39.589  1.00  0.00     0.001 A 
ATOM     66  C   UNL A   1      40.240  33.875  40.767  1.00  0.00     0.001 A 
ATOM     67  C   UNL A   1      40.832  35.137  40.764  1.00  0.00     0.000 A 
ENDBRANCH  48  62
BRANCH  49  68
ATOM     68  C   UNL A   1      40.073  28.644  29.807  1.00  0.00    -0.014 A 
ATOM     69  C   UNL A   1      39.477  27.375  29.745  1.00  0.00     0.009 A 
ATOM     70  C   UNL A   1      40.602  29.205  28.634  1.00  0.00     0.009 A 
ATOM     71  C   UNL A   1      39.434  26.672  28.539  1.00  0.00     0.001 A 
ATOM     72  C   UNL A   1      40.535  28.511  27.425  1.00  0.00     0.001 A 
ATOM     73  C   UNL A   1      39.960  27.242  27.380  1.00  0.00     0.000 A 
ENDBRANCH  49  68
BRANCH  61  74
ATOM     74  C   UNL A   1      44.550  28.434  35.125  1.00  0.00    -0.014 A 
ATOM     75  C   UNL A   1      45.830  28.875  34.755  1.00  0.00     0.009 A 
ATOM     76  C   UNL A   1      44.417  27.205  35.791  1.00  0.00     0.009 A 
ATOM     77  C   UNL A   1      46.950  28.085  35.021  1.00  0.00     0.001 A 
ATOM     78  C   UNL A   1      45.542  26.431  36.077  1.00  0.00     0.001 A 
ATOM     79  C   UNL A   1      46.807  26.867  35.684  1.00  0.00     0.000 A 
ENDBRANCH  61  74
ENDBRANCH  35  36
ENDBRANCH  27  30
ENDBRANCH  25  26
ENDBRANCH  24  25
ENDBRANCH  23  24
ENDBRANCH   1  23
TORSDOF 17
ENDMDL
MODEL 2
REMARK VINA RESULT:      -9.7      5.036     10.095
REMARK SMILES CC[C@H]([NH2+][C@@H](C)c1c(C)noc1C)C(=O)NCCCCCCNC(=O)c1ccc(-c2c3nc(c(-c4ccccc4)c4ccc([nH]4)c(-c4ccccc4)c4nc(c(-c5ccccc5)c5ccc2[nH]5)C=C4)C=C3)cc1
REMARK SMILES IDX 19 1 18 2 17 3 16 4 14 5 15 6 3 8 2 9 1 10 4 11 5 14 6 15
REMARK SMILES IDX 7 16 8 17 12 18 9 19 10 20 11 21 13 22 20 23 21 24 22 25
REMARK SMILES IDX 23 26 24 27 25 29 26 30 27 31 73 32 28 33 72 34 29 35 30 36
REMARK SMILES IDX 31 37 66 38 32 39 71 40 65 41 67 42 33 43 70 44 64 45 63 46
REMARK SMILES IDX 34 48 56 49 41 50 55 51 42 52 45 53 54 54 68 55 43 56 44 57
REMARK SMILES IDX 53 59 69 60 46 61 35 62 36 63 40 64 37 65 39 66 38 67 57 68
REMARK SMILES IDX 58 69 62 70 59 71 61 72 60 73 47 74 48 75 52 76 49 77 51 78
REMARK SMILES IDX 50 79
REMARK H PARENT 16 7 4 12 4 13 23 28 67 47 45 58
REMARK Flexibility Score: inf
ROOT
ATOM      1  C   UNL A   1      34.459  20.048  24.736  1.00  0.00     0.002 C 
ENDROOT
BRANCH   1   2
ATOM      2  C   UNL A   1      33.308  20.370  25.692  1.00  0.00     0.021 C 
BRANCH   2   3
ATOM      3  C   UNL A   1      32.158  21.181  25.090  1.00  0.00     0.116 C 
BRANCH   3   4
ATOM      4  N   UNL A   1      31.442  21.939  26.104  1.00  0.00    -0.351 N 
ATOM      5  C   UNL A   1      31.425  23.284  26.355  1.00  0.00     0.278 C 
ATOM      6  O   UNL A   1      30.785  23.676  27.336  1.00  0.00    -0.268 OA
ATOM      7  H   UNL A   1      30.879  21.399  26.704  1.00  0.00     0.163 HD
BRANCH   5   8
ATOM      8  C   UNL A   1      32.188  24.302  25.456  1.00  0.00     0.272 C 
BRANCH   8   9
ATOM      9  C   UNL A   1      33.618  24.504  26.002  1.00  0.00     0.072 C 
ATOM     10  C   UNL A   1      34.735  24.365  24.971  1.00  0.00     0.011 C 
ENDBRANCH   8   9
BRANCH   8  11
ATOM     11  N   UNL A   1      31.266  25.420  25.199  1.00  0.00    -0.330 N 
ATOM     12  H   UNL A   1      31.700  26.252  25.598  1.00  0.00     0.347 HD
ATOM     13  H   UNL A   1      30.392  25.091  25.612  1.00  0.00     0.347 HD
BRANCH  11  14
ATOM     14  C   UNL A   1      30.876  25.764  23.846  1.00  0.00     0.216 C 
ATOM     15  C   UNL A   1      29.554  26.544  23.831  1.00  0.00     0.081 C 
BRANCH  14  16
ATOM     16  C   UNL A   1      31.995  26.570  23.266  1.00  0.00     0.074 A 
ATOM     17  C   UNL A   1      32.848  26.259  22.161  1.00  0.00     0.090 A 
ATOM     18  C   UNL A   1      32.424  27.827  23.648  1.00  0.00     0.143 A 
ATOM     19  C   UNL A   1      32.817  25.077  21.263  1.00  0.00     0.071 C 
ATOM     20  N   UNL A   1      33.737  27.235  21.935  1.00  0.00    -0.085 NA
ATOM     21  O   UNL A   1      33.461  28.217  22.861  1.00  0.00    -0.361 OA
ATOM     22  C   UNL A   1      31.990  28.799  24.669  1.00  0.00     0.091 C 
ENDBRANCH  14  16
ENDBRANCH  11  14
ENDBRANCH   8  11
ENDBRANCH   5   8
ENDBRANCH   3   4
ENDBRANCH   2   3
ENDBRANCH   1   2
BRANCH   1  23
ATOM     23  C   UNL A   1      35.796  20.740  25.033  1.00  0.00     0.002 C 
BRANCH  23  24
ATOM     24  C   UNL A   1      37.062  19.879  24.949  1.00  0.00     0.021 C 
BRANCH  24  25
ATOM     25  C   UNL A   1      38.366  20.535  25.406  1.00  0.00     0.116 C 
BRANCH  25  26
ATOM     26  N   UNL A   1      39.460  19.585  25.535  1.00  0.00    -0.352 N 
ATOM     27  C   UNL A   1      40.743  19.753  25.987  1.00  0.00     0.251 C 
ATOM     28  H   UNL A   1      39.243  18.668  25.250  1.00  0.00     0.163 HD
ATOM     29  O   UNL A   1      41.548  18.825  25.878  1.00  0.00    -0.269 OA
BRANCH  27  30
ATOM     30  C   UNL A   1      41.196  21.029  26.583  1.00  0.00     0.039 A 
ATOM     31  C   UNL A   1      41.763  21.992  25.739  1.00  0.00     0.014 A 
ATOM     32  C   UNL A   1      41.134  21.268  27.959  1.00  0.00     0.014 A 
ATOM     33  C   UNL A   1      42.212  23.209  26.262  1.00  0.00     0.010 A 
ATOM     34  C   UNL A   1      41.534  22.505  28.473  1.00  0.00     0.010 A 
ATOM     35  C   UNL A   1      42.078  23.487  27.630  1.00  0.00    -0.014 A 
BRANCH  35  36
ATOM     36  C   UNL A   1      42.498  24.799  28.188  1.00  0.00     0.031 A 
ATOM     37  C   UNL A   1      41.493  25.898  28.402  1.00  0.00     0.074 A 
ATOM     38  C   UNL A   1      43.798  25.021  28.465  1.00  0.00     0.049 A 
ATOM     39  N   UNL A   1      41.683  27.117  28.843  1.00  0.00    -0.248 NA
ATOM     40  C   UNL A   1      40.095  25.593  28.062  1.00  0.00     0.031 C 
ATOM     41  C   UNL A   1      44.880  24.052  28.281  1.00  0.00     0.029 A 
ATOM     42  N   UNL A   1      44.429  26.137  28.956  1.00  0.00    -0.354 N 
ATOM     43  C   UNL A   1      40.436  27.728  28.819  1.00  0.00     0.074 A 
ATOM     44  C   UNL A   1      39.503  26.758  28.287  1.00  0.00     0.031 C 
ATOM     45  C   UNL A   1      46.038  24.610  28.671  1.00  0.00     0.029 A 
ATOM     46  C   UNL A   1      45.787  25.982  29.099  1.00  0.00     0.049 A 
ATOM     47  H   UNL A   1      43.954  26.968  29.184  1.00  0.00     0.167 HD
ATOM     48  C   UNL A   1      40.095  28.978  29.214  1.00  0.00     0.031 A 
ATOM     49  C   UNL A   1      46.727  26.849  29.520  1.00  0.00     0.031 A 
ATOM     50  C   UNL A   1      41.015  29.944  29.750  1.00  0.00     0.049 A 
ATOM     51  C   UNL A   1      46.324  28.234  29.940  1.00  0.00     0.074 A 
ATOM     52  C   UNL A   1      40.749  31.218  30.225  1.00  0.00     0.029 A 
ATOM     53  N   UNL A   1      42.381  29.746  29.882  1.00  0.00    -0.354 N 
ATOM     54  N   UNL A   1      45.130  28.775  29.966  1.00  0.00    -0.248 NA
ATOM     55  C   UNL A   1      47.400  29.126  30.398  1.00  0.00     0.031 C 
ATOM     56  C   UNL A   1      41.961  31.806  30.605  1.00  0.00     0.029 A 
ATOM     57  C   UNL A   1      42.973  30.880  30.411  1.00  0.00     0.049 A 
ATOM     58  H   UNL A   1      42.858  28.921  29.636  1.00  0.00     0.167 HD
ATOM     59  C   UNL A   1      45.307  30.057  30.469  1.00  0.00     0.074 A 
ATOM     60  C   UNL A   1      46.720  30.211  30.746  1.00  0.00     0.031 C 
ATOM     61  C   UNL A   1      44.379  31.021  30.683  1.00  0.00     0.031 A 
BRANCH  48  62
ATOM     62  C   UNL A   1      38.654  29.379  29.071  1.00  0.00    -0.014 A 
ATOM     63  C   UNL A   1      38.144  29.832  27.843  1.00  0.00     0.009 A 
ATOM     64  C   UNL A   1      37.783  29.259  30.166  1.00  0.00     0.009 A 
ATOM     65  C   UNL A   1      36.799  30.190  27.725  1.00  0.00     0.001 A 
ATOM     66  C   UNL A   1      36.433  29.592  30.036  1.00  0.00     0.001 A 
ATOM     67  C   UNL A   1      35.945  30.066  28.819  1.00  0.00     0.000 A 
ENDBRANCH  48  62
BRANCH  49  68
ATOM     68  C   UNL A   1      48.151  26.429  29.580  1.00  0.00    -0.014 A 
ATOM     69  C   UNL A   1      48.668  25.832  30.740  1.00  0.00     0.009 A 
ATOM     70  C   UNL A   1      49.001  26.633  28.483  1.00  0.00     0.009 A 
ATOM     71  C   UNL A   1      50.014  25.469  30.808  1.00  0.00     0.001 A 
ATOM     72  C   UNL A   1      50.342  26.245  28.545  1.00  0.00     0.001 A 
ATOM     73  C   UNL A   1      50.848  25.673  29.710  1.00  0.00     0.000 A 
ENDBRANCH  49  68
BRANCH  61  74
ATOM     74  C   UNL A   1      44.857  32.315  31.279  1.00  0.00    -0.014 A 
ATOM     75  C   UNL A   1      44.952  32.485  32.668  1.00  0.00     0.009 A 
ATOM     76  C   UNL A   1      45.256  33.363  30.433  1.00  0.00     0.009 A 
ATOM     77  C   UNL A   1      45.408  33.694  33.199  1.00  0.00     0.001 A 
ATOM     78  C   UNL A   1      45.735  34.559  30.967  1.00  0.00     0.001 A 
ATOM     79  C   UNL A   1      45.803  34.727  32.351  1.00  0.00     0.000 A 
ENDBRANCH  61  74
ENDBRANCH  35  36
ENDBRANCH  27  30
ENDBRANCH  25  26
ENDBRANCH  24  25
ENDBRANCH  23  24
ENDBRANCH   1  23
TORSDOF 17
ENDMDL
MODEL 3
REMARK VINA RESULT:      -9.7      2.742      7.051
REMARK SMILES CC[C@H]([NH2+][C@@H](C)c1c(C)noc1C)C(=O)NCCCCCCNC(=O)c1ccc(-c2c3nc(c(-c4ccccc4)c4ccc([nH]4)c(-c4ccccc4)c4nc(c(-c5ccccc5)c5ccc2[nH]5)C=C4)C=C3)cc1
REMARK SMILES IDX 19 1 18 2 17 3 16 4 14 5 15 6 3 8 2 9 1 10 4 11 5 14 6 15
REMARK SMILES IDX 7 16 8 17 12 18 9 19 10 20 11 21 13 22 20 23 21 24 22 25
REMARK SMILES IDX 23 26 24 27 25 29 26 30 27 31 73 32 28 33 72 34 29 35 30 36
REMARK SMILES IDX 31 37 66 38 32 39 71 40 65 41 67 42 33 43 70 44 64 45 63 46
REMARK SMILES IDX 34 48 56 49 41 50 55 51 42 52 45 53 54 54 68 55 43 56 44 57
REMARK SMILES IDX 53 59 69 60 46 61 35 62 36 63 40 64 37 65 39 66 38 67 57 68
REMARK SMILES IDX 58 69 62 70 59 71 61 72 60 73 47 74 48 75 52 76 49 77 51 78
REMARK SMILES IDX 50 79
REMARK H PARENT 16 7 4 12 4 13 23 28 67 47 45 58
REMARK Flexibility Score: inf
ROOT
ATOM      1  C   UNL A   1      30.649  29.413  24.072  1.00  0.00     0.002 C 
ENDROOT
BRANCH   1   2
ATOM      2  C   UNL A   1      31.437  28.694  22.976  1.00  0.00     0.021 C 
BRANCH   2   3
ATOM      3  C   UNL A   1      30.791  27.422  22.425  1.00  0.00     0.116 C 
BRANCH   3   4
ATOM      4  N   UNL A   1      31.643  26.759  21.450  1.00  0.00    -0.351 N 
ATOM      5  C   UNL A   1      32.566  25.763  21.614  1.00  0.00     0.278 C 
ATOM      6  O   UNL A   1      33.223  25.421  20.626  1.00  0.00    -0.268 OA
ATOM      7  H   UNL A   1      31.539  27.078  20.525  1.00  0.00     0.163 HD
BRANCH   5   8
ATOM      8  C   UNL A   1      32.805  25.078  22.993  1.00  0.00     0.272 C 
BRANCH   8   9
ATOM      9  C   UNL A   1      33.818  25.906  23.814  1.00  0.00     0.072 C 
ATOM     10  C   UNL A   1      33.377  26.255  25.233  1.00  0.00     0.011 C 
ENDBRANCH   8   9
BRANCH   8  11
ATOM     11  N   UNL A   1      32.976  23.640  22.732  1.00  0.00    -0.330 N 
ATOM     12  H   UNL A   1      33.932  23.408  22.999  1.00  0.00     0.347 HD
ATOM     13  H   UNL A   1      32.722  23.558  21.746  1.00  0.00     0.347 HD
BRANCH  11  14
ATOM     14  C   UNL A   1      32.117  22.663  23.371  1.00  0.00     0.216 C 
ATOM     15  C   UNL A   1      32.139  21.327  22.616  1.00  0.00     0.081 C 
BRANCH  14  16
ATOM     16  C   UNL A   1      32.610  22.508  24.776  1.00  0.00     0.074 A 
ATOM     17  C   UNL A   1      33.890  22.067  25.236  1.00  0.00     0.090 A 
ATOM     18  C   UNL A   1      31.941  22.806  25.948  1.00  0.00     0.143 A 
ATOM     19  C   UNL A   1      35.087  21.693  24.442  1.00  0.00     0.071 C 
ATOM     20  N   UNL A   1      33.957  22.064  26.573  1.00  0.00    -0.085 NA
ATOM     21  O   UNL A   1      32.741  22.537  27.013  1.00  0.00    -0.361 OA
ATOM     22  C   UNL A   1      30.610  23.356  26.265  1.00  0.00     0.091 C 
ENDBRANCH  14  16
ENDBRANCH  11  14
ENDBRANCH   8  11
ENDBRANCH   5   8
ENDBRANCH   3   4
ENDBRANCH   2   3
ENDBRANCH   1   2
BRANCH   1  23
ATOM     23  C   UNL A   1      31.412  29.704  25.371  1.00  0.00     0.002 C 
BRANCH  23  24
ATOM     24  C   UNL A   1      31.246  31.102  25.981  1.00  0.00     0.021 C 
BRANCH  24  25
ATOM     25  C   UNL A   1      32.374  31.588  26.892  1.00  0.00     0.116 C 
BRANCH  25  26
ATOM     26  N   UNL A   1      32.208  32.973  27.306  1.00  0.00    -0.352 N 
ATOM     27  C   UNL A   1      32.999  33.775  28.085  1.00  0.00     0.251 C 
ATOM     28  H   UNL A   1      31.390  33.406  26.970  1.00  0.00     0.163 HD
ATOM     29  O   UNL A   1      32.587  34.889  28.419  1.00  0.00    -0.269 OA
BRANCH  27  30
ATOM     30  C   UNL A   1      34.329  33.332  28.558  1.00  0.00     0.039 A 
ATOM     31  C   UNL A   1      34.405  32.627  29.765  1.00  0.00     0.014 A 
ATOM     32  C   UNL A   1      35.504  33.654  27.872  1.00  0.00     0.014 A 
ATOM     33  C   UNL A   1      35.643  32.196  30.252  1.00  0.00     0.010 A 
ATOM     34  C   UNL A   1      36.736  33.178  28.332  1.00  0.00     0.010 A 
ATOM     35  C   UNL A   1      36.817  32.445  29.527  1.00  0.00    -0.014 A 
BRANCH  35  36
ATOM     36  C   UNL A   1      38.132  31.942  30.005  1.00  0.00     0.031 A 
ATOM     37  C   UNL A   1      38.683  30.637  29.500  1.00  0.00     0.074 A 
ATOM     38  C   UNL A   1      38.817  32.642  30.930  1.00  0.00     0.049 A 
ATOM     39  N   UNL A   1      39.792  30.025  29.832  1.00  0.00    -0.248 NA
ATOM     40  C   UNL A   1      37.874  29.917  28.504  1.00  0.00     0.031 C 
ATOM     41  C   UNL A   1      38.387  33.910  31.524  1.00  0.00     0.029 A 
ATOM     42  N   UNL A   1      40.019  32.381  31.538  1.00  0.00    -0.354 N 
ATOM     43  C   UNL A   1      39.808  28.845  29.100  1.00  0.00     0.074 A 
ATOM     44  C   UNL A   1      38.582  28.809  28.332  1.00  0.00     0.031 C 
ATOM     45  C   UNL A   1      39.319  34.323  32.397  1.00  0.00     0.029 A 
ATOM     46  C   UNL A   1      40.394  33.337  32.450  1.00  0.00     0.049 A 
ATOM     47  H   UNL A   1      40.562  31.584  31.340  1.00  0.00     0.167 HD
ATOM     48  C   UNL A   1      40.761  27.883  29.059  1.00  0.00     0.031 A 
ATOM     49  C   UNL A   1      41.477  33.412  33.247  1.00  0.00     0.031 A 
ATOM     50  C   UNL A   1      41.986  27.916  29.813  1.00  0.00     0.049 A 
ATOM     51  C   UNL A   1      42.513  32.325  33.193  1.00  0.00     0.074 A 
ATOM     52  C   UNL A   1      43.034  27.010  29.796  1.00  0.00     0.029 A 
ATOM     53  N   UNL A   1      42.329  28.905  30.722  1.00  0.00    -0.354 N 
ATOM     54  N   UNL A   1      42.540  31.245  32.450  1.00  0.00    -0.248 NA
ATOM     55  C   UNL A   1      43.675  32.473  34.082  1.00  0.00     0.031 C 
ATOM     56  C   UNL A   1      43.992  27.429  30.726  1.00  0.00     0.029 A 
ATOM     57  C   UNL A   1      43.561  28.621  31.286  1.00  0.00     0.049 A 
ATOM     58  H   UNL A   1      41.777  29.692  30.934  1.00  0.00     0.167 HD
ATOM     59  C   UNL A   1      43.731  30.602  32.761  1.00  0.00     0.074 A 
ATOM     60  C   UNL A   1      44.405  31.417  33.750  1.00  0.00     0.031 C 
ATOM     61  C   UNL A   1      44.222  29.439  32.268  1.00  0.00     0.031 A 
BRANCH  48  62
ATOM     62  C   UNL A   1      40.511  26.699  28.169  1.00  0.00    -0.014 A 
ATOM     63  C   UNL A   1      39.747  25.607  28.612  1.00  0.00     0.009 A 
ATOM     64  C   UNL A   1      41.008  26.694  26.856  1.00  0.00     0.009 A 
ATOM     65  C   UNL A   1      39.514  24.518  27.767  1.00  0.00     0.001 A 
ATOM     66  C   UNL A   1      40.751  25.616  26.006  1.00  0.00     0.001 A 
ATOM     67  C   UNL A   1      40.012  24.526  26.465  1.00  0.00     0.000 A 
ENDBRANCH  48  62
BRANCH  49  68
ATOM     68  C   UNL A   1      41.648  34.570  34.162  1.00  0.00    -0.014 A 
ATOM     69  C   UNL A   1      42.294  35.735  33.721  1.00  0.00     0.009 A 
ATOM     70  C   UNL A   1      41.176  34.512  35.482  1.00  0.00     0.009 A 
ATOM     71  C   UNL A   1      42.486  36.810  34.592  1.00  0.00     0.001 A 
ATOM     72  C   UNL A   1      41.346  35.598  36.343  1.00  0.00     0.001 A 
ATOM     73  C   UNL A   1      42.009  36.741  35.900  1.00  0.00     0.000 A 
ENDBRANCH  49  68
BRANCH  61  74
ATOM     74  C   UNL A   1      45.569  28.998  32.764  1.00  0.00    -0.014 A 
ATOM     75  C   UNL A   1      45.694  28.149  33.874  1.00  0.00     0.009 A 
ATOM     76  C   UNL A   1      46.728  29.408  32.084  1.00  0.00     0.009 A 
ATOM     77  C   UNL A   1      46.956  27.744  34.312  1.00  0.00     0.001 A 
ATOM     78  C   UNL A   1      47.986  28.980  32.510  1.00  0.00     0.001 A 
ATOM     79  C   UNL A   1      48.100  28.155  33.629  1.00  0.00     0.000 A 
ENDBRANCH  61  74
ENDBRANCH  35  36
ENDBRANCH  27  30
ENDBRANCH  25  26
ENDBRANCH  24  25
ENDBRANCH  23  24
ENDBRANCH   1  23
TORSDOF 17
ENDMDL
