MODEL 1
REMARK VINA RESULT:     -11.6      0.000      0.000
REMARK SMILES Cc1ccc(Nc2c(C)cccc2Cl)c(CC(=O)NCCCCCCNC(=O)c2ccc(-c3c4nc(c(-c5ccccc5)c5ccc([nH]5)c(-c5ccccc5)c5nc(c(-c6ccccc6)c6ccc3[nH]6)C=C5)C=C4)cc2)c1
REMARK SMILES IDX 22 1 21 2 20 3 19 4 17 5 18 6 16 8 15 9 1 10 2 11 3 12 77 13
REMARK SMILES IDX 4 14 5 15 6 16 7 18 8 19 13 20 9 21 10 22 12 23 14 24 11 25
REMARK SMILES IDX 23 26 24 27 25 28 26 29 27 30 28 32 29 33 30 34 76 35 31 36
REMARK SMILES IDX 75 37 32 38 33 39 34 40 69 41 35 42 74 43 68 44 70 45 36 46
REMARK SMILES IDX 73 47 67 48 66 49 37 51 59 52 44 53 58 54 45 55 48 56 57 57
REMARK SMILES IDX 71 58 46 59 47 60 56 62 72 63 49 64 38 65 39 66 43 67 40 68
REMARK SMILES IDX 42 69 41 70 60 71 61 72 65 73 62 74 64 75 63 76 50 77 51 78
REMARK SMILES IDX 55 79 52 80 54 81 53 82
REMARK H PARENT 19 7 6 17 26 31 70 50 48 61
REMARK Flexibility Score: inf
ROOT
ATOM      1  C   UNL A   1      31.852  29.594  26.944  1.00  0.00     0.002 C 
ENDROOT
BRANCH   1   2
ATOM      2  C   UNL A   1      31.704  28.151  27.453  1.00  0.00     0.021 C 
BRANCH   2   3
ATOM      3  C   UNL A   1      31.224  27.139  26.409  1.00  0.00     0.116 C 
BRANCH   3   4
ATOM      4  N   UNL A   1      31.238  25.784  26.918  1.00  0.00    -0.356 N 
ATOM      5  C   UNL A   1      32.156  24.800  26.705  1.00  0.00     0.224 C 
ATOM      6  O   UNL A   1      31.914  23.669  27.133  1.00  0.00    -0.275 OA
ATOM      7  H   UNL A   1      30.481  25.540  27.498  1.00  0.00     0.163 HD
BRANCH   5   8
ATOM      8  C   UNL A   1      33.442  25.083  25.948  1.00  0.00     0.137 C 
BRANCH   8   9
ATOM      9  C   UNL A   1      33.474  24.499  24.551  1.00  0.00    -0.015 A 
ATOM     10  C   UNL A   1      32.421  25.683  21.066  1.00  0.00     0.044 C 
ATOM     11  C   UNL A   1      32.943  24.827  22.180  1.00  0.00    -0.051 A 
ATOM     12  C   UNL A   1      33.359  23.523  21.925  1.00  0.00     0.005 A 
ATOM     13  C   UNL A   1      33.025  25.312  23.487  1.00  0.00     0.009 A 
ATOM     14  C   UNL A   1      33.850  22.725  22.962  1.00  0.00     0.026 A 
ATOM     15  C   UNL A   1      33.918  23.186  24.287  1.00  0.00     0.042 A 
BRANCH  15  16
ATOM     16  N   UNL A   1      34.480  22.388  25.307  1.00  0.00    -0.354 N 
ATOM     17  H   UNL A   1      33.951  22.321  26.133  1.00  0.00     0.167 HD
BRANCH  16  18
ATOM     18  C   UNL A   1      35.702  21.672  25.308  1.00  0.00     0.060 A 
ATOM     19  C   UNL A   1      36.938  22.307  25.562  1.00  0.00    -0.026 A 
ATOM     20  C   UNL A   1      35.704  20.300  24.974  1.00  0.00     0.064 A 
ATOM     21  C   UNL A   1      37.041  23.748  25.986  1.00  0.00     0.046 C 
ATOM     22  C   UNL A   1      38.132  21.576  25.421  1.00  0.00     0.005 A 
ATOM     23  C   UNL A   1      36.897  19.584  24.860  1.00  0.00     0.023 A 
ATOM     24  Cl  UNL A   1      34.222  19.459  24.659  1.00  0.00    -0.082 Cl
ATOM     25  C   UNL A   1      38.112  20.226  25.073  1.00  0.00     0.002 A 
ENDBRANCH  16  18
ENDBRANCH  15  16
ENDBRANCH   8   9
ENDBRANCH   5   8
ENDBRANCH   3   4
ENDBRANCH   2   3
ENDBRANCH   1   2
BRANCH   1  26
ATOM     26  C   UNL A   1      33.041  29.873  26.011  1.00  0.00     0.002 C 
BRANCH  26  27
ATOM     27  C   UNL A   1      34.398  30.056  26.692  1.00  0.00     0.021 C 
BRANCH  27  28
ATOM     28  C   UNL A   1      34.333  30.723  28.059  1.00  0.00     0.116 C 
BRANCH  28  29
ATOM     29  N   UNL A   1      35.397  31.691  28.289  1.00  0.00    -0.352 N 
ATOM     30  C   UNL A   1      36.735  31.496  28.588  1.00  0.00     0.251 C 
ATOM     31  H   UNL A   1      35.121  32.633  28.222  1.00  0.00     0.163 HD
ATOM     32  O   UNL A   1      37.446  32.458  28.824  1.00  0.00    -0.269 OA
BRANCH  30  33
ATOM     33  C   UNL A   1      37.339  30.142  28.464  1.00  0.00     0.039 A 
ATOM     34  C   UNL A   1      37.374  29.354  29.623  1.00  0.00     0.014 A 
ATOM     35  C   UNL A   1      38.058  29.753  27.340  1.00  0.00     0.014 A 
ATOM     36  C   UNL A   1      38.344  28.366  29.747  1.00  0.00     0.010 A 
ATOM     37  C   UNL A   1      39.086  28.847  27.493  1.00  0.00     0.010 A 
ATOM     38  C   UNL A   1      39.279  28.222  28.727  1.00  0.00    -0.014 A 
BRANCH  38  39
ATOM     39  C   UNL A   1      40.580  27.598  28.919  1.00  0.00     0.031 A 
ATOM     40  C   UNL A   1      40.784  26.169  28.634  1.00  0.00     0.074 A 
ATOM     41  C   UNL A   1      41.636  28.383  29.227  1.00  0.00     0.049 A 
ATOM     42  N   UNL A   1      41.812  25.502  29.034  1.00  0.00    -0.248 NA
ATOM     43  C   UNL A   1      39.798  25.346  27.940  1.00  0.00     0.031 C 
ATOM     44  C   UNL A   1      43.056  28.069  29.111  1.00  0.00     0.029 A 
ATOM     45  N   UNL A   1      41.604  29.584  29.938  1.00  0.00    -0.354 N 
ATOM     46  C   UNL A   1      41.793  24.297  28.380  1.00  0.00     0.074 A 
ATOM     47  C   UNL A   1      40.458  24.187  27.844  1.00  0.00     0.031 C 
ATOM     48  C   UNL A   1      43.747  28.888  29.920  1.00  0.00     0.029 A 
ATOM     49  C   UNL A   1      42.780  29.627  30.713  1.00  0.00     0.049 A 
ATOM     50  H   UNL A   1      40.897  30.268  29.906  1.00  0.00     0.167 HD
ATOM     51  C   UNL A   1      42.961  23.610  28.243  1.00  0.00     0.031 A 
ATOM     52  C   UNL A   1      42.708  29.598  32.077  1.00  0.00     0.031 A 
ATOM     53  C   UNL A   1      44.026  24.163  29.087  1.00  0.00     0.049 A 
ATOM     54  C   UNL A   1      43.354  28.383  32.720  1.00  0.00     0.074 A 
ATOM     55  C   UNL A   1      45.214  24.835  28.854  1.00  0.00     0.029 A 
ATOM     56  N   UNL A   1      43.795  24.266  30.451  1.00  0.00    -0.354 N 
ATOM     57  N   UNL A   1      43.878  27.384  32.065  1.00  0.00    -0.248 NA
ATOM     58  C   UNL A   1      43.361  28.156  34.167  1.00  0.00     0.031 C 
ATOM     59  C   UNL A   1      45.683  25.355  30.098  1.00  0.00     0.029 A 
ATOM     60  C   UNL A   1      44.795  24.973  31.087  1.00  0.00     0.049 A 
ATOM     61  H   UNL A   1      43.013  23.881  30.910  1.00  0.00     0.167 HD
ATOM     62  C   UNL A   1      44.216  26.386  32.940  1.00  0.00     0.074 A 
ATOM     63  C   UNL A   1      43.880  26.919  34.248  1.00  0.00     0.031 C 
ATOM     64  C   UNL A   1      44.694  25.178  32.524  1.00  0.00     0.031 A 
BRANCH  51  65
ATOM     65  C   UNL A   1      43.202  22.544  27.196  1.00  0.00    -0.014 A 
ATOM     66  C   UNL A   1      42.345  21.431  27.130  1.00  0.00     0.009 A 
ATOM     67  C   UNL A   1      44.300  22.514  26.315  1.00  0.00     0.009 A 
ATOM     68  C   UNL A   1      42.589  20.348  26.271  1.00  0.00     0.001 A 
ATOM     69  C   UNL A   1      44.542  21.447  25.439  1.00  0.00     0.001 A 
ATOM     70  C   UNL A   1      43.690  20.356  25.426  1.00  0.00     0.000 A 
ENDBRANCH  51  65
BRANCH  52  71
ATOM     71  C   UNL A   1      41.503  30.296  32.614  1.00  0.00    -0.014 A 
ATOM     72  C   UNL A   1      41.403  31.691  32.439  1.00  0.00     0.009 A 
ATOM     73  C   UNL A   1      40.344  29.579  32.945  1.00  0.00     0.009 A 
ATOM     74  C   UNL A   1      40.160  32.330  32.477  1.00  0.00     0.001 A 
ATOM     75  C   UNL A   1      39.105  30.226  32.999  1.00  0.00     0.001 A 
ATOM     76  C   UNL A   1      39.008  31.591  32.729  1.00  0.00     0.000 A 
ENDBRANCH  52  71
BRANCH  64  77
ATOM     77  C   UNL A   1      45.060  24.046  33.449  1.00  0.00    -0.014 A 
ATOM     78  C   UNL A   1      46.362  23.832  33.919  1.00  0.00     0.009 A 
ATOM     79  C   UNL A   1      44.094  23.074  33.788  1.00  0.00     0.009 A 
ATOM     80  C   UNL A   1      46.667  22.737  34.742  1.00  0.00     0.001 A 
ATOM     81  C   UNL A   1      44.397  21.969  34.587  1.00  0.00     0.001 A 
ATOM     82  C   UNL A   1      45.684  21.808  35.076  1.00  0.00     0.000 A 
ENDBRANCH  64  77
ENDBRANCH  38  39
ENDBRANCH  30  33
ENDBRANCH  28  29
ENDBRANCH  27  28
ENDBRANCH  26  27
ENDBRANCH   1  26
TORSDOF 16
ENDMDL
MODEL 2
REMARK VINA RESULT:     -11.3      1.609      2.615
REMARK SMILES Cc1ccc(Nc2c(C)cccc2Cl)c(CC(=O)NCCCCCCNC(=O)c2ccc(-c3c4nc(c(-c5ccccc5)c5ccc([nH]5)c(-c5ccccc5)c5nc(c(-c6ccccc6)c6ccc3[nH]6)C=C5)C=C4)cc2)c1
REMARK SMILES IDX 22 1 21 2 20 3 19 4 17 5 18 6 16 8 15 9 1 10 2 11 3 12 77 13
REMARK SMILES IDX 4 14 5 15 6 16 7 18 8 19 13 20 9 21 10 22 12 23 14 24 11 25
REMARK SMILES IDX 23 26 24 27 25 28 26 29 27 30 28 32 29 33 30 34 76 35 31 36
REMARK SMILES IDX 75 37 32 38 33 39 34 40 69 41 35 42 74 43 68 44 70 45 36 46
REMARK SMILES IDX 73 47 67 48 66 49 37 51 59 52 44 53 58 54 45 55 48 56 57 57
REMARK SMILES IDX 71 58 46 59 47 60 56 62 72 63 49 64 38 65 39 66 43 67 40 68
REMARK SMILES IDX 42 69 41 70 60 71 61 72 65 73 62 74 64 75 63 76 50 77 51 78
REMARK SMILES IDX 55 79 52 80 54 81 53 82
REMARK H PARENT 19 7 6 17 26 31 70 50 48 61
REMARK Flexibility Score: inf
ROOT
ATOM      1  C   UNL A   1      31.842  28.478  26.828  1.00  0.00     0.002 C 
ENDROOT
BRANCH   1   2
ATOM      2  C   UNL A   1      32.062  27.123  26.139  1.00  0.00     0.021 C 
BRANCH   2   3
ATOM      3  C   UNL A   1      30.843  26.196  26.120  1.00  0.00     0.116 C 
BRANCH   3   4
ATOM      4  N   UNL A   1      31.041  25.020  26.940  1.00  0.00    -0.356 N 
ATOM      5  C   UNL A   1      31.709  23.871  26.640  1.00  0.00     0.224 C 
ATOM      6  O   UNL A   1      31.652  22.933  27.439  1.00  0.00    -0.275 OA
ATOM      7  H   UNL A   1      30.638  25.055  27.837  1.00  0.00     0.163 HD
BRANCH   5   8
ATOM      8  C   UNL A   1      32.497  23.740  25.349  1.00  0.00     0.137 C 
BRANCH   8   9
ATOM      9  C   UNL A   1      33.806  22.994  25.499  1.00  0.00    -0.015 A 
ATOM     10  C   UNL A   1      37.442  23.964  26.201  1.00  0.00     0.044 C 
ATOM     11  C   UNL A   1      36.219  23.151  25.901  1.00  0.00    -0.051 A 
ATOM     12  C   UNL A   1      36.323  21.777  25.696  1.00  0.00     0.005 A 
ATOM     13  C   UNL A   1      34.957  23.744  25.824  1.00  0.00     0.009 A 
ATOM     14  C   UNL A   1      35.184  21.017  25.421  1.00  0.00     0.026 A 
ATOM     15  C   UNL A   1      33.910  21.599  25.315  1.00  0.00     0.042 A 
BRANCH  15  16
ATOM     16  N   UNL A   1      32.762  20.804  25.105  1.00  0.00    -0.354 N 
ATOM     17  H   UNL A   1      32.015  20.965  25.724  1.00  0.00     0.167 HD
BRANCH  16  18
ATOM     18  C   UNL A   1      32.537  19.805  24.126  1.00  0.00     0.060 A 
ATOM     19  C   UNL A   1      32.631  18.430  24.430  1.00  0.00    -0.026 A 
ATOM     20  C   UNL A   1      32.282  20.186  22.791  1.00  0.00     0.064 A 
ATOM     21  C   UNL A   1      32.838  17.918  25.831  1.00  0.00     0.046 C 
ATOM     22  C   UNL A   1      32.526  17.485  23.393  1.00  0.00     0.005 A 
ATOM     23  C   UNL A   1      32.159  19.234  21.777  1.00  0.00     0.023 A 
ATOM     24  Cl  UNL A   1      32.145  21.857  22.352  1.00  0.00    -0.082 Cl
ATOM     25  C   UNL A   1      32.292  17.883  22.078  1.00  0.00     0.002 A 
ENDBRANCH  16  18
ENDBRANCH  15  16
ENDBRANCH   8   9
ENDBRANCH   5   8
ENDBRANCH   3   4
ENDBRANCH   2   3
ENDBRANCH   1   2
BRANCH   1  26
ATOM     26  C   UNL A   1      32.332  29.722  26.070  1.00  0.00     0.002 C 
BRANCH  26  27
ATOM     27  C   UNL A   1      33.721  30.236  26.454  1.00  0.00     0.021 C 
BRANCH  27  28
ATOM     28  C   UNL A   1      33.848  30.685  27.902  1.00  0.00     0.116 C 
BRANCH  28  29
ATOM     29  N   UNL A   1      34.806  31.765  28.098  1.00  0.00    -0.352 N 
ATOM     30  C   UNL A   1      36.157  31.720  28.397  1.00  0.00     0.251 C 
ATOM     31  H   UNL A   1      34.433  32.670  28.004  1.00  0.00     0.163 HD
ATOM     32  O   UNL A   1      36.765  32.757  28.600  1.00  0.00    -0.269 OA
BRANCH  30  33
ATOM     33  C   UNL A   1      36.899  30.432  28.310  1.00  0.00     0.039 A 
ATOM     34  C   UNL A   1      36.933  29.641  29.466  1.00  0.00     0.014 A 
ATOM     35  C   UNL A   1      37.727  30.127  27.237  1.00  0.00     0.014 A 
ATOM     36  C   UNL A   1      37.986  28.751  29.654  1.00  0.00     0.010 A 
ATOM     37  C   UNL A   1      38.827  29.324  27.457  1.00  0.00     0.010 A 
ATOM     38  C   UNL A   1      38.997  28.710  28.700  1.00  0.00    -0.014 A 
BRANCH  38  39
ATOM     39  C   UNL A   1      40.337  28.214  28.977  1.00  0.00     0.031 A 
ATOM     40  C   UNL A   1      40.777  26.902  28.480  1.00  0.00     0.074 A 
ATOM     41  C   UNL A   1      41.220  29.041  29.580  1.00  0.00     0.049 A 
ATOM     42  N   UNL A   1      41.829  26.293  28.911  1.00  0.00    -0.248 NA
ATOM     43  C   UNL A   1      40.018  26.122  27.507  1.00  0.00     0.031 C 
ATOM     44  C   UNL A   1      42.674  28.922  29.632  1.00  0.00     0.029 A 
ATOM     45  N   UNL A   1      40.926  30.068  30.478  1.00  0.00    -0.354 N 
ATOM     46  C   UNL A   1      42.067  25.245  28.060  1.00  0.00     0.074 A 
ATOM     47  C   UNL A   1      40.843  25.088  27.313  1.00  0.00     0.031 C 
ATOM     48  C   UNL A   1      43.130  29.642  30.670  1.00  0.00     0.029 A 
ATOM     49  C   UNL A   1      41.972  30.095  31.421  1.00  0.00     0.049 A 
ATOM     50  H   UNL A   1      40.139  30.660  30.457  1.00  0.00     0.167 HD
ATOM     51  C   UNL A   1      43.329  24.737  27.987  1.00  0.00     0.031 A 
ATOM     52  C   UNL A   1      41.727  29.792  32.730  1.00  0.00     0.031 A 
ATOM     53  C   UNL A   1      44.185  25.234  29.070  1.00  0.00     0.049 A 
ATOM     54  C   UNL A   1      42.449  28.557  33.242  1.00  0.00     0.074 A 
ATOM     55  C   UNL A   1      45.285  26.071  29.146  1.00  0.00     0.029 A 
ATOM     56  N   UNL A   1      43.765  25.042  30.378  1.00  0.00    -0.354 N 
ATOM     57  N   UNL A   1      43.192  27.773  32.510  1.00  0.00    -0.248 NA
ATOM     58  C   UNL A   1      42.299  28.055  34.609  1.00  0.00     0.031 C 
ATOM     59  C   UNL A   1      45.508  26.388  30.520  1.00  0.00     0.029 A 
ATOM     60  C   UNL A   1      44.562  25.722  31.276  1.00  0.00     0.049 A 
ATOM     61  H   UNL A   1      42.993  24.487  30.635  1.00  0.00     0.167 HD
ATOM     62  C   UNL A   1      43.551  26.670  33.237  1.00  0.00     0.074 A 
ATOM     63  C   UNL A   1      42.975  26.894  34.550  1.00  0.00     0.031 C 
ATOM     64  C   UNL A   1      44.247  25.629  32.693  1.00  0.00     0.031 A 
BRANCH  51  65
ATOM     65  C   UNL A   1      43.855  23.931  26.818  1.00  0.00    -0.014 A 
ATOM     66  C   UNL A   1      45.045  23.197  26.965  1.00  0.00     0.009 A 
ATOM     67  C   UNL A   1      43.296  23.926  25.526  1.00  0.00     0.009 A 
ATOM     68  C   UNL A   1      45.654  22.535  25.886  1.00  0.00     0.001 A 
ATOM     69  C   UNL A   1      43.884  23.253  24.447  1.00  0.00     0.001 A 
ATOM     70  C   UNL A   1      45.073  22.565  24.625  1.00  0.00     0.000 A 
ENDBRANCH  51  65
BRANCH  52  71
ATOM     71  C   UNL A   1      40.375  30.228  33.188  1.00  0.00    -0.014 A 
ATOM     72  C   UNL A   1      40.113  31.610  33.287  1.00  0.00     0.009 A 
ATOM     73  C   UNL A   1      39.288  29.342  33.168  1.00  0.00     0.009 A 
ATOM     74  C   UNL A   1      38.804  32.096  33.245  1.00  0.00     0.001 A 
ATOM     75  C   UNL A   1      37.978  29.833  33.144  1.00  0.00     0.001 A 
ATOM     76  C   UNL A   1      37.738  31.207  33.145  1.00  0.00     0.000 A 
ENDBRANCH  52  71
BRANCH  64  77
ATOM     77  C   UNL A   1      44.645  24.388  33.450  1.00  0.00    -0.014 A 
ATOM     78  C   UNL A   1      43.717  23.466  33.952  1.00  0.00     0.009 A 
ATOM     79  C   UNL A   1      46.000  24.171  33.782  1.00  0.00     0.009 A 
ATOM     80  C   UNL A   1      44.130  22.348  34.691  1.00  0.00     0.001 A 
ATOM     81  C   UNL A   1      46.414  23.072  34.539  1.00  0.00     0.001 A 
ATOM     82  C   UNL A   1      45.478  22.152  34.983  1.00  0.00     0.000 A 
ENDBRANCH  64  77
ENDBRANCH  38  39
ENDBRANCH  30  33
ENDBRANCH  28  29
ENDBRANCH  27  28
ENDBRANCH  26  27
ENDBRANCH   1  26
TORSDOF 16
ENDMDL
MODEL 3
REMARK VINA RESULT:     -11.2      2.079      2.988
REMARK SMILES Cc1ccc(Nc2c(C)cccc2Cl)c(CC(=O)NCCCCCCNC(=O)c2ccc(-c3c4nc(c(-c5ccccc5)c5ccc([nH]5)c(-c5ccccc5)c5nc(c(-c6ccccc6)c6ccc3[nH]6)C=C5)C=C4)cc2)c1
REMARK SMILES IDX 22 1 21 2 20 3 19 4 17 5 18 6 16 8 15 9 1 10 2 11 3 12 77 13
REMARK SMILES IDX 4 14 5 15 6 16 7 18 8 19 13 20 9 21 10 22 12 23 14 24 11 25
REMARK SMILES IDX 23 26 24 27 25 28 26 29 27 30 28 32 29 33 30 34 76 35 31 36
REMARK SMILES IDX 75 37 32 38 33 39 34 40 69 41 35 42 74 43 68 44 70 45 36 46
REMARK SMILES IDX 73 47 67 48 66 49 37 51 59 52 44 53 58 54 45 55 48 56 57 57
REMARK SMILES IDX 71 58 46 59 47 60 56 62 72 63 49 64 38 65 39 66 43 67 40 68
REMARK SMILES IDX 42 69 41 70 60 71 61 72 65 73 62 74 64 75 63 76 50 77 51 78
REMARK SMILES IDX 55 79 52 80 54 81 53 82
REMARK H PARENT 19 7 6 17 26 31 70 50 48 61
REMARK Flexibility Score: inf
ROOT
ATOM      1  C   UNL A   1      32.069  28.425  26.171  1.00  0.00     0.002 C 
ENDROOT
BRANCH   1   2
ATOM      2  C   UNL A   1      33.375  27.615  26.166  1.00  0.00     0.021 C 
BRANCH   2   3
ATOM      3  C   UNL A   1      33.504  26.594  25.033  1.00  0.00     0.116 C 
BRANCH   3   4
ATOM      4  N   UNL A   1      33.914  27.211  23.789  1.00  0.00    -0.356 N 
ATOM      5  C   UNL A   1      33.479  26.956  22.524  1.00  0.00     0.224 C 
ATOM      6  O   UNL A   1      34.053  27.510  21.583  1.00  0.00    -0.275 OA
ATOM      7  H   UNL A   1      34.602  27.911  23.869  1.00  0.00     0.163 HD
BRANCH   5   8
ATOM      8  C   UNL A   1      32.324  26.003  22.273  1.00  0.00     0.137 C 
BRANCH   8   9
ATOM      9  C   UNL A   1      30.976  26.545  22.701  1.00  0.00    -0.015 A 
ATOM     10  C   UNL A   1      29.178  29.916  22.456  1.00  0.00     0.044 C 
ATOM     11  C   UNL A   1      29.479  28.485  22.784  1.00  0.00    -0.051 A 
ATOM     12  C   UNL A   1      28.572  27.730  23.524  1.00  0.00     0.005 A 
ATOM     13  C   UNL A   1      30.663  27.879  22.359  1.00  0.00     0.009 A 
ATOM     14  C   UNL A   1      28.850  26.394  23.828  1.00  0.00     0.026 A 
ATOM     15  C   UNL A   1      30.045  25.775  23.430  1.00  0.00     0.042 A 
BRANCH  15  16
ATOM     16  N   UNL A   1      30.276  24.405  23.688  1.00  0.00    -0.354 N 
ATOM     17  H   UNL A   1      29.805  23.777  23.094  1.00  0.00     0.167 HD
BRANCH  16  18
ATOM     18  C   UNL A   1      31.089  23.810  24.682  1.00  0.00     0.060 A 
ATOM     19  C   UNL A   1      30.977  24.162  26.045  1.00  0.00    -0.026 A 
ATOM     20  C   UNL A   1      32.093  22.892  24.301  1.00  0.00     0.064 A 
ATOM     21  C   UNL A   1      29.903  25.080  26.563  1.00  0.00     0.046 C 
ATOM     22  C   UNL A   1      31.896  23.636  26.972  1.00  0.00     0.005 A 
ATOM     23  C   UNL A   1      32.984  22.364  25.237  1.00  0.00     0.023 A 
ATOM     24  Cl  UNL A   1      32.279  22.412  22.647  1.00  0.00    -0.082 Cl
ATOM     25  C   UNL A   1      32.892  22.746  26.572  1.00  0.00     0.002 A 
ENDBRANCH  16  18
ENDBRANCH  15  16
ENDBRANCH   8   9
ENDBRANCH   5   8
ENDBRANCH   3   4
ENDBRANCH   2   3
ENDBRANCH   1   2
BRANCH   1  26
ATOM     26  C   UNL A   1      32.172  29.891  26.620  1.00  0.00     0.002 C 
BRANCH  26  27
ATOM     27  C   UNL A   1      33.287  30.208  27.619  1.00  0.00     0.021 C 
BRANCH  27  28
ATOM     28  C   UNL A   1      34.057  31.486  27.318  1.00  0.00     0.116 C 
BRANCH  28  29
ATOM     29  N   UNL A   1      34.638  32.110  28.499  1.00  0.00    -0.352 N 
ATOM     30  C   UNL A   1      35.622  31.655  29.361  1.00  0.00     0.251 C 
ATOM     31  H   UNL A   1      34.273  32.997  28.720  1.00  0.00     0.163 HD
ATOM     32  O   UNL A   1      35.909  32.309  30.349  1.00  0.00    -0.269 OA
BRANCH  30  33
ATOM     33  C   UNL A   1      36.436  30.462  29.001  1.00  0.00     0.039 A 
ATOM     34  C   UNL A   1      36.525  29.443  29.959  1.00  0.00     0.014 A 
ATOM     35  C   UNL A   1      37.272  30.445  27.891  1.00  0.00     0.014 A 
ATOM     36  C   UNL A   1      37.628  28.596  29.954  1.00  0.00     0.010 A 
ATOM     37  C   UNL A   1      38.418  29.679  27.937  1.00  0.00     0.010 A 
ATOM     38  C   UNL A   1      38.632  28.820  29.019  1.00  0.00    -0.014 A 
BRANCH  38  39
ATOM     39  C   UNL A   1      40.001  28.356  29.189  1.00  0.00     0.031 A 
ATOM     40  C   UNL A   1      40.423  27.041  28.683  1.00  0.00     0.074 A 
ATOM     41  C   UNL A   1      40.917  29.211  29.695  1.00  0.00     0.049 A 
ATOM     42  N   UNL A   1      41.520  26.460  29.033  1.00  0.00    -0.248 NA
ATOM     43  C   UNL A   1      39.598  26.226  27.796  1.00  0.00     0.031 C 
ATOM     44  C   UNL A   1      42.372  29.119  29.623  1.00  0.00     0.029 A 
ATOM     45  N   UNL A   1      40.681  30.253  30.594  1.00  0.00    -0.354 N 
ATOM     46  C   UNL A   1      41.704  25.398  28.186  1.00  0.00     0.074 A 
ATOM     47  C   UNL A   1      40.423  25.203  27.551  1.00  0.00     0.031 C 
ATOM     48  C   UNL A   1      42.901  29.870  30.602  1.00  0.00     0.029 A 
ATOM     49  C   UNL A   1      41.804  30.319  31.442  1.00  0.00     0.049 A 
ATOM     50  H   UNL A   1      39.884  30.829  30.630  1.00  0.00     0.167 HD
ATOM     51  C   UNL A   1      42.964  24.911  28.014  1.00  0.00     0.031 A 
ATOM     52  C   UNL A   1      41.679  30.041  32.774  1.00  0.00     0.031 A 
ATOM     53  C   UNL A   1      43.901  25.447  29.008  1.00  0.00     0.049 A 
ATOM     54  C   UNL A   1      42.468  28.831  33.246  1.00  0.00     0.074 A 
ATOM     55  C   UNL A   1      44.987  26.305  28.971  1.00  0.00     0.029 A 
ATOM     56  N   UNL A   1      43.600  25.277  30.352  1.00  0.00    -0.354 N 
ATOM     57  N   UNL A   1      43.159  28.044  32.469  1.00  0.00    -0.248 NA
ATOM     58  C   UNL A   1      42.446  28.356  34.631  1.00  0.00     0.031 C 
ATOM     59  C   UNL A   1      45.322  26.657  30.314  1.00  0.00     0.029 A 
ATOM     60  C   UNL A   1      44.458  25.990  31.163  1.00  0.00     0.049 A 
ATOM     61  H   UNL A   1      42.864  24.714  30.687  1.00  0.00     0.167 HD
ATOM     62  C   UNL A   1      43.602  26.964  33.184  1.00  0.00     0.074 A 
ATOM     63  C   UNL A   1      43.137  27.207  34.537  1.00  0.00     0.031 C 
ATOM     64  C   UNL A   1      44.268  25.924  32.604  1.00  0.00     0.031 A 
BRANCH  51  65
ATOM     65  C   UNL A   1      43.403  24.088  26.821  1.00  0.00    -0.014 A 
ATOM     66  C   UNL A   1      43.402  22.685  26.910  1.00  0.00     0.009 A 
ATOM     67  C   UNL A   1      43.922  24.618  25.624  1.00  0.00     0.009 A 
ATOM     68  C   UNL A   1      43.917  21.870  25.890  1.00  0.00     0.001 A 
ATOM     69  C   UNL A   1      44.421  23.813  24.591  1.00  0.00     0.001 A 
ATOM     70  C   UNL A   1      44.429  22.436  24.730  1.00  0.00     0.000 A 
ENDBRANCH  51  65
BRANCH  52  71
ATOM     71  C   UNL A   1      40.364  30.463  33.338  1.00  0.00    -0.014 A 
ATOM     72  C   UNL A   1      40.155  31.832  33.602  1.00  0.00     0.009 A 
ATOM     73  C   UNL A   1      39.247  29.617  33.269  1.00  0.00     0.009 A 
ATOM     74  C   UNL A   1      38.862  32.358  33.674  1.00  0.00     0.001 A 
ATOM     75  C   UNL A   1      37.954  30.147  33.359  1.00  0.00     0.001 A 
ATOM     76  C   UNL A   1      37.763  31.519  33.524  1.00  0.00     0.000 A 
ENDBRANCH  52  71
BRANCH  64  77
ATOM     77  C   UNL A   1      44.755  24.707  33.348  1.00  0.00    -0.014 A 
ATOM     78  C   UNL A   1      46.104  24.489  33.657  1.00  0.00     0.009 A 
ATOM     79  C   UNL A   1      43.853  23.668  33.665  1.00  0.00     0.009 A 
ATOM     80  C   UNL A   1      46.519  23.319  34.311  1.00  0.00     0.001 A 
ATOM     81  C   UNL A   1      44.265  22.491  34.294  1.00  0.00     0.001 A 
ATOM     82  C   UNL A   1      45.600  22.322  34.629  1.00  0.00     0.000 A 
ENDBRANCH  64  77
ENDBRANCH  38  39
ENDBRANCH  30  33
ENDBRANCH  28  29
ENDBRANCH  27  28
ENDBRANCH  26  27
ENDBRANCH   1  26
TORSDOF 16
ENDMDL
