MODEL 1
REMARK VINA RESULT:     -12.0      0.000      0.000
REMARK SMILES C[C@H](C(=O)NCCCCCCNC(=O)c1ccc(-c2c3nc(c(-c4ccccc4)c4ccc([nH]4)c(-c4ccccc4)c4nc(c(-c5ccccc5)c5ccc2[nH]5)C=C4)C=C3)cc1)c1ccc2c3cc(Cl)ccc3n(C(=O)c3cocn3)c2c1
REMARK SMILES IDX 8 1 7 2 6 3 5 4 3 5 4 6 2 8 1 9 63 10 64 11 83 12 65 13
REMARK SMILES IDX 82 14 66 15 74 16 67 17 73 18 68 19 72 20 69 21 71 22 70 23
REMARK SMILES IDX 75 24 76 25 77 26 78 27 81 28 79 29 80 30 9 31 10 32 11 33
REMARK SMILES IDX 12 34 13 35 14 37 15 38 16 39 62 40 17 41 61 42 18 43 19 44
REMARK SMILES IDX 20 45 55 46 21 47 60 48 54 49 56 50 22 51 59 52 53 53 52 54
REMARK SMILES IDX 23 56 45 57 30 58 44 59 31 60 34 61 43 62 57 63 32 64 33 65
REMARK SMILES IDX 42 67 58 68 35 69 24 70 25 71 29 72 26 73 28 74 27 75 46 76
REMARK SMILES IDX 47 77 51 78 48 79 50 80 49 81 36 82 37 83 41 84 38 85 40 86
REMARK SMILES IDX 39 87
REMARK H PARENT 5 7 12 36 56 55 34 66
REMARK Flexibility Score: inf
ROOT
ATOM      1  C   UNL A   1      31.808  29.670  25.648  1.00  0.00     0.002 C 
ENDROOT
BRANCH   1   2
ATOM      2  C   UNL A   1      32.474  28.294  25.734  1.00  0.00     0.021 C 
BRANCH   2   3
ATOM      3  C   UNL A   1      31.588  27.125  25.281  1.00  0.00     0.116 C 
BRANCH   3   4
ATOM      4  N   UNL A   1      30.840  27.486  24.090  1.00  0.00    -0.356 N 
ATOM      5  C   UNL A   1      31.010  27.225  22.767  1.00  0.00     0.227 C 
ATOM      6  O   UNL A   1      30.262  27.874  22.020  1.00  0.00    -0.274 OA
ATOM      7  H   UNL A   1      30.043  28.033  24.281  1.00  0.00     0.163 HD
BRANCH   5   8
ATOM      8  C   UNL A   1      31.920  26.130  22.173  1.00  0.00     0.105 C 
ATOM      9  C   UNL A   1      33.282  26.736  21.808  1.00  0.00     0.023 C 
BRANCH   8  10
ATOM     10  C   UNL A   1      32.129  24.843  22.952  1.00  0.00    -0.034 A 
ATOM     11  C   UNL A   1      31.085  24.206  23.617  1.00  0.00     0.005 A 
ATOM     12  C   UNL A   1      33.419  24.281  23.006  1.00  0.00     0.032 A 
ATOM     13  C   UNL A   1      31.248  22.905  24.106  1.00  0.00     0.011 A 
ATOM     14  C   UNL A   1      33.605  23.014  23.600  1.00  0.00     0.058 A 
ATOM     15  C   UNL A   1      32.509  22.280  24.036  1.00  0.00     0.008 A 
ATOM     16  N   UNL A   1      34.769  22.263  23.855  1.00  0.00    -0.274 N 
ATOM     17  C   UNL A   1      32.964  20.959  24.276  1.00  0.00     0.009 A 
ATOM     18  C   UNL A   1      34.366  20.974  24.254  1.00  0.00     0.057 A 
ATOM     19  C   UNL A   1      32.274  19.753  24.533  1.00  0.00     0.031 A 
ATOM     20  C   UNL A   1      35.077  19.824  24.657  1.00  0.00     0.029 A 
ATOM     21  C   UNL A   1      32.993  18.593  24.801  1.00  0.00     0.041 A 
ATOM     22  C   UNL A   1      34.375  18.635  24.898  1.00  0.00     0.023 A 
ATOM     23  Cl  UNL A   1      32.156  17.108  25.031  1.00  0.00    -0.084 Cl
BRANCH  16  24
ATOM     24  C   UNL A   1      36.087  22.800  23.742  1.00  0.00     0.284 C 
ATOM     25  O   UNL A   1      36.466  23.049  22.598  1.00  0.00    -0.266 OA
BRANCH  24  26
ATOM     26  C   UNL A   1      37.005  23.067  24.844  1.00  0.00     0.167 A 
ATOM     27  C   UNL A   1      36.918  24.011  25.843  1.00  0.00     0.231 A 
ATOM     28  N   UNL A   1      38.084  22.236  25.122  1.00  0.00    -0.211 NA
ATOM     29  O   UNL A   1      37.945  23.812  26.720  1.00  0.00    -0.451 OA
ATOM     30  C   UNL A   1      38.589  22.719  26.231  1.00  0.00     0.308 A 
ENDBRANCH  24  26
ENDBRANCH  16  24
ENDBRANCH   8  10
ENDBRANCH   5   8
ENDBRANCH   3   4
ENDBRANCH   2   3
ENDBRANCH   1   2
BRANCH   1  31
ATOM     31  C   UNL A   1      31.764  30.451  26.964  1.00  0.00     0.002 C 
BRANCH  31  32
ATOM     32  C   UNL A   1      31.619  31.970  26.825  1.00  0.00     0.021 C 
BRANCH  32  33
ATOM     33  C   UNL A   1      32.871  32.775  27.174  1.00  0.00     0.116 C 
BRANCH  33  34
ATOM     34  N   UNL A   1      32.551  34.135  27.578  1.00  0.00    -0.352 N 
ATOM     35  C   UNL A   1      33.056  34.884  28.612  1.00  0.00     0.251 C 
ATOM     36  H   UNL A   1      31.871  34.586  27.028  1.00  0.00     0.163 HD
ATOM     37  O   UNL A   1      32.517  35.938  28.933  1.00  0.00    -0.269 OA
BRANCH  35  38
ATOM     38  C   UNL A   1      34.248  34.418  29.353  1.00  0.00     0.039 A 
ATOM     39  C   UNL A   1      34.074  33.792  30.591  1.00  0.00     0.014 A 
ATOM     40  C   UNL A   1      35.532  34.616  28.839  1.00  0.00     0.014 A 
ATOM     41  C   UNL A   1      35.185  33.305  31.284  1.00  0.00     0.010 A 
ATOM     42  C   UNL A   1      36.634  34.082  29.504  1.00  0.00     0.010 A 
ATOM     43  C   UNL A   1      36.470  33.416  30.729  1.00  0.00    -0.014 A 
BRANCH  43  44
ATOM     44  C   UNL A   1      37.654  32.822  31.398  1.00  0.00     0.031 A 
ATOM     45  C   UNL A   1      38.361  31.646  30.786  1.00  0.00     0.074 A 
ATOM     46  C   UNL A   1      38.036  33.288  32.603  1.00  0.00     0.049 A 
ATOM     47  N   UNL A   1      39.346  30.932  31.273  1.00  0.00    -0.248 NA
ATOM     48  C   UNL A   1      37.887  31.200  29.467  1.00  0.00     0.031 C 
ATOM     49  C   UNL A   1      37.409  34.398  33.321  1.00  0.00     0.029 A 
ATOM     50  N   UNL A   1      39.034  32.868  33.447  1.00  0.00    -0.354 N 
ATOM     51  C   UNL A   1      39.589  29.938  30.333  1.00  0.00     0.074 A 
ATOM     52  C   UNL A   1      38.634  30.123  29.262  1.00  0.00     0.031 C 
ATOM     53  C   UNL A   1      38.040  34.577  34.493  1.00  0.00     0.029 A 
ATOM     54  C   UNL A   1      39.087  33.570  34.627  1.00  0.00     0.049 A 
ATOM     55  H   UNL A   1      39.654  32.134  33.227  1.00  0.00     0.167 HD
ATOM     56  C   UNL A   1      40.530  28.963  30.358  1.00  0.00     0.031 A 
ATOM     57  C   UNL A   1      39.877  33.408  35.705  1.00  0.00     0.031 A 
ATOM     58  C   UNL A   1      41.494  28.792  31.412  1.00  0.00     0.049 A 
ATOM     59  C   UNL A   1      40.906  32.313  35.709  1.00  0.00     0.074 A 
ATOM     60  C   UNL A   1      42.541  27.889  31.482  1.00  0.00     0.029 A 
ATOM     61  N   UNL A   1      41.524  29.533  32.582  1.00  0.00    -0.354 N 
ATOM     62  N   UNL A   1      41.178  31.434  34.777  1.00  0.00    -0.248 NA
ATOM     63  C   UNL A   1      41.738  32.191  36.915  1.00  0.00     0.031 C 
ATOM     64  C   UNL A   1      43.174  28.050  32.718  1.00  0.00     0.029 A 
ATOM     65  C   UNL A   1      42.550  29.085  33.396  1.00  0.00     0.049 A 
ATOM     66  H   UNL A   1      40.907  30.268  32.802  1.00  0.00     0.167 HD
ATOM     67  C   UNL A   1      42.224  30.667  35.274  1.00  0.00     0.074 A 
ATOM     68  C   UNL A   1      42.547  31.195  36.583  1.00  0.00     0.031 C 
ATOM     69  C   UNL A   1      42.857  29.618  34.698  1.00  0.00     0.031 A 
BRANCH  56  70
ATOM     70  C   UNL A   1      40.558  27.993  29.211  1.00  0.00    -0.014 A 
ATOM     71  C   UNL A   1      41.360  28.223  28.082  1.00  0.00     0.009 A 
ATOM     72  C   UNL A   1      39.813  26.807  29.288  1.00  0.00     0.009 A 
ATOM     73  C   UNL A   1      41.391  27.295  27.039  1.00  0.00     0.001 A 
ATOM     74  C   UNL A   1      39.865  25.870  28.254  1.00  0.00     0.001 A 
ATOM     75  C   UNL A   1      40.647  26.119  27.128  1.00  0.00     0.000 A 
ENDBRANCH  56  70
BRANCH  57  76
ATOM     76  C   UNL A   1      39.720  34.302  36.882  1.00  0.00    -0.014 A 
ATOM     77  C   UNL A   1      38.983  33.884  37.999  1.00  0.00     0.009 A 
ATOM     78  C   UNL A   1      40.301  35.580  36.888  1.00  0.00     0.009 A 
ATOM     79  C   UNL A   1      38.806  34.739  39.089  1.00  0.00     0.001 A 
ATOM     80  C   UNL A   1      40.145  36.422  37.991  1.00  0.00     0.001 A 
ATOM     81  C   UNL A   1      39.391  36.005  39.086  1.00  0.00     0.000 A 
ENDBRANCH  57  76
BRANCH  69  82
ATOM     82  C   UNL A   1      43.977  28.984  35.469  1.00  0.00    -0.014 A 
ATOM     83  C   UNL A   1      45.295  29.446  35.342  1.00  0.00     0.009 A 
ATOM     84  C   UNL A   1      43.701  27.944  36.371  1.00  0.00     0.009 A 
ATOM     85  C   UNL A   1      46.321  28.861  36.088  1.00  0.00     0.001 A 
ATOM     86  C   UNL A   1      44.724  27.379  37.132  1.00  0.00     0.001 A 
ATOM     87  C   UNL A   1      46.034  27.834  36.985  1.00  0.00     0.000 A 
ENDBRANCH  69  82
ENDBRANCH  43  44
ENDBRANCH  35  38
ENDBRANCH  33  34
ENDBRANCH  32  33
ENDBRANCH  31  32
ENDBRANCH   1  31
TORSDOF 16
ENDMDL
MODEL 2
REMARK VINA RESULT:     -12.0      2.102      3.179
REMARK SMILES C[C@H](C(=O)NCCCCCCNC(=O)c1ccc(-c2c3nc(c(-c4ccccc4)c4ccc([nH]4)c(-c4ccccc4)c4nc(c(-c5ccccc5)c5ccc2[nH]5)C=C4)C=C3)cc1)c1ccc2c3cc(Cl)ccc3n(C(=O)c3cocn3)c2c1
REMARK SMILES IDX 8 1 7 2 6 3 5 4 3 5 4 6 2 8 1 9 63 10 64 11 83 12 65 13
REMARK SMILES IDX 82 14 66 15 74 16 67 17 73 18 68 19 72 20 69 21 71 22 70 23
REMARK SMILES IDX 75 24 76 25 77 26 78 27 81 28 79 29 80 30 9 31 10 32 11 33
REMARK SMILES IDX 12 34 13 35 14 37 15 38 16 39 62 40 17 41 61 42 18 43 19 44
REMARK SMILES IDX 20 45 55 46 21 47 60 48 54 49 56 50 22 51 59 52 53 53 52 54
REMARK SMILES IDX 23 56 45 57 30 58 44 59 31 60 34 61 43 62 57 63 32 64 33 65
REMARK SMILES IDX 42 67 58 68 35 69 24 70 25 71 29 72 26 73 28 74 27 75 46 76
REMARK SMILES IDX 47 77 51 78 48 79 50 80 49 81 36 82 37 83 41 84 38 85 40 86
REMARK SMILES IDX 39 87
REMARK H PARENT 5 7 12 36 56 55 34 66
REMARK Flexibility Score: inf
ROOT
ATOM      1  C   UNL A   1      32.923  28.974  27.168  1.00  0.00     0.002 C 
ENDROOT
BRANCH   1   2
ATOM      2  C   UNL A   1      33.121  28.077  25.943  1.00  0.00     0.021 C 
BRANCH   2   3
ATOM      3  C   UNL A   1      32.731  26.608  26.156  1.00  0.00     0.116 C 
BRANCH   3   4
ATOM      4  N   UNL A   1      31.312  26.418  25.915  1.00  0.00    -0.356 N 
ATOM      5  C   UNL A   1      30.585  26.123  24.806  1.00  0.00     0.227 C 
ATOM      6  O   UNL A   1      29.359  26.234  24.955  1.00  0.00    -0.274 OA
ATOM      7  H   UNL A   1      30.762  26.525  26.725  1.00  0.00     0.163 HD
BRANCH   5   8
ATOM      8  C   UNL A   1      31.146  25.550  23.487  1.00  0.00     0.105 C 
ATOM      9  C   UNL A   1      31.269  26.675  22.449  1.00  0.00     0.023 C 
BRANCH   8  10
ATOM     10  C   UNL A   1      32.435  24.748  23.520  1.00  0.00    -0.034 A 
ATOM     11  C   UNL A   1      33.657  25.301  23.147  1.00  0.00     0.005 A 
ATOM     12  C   UNL A   1      32.391  23.403  23.937  1.00  0.00     0.032 A 
ATOM     13  C   UNL A   1      34.852  24.629  23.427  1.00  0.00     0.011 A 
ATOM     14  C   UNL A   1      33.594  22.687  24.113  1.00  0.00     0.058 A 
ATOM     15  C   UNL A   1      34.817  23.331  23.976  1.00  0.00     0.008 A 
ATOM     16  N   UNL A   1      33.840  21.339  24.440  1.00  0.00    -0.274 N 
ATOM     17  C   UNL A   1      35.803  22.468  24.517  1.00  0.00     0.009 A 
ATOM     18  C   UNL A   1      35.214  21.210  24.715  1.00  0.00     0.057 A 
ATOM     19  C   UNL A   1      37.166  22.667  24.830  1.00  0.00     0.031 A 
ATOM     20  C   UNL A   1      36.029  20.111  25.062  1.00  0.00     0.029 A 
ATOM     21  C   UNL A   1      37.927  21.601  25.298  1.00  0.00     0.041 A 
ATOM     22  C   UNL A   1      37.377  20.332  25.379  1.00  0.00     0.023 A 
ATOM     23  Cl  UNL A   1      39.564  21.864  25.757  1.00  0.00    -0.084 Cl
BRANCH  16  24
ATOM     24  C   UNL A   1      32.825  20.335  24.435  1.00  0.00     0.284 C 
ATOM     25  O   UNL A   1      31.871  20.534  25.187  1.00  0.00    -0.266 OA
BRANCH  24  26
ATOM     26  C   UNL A   1      32.825  19.115  23.634  1.00  0.00     0.167 A 
ATOM     27  C   UNL A   1      33.270  17.854  23.965  1.00  0.00     0.231 A 
ATOM     28  N   UNL A   1      32.191  19.043  22.400  1.00  0.00    -0.211 NA
ATOM     29  O   UNL A   1      32.962  17.002  22.945  1.00  0.00    -0.451 OA
ATOM     30  C   UNL A   1      32.299  17.784  22.051  1.00  0.00     0.308 A 
ENDBRANCH  24  26
ENDBRANCH  16  24
ENDBRANCH   8  10
ENDBRANCH   5   8
ENDBRANCH   3   4
ENDBRANCH   2   3
ENDBRANCH   1   2
BRANCH   1  31
ATOM     31  C   UNL A   1      31.581  29.711  27.219  1.00  0.00     0.002 C 
BRANCH  31  32
ATOM     32  C   UNL A   1      31.575  31.113  26.599  1.00  0.00     0.021 C 
BRANCH  32  33
ATOM     33  C   UNL A   1      32.828  31.945  26.867  1.00  0.00     0.116 C 
BRANCH  33  34
ATOM     34  N   UNL A   1      32.505  33.290  27.315  1.00  0.00    -0.352 N 
ATOM     35  C   UNL A   1      33.115  34.067  28.269  1.00  0.00     0.251 C 
ATOM     36  H   UNL A   1      31.732  33.707  26.868  1.00  0.00     0.163 HD
ATOM     37  O   UNL A   1      32.576  35.096  28.666  1.00  0.00    -0.269 OA
BRANCH  35  38
ATOM     38  C   UNL A   1      34.420  33.661  28.833  1.00  0.00     0.039 A 
ATOM     39  C   UNL A   1      34.443  32.887  29.997  1.00  0.00     0.014 A 
ATOM     40  C   UNL A   1      35.615  34.059  28.229  1.00  0.00     0.014 A 
ATOM     41  C   UNL A   1      35.665  32.456  30.518  1.00  0.00     0.010 A 
ATOM     42  C   UNL A   1      36.830  33.584  28.717  1.00  0.00     0.010 A 
ATOM     43  C   UNL A   1      36.866  32.773  29.863  1.00  0.00    -0.014 A 
BRANCH  43  44
ATOM     44  C   UNL A   1      38.169  32.248  30.341  1.00  0.00     0.031 A 
ATOM     45  C   UNL A   1      38.724  30.968  29.781  1.00  0.00     0.074 A 
ATOM     46  C   UNL A   1      38.808  32.877  31.345  1.00  0.00     0.049 A 
ATOM     47  N   UNL A   1      39.792  30.303  30.145  1.00  0.00    -0.248 NA
ATOM     48  C   UNL A   1      37.970  30.343  28.683  1.00  0.00     0.031 C 
ATOM     49  C   UNL A   1      38.355  34.105  32.001  1.00  0.00     0.029 A 
ATOM     50  N   UNL A   1      39.968  32.557  32.006  1.00  0.00    -0.354 N 
ATOM     51  C   UNL A   1      39.821  29.170  29.342  1.00  0.00     0.074 A 
ATOM     52  C   UNL A   1      38.653  29.222  28.491  1.00  0.00     0.031 C 
ATOM     53  C   UNL A   1      39.230  34.438  32.964  1.00  0.00     0.029 A 
ATOM     54  C   UNL A   1      40.281  33.428  33.021  1.00  0.00     0.049 A 
ATOM     55  H   UNL A   1      40.524  31.777  31.773  1.00  0.00     0.167 HD
ATOM     56  C   UNL A   1      40.745  28.179  29.313  1.00  0.00     0.031 A 
ATOM     57  C   UNL A   1      41.290  33.405  33.913  1.00  0.00     0.031 A 
ATOM     58  C   UNL A   1      41.918  28.137  30.144  1.00  0.00     0.049 A 
ATOM     59  C   UNL A   1      42.295  32.289  33.862  1.00  0.00     0.074 A 
ATOM     60  C   UNL A   1      42.955  27.219  30.123  1.00  0.00     0.029 A 
ATOM     61  N   UNL A   1      42.206  29.046  31.149  1.00  0.00    -0.354 N 
ATOM     62  N   UNL A   1      42.354  31.270  33.042  1.00  0.00    -0.248 NA
ATOM     63  C   UNL A   1      43.372  32.323  34.861  1.00  0.00     0.031 C 
ATOM     64  C   UNL A   1      43.845  27.545  31.151  1.00  0.00     0.029 A 
ATOM     65  C   UNL A   1      43.387  28.692  31.779  1.00  0.00     0.049 A 
ATOM     66  H   UNL A   1      41.652  29.827  31.380  1.00  0.00     0.167 HD
ATOM     67  C   UNL A   1      43.484  30.552  33.412  1.00  0.00     0.074 A 
ATOM     68  C   UNL A   1      44.089  31.261  34.520  1.00  0.00     0.031 C 
ATOM     69  C   UNL A   1      43.974  29.407  32.882  1.00  0.00     0.031 A 
BRANCH  56  70
ATOM     70  C   UNL A   1      40.518  27.045  28.353  1.00  0.00    -0.014 A 
ATOM     71  C   UNL A   1      39.743  25.931  28.711  1.00  0.00     0.009 A 
ATOM     72  C   UNL A   1      41.043  27.120  27.054  1.00  0.00     0.009 A 
ATOM     73  C   UNL A   1      39.523  24.901  27.795  1.00  0.00     0.001 A 
ATOM     74  C   UNL A   1      40.802  26.099  26.132  1.00  0.00     0.001 A 
ATOM     75  C   UNL A   1      40.049  24.988  26.506  1.00  0.00     0.000 A 
ENDBRANCH  56  70
BRANCH  57  76
ATOM     76  C   UNL A   1      41.397  34.473  34.941  1.00  0.00    -0.014 A 
ATOM     77  C   UNL A   1      42.105  35.652  34.670  1.00  0.00     0.009 A 
ATOM     78  C   UNL A   1      40.800  34.311  36.201  1.00  0.00     0.009 A 
ATOM     79  C   UNL A   1      42.234  36.639  35.650  1.00  0.00     0.001 A 
ATOM     80  C   UNL A   1      40.908  35.311  37.169  1.00  0.00     0.001 A 
ATOM     81  C   UNL A   1      41.633  36.470  36.896  1.00  0.00     0.000 A 
ENDBRANCH  57  76
BRANCH  69  82
ATOM     82  C   UNL A   1      45.237  28.859  33.479  1.00  0.00    -0.014 A 
ATOM     83  C   UNL A   1      46.495  29.265  33.009  1.00  0.00     0.009 A 
ATOM     84  C   UNL A   1      45.167  27.964  34.558  1.00  0.00     0.009 A 
ATOM     85  C   UNL A   1      47.660  28.765  33.594  1.00  0.00     0.001 A 
ATOM     86  C   UNL A   1      46.333  27.485  35.156  1.00  0.00     0.001 A 
ATOM     87  C   UNL A   1      47.578  27.882  34.670  1.00  0.00     0.000 A 
ENDBRANCH  69  82
ENDBRANCH  43  44
ENDBRANCH  35  38
ENDBRANCH  33  34
ENDBRANCH  32  33
ENDBRANCH  31  32
ENDBRANCH   1  31
TORSDOF 16
ENDMDL
MODEL 3
REMARK VINA RESULT:     -11.5      0.806      5.688
REMARK SMILES C[C@H](C(=O)NCCCCCCNC(=O)c1ccc(-c2c3nc(c(-c4ccccc4)c4ccc([nH]4)c(-c4ccccc4)c4nc(c(-c5ccccc5)c5ccc2[nH]5)C=C4)C=C3)cc1)c1ccc2c3cc(Cl)ccc3n(C(=O)c3cocn3)c2c1
REMARK SMILES IDX 8 1 7 2 6 3 5 4 3 5 4 6 2 8 1 9 63 10 64 11 83 12 65 13
REMARK SMILES IDX 82 14 66 15 74 16 67 17 73 18 68 19 72 20 69 21 71 22 70 23
REMARK SMILES IDX 75 24 76 25 77 26 78 27 81 28 79 29 80 30 9 31 10 32 11 33
REMARK SMILES IDX 12 34 13 35 14 37 15 38 16 39 62 40 17 41 61 42 18 43 19 44
REMARK SMILES IDX 20 45 55 46 21 47 60 48 54 49 56 50 22 51 59 52 53 53 52 54
REMARK SMILES IDX 23 56 45 57 30 58 44 59 31 60 34 61 43 62 57 63 32 64 33 65
REMARK SMILES IDX 42 67 58 68 35 69 24 70 25 71 29 72 26 73 28 74 27 75 46 76
REMARK SMILES IDX 47 77 51 78 48 79 50 80 49 81 36 82 37 83 41 84 38 85 40 86
REMARK SMILES IDX 39 87
REMARK H PARENT 5 7 12 36 56 55 34 66
REMARK Flexibility Score: inf
ROOT
ATOM      1  C   UNL A   1      31.815  30.121  25.401  1.00  0.00     0.002 C 
ENDROOT
BRANCH   1   2
ATOM      2  C   UNL A   1      32.807  28.958  25.486  1.00  0.00     0.021 C 
BRANCH   2   3
ATOM      3  C   UNL A   1      32.163  27.564  25.456  1.00  0.00     0.116 C 
BRANCH   3   4
ATOM      4  N   UNL A   1      31.011  27.555  24.574  1.00  0.00    -0.356 N 
ATOM      5  C   UNL A   1      30.787  27.036  23.337  1.00  0.00     0.227 C 
ATOM      6  O   UNL A   1      29.723  27.402  22.817  1.00  0.00    -0.274 OA
ATOM      7  H   UNL A   1      30.229  28.022  24.949  1.00  0.00     0.163 HD
BRANCH   5   8
ATOM      8  C   UNL A   1      31.651  25.967  22.638  1.00  0.00     0.105 C 
ATOM      9  C   UNL A   1      32.958  26.604  22.146  1.00  0.00     0.023 C 
BRANCH   8  10
ATOM     10  C   UNL A   1      31.962  24.675  23.372  1.00  0.00    -0.034 A 
ATOM     11  C   UNL A   1      31.001  24.004  24.124  1.00  0.00     0.005 A 
ATOM     12  C   UNL A   1      33.264  24.141  23.294  1.00  0.00     0.032 A 
ATOM     13  C   UNL A   1      31.238  22.700  24.574  1.00  0.00     0.011 A 
ATOM     14  C   UNL A   1      33.533  22.871  23.848  1.00  0.00     0.058 A 
ATOM     15  C   UNL A   1      32.500  22.106  24.375  1.00  0.00     0.008 A 
ATOM     16  N   UNL A   1      34.732  22.144  23.978  1.00  0.00    -0.274 N 
ATOM     17  C   UNL A   1      33.005  20.793  24.548  1.00  0.00     0.009 A 
ATOM     18  C   UNL A   1      34.397  20.841  24.392  1.00  0.00     0.057 A 
ATOM     19  C   UNL A   1      32.369  19.567  24.850  1.00  0.00     0.031 A 
ATOM     20  C   UNL A   1      35.169  19.702  24.708  1.00  0.00     0.029 A 
ATOM     21  C   UNL A   1      33.136  18.421  25.030  1.00  0.00     0.041 A 
ATOM     22  C   UNL A   1      34.520  18.493  24.995  1.00  0.00     0.023 A 
ATOM     23  Cl  UNL A   1      32.356  16.914  25.315  1.00  0.00    -0.084 Cl
BRANCH  16  24
ATOM     24  C   UNL A   1      36.021  22.713  23.749  1.00  0.00     0.284 C 
ATOM     25  O   UNL A   1      36.196  23.209  22.636  1.00  0.00    -0.266 OA
BRANCH  24  26
ATOM     26  C   UNL A   1      37.128  22.750  24.699  1.00  0.00     0.167 A 
ATOM     27  C   UNL A   1      37.526  23.769  25.535  1.00  0.00     0.231 A 
ATOM     28  N   UNL A   1      37.877  21.619  25.002  1.00  0.00    -0.211 NA
ATOM     29  O   UNL A   1      38.537  23.310  26.329  1.00  0.00    -0.451 OA
ATOM     30  C   UNL A   1      38.678  22.008  25.964  1.00  0.00     0.308 A 
ENDBRANCH  24  26
ENDBRANCH  16  24
ENDBRANCH   8  10
ENDBRANCH   5   8
ENDBRANCH   3   4
ENDBRANCH   2   3
ENDBRANCH   1   2
BRANCH   1  31
ATOM     31  C   UNL A   1      31.418  30.732  26.749  1.00  0.00     0.002 C 
BRANCH  31  32
ATOM     32  C   UNL A   1      31.372  32.263  26.791  1.00  0.00     0.021 C 
BRANCH  32  33
ATOM     33  C   UNL A   1      32.722  32.946  27.007  1.00  0.00     0.116 C 
BRANCH  33  34
ATOM     34  N   UNL A   1      32.587  34.213  27.707  1.00  0.00    -0.352 N 
ATOM     35  C   UNL A   1      33.232  34.667  28.831  1.00  0.00     0.251 C 
ATOM     36  H   UNL A   1      31.936  34.840  27.316  1.00  0.00     0.163 HD
ATOM     37  O   UNL A   1      32.838  35.678  29.404  1.00  0.00    -0.269 OA
BRANCH  35  38
ATOM     38  C   UNL A   1      34.398  33.931  29.365  1.00  0.00     0.039 A 
ATOM     39  C   UNL A   1      35.679  34.289  28.935  1.00  0.00     0.014 A 
ATOM     40  C   UNL A   1      34.227  32.880  30.270  1.00  0.00     0.014 A 
ATOM     41  C   UNL A   1      36.795  33.635  29.464  1.00  0.00     0.010 A 
ATOM     42  C   UNL A   1      35.342  32.266  30.837  1.00  0.00     0.010 A 
ATOM     43  C   UNL A   1      36.636  32.642  30.444  1.00  0.00    -0.014 A 
BRANCH  43  44
ATOM     44  C   UNL A   1      37.808  32.001  31.091  1.00  0.00     0.031 A 
ATOM     45  C   UNL A   1      38.363  32.553  32.374  1.00  0.00     0.074 A 
ATOM     46  C   UNL A   1      38.426  30.976  30.473  1.00  0.00     0.049 A 
ATOM     47  N   UNL A   1      39.437  32.190  33.030  1.00  0.00    -0.248 NA
ATOM     48  C   UNL A   1      37.629  33.669  32.988  1.00  0.00     0.031 C 
ATOM     49  C   UNL A   1      38.010  30.374  29.205  1.00  0.00     0.029 A 
ATOM     50  N   UNL A   1      39.553  30.273  30.820  1.00  0.00    -0.354 N 
ATOM     51  C   UNL A   1      39.523  33.052  34.116  1.00  0.00     0.074 A 
ATOM     52  C   UNL A   1      38.409  33.970  34.018  1.00  0.00     0.031 C 
ATOM     53  C   UNL A   1      38.864  29.388  28.885  1.00  0.00     0.029 A 
ATOM     54  C   UNL A   1      39.908  29.316  29.901  1.00  0.00     0.049 A 
ATOM     55  H   UNL A   1      40.057  30.438  31.650  1.00  0.00     0.167 HD
ATOM     56  C   UNL A   1      40.442  33.070  35.111  1.00  0.00     0.031 A 
ATOM     57  C   UNL A   1      40.969  28.487  29.868  1.00  0.00     0.031 A 
ATOM     58  C   UNL A   1      41.538  32.143  35.220  1.00  0.00     0.049 A 
ATOM     59  C   UNL A   1      41.978  28.534  30.979  1.00  0.00     0.074 A 
ATOM     60  C   UNL A   1      42.468  32.029  36.239  1.00  0.00     0.029 A 
ATOM     61  N   UNL A   1      41.854  31.180  34.277  1.00  0.00    -0.354 N 
ATOM     62  N   UNL A   1      41.998  29.299  32.042  1.00  0.00    -0.248 NA
ATOM     63  C   UNL A   1      43.111  27.602  30.885  1.00  0.00     0.031 C 
ATOM     64  C   UNL A   1      43.379  31.028  35.887  1.00  0.00     0.029 A 
ATOM     65  C   UNL A   1      42.986  30.489  34.672  1.00  0.00     0.049 A 
ATOM     66  H   UNL A   1      41.349  31.013  33.448  1.00  0.00     0.167 HD
ATOM     67  C   UNL A   1      43.131  28.928  32.754  1.00  0.00     0.074 A 
ATOM     68  C   UNL A   1      43.764  27.859  32.010  1.00  0.00     0.031 C 
ATOM     69  C   UNL A   1      43.606  29.430  33.919  1.00  0.00     0.031 A 
BRANCH  56  70
ATOM     70  C   UNL A   1      40.311  34.136  36.161  1.00  0.00    -0.014 A 
ATOM     71  C   UNL A   1      40.842  35.421  35.964  1.00  0.00     0.009 A 
ATOM     72  C   UNL A   1      39.599  33.867  37.339  1.00  0.00     0.009 A 
ATOM     73  C   UNL A   1      40.686  36.405  36.942  1.00  0.00     0.001 A 
ATOM     74  C   UNL A   1      39.425  34.860  38.305  1.00  0.00     0.001 A 
ATOM     75  C   UNL A   1      39.974  36.125  38.108  1.00  0.00     0.000 A 
ENDBRANCH  56  70
BRANCH  57  76
ATOM     76  C   UNL A   1      41.138  27.541  28.734  1.00  0.00    -0.014 A 
ATOM     77  C   UNL A   1      40.587  26.253  28.793  1.00  0.00     0.009 A 
ATOM     78  C   UNL A   1      41.859  27.922  27.591  1.00  0.00     0.009 A 
ATOM     79  C   UNL A   1      40.778  25.354  27.742  1.00  0.00     0.001 A 
ATOM     80  C   UNL A   1      42.024  27.030  26.529  1.00  0.00     0.001 A 
ATOM     81  C   UNL A   1      41.491  25.744  26.610  1.00  0.00     0.000 A 
ENDBRANCH  57  76
BRANCH  69  82
ATOM     82  C   UNL A   1      44.859  28.817  34.471  1.00  0.00    -0.014 A 
ATOM     83  C   UNL A   1      44.812  27.644  35.240  1.00  0.00     0.009 A 
ATOM     84  C   UNL A   1      46.105  29.392  34.177  1.00  0.00     0.009 A 
ATOM     85  C   UNL A   1      45.990  27.072  35.724  1.00  0.00     0.001 A 
ATOM     86  C   UNL A   1      47.282  28.804  34.642  1.00  0.00     0.001 A 
ATOM     87  C   UNL A   1      47.223  27.648  35.420  1.00  0.00     0.000 A 
ENDBRANCH  69  82
ENDBRANCH  43  44
ENDBRANCH  35  38
ENDBRANCH  33  34
ENDBRANCH  32  33
ENDBRANCH  31  32
ENDBRANCH   1  31
TORSDOF 16
ENDMDL
