MODEL 1
REMARK VINA RESULT:     -11.8      0.000      0.000
REMARK SMILES CC(=O)NS(=O)(=O)c1ccc(-c2ccn(C(F)F)c(=O)c2)cc1C(=O)NCCCCCCNC(=O)c1ccc(-c2c3nc(c(-c4ccccc4)c4ccc([nH]4)c(-c4ccccc4)c4nc(c(-c5ccccc5)c5ccc2[nH]5)C=C4)C=C3)cc1
REMARK SMILES IDX 29 1 28 2 27 3 26 4 24 5 25 6 23 8 8 9 9 10 10 11 22 12
REMARK SMILES IDX 11 13 5 14 6 15 7 16 4 17 1 18 2 19 3 20 12 22 13 23 21 24
REMARK SMILES IDX 14 25 19 26 15 27 20 28 16 29 17 30 18 31 30 32 31 33 32 34
REMARK SMILES IDX 33 35 34 36 35 38 36 39 37 40 83 41 38 42 82 43 39 44 40 45
REMARK SMILES IDX 41 46 76 47 42 48 81 49 75 50 77 51 43 52 80 53 74 54 73 55
REMARK SMILES IDX 44 57 66 58 51 59 65 60 52 61 55 62 64 63 78 64 53 65 54 66
REMARK SMILES IDX 63 68 79 69 56 70 45 71 46 72 50 73 47 74 49 75 48 76 67 77
REMARK SMILES IDX 68 78 72 79 69 80 71 81 70 82 57 83 58 84 62 85 59 86 61 87
REMARK SMILES IDX 60 88
REMARK H PARENT 26 7 4 21 33 37 77 56 55 67
REMARK Flexibility Score: inf
ROOT
ATOM      1  C   UNL A   1      32.683  29.991  25.746  1.00  0.00     0.002 C 
ENDROOT
BRANCH   1   2
ATOM      2  C   UNL A   1      32.782  28.816  26.717  1.00  0.00     0.021 C 
BRANCH   2   3
ATOM      3  C   UNL A   1      33.976  27.894  26.446  1.00  0.00     0.116 C 
BRANCH   3   4
ATOM      4  N   UNL A   1      33.568  26.515  26.535  1.00  0.00    -0.352 N 
ATOM      5  C   UNL A   1      32.861  25.586  25.845  1.00  0.00     0.252 C 
ATOM      6  O   UNL A   1      32.666  24.562  26.520  1.00  0.00    -0.269 OA
ATOM      7  H   UNL A   1      33.916  26.118  27.366  1.00  0.00     0.163 HD
BRANCH   5   8
ATOM      8  C   UNL A   1      32.379  25.530  24.424  1.00  0.00     0.060 A 
ATOM      9  C   UNL A   1      32.668  24.727  23.310  1.00  0.00     0.100 A 
ATOM     10  C   UNL A   1      32.235  25.131  22.016  1.00  0.00     0.024 A 
ATOM     11  C   UNL A   1      31.451  26.254  21.808  1.00  0.00     0.010 A 
ATOM     12  C   UNL A   1      31.512  26.640  24.172  1.00  0.00     0.024 A 
ATOM     13  C   UNL A   1      31.045  26.999  22.901  1.00  0.00    -0.017 A 
BRANCH   9  14
ATOM     14  S   UNL A   1      33.624  23.252  23.265  1.00  0.00     0.264 S 
ATOM     15  O   UNL A   1      34.984  23.631  22.975  1.00  0.00    -0.201 OA
ATOM     16  O   UNL A   1      32.967  22.303  22.388  1.00  0.00    -0.201 OA
BRANCH  14  17
ATOM     17  N   UNL A   1      33.584  22.533  24.752  1.00  0.00    -0.249 N 
ATOM     18  C   UNL A   1      35.403  20.776  24.713  1.00  0.00     0.115 C 
ATOM     19  C   UNL A   1      34.306  21.523  25.403  1.00  0.00     0.230 C 
ATOM     20  O   UNL A   1      33.941  21.207  26.529  1.00  0.00    -0.274 OA
ATOM     21  H   UNL A   1      32.874  22.907  25.323  1.00  0.00     0.183 HD
ENDBRANCH  14  17
ENDBRANCH   9  14
BRANCH  13  22
ATOM     22  C   UNL A   1      30.143  28.143  22.714  1.00  0.00    -0.011 A 
ATOM     23  C   UNL A   1      30.555  29.402  22.129  1.00  0.00     0.027 A 
ATOM     24  C   UNL A   1      28.869  27.983  23.107  1.00  0.00     0.080 A 
ATOM     25  C   UNL A   1      29.670  30.395  21.976  1.00  0.00     0.095 A 
ATOM     26  C   UNL A   1      27.875  29.075  22.944  1.00  0.00     0.255 A 
ATOM     27  N   UNL A   1      28.353  30.242  22.372  1.00  0.00    -0.258 N 
ATOM     28  O   UNL A   1      26.725  28.871  23.315  1.00  0.00    -0.269 OA
BRANCH  27  29
ATOM     29  C   UNL A   1      27.408  31.317  22.217  1.00  0.00     0.451 C 
ATOM     30  F   UNL A   1      27.169  31.929  23.403  1.00  0.00    -0.185 F 
ATOM     31  F   UNL A   1      27.875  32.249  21.350  1.00  0.00    -0.185 F 
ENDBRANCH  27  29
ENDBRANCH  13  22
ENDBRANCH   5   8
ENDBRANCH   3   4
ENDBRANCH   2   3
ENDBRANCH   1   2
BRANCH   1  32
ATOM     32  C   UNL A   1      31.306  30.660  25.722  1.00  0.00     0.002 C 
BRANCH  32  33
ATOM     33  C   UNL A   1      31.229  32.025  26.413  1.00  0.00     0.021 C 
BRANCH  33  34
ATOM     34  C   UNL A   1      32.534  32.493  27.056  1.00  0.00     0.116 C 
BRANCH  34  35
ATOM     35  N   UNL A   1      32.407  33.829  27.617  1.00  0.00    -0.352 N 
ATOM     36  C   UNL A   1      33.143  34.442  28.596  1.00  0.00     0.251 C 
ATOM     37  H   UNL A   1      31.682  34.375  27.234  1.00  0.00     0.163 HD
ATOM     38  O   UNL A   1      32.733  35.472  29.122  1.00  0.00    -0.269 OA
BRANCH  36  39
ATOM     39  C   UNL A   1      34.430  33.860  29.023  1.00  0.00     0.039 A 
ATOM     40  C   UNL A   1      34.462  33.043  30.156  1.00  0.00     0.014 A 
ATOM     41  C   UNL A   1      35.610  34.149  28.331  1.00  0.00     0.014 A 
ATOM     42  C   UNL A   1      35.670  32.476  30.565  1.00  0.00     0.010 A 
ATOM     43  C   UNL A   1      36.798  33.525  28.694  1.00  0.00     0.010 A 
ATOM     44  C   UNL A   1      36.842  32.691  29.821  1.00  0.00    -0.014 A 
BRANCH  44  45
ATOM     45  C   UNL A   1      38.125  32.055  30.211  1.00  0.00     0.031 A 
ATOM     46  C   UNL A   1      39.067  32.762  31.145  1.00  0.00     0.074 A 
ATOM     47  C   UNL A   1      38.466  30.867  29.676  1.00  0.00     0.049 A 
ATOM     48  N   UNL A   1      40.250  32.387  31.562  1.00  0.00    -0.248 NA
ATOM     49  C   UNL A   1      38.635  34.071  31.661  1.00  0.00     0.031 C 
ATOM     50  C   UNL A   1      37.655  30.100  28.728  1.00  0.00     0.029 A 
ATOM     51  N   UNL A   1      39.590  30.101  29.849  1.00  0.00    -0.354 N 
ATOM     52  C   UNL A   1      40.708  33.420  32.372  1.00  0.00     0.074 A 
ATOM     53  C   UNL A   1      39.700  34.456  32.346  1.00  0.00     0.031 C 
ATOM     54  C   UNL A   1      38.295  28.959  28.426  1.00  0.00     0.029 A 
ATOM     55  C   UNL A   1      39.576  28.934  29.122  1.00  0.00     0.049 A 
ATOM     56  H   UNL A   1      40.335  30.361  30.437  1.00  0.00     0.167 HD
ATOM     57  C   UNL A   1      41.856  33.491  33.087  1.00  0.00     0.031 A 
ATOM     58  C   UNL A   1      40.497  27.958  29.022  1.00  0.00     0.031 A 
ATOM     59  C   UNL A   1      42.856  32.457  33.113  1.00  0.00     0.049 A 
ATOM     60  C   UNL A   1      41.774  28.070  29.808  1.00  0.00     0.074 A 
ATOM     61  C   UNL A   1      44.028  32.408  33.849  1.00  0.00     0.029 A 
ATOM     62  N   UNL A   1      42.805  31.292  32.363  1.00  0.00    -0.354 N 
ATOM     63  N   UNL A   1      42.160  29.019  30.625  1.00  0.00    -0.248 NA
ATOM     64  C   UNL A   1      42.736  26.968  29.666  1.00  0.00     0.031 C 
ATOM     65  C   UNL A   1      44.715  31.241  33.498  1.00  0.00     0.029 A 
ATOM     66  C   UNL A   1      43.940  30.531  32.595  1.00  0.00     0.049 A 
ATOM     67  H   UNL A   1      42.072  31.042  31.756  1.00  0.00     0.167 HD
ATOM     68  C   UNL A   1      43.395  28.617  31.116  1.00  0.00     0.074 A 
ATOM     69  C   UNL A   1      43.684  27.329  30.518  1.00  0.00     0.031 C 
ATOM     70  C   UNL A   1      44.214  29.254  31.987  1.00  0.00     0.031 A 
BRANCH  57  71
ATOM     71  C   UNL A   1      42.095  34.741  33.891  1.00  0.00    -0.014 A 
ATOM     72  C   UNL A   1      41.698  34.833  35.235  1.00  0.00     0.009 A 
ATOM     73  C   UNL A   1      42.751  35.833  33.303  1.00  0.00     0.009 A 
ATOM     74  C   UNL A   1      41.914  36.007  35.959  1.00  0.00     0.001 A 
ATOM     75  C   UNL A   1      42.996  36.994  34.039  1.00  0.00     0.001 A 
ATOM     76  C   UNL A   1      42.567  37.084  35.362  1.00  0.00     0.000 A 
ENDBRANCH  57  71
BRANCH  58  77
ATOM     77  C   UNL A   1      40.238  26.780  28.153  1.00  0.00    -0.014 A 
ATOM     78  C   UNL A   1      40.783  26.715  26.861  1.00  0.00     0.009 A 
ATOM     79  C   UNL A   1      39.445  25.715  28.608  1.00  0.00     0.009 A 
ATOM     80  C   UNL A   1      40.519  25.619  26.035  1.00  0.00     0.001 A 
ATOM     81  C   UNL A   1      39.208  24.608  27.792  1.00  0.00     0.001 A 
ATOM     82  C   UNL A   1      39.737  24.565  26.503  1.00  0.00     0.000 A 
ENDBRANCH  58  77
BRANCH  70  83
ATOM     83  C   UNL A   1      45.488  28.552  32.372  1.00  0.00    -0.014 A 
ATOM     84  C   UNL A   1      45.534  27.657  33.451  1.00  0.00     0.009 A 
ATOM     85  C   UNL A   1      46.650  28.762  31.612  1.00  0.00     0.009 A 
ATOM     86  C   UNL A   1      46.727  27.013  33.784  1.00  0.00     0.001 A 
ATOM     87  C   UNL A   1      47.834  28.093  31.927  1.00  0.00     0.001 A 
ATOM     88  C   UNL A   1      47.874  27.228  33.019  1.00  0.00     0.000 A 
ENDBRANCH  70  83
ENDBRANCH  44  45
ENDBRANCH  36  39
ENDBRANCH  34  35
ENDBRANCH  33  34
ENDBRANCH  32  33
ENDBRANCH   1  32
TORSDOF 17
ENDMDL
MODEL 2
REMARK VINA RESULT:     -11.7      3.454      7.731
REMARK SMILES CC(=O)NS(=O)(=O)c1ccc(-c2ccn(C(F)F)c(=O)c2)cc1C(=O)NCCCCCCNC(=O)c1ccc(-c2c3nc(c(-c4ccccc4)c4ccc([nH]4)c(-c4ccccc4)c4nc(c(-c5ccccc5)c5ccc2[nH]5)C=C4)C=C3)cc1
REMARK SMILES IDX 29 1 28 2 27 3 26 4 24 5 25 6 23 8 8 9 9 10 10 11 22 12
REMARK SMILES IDX 11 13 5 14 6 15 7 16 4 17 1 18 2 19 3 20 12 22 13 23 21 24
REMARK SMILES IDX 14 25 19 26 15 27 20 28 16 29 17 30 18 31 30 32 31 33 32 34
REMARK SMILES IDX 33 35 34 36 35 38 36 39 37 40 83 41 38 42 82 43 39 44 40 45
REMARK SMILES IDX 41 46 76 47 42 48 81 49 75 50 77 51 43 52 80 53 74 54 73 55
REMARK SMILES IDX 44 57 66 58 51 59 65 60 52 61 55 62 64 63 78 64 53 65 54 66
REMARK SMILES IDX 63 68 79 69 56 70 45 71 46 72 50 73 47 74 49 75 48 76 67 77
REMARK SMILES IDX 68 78 72 79 69 80 71 81 70 82 57 83 58 84 62 85 59 86 61 87
REMARK SMILES IDX 60 88
REMARK H PARENT 26 7 4 21 33 37 77 56 55 67
REMARK Flexibility Score: inf
ROOT
ATOM      1  C   UNL A   1      32.198  29.453  26.521  1.00  0.00     0.002 C 
ENDROOT
BRANCH   1   2
ATOM      2  C   UNL A   1      31.408  28.164  26.737  1.00  0.00     0.021 C 
BRANCH   2   3
ATOM      3  C   UNL A   1      32.279  26.902  26.744  1.00  0.00     0.116 C 
BRANCH   3   4
ATOM      4  N   UNL A   1      31.448  25.726  26.765  1.00  0.00    -0.352 N 
ATOM      5  C   UNL A   1      31.121  24.661  25.992  1.00  0.00     0.252 C 
ATOM      6  O   UNL A   1      30.160  24.030  26.462  1.00  0.00    -0.269 OA
ATOM      7  H   UNL A   1      30.958  25.680  27.618  1.00  0.00     0.163 HD
BRANCH   5   8
ATOM      8  C   UNL A   1      31.755  24.065  24.769  1.00  0.00     0.060 A 
ATOM      9  C   UNL A   1      32.078  24.538  23.489  1.00  0.00     0.100 A 
ATOM     10  C   UNL A   1      32.416  23.617  22.457  1.00  0.00     0.024 A 
ATOM     11  C   UNL A   1      32.531  22.254  22.684  1.00  0.00     0.010 A 
ATOM     12  C   UNL A   1      31.953  22.662  24.973  1.00  0.00     0.024 A 
ATOM     13  C   UNL A   1      32.340  21.769  23.964  1.00  0.00    -0.017 A 
BRANCH   9  14
ATOM     14  S   UNL A   1      32.033  26.199  22.912  1.00  0.00     0.264 S 
ATOM     15  O   UNL A   1      32.243  26.164  21.487  1.00  0.00    -0.201 OA
ATOM     16  O   UNL A   1      32.932  26.994  23.726  1.00  0.00    -0.201 OA
BRANCH  14  17
ATOM     17  N   UNL A   1      30.538  26.836  23.208  1.00  0.00    -0.249 N 
ATOM     18  C   UNL A   1      30.635  29.225  22.382  1.00  0.00     0.115 C 
ATOM     19  C   UNL A   1      29.908  28.069  22.992  1.00  0.00     0.230 C 
ATOM     20  O   UNL A   1      28.764  28.197  23.412  1.00  0.00    -0.274 OA
ATOM     21  H   UNL A   1      29.941  26.188  23.647  1.00  0.00     0.183 HD
ENDBRANCH  14  17
ENDBRANCH   9  14
BRANCH  13  22
ATOM     22  C   UNL A   1      32.541  20.342  24.245  1.00  0.00    -0.011 A 
ATOM     23  C   UNL A   1      32.743  19.806  25.575  1.00  0.00     0.027 A 
ATOM     24  C   UNL A   1      32.525  19.507  23.193  1.00  0.00     0.080 A 
ATOM     25  C   UNL A   1      32.903  18.489  25.753  1.00  0.00     0.095 A 
ATOM     26  C   UNL A   1      32.701  18.044  23.374  1.00  0.00     0.255 A 
ATOM     27  N   UNL A   1      32.883  17.617  24.679  1.00  0.00    -0.258 N 
ATOM     28  O   UNL A   1      32.671  17.328  22.378  1.00  0.00    -0.269 OA
BRANCH  27  29
ATOM     29  C   UNL A   1      33.069  16.203  24.874  1.00  0.00     0.451 C 
ATOM     30  F   UNL A   1      34.364  15.851  24.681  1.00  0.00    -0.185 F 
ATOM     31  F   UNL A   1      32.719  15.840  26.133  1.00  0.00    -0.185 F 
ENDBRANCH  27  29
ENDBRANCH  13  22
ENDBRANCH   5   8
ENDBRANCH   3   4
ENDBRANCH   2   3
ENDBRANCH   1   2
BRANCH   1  32
ATOM     32  C   UNL A   1      31.430  30.529  25.750  1.00  0.00     0.002 C 
BRANCH  32  33
ATOM     33  C   UNL A   1      31.226  31.850  26.498  1.00  0.00     0.021 C 
BRANCH  33  34
ATOM     34  C   UNL A   1      32.482  32.412  27.163  1.00  0.00     0.116 C 
BRANCH  34  35
ATOM     35  N   UNL A   1      32.335  33.822  27.484  1.00  0.00    -0.352 N 
ATOM     36  C   UNL A   1      32.970  34.575  28.437  1.00  0.00     0.251 C 
ATOM     37  H   UNL A   1      31.680  34.310  26.934  1.00  0.00     0.163 HD
ATOM     38  O   UNL A   1      32.536  35.683  28.738  1.00  0.00    -0.269 OA
BRANCH  36  39
ATOM     39  C   UNL A   1      34.177  34.052  29.105  1.00  0.00     0.039 A 
ATOM     40  C   UNL A   1      34.030  33.235  30.229  1.00  0.00     0.014 A 
ATOM     41  C   UNL A   1      35.453  34.396  28.647  1.00  0.00     0.014 A 
ATOM     42  C   UNL A   1      35.162  32.723  30.863  1.00  0.00     0.010 A 
ATOM     43  C   UNL A   1      36.577  33.826  29.235  1.00  0.00     0.010 A 
ATOM     44  C   UNL A   1      36.443  32.993  30.355  1.00  0.00    -0.014 A 
BRANCH  44  45
ATOM     45  C   UNL A   1      37.656  32.416  30.986  1.00  0.00     0.031 A 
ATOM     46  C   UNL A   1      38.322  31.210  30.383  1.00  0.00     0.074 A 
ATOM     47  C   UNL A   1      38.122  32.944  32.134  1.00  0.00     0.049 A 
ATOM     48  N   UNL A   1      39.359  30.539  30.815  1.00  0.00    -0.248 NA
ATOM     49  C   UNL A   1      37.732  30.674  29.146  1.00  0.00     0.031 C 
ATOM     50  C   UNL A   1      37.542  34.089  32.838  1.00  0.00     0.029 A 
ATOM     51  N   UNL A   1      39.189  32.579  32.915  1.00  0.00    -0.354 N 
ATOM     52  C   UNL A   1      39.534  29.495  29.914  1.00  0.00     0.074 A 
ATOM     53  C   UNL A   1      38.466  29.591  28.944  1.00  0.00     0.031 C 
ATOM     54  C   UNL A   1      38.277  34.351  33.930  1.00  0.00     0.029 A 
ATOM     55  C   UNL A   1      39.350  33.369  34.027  1.00  0.00     0.049 A 
ATOM     56  H   UNL A   1      39.783  31.825  32.699  1.00  0.00     0.167 HD
ATOM     57  C   UNL A   1      40.505  28.552  29.888  1.00  0.00     0.031 A 
ATOM     58  C   UNL A   1      40.258  33.304  35.020  1.00  0.00     0.031 A 
ATOM     59  C   UNL A   1      41.567  28.459  30.854  1.00  0.00     0.049 A 
ATOM     60  C   UNL A   1      41.312  32.234  34.980  1.00  0.00     0.074 A 
ATOM     61  C   UNL A   1      42.632  27.575  30.884  1.00  0.00     0.029 A 
ATOM     62  N   UNL A   1      41.695  29.278  31.966  1.00  0.00    -0.354 N 
ATOM     63  N   UNL A   1      41.507  31.298  34.083  1.00  0.00    -0.248 NA
ATOM     64  C   UNL A   1      42.281  32.220  36.085  1.00  0.00     0.031 C 
ATOM     65  C   UNL A   1      43.369  27.820  32.047  1.00  0.00     0.029 A 
ATOM     66  C   UNL A   1      42.804  28.899  32.706  1.00  0.00     0.049 A 
ATOM     67  H   UNL A   1      41.087  30.018  32.196  1.00  0.00     0.167 HD
ATOM     68  C   UNL A   1      42.634  30.603  34.499  1.00  0.00     0.074 A 
ATOM     69  C   UNL A   1      43.090  31.236  35.720  1.00  0.00     0.031 C 
ATOM     70  C   UNL A   1      43.240  29.537  33.921  1.00  0.00     0.031 A 
BRANCH  57  71
ATOM     71  C   UNL A   1      40.452  27.533  28.781  1.00  0.00    -0.014 A 
ATOM     72  C   UNL A   1      39.710  26.347  28.913  1.00  0.00     0.009 A 
ATOM     73  C   UNL A   1      41.131  27.775  27.578  1.00  0.00     0.009 A 
ATOM     74  C   UNL A   1      39.686  25.408  27.880  1.00  0.00     0.001 A 
ATOM     75  C   UNL A   1      41.079  26.849  26.533  1.00  0.00     0.001 A 
ATOM     76  C   UNL A   1      40.366  25.662  26.690  1.00  0.00     0.000 A 
ENDBRANCH  57  71
BRANCH  58  77
ATOM     77  C   UNL A   1      40.216  34.292  36.129  1.00  0.00    -0.014 A 
ATOM     78  C   UNL A   1      40.999  35.456  36.077  1.00  0.00     0.009 A 
ATOM     79  C   UNL A   1      39.393  34.080  37.247  1.00  0.00     0.009 A 
ATOM     80  C   UNL A   1      40.979  36.372  37.131  1.00  0.00     0.001 A 
ATOM     81  C   UNL A   1      39.351  35.012  38.285  1.00  0.00     0.001 A 
ATOM     82  C   UNL A   1      40.151  36.153  38.231  1.00  0.00     0.000 A 
ENDBRANCH  58  77
BRANCH  70  83
ATOM     83  C   UNL A   1      44.483  29.010  34.585  1.00  0.00    -0.014 A 
ATOM     84  C   UNL A   1      45.751  29.523  34.275  1.00  0.00     0.009 A 
ATOM     85  C   UNL A   1      44.373  28.012  35.566  1.00  0.00     0.009 A 
ATOM     86  C   UNL A   1      46.890  29.020  34.909  1.00  0.00     0.001 A 
ATOM     87  C   UNL A   1      45.509  27.534  36.221  1.00  0.00     0.001 A 
ATOM     88  C   UNL A   1      46.767  28.031  35.885  1.00  0.00     0.000 A 
ENDBRANCH  70  83
ENDBRANCH  44  45
ENDBRANCH  36  39
ENDBRANCH  34  35
ENDBRANCH  33  34
ENDBRANCH  32  33
ENDBRANCH   1  32
TORSDOF 17
ENDMDL
MODEL 3
REMARK VINA RESULT:     -11.5      1.585      5.810
REMARK SMILES CC(=O)NS(=O)(=O)c1ccc(-c2ccn(C(F)F)c(=O)c2)cc1C(=O)NCCCCCCNC(=O)c1ccc(-c2c3nc(c(-c4ccccc4)c4ccc([nH]4)c(-c4ccccc4)c4nc(c(-c5ccccc5)c5ccc2[nH]5)C=C4)C=C3)cc1
REMARK SMILES IDX 29 1 28 2 27 3 26 4 24 5 25 6 23 8 8 9 9 10 10 11 22 12
REMARK SMILES IDX 11 13 5 14 6 15 7 16 4 17 1 18 2 19 3 20 12 22 13 23 21 24
REMARK SMILES IDX 14 25 19 26 15 27 20 28 16 29 17 30 18 31 30 32 31 33 32 34
REMARK SMILES IDX 33 35 34 36 35 38 36 39 37 40 83 41 38 42 82 43 39 44 40 45
REMARK SMILES IDX 41 46 76 47 42 48 81 49 75 50 77 51 43 52 80 53 74 54 73 55
REMARK SMILES IDX 44 57 66 58 51 59 65 60 52 61 55 62 64 63 78 64 53 65 54 66
REMARK SMILES IDX 63 68 79 69 56 70 45 71 46 72 50 73 47 74 49 75 48 76 67 77
REMARK SMILES IDX 68 78 72 79 69 80 71 81 70 82 57 83 58 84 62 85 59 86 61 87
REMARK SMILES IDX 60 88
REMARK H PARENT 26 7 4 21 33 37 77 56 55 67
REMARK Flexibility Score: inf
ROOT
ATOM      1  C   UNL A   1      32.774  29.735  25.756  1.00  0.00     0.002 C 
ENDROOT
BRANCH   1   2
ATOM      2  C   UNL A   1      32.977  28.708  26.868  1.00  0.00     0.021 C 
BRANCH   2   3
ATOM      3  C   UNL A   1      31.667  28.166  27.451  1.00  0.00     0.116 C 
BRANCH   3   4
ATOM      4  N   UNL A   1      31.681  26.726  27.447  1.00  0.00    -0.352 N 
ATOM      5  C   UNL A   1      31.388  25.678  26.637  1.00  0.00     0.252 C 
ATOM      6  O   UNL A   1      31.415  24.600  27.252  1.00  0.00    -0.269 OA
ATOM      7  H   UNL A   1      32.011  26.393  28.313  1.00  0.00     0.163 HD
BRANCH   5   8
ATOM      8  C   UNL A   1      31.149  25.578  25.158  1.00  0.00     0.060 A 
ATOM      9  C   UNL A   1      31.429  24.621  24.171  1.00  0.00     0.100 A 
ATOM     10  C   UNL A   1      31.321  24.970  22.795  1.00  0.00     0.024 A 
ATOM     11  C   UNL A   1      30.858  26.206  22.374  1.00  0.00     0.010 A 
ATOM     12  C   UNL A   1      30.611  26.814  24.678  1.00  0.00     0.024 A 
ATOM     13  C   UNL A   1      30.456  27.129  23.322  1.00  0.00    -0.017 A 
BRANCH   9  14
ATOM     14  S   UNL A   1      32.020  22.980  24.399  1.00  0.00     0.264 S 
ATOM     15  O   UNL A   1      32.481  22.507  23.118  1.00  0.00    -0.201 OA
ATOM     16  O   UNL A   1      31.002  22.216  25.095  1.00  0.00    -0.201 OA
BRANCH  14  17
ATOM     17  N   UNL A   1      33.300  23.004  25.443  1.00  0.00    -0.249 N 
ATOM     18  C   UNL A   1      34.776  24.908  24.671  1.00  0.00     0.115 C 
ATOM     19  C   UNL A   1      34.450  23.789  25.608  1.00  0.00     0.230 C 
ATOM     20  O   UNL A   1      35.232  23.462  26.493  1.00  0.00    -0.274 OA
ATOM     21  H   UNL A   1      33.242  22.288  26.116  1.00  0.00     0.183 HD
ENDBRANCH  14  17
ENDBRANCH   9  14
BRANCH  13  22
ATOM     22  C   UNL A   1      29.881  28.412  22.897  1.00  0.00    -0.011 A 
ATOM     23  C   UNL A   1      30.535  29.319  21.977  1.00  0.00     0.027 A 
ATOM     24  C   UNL A   1      28.677  28.735  23.398  1.00  0.00     0.080 A 
ATOM     25  C   UNL A   1      29.940  30.465  21.624  1.00  0.00     0.095 A 
ATOM     26  C   UNL A   1      28.004  30.002  23.016  1.00  0.00     0.255 A 
ATOM     27  N   UNL A   1      28.698  30.808  22.127  1.00  0.00    -0.258 N 
ATOM     28  O   UNL A   1      26.903  30.242  23.499  1.00  0.00    -0.269 OA
BRANCH  27  29
ATOM     29  C   UNL A   1      28.068  32.047  21.755  1.00  0.00     0.451 C 
ATOM     30  F   UNL A   1      28.719  33.106  22.296  1.00  0.00    -0.185 F 
ATOM     31  F   UNL A   1      28.064  32.200  20.408  1.00  0.00    -0.185 F 
ENDBRANCH  27  29
ENDBRANCH  13  22
ENDBRANCH   5   8
ENDBRANCH   3   4
ENDBRANCH   2   3
ENDBRANCH   1   2
BRANCH   1  32
ATOM     32  C   UNL A   1      31.379  30.363  25.739  1.00  0.00     0.002 C 
BRANCH  32  33
ATOM     33  C   UNL A   1      31.257  31.707  26.466  1.00  0.00     0.021 C 
BRANCH  33  34
ATOM     34  C   UNL A   1      32.587  32.340  26.872  1.00  0.00     0.116 C 
BRANCH  34  35
ATOM     35  N   UNL A   1      32.410  33.703  27.346  1.00  0.00    -0.352 N 
ATOM     36  C   UNL A   1      33.023  34.356  28.383  1.00  0.00     0.251 C 
ATOM     37  H   UNL A   1      31.750  34.237  26.847  1.00  0.00     0.163 HD
ATOM     38  O   UNL A   1      32.566  35.416  28.800  1.00  0.00    -0.269 OA
BRANCH  36  39
ATOM     39  C   UNL A   1      34.235  33.784  29.000  1.00  0.00     0.039 A 
ATOM     40  C   UNL A   1      35.489  34.203  28.547  1.00  0.00     0.014 A 
ATOM     41  C   UNL A   1      34.137  32.810  29.998  1.00  0.00     0.014 A 
ATOM     42  C   UNL A   1      36.643  33.680  29.129  1.00  0.00     0.010 A 
ATOM     43  C   UNL A   1      35.286  32.346  30.629  1.00  0.00     0.010 A 
ATOM     44  C   UNL A   1      36.551  32.767  30.193  1.00  0.00    -0.014 A 
BRANCH  44  45
ATOM     45  C   UNL A   1      37.767  32.240  30.860  1.00  0.00     0.031 A 
ATOM     46  C   UNL A   1      38.485  31.048  30.291  1.00  0.00     0.074 A 
ATOM     47  C   UNL A   1      38.190  32.801  32.009  1.00  0.00     0.049 A 
ATOM     48  N   UNL A   1      39.534  30.418  30.756  1.00  0.00    -0.248 NA
ATOM     49  C   UNL A   1      37.942  30.474  29.050  1.00  0.00     0.031 C 
ATOM     50  C   UNL A   1      37.557  33.937  32.681  1.00  0.00     0.029 A 
ATOM     51  N   UNL A   1      39.250  32.483  32.819  1.00  0.00    -0.354 N 
ATOM     52  C   UNL A   1      39.763  29.366  29.877  1.00  0.00     0.074 A 
ATOM     53  C   UNL A   1      38.715  29.413  28.881  1.00  0.00     0.031 C 
ATOM     54  C   UNL A   1      38.258  34.240  33.785  1.00  0.00     0.029 A 
ATOM     55  C   UNL A   1      39.360  33.295  33.922  1.00  0.00     0.049 A 
ATOM     56  H   UNL A   1      39.873  31.745  32.628  1.00  0.00     0.167 HD
ATOM     57  C   UNL A   1      40.764  28.455  29.887  1.00  0.00     0.031 A 
ATOM     58  C   UNL A   1      40.247  33.275  34.935  1.00  0.00     0.031 A 
ATOM     59  C   UNL A   1      41.807  28.413  30.878  1.00  0.00     0.049 A 
ATOM     60  C   UNL A   1      41.336  32.239  34.936  1.00  0.00     0.074 A 
ATOM     61  C   UNL A   1      42.899  27.564  30.945  1.00  0.00     0.029 A 
ATOM     62  N   UNL A   1      41.883  29.252  31.979  1.00  0.00    -0.354 N 
ATOM     63  N   UNL A   1      41.581  31.297  34.058  1.00  0.00    -0.248 NA
ATOM     64  C   UNL A   1      42.280  32.275  36.063  1.00  0.00     0.031 C 
ATOM     65  C   UNL A   1      43.602  27.851  32.120  1.00  0.00     0.029 A 
ATOM     66  C   UNL A   1      42.986  28.921  32.749  1.00  0.00     0.049 A 
ATOM     67  H   UNL A   1      41.247  29.975  32.184  1.00  0.00     0.167 HD
ATOM     68  C   UNL A   1      42.721  30.645  34.511  1.00  0.00     0.074 A 
ATOM     69  C   UNL A   1      43.128  31.312  35.731  1.00  0.00     0.031 C 
ATOM     70  C   UNL A   1      43.374  29.592  33.963  1.00  0.00     0.031 A 
BRANCH  57  71
ATOM     71  C   UNL A   1      40.769  27.419  28.795  1.00  0.00    -0.014 A 
ATOM     72  C   UNL A   1      39.995  26.251  28.892  1.00  0.00     0.009 A 
ATOM     73  C   UNL A   1      41.539  27.626  27.640  1.00  0.00     0.009 A 
ATOM     74  C   UNL A   1      40.026  25.294  27.876  1.00  0.00     0.001 A 
ATOM     75  C   UNL A   1      41.542  26.683  26.610  1.00  0.00     0.001 A 
ATOM     76  C   UNL A   1      40.795  25.513  26.734  1.00  0.00     0.000 A 
ENDBRANCH  57  71
BRANCH  58  77
ATOM     77  C   UNL A   1      40.148  34.278  36.027  1.00  0.00    -0.014 A 
ATOM     78  C   UNL A   1      39.393  34.006  37.179  1.00  0.00     0.009 A 
ATOM     79  C   UNL A   1      40.807  35.514  35.926  1.00  0.00     0.009 A 
ATOM     80  C   UNL A   1      39.279  34.960  38.193  1.00  0.00     0.001 A 
ATOM     81  C   UNL A   1      40.717  36.452  36.955  1.00  0.00     0.001 A 
ATOM     82  C   UNL A   1      39.946  36.179  38.084  1.00  0.00     0.000 A 
ENDBRANCH  58  77
BRANCH  70  83
ATOM     83  C   UNL A   1      44.618  29.116  34.662  1.00  0.00    -0.014 A 
ATOM     84  C   UNL A   1      44.570  28.107  35.635  1.00  0.00     0.009 A 
ATOM     85  C   UNL A   1      45.862  29.661  34.308  1.00  0.00     0.009 A 
ATOM     86  C   UNL A   1      45.740  27.678  36.266  1.00  0.00     0.001 A 
ATOM     87  C   UNL A   1      47.034  29.209  34.917  1.00  0.00     0.001 A 
ATOM     88  C   UNL A   1      46.971  28.226  35.902  1.00  0.00     0.000 A 
ENDBRANCH  70  83
ENDBRANCH  44  45
ENDBRANCH  36  39
ENDBRANCH  34  35
ENDBRANCH  33  34
ENDBRANCH  32  33
ENDBRANCH   1  32
TORSDOF 17
ENDMDL
