MODEL 1
REMARK VINA RESULT:     -10.7      0.000      0.000
REMARK SMILES Cc1cccc(Nc2ccccc2C(=O)NCCCCCCNC(=O)c2ccc(-c3c4nc(c(-c5ccccc5)c5ccc([nH]5)c(-c5ccccc5)c5nc(c(-c6ccccc6)c6ccc3[nH]6)C=C5)C=C4)cc2)c1C
REMARK SMILES IDX 19 1 18 2 17 3 16 4 14 5 15 6 13 8 8 9 9 10 10 11 12 12
REMARK SMILES IDX 11 13 7 14 6 16 1 17 2 18 3 19 74 20 4 21 75 22 5 23 20 24
REMARK SMILES IDX 21 25 22 26 23 27 24 28 25 30 26 31 27 32 73 33 28 34 72 35
REMARK SMILES IDX 29 36 30 37 31 38 66 39 32 40 71 41 65 42 67 43 33 44 70 45
REMARK SMILES IDX 64 46 63 47 34 49 56 50 41 51 55 52 42 53 45 54 54 55 68 56
REMARK SMILES IDX 43 57 44 58 53 60 69 61 46 62 35 63 36 64 40 65 37 66 39 67
REMARK SMILES IDX 38 68 57 69 58 70 62 71 59 72 61 73 60 74 47 75 48 76 52 77
REMARK SMILES IDX 49 78 51 79 50 80
REMARK H PARENT 16 7 7 15 23 29 67 48 45 59
REMARK Flexibility Score: inf
ROOT
ATOM      1  C   UNL A   1      32.847  29.113  24.335  1.00  0.00     0.002 C 
ENDROOT
BRANCH   1   2
ATOM      2  C   UNL A   1      33.738  28.262  23.418  1.00  0.00     0.021 C 
BRANCH   2   3
ATOM      3  C   UNL A   1      33.039  27.187  22.591  1.00  0.00     0.116 C 
BRANCH   3   4
ATOM      4  N   UNL A   1      33.800  25.976  22.416  1.00  0.00    -0.352 N 
ATOM      5  C   UNL A   1      33.693  24.763  23.053  1.00  0.00     0.253 C 
ATOM      6  O   UNL A   1      34.408  23.848  22.631  1.00  0.00    -0.269 OA
ATOM      7  H   UNL A   1      34.508  26.026  21.734  1.00  0.00     0.163 HD
BRANCH   5   8
ATOM      8  C   UNL A   1      32.877  24.517  24.284  1.00  0.00     0.063 A 
ATOM      9  C   UNL A   1      33.310  24.101  25.559  1.00  0.00     0.051 A 
ATOM     10  C   UNL A   1      32.324  23.883  26.557  1.00  0.00     0.027 A 
ATOM     11  C   UNL A   1      30.971  24.135  26.341  1.00  0.00     0.002 A 
ATOM     12  C   UNL A   1      31.499  24.785  24.092  1.00  0.00     0.016 A 
ATOM     13  C   UNL A   1      30.558  24.610  25.109  1.00  0.00     0.001 A 
BRANCH   9  14
ATOM     14  N   UNL A   1      34.635  23.993  26.028  1.00  0.00    -0.355 N 
ATOM     15  H   UNL A   1      34.832  24.617  26.765  1.00  0.00     0.167 HD
BRANCH  14  16
ATOM     16  C   UNL A   1      35.741  23.191  25.681  1.00  0.00     0.042 A 
ATOM     17  C   UNL A   1      36.865  19.613  24.903  1.00  0.00     0.044 C 
ATOM     18  C   UNL A   1      36.882  21.086  25.219  1.00  0.00    -0.046 A 
ATOM     19  C   UNL A   1      38.120  21.705  25.444  1.00  0.00     0.004 A 
ATOM     20  C   UNL A   1      35.684  21.846  25.267  1.00  0.00    -0.025 A 
ATOM     21  C   UNL A   1      38.186  23.060  25.730  1.00  0.00     0.002 A 
ATOM     22  C   UNL A   1      34.399  21.201  24.812  1.00  0.00     0.047 C 
ATOM     23  C   UNL A   1      37.009  23.788  25.857  1.00  0.00     0.026 A 
ENDBRANCH  14  16
ENDBRANCH   9  14
ENDBRANCH   5   8
ENDBRANCH   3   4
ENDBRANCH   2   3
ENDBRANCH   1   2
BRANCH   1  24
ATOM     24  C   UNL A   1      31.861  28.379  25.253  1.00  0.00     0.002 C 
BRANCH  24  25
ATOM     25  C   UNL A   1      32.425  27.794  26.549  1.00  0.00     0.021 C 
BRANCH  25  26
ATOM     26  C   UNL A   1      33.728  28.399  27.054  1.00  0.00     0.116 C 
BRANCH  26  27
ATOM     27  N   UNL A   1      33.584  29.773  27.501  1.00  0.00    -0.352 N 
ATOM     28  C   UNL A   1      34.473  30.592  28.154  1.00  0.00     0.251 C 
ATOM     29  H   UNL A   1      32.710  30.183  27.304  1.00  0.00     0.163 HD
ATOM     30  O   UNL A   1      34.103  31.689  28.562  1.00  0.00    -0.269 OA
BRANCH  28  31
ATOM     31  C   UNL A   1      35.871  30.161  28.398  1.00  0.00     0.039 A 
ATOM     32  C   UNL A   1      36.218  29.698  29.673  1.00  0.00     0.014 A 
ATOM     33  C   UNL A   1      36.849  30.245  27.404  1.00  0.00     0.014 A 
ATOM     34  C   UNL A   1      37.523  29.265  29.932  1.00  0.00     0.010 A 
ATOM     35  C   UNL A   1      38.128  29.742  27.640  1.00  0.00     0.010 A 
ATOM     36  C   UNL A   1      38.482  29.256  28.908  1.00  0.00    -0.014 A 
BRANCH  36  37
ATOM     37  C   UNL A   1      39.867  28.766  29.138  1.00  0.00     0.031 A 
ATOM     38  C   UNL A   1      40.908  29.694  29.701  1.00  0.00     0.074 A 
ATOM     39  C   UNL A   1      40.213  27.519  28.764  1.00  0.00     0.049 A 
ATOM     40  N   UNL A   1      42.194  29.499  29.857  1.00  0.00    -0.248 NA
ATOM     41  C   UNL A   1      40.448  31.030  30.114  1.00  0.00     0.031 C 
ATOM     42  C   UNL A   1      39.311  26.527  28.176  1.00  0.00     0.029 A 
ATOM     43  N   UNL A   1      41.428  26.880  28.806  1.00  0.00    -0.354 N 
ATOM     44  C   UNL A   1      42.699  30.696  30.350  1.00  0.00     0.074 A 
ATOM     45  C   UNL A   1      41.591  31.622  30.431  1.00  0.00     0.031 C 
ATOM     46  C   UNL A   1      40.000  25.401  27.925  1.00  0.00     0.029 A 
ATOM     47  C   UNL A   1      41.397  25.605  28.294  1.00  0.00     0.049 A 
ATOM     48  H   UNL A   1      42.243  27.295  29.169  1.00  0.00     0.167 HD
ATOM     49  C   UNL A   1      43.969  30.997  30.715  1.00  0.00     0.031 A 
ATOM     50  C   UNL A   1      42.385  24.705  28.125  1.00  0.00     0.031 A 
ATOM     51  C   UNL A   1      45.067  30.068  30.663  1.00  0.00     0.049 A 
ATOM     52  C   UNL A   1      43.785  25.056  28.544  1.00  0.00     0.074 A 
ATOM     53  C   UNL A   1      46.373  30.254  31.081  1.00  0.00     0.029 A 
ATOM     54  N   UNL A   1      44.984  28.778  30.165  1.00  0.00    -0.354 N 
ATOM     55  N   UNL A   1      44.234  26.172  29.063  1.00  0.00    -0.248 NA
ATOM     56  C   UNL A   1      44.812  24.020  28.359  1.00  0.00     0.031 C 
ATOM     57  C   UNL A   1      47.093  29.090  30.793  1.00  0.00     0.029 A 
ATOM     58  C   UNL A   1      46.223  28.164  30.242  1.00  0.00     0.049 A 
ATOM     59  H   UNL A   1      44.167  28.359  29.809  1.00  0.00     0.167 HD
ATOM     60  C   UNL A   1      45.588  25.964  29.292  1.00  0.00     0.074 A 
ATOM     61  C   UNL A   1      45.886  24.613  28.863  1.00  0.00     0.031 C 
ATOM     62  C   UNL A   1      46.503  26.818  29.814  1.00  0.00     0.031 A 
BRANCH  49  63
ATOM     63  C   UNL A   1      44.239  32.397  31.190  1.00  0.00    -0.014 A 
ATOM     64  C   UNL A   1      44.531  33.432  30.288  1.00  0.00     0.009 A 
ATOM     65  C   UNL A   1      44.178  32.689  32.562  1.00  0.00     0.009 A 
ATOM     66  C   UNL A   1      44.799  34.721  30.754  1.00  0.00     0.001 A 
ATOM     67  C   UNL A   1      44.416  33.985  33.022  1.00  0.00     0.001 A 
ATOM     68  C   UNL A   1      44.738  34.997  32.119  1.00  0.00     0.000 A 
ENDBRANCH  49  63
BRANCH  50  69
ATOM     69  C   UNL A   1      42.078  23.375  27.537  1.00  0.00    -0.014 A 
ATOM     70  C   UNL A   1      42.358  23.114  26.188  1.00  0.00     0.009 A 
ATOM     71  C   UNL A   1      41.520  22.357  28.325  1.00  0.00     0.009 A 
ATOM     72  C   UNL A   1      42.068  21.865  25.634  1.00  0.00     0.001 A 
ATOM     73  C   UNL A   1      41.255  21.100  27.775  1.00  0.00     0.001 A 
ATOM     74  C   UNL A   1      41.523  20.857  26.429  1.00  0.00     0.000 A 
ENDBRANCH  50  69
BRANCH  62  75
ATOM     75  C   UNL A   1      47.905  26.310  29.985  1.00  0.00    -0.014 A 
ATOM     76  C   UNL A   1      48.852  26.429  28.957  1.00  0.00     0.009 A 
ATOM     77  C   UNL A   1      48.299  25.763  31.216  1.00  0.00     0.009 A 
ATOM     78  C   UNL A   1      50.163  25.990  29.154  1.00  0.00     0.001 A 
ATOM     79  C   UNL A   1      49.615  25.347  31.418  1.00  0.00     0.001 A 
ATOM     80  C   UNL A   1      50.545  25.457  30.385  1.00  0.00     0.000 A 
ENDBRANCH  62  75
ENDBRANCH  36  37
ENDBRANCH  28  31
ENDBRANCH  26  27
ENDBRANCH  25  26
ENDBRANCH  24  25
ENDBRANCH   1  24
TORSDOF 15
ENDMDL
MODEL 2
REMARK VINA RESULT:     -10.7      3.163      7.806
REMARK SMILES Cc1cccc(Nc2ccccc2C(=O)NCCCCCCNC(=O)c2ccc(-c3c4nc(c(-c5ccccc5)c5ccc([nH]5)c(-c5ccccc5)c5nc(c(-c6ccccc6)c6ccc3[nH]6)C=C5)C=C4)cc2)c1C
REMARK SMILES IDX 19 1 18 2 17 3 16 4 14 5 15 6 13 8 8 9 9 10 10 11 12 12
REMARK SMILES IDX 11 13 7 14 6 16 1 17 2 18 3 19 74 20 4 21 75 22 5 23 20 24
REMARK SMILES IDX 21 25 22 26 23 27 24 28 25 30 26 31 27 32 73 33 28 34 72 35
REMARK SMILES IDX 29 36 30 37 31 38 66 39 32 40 71 41 65 42 67 43 33 44 70 45
REMARK SMILES IDX 64 46 63 47 34 49 56 50 41 51 55 52 42 53 45 54 54 55 68 56
REMARK SMILES IDX 43 57 44 58 53 60 69 61 46 62 35 63 36 64 40 65 37 66 39 67
REMARK SMILES IDX 38 68 57 69 58 70 62 71 59 72 61 73 60 74 47 75 48 76 52 77
REMARK SMILES IDX 49 78 51 79 50 80
REMARK H PARENT 16 7 7 15 23 29 67 48 45 59
REMARK Flexibility Score: inf
ROOT
ATOM      1  C   UNL A   1      32.113  29.540  26.039  1.00  0.00     0.002 C 
ENDROOT
BRANCH   1   2
ATOM      2  C   UNL A   1      31.478  28.279  26.642  1.00  0.00     0.021 C 
BRANCH   2   3
ATOM      3  C   UNL A   1      32.224  26.966  26.421  1.00  0.00     0.116 C 
BRANCH   3   4
ATOM      4  N   UNL A   1      31.539  25.798  26.914  1.00  0.00    -0.352 N 
ATOM      5  C   UNL A   1      31.599  24.492  26.491  1.00  0.00     0.253 C 
ATOM      6  O   UNL A   1      30.984  23.659  27.166  1.00  0.00    -0.269 OA
ATOM      7  H   UNL A   1      30.933  25.961  27.672  1.00  0.00     0.163 HD
BRANCH   5   8
ATOM      8  C   UNL A   1      32.242  24.038  25.217  1.00  0.00     0.063 A 
ATOM      9  C   UNL A   1      31.800  24.224  23.892  1.00  0.00     0.051 A 
ATOM     10  C   UNL A   1      32.567  23.644  22.848  1.00  0.00     0.027 A 
ATOM     11  C   UNL A   1      33.763  22.970  23.083  1.00  0.00     0.002 A 
ATOM     12  C   UNL A   1      33.471  23.365  25.431  1.00  0.00     0.016 A 
ATOM     13  C   UNL A   1      34.230  22.849  24.379  1.00  0.00     0.001 A 
BRANCH   9  14
ATOM     14  N   UNL A   1      30.742  25.040  23.442  1.00  0.00    -0.355 N 
ATOM     15  H   UNL A   1      29.942  24.524  23.187  1.00  0.00     0.167 HD
BRANCH  14  16
ATOM     16  C   UNL A   1      30.571  26.430  23.276  1.00  0.00     0.042 A 
ATOM     17  C   UNL A   1      27.973  29.228  22.970  1.00  0.00     0.044 C 
ATOM     18  C   UNL A   1      29.275  28.471  22.955  1.00  0.00    -0.046 A 
ATOM     19  C   UNL A   1      30.423  29.129  22.490  1.00  0.00     0.004 A 
ATOM     20  C   UNL A   1      29.358  27.132  23.419  1.00  0.00    -0.025 A 
ATOM     21  C   UNL A   1      31.646  28.475  22.465  1.00  0.00     0.002 A 
ATOM     22  C   UNL A   1      28.159  26.529  24.108  1.00  0.00     0.047 C 
ATOM     23  C   UNL A   1      31.713  27.140  22.844  1.00  0.00     0.026 A 
ENDBRANCH  14  16
ENDBRANCH   9  14
ENDBRANCH   5   8
ENDBRANCH   3   4
ENDBRANCH   2   3
ENDBRANCH   1   2
BRANCH   1  24
ATOM     24  C   UNL A   1      31.173  30.661  25.575  1.00  0.00     0.002 C 
BRANCH  24  25
ATOM     25  C   UNL A   1      31.082  31.902  26.465  1.00  0.00     0.021 C 
BRANCH  25  26
ATOM     26  C   UNL A   1      32.399  32.453  26.995  1.00  0.00     0.116 C 
BRANCH  26  27
ATOM     27  N   UNL A   1      32.285  33.803  27.516  1.00  0.00    -0.352 N 
ATOM     28  C   UNL A   1      33.075  34.477  28.416  1.00  0.00     0.251 C 
ATOM     29  H   UNL A   1      31.519  34.317  27.170  1.00  0.00     0.163 HD
ATOM     30  O   UNL A   1      32.724  35.580  28.826  1.00  0.00    -0.269 OA
BRANCH  28  31
ATOM     31  C   UNL A   1      34.337  33.883  28.920  1.00  0.00     0.039 A 
ATOM     32  C   UNL A   1      35.547  34.287  28.343  1.00  0.00     0.014 A 
ATOM     33  C   UNL A   1      34.340  32.907  29.919  1.00  0.00     0.014 A 
ATOM     34  C   UNL A   1      36.757  33.762  28.809  1.00  0.00     0.010 A 
ATOM     35  C   UNL A   1      35.549  32.441  30.434  1.00  0.00     0.010 A 
ATOM     36  C   UNL A   1      36.770  32.856  29.879  1.00  0.00    -0.014 A 
BRANCH  36  37
ATOM     37  C   UNL A   1      38.040  32.307  30.424  1.00  0.00     0.031 A 
ATOM     38  C   UNL A   1      38.622  31.045  29.848  1.00  0.00     0.074 A 
ATOM     39  C   UNL A   1      38.625  32.889  31.489  1.00  0.00     0.049 A 
ATOM     40  N   UNL A   1      39.645  30.340  30.262  1.00  0.00    -0.248 NA
ATOM     41  C   UNL A   1      37.943  30.484  28.668  1.00  0.00     0.031 C 
ATOM     42  C   UNL A   1      38.149  34.097  32.165  1.00  0.00     0.029 A 
ATOM     43  N   UNL A   1      39.742  32.527  32.202  1.00  0.00    -0.354 N 
ATOM     44  C   UNL A   1      39.710  29.238  29.418  1.00  0.00     0.074 A 
ATOM     45  C   UNL A   1      38.602  29.347  28.494  1.00  0.00     0.031 C 
ATOM     46  C   UNL A   1      38.975  34.383  33.185  1.00  0.00     0.029 A 
ATOM     47  C   UNL A   1      40.012  33.359  33.261  1.00  0.00     0.049 A 
ATOM     48  H   UNL A   1      40.297  31.746  31.975  1.00  0.00     0.167 HD
ATOM     49  C   UNL A   1      40.615  28.231  29.403  1.00  0.00     0.031 A 
ATOM     50  C   UNL A   1      40.976  33.297  34.199  1.00  0.00     0.031 A 
ATOM     51  C   UNL A   1      41.735  28.136  30.302  1.00  0.00     0.049 A 
ATOM     52  C   UNL A   1      41.976  32.176  34.160  1.00  0.00     0.074 A 
ATOM     53  C   UNL A   1      42.750  27.196  30.318  1.00  0.00     0.029 A 
ATOM     54  N   UNL A   1      41.986  29.018  31.342  1.00  0.00    -0.354 N 
ATOM     55  N   UNL A   1      42.058  31.174  33.319  1.00  0.00    -0.248 NA
ATOM     56  C   UNL A   1      43.020  32.180  35.195  1.00  0.00     0.031 C 
ATOM     57  C   UNL A   1      43.592  27.481  31.398  1.00  0.00     0.029 A 
ATOM     58  C   UNL A   1      43.128  28.627  32.022  1.00  0.00     0.049 A 
ATOM     59  H   UNL A   1      41.437  29.803  31.564  1.00  0.00     0.167 HD
ATOM     60  C   UNL A   1      43.175  30.445  33.707  1.00  0.00     0.074 A 
ATOM     61  C   UNL A   1      43.744  31.124  34.852  1.00  0.00     0.031 C 
ATOM     62  C   UNL A   1      43.685  29.315  33.158  1.00  0.00     0.031 A 
BRANCH  49  63
ATOM     63  C   UNL A   1      40.421  27.140  28.387  1.00  0.00    -0.014 A 
ATOM     64  C   UNL A   1      41.005  27.215  27.113  1.00  0.00     0.009 A 
ATOM     65  C   UNL A   1      39.659  26.009  28.720  1.00  0.00     0.009 A 
ATOM     66  C   UNL A   1      40.794  26.200  26.178  1.00  0.00     0.001 A 
ATOM     67  C   UNL A   1      39.475  24.981  27.793  1.00  0.00     0.001 A 
ATOM     68  C   UNL A   1      40.032  25.083  26.520  1.00  0.00     0.000 A 
ENDBRANCH  49  63
BRANCH  50  69
ATOM     69  C   UNL A   1      41.047  34.341  35.254  1.00  0.00    -0.014 A 
ATOM     70  C   UNL A   1      41.789  35.513  35.045  1.00  0.00     0.009 A 
ATOM     71  C   UNL A   1      40.362  34.179  36.468  1.00  0.00     0.009 A 
ATOM     72  C   UNL A   1      41.857  36.494  36.037  1.00  0.00     0.001 A 
ATOM     73  C   UNL A   1      40.411  35.172  37.449  1.00  0.00     0.001 A 
ATOM     74  C   UNL A   1      41.163  36.325  37.236  1.00  0.00     0.000 A 
ENDBRANCH  50  69
BRANCH  62  75
ATOM     75  C   UNL A   1      44.939  28.756  33.765  1.00  0.00    -0.014 A 
ATOM     76  C   UNL A   1      44.888  27.792  34.782  1.00  0.00     0.009 A 
ATOM     77  C   UNL A   1      46.188  29.156  33.265  1.00  0.00     0.009 A 
ATOM     78  C   UNL A   1      46.068  27.254  35.300  1.00  0.00     0.001 A 
ATOM     79  C   UNL A   1      47.364  28.599  33.767  1.00  0.00     0.001 A 
ATOM     80  C   UNL A   1      47.303  27.651  34.789  1.00  0.00     0.000 A 
ENDBRANCH  62  75
ENDBRANCH  36  37
ENDBRANCH  28  31
ENDBRANCH  26  27
ENDBRANCH  25  26
ENDBRANCH  24  25
ENDBRANCH   1  24
TORSDOF 15
ENDMDL
MODEL 3
REMARK VINA RESULT:     -10.6      4.555      8.577
REMARK SMILES Cc1cccc(Nc2ccccc2C(=O)NCCCCCCNC(=O)c2ccc(-c3c4nc(c(-c5ccccc5)c5ccc([nH]5)c(-c5ccccc5)c5nc(c(-c6ccccc6)c6ccc3[nH]6)C=C5)C=C4)cc2)c1C
REMARK SMILES IDX 19 1 18 2 17 3 16 4 14 5 15 6 13 8 8 9 9 10 10 11 12 12
REMARK SMILES IDX 11 13 7 14 6 16 1 17 2 18 3 19 74 20 4 21 75 22 5 23 20 24
REMARK SMILES IDX 21 25 22 26 23 27 24 28 25 30 26 31 27 32 73 33 28 34 72 35
REMARK SMILES IDX 29 36 30 37 31 38 66 39 32 40 71 41 65 42 67 43 33 44 70 45
REMARK SMILES IDX 64 46 63 47 34 49 56 50 41 51 55 52 42 53 45 54 54 55 68 56
REMARK SMILES IDX 43 57 44 58 53 60 69 61 46 62 35 63 36 64 40 65 37 66 39 67
REMARK SMILES IDX 38 68 57 69 58 70 62 71 59 72 61 73 60 74 47 75 48 76 52 77
REMARK SMILES IDX 49 78 51 79 50 80
REMARK H PARENT 16 7 7 15 23 29 67 48 45 59
REMARK Flexibility Score: inf
ROOT
ATOM      1  C   UNL A   1      35.520  34.827  33.404  1.00  0.00     0.002 C 
ENDROOT
BRANCH   1   2
ATOM      2  C   UNL A   1      36.034  34.283  34.745  1.00  0.00     0.021 C 
BRANCH   2   3
ATOM      3  C   UNL A   1      37.347  33.505  34.709  1.00  0.00     0.116 C 
BRANCH   3   4
ATOM      4  N   UNL A   1      37.302  32.224  35.368  1.00  0.00    -0.352 N 
ATOM      5  C   UNL A   1      38.118  31.701  36.341  1.00  0.00     0.253 C 
ATOM      6  O   UNL A   1      37.789  30.608  36.815  1.00  0.00    -0.269 OA
ATOM      7  H   UNL A   1      36.573  31.632  35.075  1.00  0.00     0.163 HD
BRANCH   5   8
ATOM      8  C   UNL A   1      39.426  32.294  36.767  1.00  0.00     0.063 A 
ATOM      9  C   UNL A   1      40.692  32.161  36.163  1.00  0.00     0.051 A 
ATOM     10  C   UNL A   1      41.799  32.783  36.796  1.00  0.00     0.027 A 
ATOM     11  C   UNL A   1      41.664  33.572  37.937  1.00  0.00     0.002 A 
ATOM     12  C   UNL A   1      39.308  33.115  37.916  1.00  0.00     0.016 A 
ATOM     13  C   UNL A   1      40.408  33.757  38.488  1.00  0.00     0.001 A 
BRANCH   9  14
ATOM     14  N   UNL A   1      40.995  31.586  34.912  1.00  0.00    -0.355 N 
ATOM     15  H   UNL A   1      41.341  32.242  34.263  1.00  0.00     0.167 HD
BRANCH  14  16
ATOM     16  C   UNL A   1      40.916  30.283  34.381  1.00  0.00     0.042 A 
ATOM     17  C   UNL A   1      42.933  27.130  33.568  1.00  0.00     0.044 C 
ATOM     18  C   UNL A   1      41.823  28.145  33.633  1.00  0.00    -0.046 A 
ATOM     19  C   UNL A   1      40.659  27.910  32.888  1.00  0.00     0.004 A 
ATOM     20  C   UNL A   1      41.930  29.306  34.444  1.00  0.00    -0.025 A 
ATOM     21  C   UNL A   1      39.608  28.813  32.923  1.00  0.00     0.002 A 
ATOM     22  C   UNL A   1      43.097  29.422  35.393  1.00  0.00     0.047 C 
ATOM     23  C   UNL A   1      39.742  29.988  33.652  1.00  0.00     0.026 A 
ENDBRANCH  14  16
ENDBRANCH   9  14
ENDBRANCH   5   8
ENDBRANCH   3   4
ENDBRANCH   2   3
ENDBRANCH   1   2
BRANCH   1  24
ATOM     24  C   UNL A   1      34.322  35.785  33.435  1.00  0.00     0.002 C 
BRANCH  24  25
ATOM     25  C   UNL A   1      33.226  35.559  32.391  1.00  0.00     0.021 C 
BRANCH  25  26
ATOM     26  C   UNL A   1      33.399  36.280  31.062  1.00  0.00     0.116 C 
BRANCH  26  27
ATOM     27  N   UNL A   1      32.755  35.598  29.954  1.00  0.00    -0.352 N 
ATOM     28  C   UNL A   1      33.214  34.586  29.146  1.00  0.00     0.251 C 
ATOM     29  H   UNL A   1      31.843  35.910  29.749  1.00  0.00     0.163 HD
ATOM     30  O   UNL A   1      32.552  34.238  28.172  1.00  0.00    -0.269 OA
BRANCH  28  31
ATOM     31  C   UNL A   1      34.512  33.922  29.416  1.00  0.00     0.039 A 
ATOM     32  C   UNL A   1      35.625  34.284  28.647  1.00  0.00     0.014 A 
ATOM     33  C   UNL A   1      34.638  32.924  30.385  1.00  0.00     0.014 A 
ATOM     34  C   UNL A   1      36.869  33.692  28.890  1.00  0.00     0.010 A 
ATOM     35  C   UNL A   1      35.892  32.390  30.678  1.00  0.00     0.010 A 
ATOM     36  C   UNL A   1      37.019  32.761  29.928  1.00  0.00    -0.014 A 
BRANCH  36  37
ATOM     37  C   UNL A   1      38.335  32.142  30.238  1.00  0.00     0.031 A 
ATOM     38  C   UNL A   1      39.350  32.900  31.051  1.00  0.00     0.074 A 
ATOM     39  C   UNL A   1      38.654  30.940  29.721  1.00  0.00     0.049 A 
ATOM     40  N   UNL A   1      40.593  32.589  31.322  1.00  0.00    -0.248 NA
ATOM     41  C   UNL A   1      38.918  34.192  31.607  1.00  0.00     0.031 C 
ATOM     42  C   UNL A   1      37.778  30.113  28.889  1.00  0.00     0.029 A 
ATOM     43  N   UNL A   1      39.816  30.213  29.804  1.00  0.00    -0.354 N 
ATOM     44  C   UNL A   1      41.099  33.662  32.046  1.00  0.00     0.074 A 
ATOM     45  C   UNL A   1      40.044  34.646  32.140  1.00  0.00     0.031 C 
ATOM     46  C   UNL A   1      38.428  28.987  28.551  1.00  0.00     0.029 A 
ATOM     47  C   UNL A   1      39.778  29.031  29.104  1.00  0.00     0.049 A 
ATOM     48  H   UNL A   1      40.603  30.510  30.317  1.00  0.00     0.167 HD
ATOM     49  C   UNL A   1      42.329  33.811  32.595  1.00  0.00     0.031 A 
ATOM     50  C   UNL A   1      40.726  28.095  28.914  1.00  0.00     0.031 A 
ATOM     51  C   UNL A   1      43.371  32.821  32.528  1.00  0.00     0.049 A 
ATOM     52  C   UNL A   1      42.081  28.276  29.538  1.00  0.00     0.074 A 
ATOM     53  C   UNL A   1      44.623  32.847  33.116  1.00  0.00     0.029 A 
ATOM     54  N   UNL A   1      43.278  31.626  31.833  1.00  0.00    -0.354 N 
ATOM     55  N   UNL A   1      42.525  29.269  30.269  1.00  0.00    -0.248 NA
ATOM     56  C   UNL A   1      43.063  27.205  29.317  1.00  0.00     0.031 C 
ATOM     57  C   UNL A   1      45.306  31.687  32.738  1.00  0.00     0.029 A 
ATOM     58  C   UNL A   1      44.461  30.917  31.957  1.00  0.00     0.049 A 
ATOM     59  H   UNL A   1      42.489  31.325  31.327  1.00  0.00     0.167 HD
ATOM     60  C   UNL A   1      43.826  28.930  30.617  1.00  0.00     0.074 A 
ATOM     61  C   UNL A   1      44.098  27.638  30.024  1.00  0.00     0.031 C 
ATOM     62  C   UNL A   1      44.715  29.630  31.364  1.00  0.00     0.031 A 
BRANCH  49  63
ATOM     63  C   UNL A   1      42.617  35.104  33.305  1.00  0.00    -0.014 A 
ATOM     64  C   UNL A   1      42.276  35.290  34.654  1.00  0.00     0.009 A 
ATOM     65  C   UNL A   1      43.261  36.146  32.618  1.00  0.00     0.009 A 
ATOM     66  C   UNL A   1      42.534  36.507  35.287  1.00  0.00     0.001 A 
ATOM     67  C   UNL A   1      43.546  37.351  33.264  1.00  0.00     0.001 A 
ATOM     68  C   UNL A   1      43.171  37.534  34.593  1.00  0.00     0.000 A 
ENDBRANCH  49  63
BRANCH  50  69
ATOM     69  C   UNL A   1      40.421  26.890  28.099  1.00  0.00    -0.014 A 
ATOM     70  C   UNL A   1      39.688  25.828  28.649  1.00  0.00     0.009 A 
ATOM     71  C   UNL A   1      40.846  26.803  26.765  1.00  0.00     0.009 A 
ATOM     72  C   UNL A   1      39.402  24.694  27.884  1.00  0.00     0.001 A 
ATOM     73  C   UNL A   1      40.538  25.680  25.994  1.00  0.00     0.001 A 
ATOM     74  C   UNL A   1      39.822  24.623  26.556  1.00  0.00     0.000 A 
ENDBRANCH  50  69
BRANCH  62  75
ATOM     75  C   UNL A   1      46.055  29.000  31.615  1.00  0.00    -0.014 A 
ATOM     76  C   UNL A   1      47.129  29.200  30.736  1.00  0.00     0.009 A 
ATOM     77  C   UNL A   1      46.259  28.247  32.782  1.00  0.00     0.009 A 
ATOM     78  C   UNL A   1      48.378  28.642  31.013  1.00  0.00     0.001 A 
ATOM     79  C   UNL A   1      47.515  27.710  33.068  1.00  0.00     0.001 A 
ATOM     80  C   UNL A   1      48.572  27.904  32.180  1.00  0.00     0.000 A 
ENDBRANCH  62  75
ENDBRANCH  36  37
ENDBRANCH  28  31
ENDBRANCH  26  27
ENDBRANCH  25  26
ENDBRANCH  24  25
ENDBRANCH   1  24
TORSDOF 15
ENDMDL
