MODEL 1
REMARK VINA RESULT:     -11.5      0.000      0.000
REMARK SMILES O=C(NCCCCCCNC(=O)[C@H]1C=C[C@H](NC(=O)[C@]23C[C@H]4C[C@H](C[C@H](C4)C2)C3)C1)c1ccc(-c2c3nc(c(-c4ccccc4)c4ccc([nH]4)c(-c4ccccc4)c4nc(c(-c5ccccc5)c5ccc2[nH]5)C=C4)C=C3)cc1
REMARK SMILES IDX 6 1 5 2 4 3 3 4 1 5 2 6 31 8 32 9 78 10 33 11 77 12 34 13
REMARK SMILES IDX 35 14 36 15 71 16 37 17 76 18 70 19 72 20 38 21 75 22 69 23
REMARK SMILES IDX 68 24 39 26 61 27 46 28 60 29 47 30 50 31 59 32 73 33 48 34
REMARK SMILES IDX 49 35 58 37 74 38 51 39 40 40 41 41 45 42 42 43 44 44 43 45
REMARK SMILES IDX 62 46 63 47 67 48 64 49 66 50 65 51 52 52 53 53 57 54 54 55
REMARK SMILES IDX 56 56 55 57 7 58 8 59 9 60 10 61 11 62 12 64 13 65 14 66
REMARK SMILES IDX 30 67 15 68 16 69 17 70 18 71 19 73 20 74 21 75 28 76 29 77
REMARK SMILES IDX 22 78 26 79 24 80 23 81 27 82 25 83
REMARK H PARENT 3 7 72 25 50 36 10 63 17 72
REMARK Flexibility Score: inf
ROOT
ATOM      1  C   UNL A   1      33.939  27.664  24.929  1.00  0.00     0.002 C 
ENDROOT
BRANCH   1   2
ATOM      2  C   UNL A   1      33.101  28.277  26.044  1.00  0.00     0.021 C 
BRANCH   2   3
ATOM      3  C   UNL A   1      33.897  28.640  27.277  1.00  0.00     0.116 C 
BRANCH   3   4
ATOM      4  N   UNL A   1      33.730  30.035  27.628  1.00  0.00    -0.352 N 
ATOM      5  O   UNL A   1      34.277  31.917  28.764  1.00  0.00    -0.269 OA
ATOM      6  C   UNL A   1      34.609  30.820  28.328  1.00  0.00     0.251 C 
ATOM      7  H   UNL A   1      32.896  30.466  27.331  1.00  0.00     0.163 HD
BRANCH   6   8
ATOM      8  C   UNL A   1      35.967  30.294  28.559  1.00  0.00     0.039 A 
ATOM      9  C   UNL A   1      36.919  30.382  27.539  1.00  0.00     0.014 A 
ATOM     10  C   UNL A   1      36.267  29.649  29.759  1.00  0.00     0.014 A 
ATOM     11  C   UNL A   1      38.115  29.695  27.662  1.00  0.00     0.010 A 
ATOM     12  C   UNL A   1      37.527  29.071  29.931  1.00  0.00     0.010 A 
ATOM     13  C   UNL A   1      38.455  29.081  28.878  1.00  0.00    -0.014 A 
BRANCH  13  14
ATOM     14  C   UNL A   1      39.841  28.582  29.041  1.00  0.00     0.031 A 
ATOM     15  C   UNL A   1      40.246  27.198  28.626  1.00  0.00     0.074 A 
ATOM     16  C   UNL A   1      40.753  29.443  29.537  1.00  0.00     0.049 A 
ATOM     17  N   UNL A   1      41.435  26.652  28.662  1.00  0.00    -0.248 NA
ATOM     18  C   UNL A   1      39.192  26.310  28.113  1.00  0.00     0.031 C 
ATOM     19  C   UNL A   1      40.461  30.807  29.994  1.00  0.00     0.029 A 
ATOM     20  N   UNL A   1      42.107  29.324  29.704  1.00  0.00    -0.354 N 
ATOM     21  C   UNL A   1      41.274  25.354  28.196  1.00  0.00     0.074 A 
ATOM     22  C   UNL A   1      39.865  25.185  27.904  1.00  0.00     0.031 C 
ATOM     23  C   UNL A   1      41.606  31.423  30.308  1.00  0.00     0.029 A 
ATOM     24  C   UNL A   1      42.700  30.474  30.166  1.00  0.00     0.049 A 
ATOM     25  H   UNL A   1      42.605  28.498  29.512  1.00  0.00     0.167 HD
ATOM     26  C   UNL A   1      42.217  24.397  28.024  1.00  0.00     0.031 A 
ATOM     27  C   UNL A   1      43.984  30.736  30.464  1.00  0.00     0.031 A 
ATOM     28  C   UNL A   1      43.615  24.573  28.329  1.00  0.00     0.049 A 
ATOM     29  C   UNL A   1      44.997  29.650  30.281  1.00  0.00     0.074 A 
ATOM     30  C   UNL A   1      44.650  23.665  28.189  1.00  0.00     0.029 A 
ATOM     31  N   UNL A   1      44.173  25.737  28.835  1.00  0.00    -0.354 N 
ATOM     32  N   UNL A   1      44.825  28.433  29.823  1.00  0.00    -0.248 NA
ATOM     33  C   UNL A   1      46.378  29.970  30.658  1.00  0.00     0.031 C 
ATOM     34  C   UNL A   1      45.826  24.264  28.655  1.00  0.00     0.029 A 
ATOM     35  C   UNL A   1      45.534  25.566  29.028  1.00  0.00     0.049 A 
ATOM     36  H   UNL A   1      43.675  26.565  29.028  1.00  0.00     0.167 HD
ATOM     37  C   UNL A   1      46.079  27.842  29.853  1.00  0.00     0.074 A 
ATOM     38  C   UNL A   1      47.005  28.849  30.333  1.00  0.00     0.031 C 
ATOM     39  C   UNL A   1      46.433  26.576  29.524  1.00  0.00     0.031 A 
BRANCH  26  40
ATOM     40  C   UNL A   1      41.768  23.060  27.500  1.00  0.00    -0.014 A 
ATOM     41  C   UNL A   1      41.765  22.780  26.124  1.00  0.00     0.009 A 
ATOM     42  C   UNL A   1      41.400  22.044  28.398  1.00  0.00     0.009 A 
ATOM     43  C   UNL A   1      41.380  21.521  25.657  1.00  0.00     0.001 A 
ATOM     44  C   UNL A   1      41.040  20.778  27.930  1.00  0.00     0.001 A 
ATOM     45  C   UNL A   1      41.025  20.520  26.560  1.00  0.00     0.000 A 
ENDBRANCH  26  40
BRANCH  27  46
ATOM     46  C   UNL A   1      44.363  32.068  31.001  1.00  0.00    -0.014 A 
ATOM     47  C   UNL A   1      44.392  32.308  32.383  1.00  0.00     0.009 A 
ATOM     48  C   UNL A   1      44.712  33.109  30.125  1.00  0.00     0.009 A 
ATOM     49  C   UNL A   1      44.734  33.570  32.873  1.00  0.00     0.001 A 
ATOM     50  C   UNL A   1      45.090  34.358  30.618  1.00  0.00     0.001 A 
ATOM     51  C   UNL A   1      45.088  34.591  31.992  1.00  0.00     0.000 A 
ENDBRANCH  27  46
BRANCH  39  52
ATOM     52  C   UNL A   1      47.888  26.232  29.663  1.00  0.00    -0.014 A 
ATOM     53  C   UNL A   1      48.760  26.306  28.564  1.00  0.00     0.009 A 
ATOM     54  C   UNL A   1      48.390  25.822  30.906  1.00  0.00     0.009 A 
ATOM     55  C   UNL A   1      50.096  25.927  28.699  1.00  0.00     0.001 A 
ATOM     56  C   UNL A   1      49.735  25.475  31.045  1.00  0.00     0.001 A 
ATOM     57  C   UNL A   1      50.583  25.515  29.939  1.00  0.00     0.000 A 
ENDBRANCH  39  52
ENDBRANCH  13  14
ENDBRANCH   6   8
ENDBRANCH   3   4
ENDBRANCH   2   3
ENDBRANCH   1   2
BRANCH   1  58
ATOM     58  C   UNL A   1      34.032  28.488  23.640  1.00  0.00     0.002 C 
BRANCH  58  59
ATOM     59  C   UNL A   1      33.551  27.789  22.361  1.00  0.00     0.021 C 
BRANCH  59  60
ATOM     60  C   UNL A   1      32.915  26.423  22.585  1.00  0.00     0.116 C 
BRANCH  60  61
ATOM     61  N   UNL A   1      31.547  26.557  22.994  1.00  0.00    -0.356 N 
ATOM     62  C   UNL A   1      30.841  25.752  23.811  1.00  0.00     0.227 C 
ATOM     63  H   UNL A   1      31.063  27.334  22.631  1.00  0.00     0.163 HD
ATOM     64  O   UNL A   1      29.630  25.957  23.919  1.00  0.00    -0.274 OA
BRANCH  62  65
ATOM     65  C   UNL A   1      31.522  24.652  24.602  1.00  0.00     0.103 C 
ATOM     66  C   UNL A   1      31.651  24.797  26.099  1.00  0.00    -0.016 C 
ATOM     67  C   UNL A   1      30.939  23.235  24.426  1.00  0.00     0.047 C 
ATOM     68  C   UNL A   1      31.486  23.623  26.731  1.00  0.00    -0.006 C 
ATOM     69  C   UNL A   1      31.105  22.534  25.787  1.00  0.00     0.106 C 
BRANCH  69  70
ATOM     70  N   UNL A   1      31.944  21.329  25.840  1.00  0.00    -0.349 N 
ATOM     71  C   UNL A   1      33.186  20.875  25.522  1.00  0.00     0.226 C 
ATOM     72  H   UNL A   1      31.429  20.597  26.249  1.00  0.00     0.164 HD
ATOM     73  O   UNL A   1      33.311  19.644  25.607  1.00  0.00    -0.274 OA
BRANCH  71  74
ATOM     74  C   UNL A   1      34.429  21.726  25.195  1.00  0.00     0.050 C 
ATOM     75  C   UNL A   1      34.730  22.683  26.372  1.00  0.00     0.020 C 
ATOM     76  C   UNL A   1      34.249  22.542  23.940  1.00  0.00     0.020 C 
ATOM     77  C   UNL A   1      35.690  20.853  24.957  1.00  0.00     0.020 C 
ATOM     78  C   UNL A   1      35.935  23.589  26.036  1.00  0.00    -0.010 C 
ATOM     79  C   UNL A   1      35.412  23.454  23.585  1.00  0.00    -0.010 C 
ATOM     80  C   UNL A   1      36.910  21.743  24.607  1.00  0.00    -0.010 C 
ATOM     81  C   UNL A   1      37.175  22.717  25.769  1.00  0.00     0.007 C 
ATOM     82  C   UNL A   1      35.633  24.406  24.769  1.00  0.00     0.007 C 
ATOM     83  C   UNL A   1      36.626  22.567  23.339  1.00  0.00     0.007 C 
ENDBRANCH  71  74
ENDBRANCH  69  70
ENDBRANCH  62  65
ENDBRANCH  60  61
ENDBRANCH  59  60
ENDBRANCH  58  59
ENDBRANCH   1  58
TORSDOF 15
ENDMDL
MODEL 2
REMARK VINA RESULT:     -11.4      1.790      7.531
REMARK SMILES O=C(NCCCCCCNC(=O)[C@H]1C=C[C@H](NC(=O)[C@]23C[C@H]4C[C@H](C[C@H](C4)C2)C3)C1)c1ccc(-c2c3nc(c(-c4ccccc4)c4ccc([nH]4)c(-c4ccccc4)c4nc(c(-c5ccccc5)c5ccc2[nH]5)C=C4)C=C3)cc1
REMARK SMILES IDX 6 1 5 2 4 3 3 4 1 5 2 6 31 8 32 9 78 10 33 11 77 12 34 13
REMARK SMILES IDX 35 14 36 15 71 16 37 17 76 18 70 19 72 20 38 21 75 22 69 23
REMARK SMILES IDX 68 24 39 26 61 27 46 28 60 29 47 30 50 31 59 32 73 33 48 34
REMARK SMILES IDX 49 35 58 37 74 38 51 39 40 40 41 41 45 42 42 43 44 44 43 45
REMARK SMILES IDX 62 46 63 47 67 48 64 49 66 50 65 51 52 52 53 53 57 54 54 55
REMARK SMILES IDX 56 56 55 57 7 58 8 59 9 60 10 61 11 62 12 64 13 65 14 66
REMARK SMILES IDX 30 67 15 68 16 69 17 70 18 71 19 73 20 74 21 75 28 76 29 77
REMARK SMILES IDX 22 78 26 79 24 80 23 81 27 82 25 83
REMARK H PARENT 3 7 72 25 50 36 10 63 17 72
REMARK Flexibility Score: inf
ROOT
ATOM      1  C   UNL A   1      36.796  20.636  24.974  1.00  0.00     0.002 C 
ENDROOT
BRANCH   1   2
ATOM      2  C   UNL A   1      38.042  19.762  24.896  1.00  0.00     0.021 C 
BRANCH   2   3
ATOM      3  C   UNL A   1      39.135  20.167  25.859  1.00  0.00     0.116 C 
BRANCH   3   4
ATOM      4  N   UNL A   1      40.237  19.227  25.839  1.00  0.00    -0.352 N 
ATOM      5  O   UNL A   1      42.436  18.686  25.784  1.00  0.00    -0.269 OA
ATOM      6  C   UNL A   1      41.563  19.508  26.042  1.00  0.00     0.251 C 
ATOM      7  H   UNL A   1      40.009  18.286  25.660  1.00  0.00     0.163 HD
BRANCH   6   8
ATOM      8  C   UNL A   1      41.912  20.842  26.565  1.00  0.00     0.039 A 
ATOM      9  C   UNL A   1      41.835  21.080  27.941  1.00  0.00     0.014 A 
ATOM     10  C   UNL A   1      42.239  21.871  25.682  1.00  0.00     0.014 A 
ATOM     11  C   UNL A   1      41.939  22.376  28.415  1.00  0.00     0.010 A 
ATOM     12  C   UNL A   1      42.475  23.154  26.181  1.00  0.00     0.010 A 
ATOM     13  C   UNL A   1      42.315  23.417  27.550  1.00  0.00    -0.014 A 
BRANCH  13  14
ATOM     14  C   UNL A   1      42.658  24.729  28.148  1.00  0.00     0.031 A 
ATOM     15  C   UNL A   1      44.066  25.101  28.507  1.00  0.00     0.074 A 
ATOM     16  C   UNL A   1      41.652  25.612  28.316  1.00  0.00     0.049 A 
ATOM     17  N   UNL A   1      44.513  26.234  28.986  1.00  0.00    -0.248 NA
ATOM     18  C   UNL A   1      45.106  24.078  28.315  1.00  0.00     0.031 C 
ATOM     19  C   UNL A   1      40.240  25.345  28.020  1.00  0.00     0.029 A 
ATOM     20  N   UNL A   1      41.659  26.916  28.732  1.00  0.00    -0.354 N 
ATOM     21  C   UNL A   1      45.878  26.059  29.170  1.00  0.00     0.074 A 
ATOM     22  C   UNL A   1      46.185  24.701  28.773  1.00  0.00     0.031 C 
ATOM     23  C   UNL A   1      39.533  26.469  28.183  1.00  0.00     0.029 A 
ATOM     24  C   UNL A   1      40.420  27.509  28.683  1.00  0.00     0.049 A 
ATOM     25  H   UNL A   1      42.470  27.383  29.036  1.00  0.00     0.167 HD
ATOM     26  C   UNL A   1      46.789  26.954  29.625  1.00  0.00     0.031 A 
ATOM     27  C   UNL A   1      40.030  28.749  29.023  1.00  0.00     0.031 A 
ATOM     28  C   UNL A   1      46.470  28.300  30.028  1.00  0.00     0.049 A 
ATOM     29  C   UNL A   1      41.059  29.706  29.540  1.00  0.00     0.074 A 
ATOM     30  C   UNL A   1      47.321  29.284  30.502  1.00  0.00     0.029 A 
ATOM     31  N   UNL A   1      45.198  28.852  30.005  1.00  0.00    -0.354 N 
ATOM     32  N   UNL A   1      42.348  29.525  29.691  1.00  0.00    -0.248 NA
ATOM     33  C   UNL A   1      40.579  31.034  29.934  1.00  0.00     0.031 C 
ATOM     34  C   UNL A   1      46.556  30.415  30.810  1.00  0.00     0.029 A 
ATOM     35  C   UNL A   1      45.238  30.157  30.470  1.00  0.00     0.049 A 
ATOM     36  H   UNL A   1      44.385  28.386  29.701  1.00  0.00     0.167 HD
ATOM     37  C   UNL A   1      42.837  30.720  30.195  1.00  0.00     0.074 A 
ATOM     38  C   UNL A   1      41.710  31.629  30.283  1.00  0.00     0.031 C 
ATOM     39  C   UNL A   1      44.102  31.036  30.566  1.00  0.00     0.031 A 
BRANCH  26  40
ATOM     40  C   UNL A   1      48.220  26.501  29.731  1.00  0.00    -0.014 A 
ATOM     41  C   UNL A   1      49.136  26.733  28.694  1.00  0.00     0.009 A 
ATOM     42  C   UNL A   1      48.673  25.887  30.910  1.00  0.00     0.009 A 
ATOM     43  C   UNL A   1      50.470  26.340  28.824  1.00  0.00     0.001 A 
ATOM     44  C   UNL A   1      50.013  25.517  31.048  1.00  0.00     0.001 A 
ATOM     45  C   UNL A   1      50.909  25.738  30.003  1.00  0.00     0.000 A 
ENDBRANCH  26  40
BRANCH  27  46
ATOM     46  C   UNL A   1      38.598  29.130  28.919  1.00  0.00    -0.014 A 
ATOM     47  C   UNL A   1      37.749  29.055  30.032  1.00  0.00     0.009 A 
ATOM     48  C   UNL A   1      38.077  29.586  27.697  1.00  0.00     0.009 A 
ATOM     49  C   UNL A   1      36.401  29.401  29.915  1.00  0.00     0.001 A 
ATOM     50  C   UNL A   1      36.739  29.967  27.592  1.00  0.00     0.001 A 
ATOM     51  C   UNL A   1      35.899  29.861  28.699  1.00  0.00     0.000 A 
ENDBRANCH  27  46
BRANCH  39  52
ATOM     52  C   UNL A   1      44.318  32.430  31.081  1.00  0.00    -0.014 A 
ATOM     53  C   UNL A   1      44.643  33.484  30.211  1.00  0.00     0.009 A 
ATOM     54  C   UNL A   1      44.203  32.690  32.454  1.00  0.00     0.009 A 
ATOM     55  C   UNL A   1      44.898  34.759  30.715  1.00  0.00     0.001 A 
ATOM     56  C   UNL A   1      44.425  33.975  32.951  1.00  0.00     0.001 A 
ATOM     57  C   UNL A   1      44.786  35.005  32.082  1.00  0.00     0.000 A 
ENDBRANCH  39  52
ENDBRANCH  13  14
ENDBRANCH   6   8
ENDBRANCH   3   4
ENDBRANCH   2   3
ENDBRANCH   1   2
BRANCH   1  58
ATOM     58  C   UNL A   1      36.933  22.039  24.371  1.00  0.00     0.002 C 
BRANCH  58  59
ATOM     59  C   UNL A   1      37.385  23.143  25.336  1.00  0.00     0.021 C 
BRANCH  59  60
ATOM     60  C   UNL A   1      36.249  23.926  25.981  1.00  0.00     0.116 C 
BRANCH  60  61
ATOM     61  N   UNL A   1      35.482  23.087  26.856  1.00  0.00    -0.356 N 
ATOM     62  C   UNL A   1      34.142  22.976  26.937  1.00  0.00     0.227 C 
ATOM     63  H   UNL A   1      35.998  22.523  27.475  1.00  0.00     0.163 HD
ATOM     64  O   UNL A   1      33.672  22.308  27.861  1.00  0.00    -0.274 OA
BRANCH  62  65
ATOM     65  C   UNL A   1      33.241  23.623  25.903  1.00  0.00     0.103 C 
ATOM     66  C   UNL A   1      33.177  23.034  24.515  1.00  0.00    -0.016 C 
ATOM     67  C   UNL A   1      31.758  23.773  26.299  1.00  0.00     0.047 C 
ATOM     68  C   UNL A   1      31.935  23.087  24.005  1.00  0.00    -0.006 C 
ATOM     69  C   UNL A   1      30.950  23.602  24.999  1.00  0.00     0.106 C 
BRANCH  69  70
ATOM     70  N   UNL A   1      30.129  24.733  24.547  1.00  0.00    -0.349 N 
ATOM     71  C   UNL A   1      30.052  26.090  24.603  1.00  0.00     0.226 C 
ATOM     72  H   UNL A   1      29.372  24.390  24.020  1.00  0.00     0.164 HD
ATOM     73  O   UNL A   1      28.979  26.553  24.189  1.00  0.00    -0.274 OA
BRANCH  71  74
ATOM     74  C   UNL A   1      31.176  27.067  25.006  1.00  0.00     0.050 C 
ATOM     75  C   UNL A   1      30.776  28.509  24.617  1.00  0.00     0.020 C 
ATOM     76  C   UNL A   1      32.488  26.732  24.345  1.00  0.00     0.020 C 
ATOM     77  C   UNL A   1      31.451  27.044  26.533  1.00  0.00     0.020 C 
ATOM     78  C   UNL A   1      31.917  29.494  24.954  1.00  0.00    -0.010 C 
ATOM     79  C   UNL A   1      33.631  27.687  24.647  1.00  0.00    -0.010 C 
ATOM     80  C   UNL A   1      32.601  28.019  26.893  1.00  0.00    -0.010 C 
ATOM     81  C   UNL A   1      32.208  29.445  26.466  1.00  0.00     0.007 C 
ATOM     82  C   UNL A   1      33.193  29.089  24.199  1.00  0.00     0.007 C 
ATOM     83  C   UNL A   1      33.889  27.627  26.147  1.00  0.00     0.007 C 
ENDBRANCH  71  74
ENDBRANCH  69  70
ENDBRANCH  62  65
ENDBRANCH  60  61
ENDBRANCH  59  60
ENDBRANCH  58  59
ENDBRANCH   1  58
TORSDOF 15
ENDMDL
MODEL 3
REMARK VINA RESULT:     -11.3      2.624      6.856
REMARK SMILES O=C(NCCCCCCNC(=O)[C@H]1C=C[C@H](NC(=O)[C@]23C[C@H]4C[C@H](C[C@H](C4)C2)C3)C1)c1ccc(-c2c3nc(c(-c4ccccc4)c4ccc([nH]4)c(-c4ccccc4)c4nc(c(-c5ccccc5)c5ccc2[nH]5)C=C4)C=C3)cc1
REMARK SMILES IDX 6 1 5 2 4 3 3 4 1 5 2 6 31 8 32 9 78 10 33 11 77 12 34 13
REMARK SMILES IDX 35 14 36 15 71 16 37 17 76 18 70 19 72 20 38 21 75 22 69 23
REMARK SMILES IDX 68 24 39 26 61 27 46 28 60 29 47 30 50 31 59 32 73 33 48 34
REMARK SMILES IDX 49 35 58 37 74 38 51 39 40 40 41 41 45 42 42 43 44 44 43 45
REMARK SMILES IDX 62 46 63 47 67 48 64 49 66 50 65 51 52 52 53 53 57 54 54 55
REMARK SMILES IDX 56 56 55 57 7 58 8 59 9 60 10 61 11 62 12 64 13 65 14 66
REMARK SMILES IDX 30 67 15 68 16 69 17 70 18 71 19 73 20 74 21 75 28 76 29 77
REMARK SMILES IDX 22 78 26 79 24 80 23 81 27 82 25 83
REMARK H PARENT 3 7 72 25 50 36 10 63 17 72
REMARK Flexibility Score: inf
ROOT
ATOM      1  C   UNL A   1      31.661  30.226  25.597  1.00  0.00     0.002 C 
ENDROOT
BRANCH   1   2
ATOM      2  C   UNL A   1      31.411  31.423  26.506  1.00  0.00     0.021 C 
BRANCH   2   3
ATOM      3  C   UNL A   1      32.675  32.097  26.991  1.00  0.00     0.116 C 
BRANCH   3   4
ATOM      4  N   UNL A   1      32.422  33.457  27.419  1.00  0.00    -0.352 N 
ATOM      5  O   UNL A   1      32.714  35.236  28.792  1.00  0.00    -0.269 OA
ATOM      6  C   UNL A   1      33.140  34.181  28.336  1.00  0.00     0.251 C 
ATOM      7  H   UNL A   1      31.651  33.911  27.007  1.00  0.00     0.163 HD
BRANCH   6   8
ATOM      8  C   UNL A   1      34.439  33.637  28.775  1.00  0.00     0.039 A 
ATOM      9  C   UNL A   1      34.487  32.792  29.887  1.00  0.00     0.014 A 
ATOM     10  C   UNL A   1      35.611  34.030  28.128  1.00  0.00     0.014 A 
ATOM     11  C   UNL A   1      35.712  32.462  30.440  1.00  0.00     0.010 A 
ATOM     12  C   UNL A   1      36.843  33.584  28.611  1.00  0.00     0.010 A 
ATOM     13  C   UNL A   1      36.902  32.806  29.777  1.00  0.00    -0.014 A 
BRANCH  13  14
ATOM     14  C   UNL A   1      38.169  32.216  30.272  1.00  0.00     0.031 A 
ATOM     15  C   UNL A   1      38.952  32.830  31.394  1.00  0.00     0.074 A 
ATOM     16  C   UNL A   1      38.575  31.063  29.703  1.00  0.00     0.049 A 
ATOM     17  N   UNL A   1      40.046  32.388  31.961  1.00  0.00    -0.248 NA
ATOM     18  C   UNL A   1      38.457  34.099  31.950  1.00  0.00     0.031 C 
ATOM     19  C   UNL A   1      37.899  30.391  28.587  1.00  0.00     0.029 A 
ATOM     20  N   UNL A   1      39.620  30.230  30.002  1.00  0.00    -0.354 N 
ATOM     21  C   UNL A   1      40.383  33.328  32.925  1.00  0.00     0.074 A 
ATOM     22  C   UNL A   1      39.389  34.379  32.853  1.00  0.00     0.031 C 
ATOM     23  C   UNL A   1      38.494  29.215  28.353  1.00  0.00     0.029 A 
ATOM     24  C   UNL A   1      39.645  29.091  29.234  1.00  0.00     0.049 A 
ATOM     25  H   UNL A   1      40.287  30.428  30.699  1.00  0.00     0.167 HD
ATOM     26  C   UNL A   1      41.424  33.311  33.793  1.00  0.00     0.031 A 
ATOM     27  C   UNL A   1      40.511  28.064  29.221  1.00  0.00     0.031 A 
ATOM     28  C   UNL A   1      42.414  32.265  33.848  1.00  0.00     0.049 A 
ATOM     29  C   UNL A   1      41.661  28.086  30.180  1.00  0.00     0.074 A 
ATOM     30  C   UNL A   1      43.506  32.154  34.691  1.00  0.00     0.029 A 
ATOM     31  N   UNL A   1      42.431  31.148  33.026  1.00  0.00    -0.354 N 
ATOM     32  N   UNL A   1      41.952  28.977  31.095  1.00  0.00    -0.248 NA
ATOM     33  C   UNL A   1      42.601  26.963  30.101  1.00  0.00     0.031 C 
ATOM     34  C   UNL A   1      44.211  30.994  34.348  1.00  0.00     0.029 A 
ATOM     35  C   UNL A   1      43.523  30.351  33.331  1.00  0.00     0.049 A 
ATOM     36  H   UNL A   1      41.764  30.950  32.329  1.00  0.00     0.167 HD
ATOM     37  C   UNL A   1      43.109  28.521  31.707  1.00  0.00     0.074 A 
ATOM     38  C   UNL A   1      43.439  27.254  31.085  1.00  0.00     0.031 C 
ATOM     39  C   UNL A   1      43.842  29.103  32.687  1.00  0.00     0.031 A 
BRANCH  26  40
ATOM     40  C   UNL A   1      41.561  34.469  34.743  1.00  0.00    -0.014 A 
ATOM     41  C   UNL A   1      42.252  35.635  34.377  1.00  0.00     0.009 A 
ATOM     42  C   UNL A   1      40.939  34.419  36.001  1.00  0.00     0.009 A 
ATOM     43  C   UNL A   1      42.338  36.715  35.258  1.00  0.00     0.001 A 
ATOM     44  C   UNL A   1      41.005  35.510  36.871  1.00  0.00     0.001 A 
ATOM     45  C   UNL A   1      41.709  36.655  36.501  1.00  0.00     0.000 A 
ENDBRANCH  26  40
BRANCH  27  46
ATOM     46  C   UNL A   1      40.337  26.960  28.242  1.00  0.00    -0.014 A 
ATOM     47  C   UNL A   1      40.954  27.008  26.984  1.00  0.00     0.009 A 
ATOM     48  C   UNL A   1      39.557  25.840  28.573  1.00  0.00     0.009 A 
ATOM     49  C   UNL A   1      40.768  25.971  26.067  1.00  0.00     0.001 A 
ATOM     50  C   UNL A   1      39.404  24.788  27.671  1.00  0.00     0.001 A 
ATOM     51  C   UNL A   1      39.999  24.860  26.413  1.00  0.00     0.000 A 
ENDBRANCH  27  46
BRANCH  39  52
ATOM     52  C   UNL A   1      45.059  28.352  33.146  1.00  0.00    -0.014 A 
ATOM     53  C   UNL A   1      44.982  27.410  34.185  1.00  0.00     0.009 A 
ATOM     54  C   UNL A   1      46.298  28.597  32.537  1.00  0.00     0.009 A 
ATOM     55  C   UNL A   1      46.134  26.765  34.636  1.00  0.00     0.001 A 
ATOM     56  C   UNL A   1      47.442  27.926  32.970  1.00  0.00     0.001 A 
ATOM     57  C   UNL A   1      47.362  27.021  34.027  1.00  0.00     0.000 A 
ENDBRANCH  39  52
ENDBRANCH  13  14
ENDBRANCH   6   8
ENDBRANCH   3   4
ENDBRANCH   2   3
ENDBRANCH   1   2
BRANCH   1  58
ATOM     58  C   UNL A   1      32.003  28.913  26.310  1.00  0.00     0.002 C 
BRANCH  58  59
ATOM     59  C   UNL A   1      33.300  28.225  25.864  1.00  0.00     0.021 C 
BRANCH  59  60
ATOM     60  C   UNL A   1      33.142  27.284  24.676  1.00  0.00     0.116 C 
BRANCH  60  61
ATOM     61  N   UNL A   1      31.757  27.080  24.366  1.00  0.00    -0.356 N 
ATOM     62  C   UNL A   1      31.050  25.936  24.433  1.00  0.00     0.227 C 
ATOM     63  H   UNL A   1      31.260  27.876  24.065  1.00  0.00     0.163 HD
ATOM     64  O   UNL A   1      29.903  25.937  23.979  1.00  0.00    -0.274 OA
BRANCH  62  65
ATOM     65  C   UNL A   1      31.633  24.695  25.081  1.00  0.00     0.103 C 
ATOM     66  C   UNL A   1      31.583  24.560  26.583  1.00  0.00    -0.016 C 
ATOM     67  C   UNL A   1      31.076  23.347  24.579  1.00  0.00     0.047 C 
ATOM     68  C   UNL A   1      31.345  23.293  26.964  1.00  0.00    -0.006 C 
ATOM     69  C   UNL A   1      31.081  22.404  25.797  1.00  0.00     0.106 C 
BRANCH  69  70
ATOM     70  N   UNL A   1      31.909  21.193  25.724  1.00  0.00    -0.349 N 
ATOM     71  C   UNL A   1      33.145  20.762  25.354  1.00  0.00     0.226 C 
ATOM     72  H   UNL A   1      31.389  20.428  26.061  1.00  0.00     0.164 HD
ATOM     73  O   UNL A   1      33.259  19.528  25.315  1.00  0.00    -0.274 OA
BRANCH  71  74
ATOM     74  C   UNL A   1      34.394  21.632  25.106  1.00  0.00     0.050 C 
ATOM     75  C   UNL A   1      34.664  22.521  26.342  1.00  0.00     0.020 C 
ATOM     76  C   UNL A   1      34.243  22.516  23.895  1.00  0.00     0.020 C 
ATOM     77  C   UNL A   1      35.662  20.774  24.851  1.00  0.00     0.020 C 
ATOM     78  C   UNL A   1      35.875  23.445  26.087  1.00  0.00    -0.010 C 
ATOM     79  C   UNL A   1      35.413  23.447  23.620  1.00  0.00    -0.010 C 
ATOM     80  C   UNL A   1      36.888  21.683  24.581  1.00  0.00    -0.010 C 
ATOM     81  C   UNL A   1      37.123  22.591  25.803  1.00  0.00     0.007 C 
ATOM     82  C   UNL A   1      35.602  24.332  24.861  1.00  0.00     0.007 C 
ATOM     83  C   UNL A   1      36.634  22.577  23.355  1.00  0.00     0.007 C 
ENDBRANCH  71  74
ENDBRANCH  69  70
ENDBRANCH  62  65
ENDBRANCH  60  61
ENDBRANCH  59  60
ENDBRANCH  58  59
ENDBRANCH   1  58
TORSDOF 15
ENDMDL
