MODEL 1
REMARK VINA RESULT:     -10.7      0.000      0.000
REMARK SMILES CC1C[NH+]([C@@H](C(=O)NCCCCCCNC(=O)c2ccc(-c3c4nc(c(-c5ccccc5)c5ccc([nH]5)c(-c5ccccc5)c5nc(c(-c6ccccc6)c6ccc3[nH]6)C=C5)C=C4)cc2)C2CCCCC2)C1
REMARK SMILES IDX 12 1 11 2 10 3 9 4 8 5 6 6 7 7 5 9 4 10 1 11 2 12 3 13 72 14
REMARK SMILES IDX 66 16 67 17 71 18 68 19 70 20 69 21 13 22 14 23 15 24 16 25
REMARK SMILES IDX 17 27 18 28 19 29 65 30 20 31 64 32 21 33 22 34 23 35 58 36
REMARK SMILES IDX 24 37 63 38 57 39 59 40 25 41 62 42 56 43 55 44 26 46 48 47
REMARK SMILES IDX 33 48 47 49 34 50 37 51 46 52 60 53 35 54 36 55 45 57 61 58
REMARK SMILES IDX 38 59 27 60 28 61 32 62 29 63 31 64 30 65 49 66 50 67 54 68
REMARK SMILES IDX 51 69 53 70 52 71 39 72 40 73 44 74 41 75 43 76 42 77
REMARK H PARENT 8 8 4 15 15 26 59 45 37 56
REMARK Flexibility Score: inf
ROOT
ATOM      1  C   UNL A   1      31.437  30.684  26.277  1.00  0.00     0.002 C 
ENDROOT
BRANCH   1   2
ATOM      2  C   UNL A   1      32.497  29.944  27.093  1.00  0.00     0.002 C 
BRANCH   2   3
ATOM      3  C   UNL A   1      32.077  28.551  27.577  1.00  0.00     0.021 C 
BRANCH   3   4
ATOM      4  C   UNL A   1      32.404  27.399  26.617  1.00  0.00     0.116 C 
BRANCH   4   5
ATOM      5  N   UNL A   1      31.536  26.254  26.826  1.00  0.00    -0.351 N 
ATOM      6  C   UNL A   1      30.687  25.562  26.009  1.00  0.00     0.278 C 
ATOM      7  O   UNL A   1      30.040  24.670  26.569  1.00  0.00    -0.268 OA
ATOM      8  H   UNL A   1      31.564  25.904  27.746  1.00  0.00     0.163 HD
BRANCH   6   9
ATOM      9  C   UNL A   1      30.560  25.849  24.487  1.00  0.00     0.277 C 
BRANCH   9  10
ATOM     10  N   UNL A   1      31.813  25.793  23.678  1.00  0.00    -0.324 N 
ATOM     11  C   UNL A   1      33.239  23.093  22.078  1.00  0.00     0.020 C 
ATOM     12  C   UNL A   1      32.239  23.858  22.916  1.00  0.00     0.096 C 
ATOM     13  C   UNL A   1      32.773  24.733  24.058  1.00  0.00     0.271 C 
ATOM     14  C   UNL A   1      31.676  25.186  22.348  1.00  0.00     0.271 C 
ATOM     15  H   UNL A   1      32.068  26.776  23.774  1.00  0.00     0.348 HD
ENDBRANCH   9  10
BRANCH   9  16
ATOM     16  C   UNL A   1      29.844  27.238  24.245  1.00  0.00     0.057 C 
ATOM     17  C   UNL A   1      30.686  28.260  23.444  1.00  0.00     0.010 C 
ATOM     18  C   UNL A   1      28.469  27.036  23.563  1.00  0.00     0.010 C 
ATOM     19  C   UNL A   1      29.948  29.563  23.164  1.00  0.00     0.001 C 
ATOM     20  C   UNL A   1      27.763  28.351  23.224  1.00  0.00     0.001 C 
ATOM     21  C   UNL A   1      28.653  29.285  22.415  1.00  0.00     0.000 C 
ENDBRANCH   9  16
ENDBRANCH   6   9
ENDBRANCH   4   5
ENDBRANCH   3   4
ENDBRANCH   2   3
ENDBRANCH   1   2
BRANCH   1  22
ATOM     22  C   UNL A   1      31.378  32.198  26.503  1.00  0.00     0.021 C 
BRANCH  22  23
ATOM     23  C   UNL A   1      32.543  32.783  27.299  1.00  0.00     0.116 C 
BRANCH  23  24
ATOM     24  N   UNL A   1      32.336  34.183  27.625  1.00  0.00    -0.352 N 
ATOM     25  C   UNL A   1      32.975  34.953  28.567  1.00  0.00     0.251 C 
ATOM     26  H   UNL A   1      31.642  34.644  27.100  1.00  0.00     0.163 HD
ATOM     27  O   UNL A   1      32.547  36.063  28.862  1.00  0.00    -0.269 OA
BRANCH  25  28
ATOM     28  C   UNL A   1      34.181  34.426  29.239  1.00  0.00     0.039 A 
ATOM     29  C   UNL A   1      34.054  33.846  30.504  1.00  0.00     0.014 A 
ATOM     30  C   UNL A   1      35.435  34.510  28.625  1.00  0.00     0.014 A 
ATOM     31  C   UNL A   1      35.176  33.301  31.131  1.00  0.00     0.010 A 
ATOM     32  C   UNL A   1      36.540  33.911  29.223  1.00  0.00     0.010 A 
ATOM     33  C   UNL A   1      36.423  33.305  30.483  1.00  0.00    -0.014 A 
BRANCH  33  34
ATOM     34  C   UNL A   1      37.616  32.685  31.112  1.00  0.00     0.031 A 
ATOM     35  C   UNL A   1      38.254  31.473  30.493  1.00  0.00     0.074 A 
ATOM     36  C   UNL A   1      38.091  33.176  32.272  1.00  0.00     0.049 A 
ATOM     37  N   UNL A   1      39.268  30.763  30.921  1.00  0.00    -0.248 NA
ATOM     38  C   UNL A   1      37.661  30.979  29.240  1.00  0.00     0.031 C 
ATOM     39  C   UNL A   1      37.540  34.324  32.996  1.00  0.00     0.029 A 
ATOM     40  N   UNL A   1      39.144  32.765  33.052  1.00  0.00    -0.354 N 
ATOM     41  C   UNL A   1      39.421  29.732  30.003  1.00  0.00     0.074 A 
ATOM     42  C   UNL A   1      38.369  29.881  29.020  1.00  0.00     0.031 C 
ATOM     43  C   UNL A   1      38.274  34.539  34.100  1.00  0.00     0.029 A 
ATOM     44  C   UNL A   1      39.322  33.526  34.182  1.00  0.00     0.049 A 
ATOM     45  H   UNL A   1      39.715  31.997  32.822  1.00  0.00     0.167 HD
ATOM     46  C   UNL A   1      40.363  28.759  29.968  1.00  0.00     0.031 A 
ATOM     47  C   UNL A   1      40.225  33.418  35.173  1.00  0.00     0.031 A 
ATOM     48  C   UNL A   1      41.416  28.616  30.937  1.00  0.00     0.049 A 
ATOM     49  C   UNL A   1      41.255  32.325  35.118  1.00  0.00     0.074 A 
ATOM     50  C   UNL A   1      42.452  27.698  30.956  1.00  0.00     0.029 A 
ATOM     51  N   UNL A   1      41.567  29.412  32.061  1.00  0.00    -0.354 N 
ATOM     52  N   UNL A   1      41.427  31.399  34.207  1.00  0.00    -0.248 NA
ATOM     53  C   UNL A   1      42.222  32.271  36.223  1.00  0.00     0.031 C 
ATOM     54  C   UNL A   1      43.202  27.909  32.116  1.00  0.00     0.029 A 
ATOM     55  C   UNL A   1      42.664  28.993  32.794  1.00  0.00     0.049 A 
ATOM     56  H   UNL A   1      40.980  30.165  32.303  1.00  0.00     0.167 HD
ATOM     57  C   UNL A   1      42.536  30.669  34.615  1.00  0.00     0.074 A 
ATOM     58  C   UNL A   1      43.003  31.269  35.847  1.00  0.00     0.031 C 
ATOM     59  C   UNL A   1      43.116  29.597  34.019  1.00  0.00     0.031 A 
BRANCH  46  60
ATOM     60  C   UNL A   1      40.286  27.764  28.843  1.00  0.00    -0.014 A 
ATOM     61  C   UNL A   1      40.915  28.008  27.613  1.00  0.00     0.009 A 
ATOM     62  C   UNL A   1      39.597  26.555  29.027  1.00  0.00     0.009 A 
ATOM     63  C   UNL A   1      40.822  27.078  26.574  1.00  0.00     0.001 A 
ATOM     64  C   UNL A   1      39.530  25.615  27.996  1.00  0.00     0.001 A 
ATOM     65  C   UNL A   1      40.134  25.881  26.768  1.00  0.00     0.000 A 
ENDBRANCH  46  60
BRANCH  47  66
ATOM     66  C   UNL A   1      40.209  34.388  36.300  1.00  0.00    -0.014 A 
ATOM     67  C   UNL A   1      39.481  34.109  37.467  1.00  0.00     0.009 A 
ATOM     68  C   UNL A   1      40.921  35.595  36.214  1.00  0.00     0.009 A 
ATOM     69  C   UNL A   1      39.447  35.030  38.516  1.00  0.00     0.001 A 
ATOM     70  C   UNL A   1      40.905  36.502  37.275  1.00  0.00     0.001 A 
ATOM     71  C   UNL A   1      40.163  36.223  38.421  1.00  0.00     0.000 A 
ENDBRANCH  47  66
BRANCH  59  72
ATOM     72  C   UNL A   1      44.339  29.026  34.677  1.00  0.00    -0.014 A 
ATOM     73  C   UNL A   1      44.244  27.973  35.601  1.00  0.00     0.009 A 
ATOM     74  C   UNL A   1      45.606  29.524  34.337  1.00  0.00     0.009 A 
ATOM     75  C   UNL A   1      45.396  27.451  36.194  1.00  0.00     0.001 A 
ATOM     76  C   UNL A   1      46.757  28.981  34.912  1.00  0.00     0.001 A 
ATOM     77  C   UNL A   1      46.649  27.952  35.846  1.00  0.00     0.000 A 
ENDBRANCH  59  72
ENDBRANCH  33  34
ENDBRANCH  25  28
ENDBRANCH  23  24
ENDBRANCH  22  23
ENDBRANCH   1  22
TORSDOF 15
ENDMDL
MODEL 2
REMARK VINA RESULT:     -10.7      5.148     10.145
REMARK SMILES CC1C[NH+]([C@@H](C(=O)NCCCCCCNC(=O)c2ccc(-c3c4nc(c(-c5ccccc5)c5ccc([nH]5)c(-c5ccccc5)c5nc(c(-c6ccccc6)c6ccc3[nH]6)C=C5)C=C4)cc2)C2CCCCC2)C1
REMARK SMILES IDX 12 1 11 2 10 3 9 4 8 5 6 6 7 7 5 9 4 10 1 11 2 12 3 13 72 14
REMARK SMILES IDX 66 16 67 17 71 18 68 19 70 20 69 21 13 22 14 23 15 24 16 25
REMARK SMILES IDX 17 27 18 28 19 29 65 30 20 31 64 32 21 33 22 34 23 35 58 36
REMARK SMILES IDX 24 37 63 38 57 39 59 40 25 41 62 42 56 43 55 44 26 46 48 47
REMARK SMILES IDX 33 48 47 49 34 50 37 51 46 52 60 53 35 54 36 55 45 57 61 58
REMARK SMILES IDX 38 59 27 60 28 61 32 62 29 63 31 64 30 65 49 66 50 67 54 68
REMARK SMILES IDX 51 69 53 70 52 71 39 72 40 73 44 74 41 75 43 76 42 77
REMARK H PARENT 8 8 4 15 15 26 59 45 37 56
REMARK Flexibility Score: inf
ROOT
ATOM      1  C   UNL A   1      37.396  21.386  24.592  1.00  0.00     0.002 C 
ENDROOT
BRANCH   1   2
ATOM      2  C   UNL A   1      37.952  22.663  25.222  1.00  0.00     0.002 C 
BRANCH   2   3
ATOM      3  C   UNL A   1      36.895  23.588  25.837  1.00  0.00     0.021 C 
BRANCH   3   4
ATOM      4  C   UNL A   1      35.452  23.321  25.387  1.00  0.00     0.116 C 
BRANCH   4   5
ATOM      5  N   UNL A   1      34.760  22.418  26.290  1.00  0.00    -0.351 N 
ATOM      6  C   UNL A   1      33.800  21.464  26.104  1.00  0.00     0.278 C 
ATOM      7  O   UNL A   1      33.386  20.935  27.142  1.00  0.00    -0.268 OA
ATOM      8  H   UNL A   1      35.039  22.513  27.229  1.00  0.00     0.163 HD
BRANCH   6   9
ATOM      9  C   UNL A   1      33.284  21.048  24.699  1.00  0.00     0.277 C 
BRANCH   9  10
ATOM     10  N   UNL A   1      31.963  21.595  24.271  1.00  0.00    -0.324 N 
ATOM     11  C   UNL A   1      31.040  24.878  23.761  1.00  0.00     0.020 C 
ATOM     12  C   UNL A   1      31.937  23.712  24.115  1.00  0.00     0.096 C 
ATOM     13  C   UNL A   1      31.412  22.675  25.119  1.00  0.00     0.271 C 
ATOM     14  C   UNL A   1      32.004  22.518  23.129  1.00  0.00     0.271 C 
ATOM     15  H   UNL A   1      31.476  20.701  24.196  1.00  0.00     0.348 HD
ENDBRANCH   9  10
BRANCH   9  16
ATOM     16  C   UNL A   1      33.266  19.473  24.561  1.00  0.00     0.057 C 
ATOM     17  C   UNL A   1      32.541  18.949  23.297  1.00  0.00     0.010 C 
ATOM     18  C   UNL A   1      34.702  18.899  24.622  1.00  0.00     0.010 C 
ATOM     19  C   UNL A   1      32.599  17.434  23.152  1.00  0.00     0.001 C 
ATOM     20  C   UNL A   1      34.758  17.384  24.409  1.00  0.00     0.001 C 
ATOM     21  C   UNL A   1      34.044  16.961  23.132  1.00  0.00     0.000 C 
ENDBRANCH   9  16
ENDBRANCH   6   9
ENDBRANCH   4   5
ENDBRANCH   3   4
ENDBRANCH   2   3
ENDBRANCH   1   2
BRANCH   1  22
ATOM     22  C   UNL A   1      38.198  20.113  24.879  1.00  0.00     0.021 C 
BRANCH  22  23
ATOM     23  C   UNL A   1      39.171  20.209  26.052  1.00  0.00     0.116 C 
BRANCH  23  24
ATOM     24  N   UNL A   1      40.269  19.263  25.933  1.00  0.00    -0.352 N 
ATOM     25  C   UNL A   1      41.620  19.495  26.025  1.00  0.00     0.251 C 
ATOM     26  H   UNL A   1      40.008  18.329  25.762  1.00  0.00     0.163 HD
ATOM     27  O   UNL A   1      42.425  18.631  25.699  1.00  0.00    -0.269 OA
BRANCH  25  28
ATOM     28  C   UNL A   1      42.102  20.806  26.507  1.00  0.00     0.039 A 
ATOM     29  C   UNL A   1      42.516  21.761  25.575  1.00  0.00     0.014 A 
ATOM     30  C   UNL A   1      42.149  21.089  27.876  1.00  0.00     0.014 A 
ATOM     31  C   UNL A   1      42.928  23.022  26.013  1.00  0.00     0.010 A 
ATOM     32  C   UNL A   1      42.500  22.365  28.307  1.00  0.00     0.010 A 
ATOM     33  C   UNL A   1      42.897  23.343  27.380  1.00  0.00    -0.014 A 
BRANCH  33  34
ATOM     34  C   UNL A   1      43.283  24.693  27.860  1.00  0.00     0.031 A 
ATOM     35  C   UNL A   1      42.229  25.726  28.142  1.00  0.00     0.074 A 
ATOM     36  C   UNL A   1      44.586  25.011  27.986  1.00  0.00     0.049 A 
ATOM     37  N   UNL A   1      42.372  26.972  28.518  1.00  0.00    -0.248 NA
ATOM     38  C   UNL A   1      40.829  25.312  27.954  1.00  0.00     0.031 C 
ATOM     39  C   UNL A   1      45.709  24.112  27.707  1.00  0.00     0.029 A 
ATOM     40  N   UNL A   1      45.186  26.183  28.373  1.00  0.00    -0.354 N 
ATOM     41  C   UNL A   1      41.087  27.494  28.594  1.00  0.00     0.074 A 
ATOM     42  C   UNL A   1      40.179  26.444  28.182  1.00  0.00     0.031 C 
ATOM     43  C   UNL A   1      46.859  24.758  27.957  1.00  0.00     0.029 A 
ATOM     44  C   UNL A   1      46.559  26.124  28.376  1.00  0.00     0.049 A 
ATOM     45  H   UNL A   1      44.680  26.989  28.625  1.00  0.00     0.167 HD
ATOM     46  C   UNL A   1      40.694  28.729  28.989  1.00  0.00     0.031 A 
ATOM     47  C   UNL A   1      47.472  27.064  28.679  1.00  0.00     0.031 A 
ATOM     48  C   UNL A   1      41.593  29.769  29.410  1.00  0.00     0.049 A 
ATOM     49  C   UNL A   1      47.012  28.430  29.107  1.00  0.00     0.074 A 
ATOM     50  C   UNL A   1      41.287  31.033  29.883  1.00  0.00     0.029 A 
ATOM     51  N   UNL A   1      42.974  29.666  29.407  1.00  0.00    -0.354 N 
ATOM     52  N   UNL A   1      45.791  28.885  29.238  1.00  0.00    -0.248 NA
ATOM     53  C   UNL A   1      48.060  29.406  29.439  1.00  0.00     0.031 C 
ATOM     54  C   UNL A   1      42.486  31.712  30.122  1.00  0.00     0.029 A 
ATOM     55  C   UNL A   1      43.538  30.852  29.847  1.00  0.00     0.049 A 
ATOM     56  H   UNL A   1      43.481  28.868  29.132  1.00  0.00     0.167 HD
ATOM     57  C   UNL A   1      45.921  30.191  29.691  1.00  0.00     0.074 A 
ATOM     58  C   UNL A   1      47.340  30.449  29.826  1.00  0.00     0.031 C 
ATOM     59  C   UNL A   1      44.951  31.095  29.973  1.00  0.00     0.031 A 
BRANCH  46  60
ATOM     60  C   UNL A   1      39.219  29.021  28.973  1.00  0.00    -0.014 A 
ATOM     61  C   UNL A   1      38.419  28.790  30.103  1.00  0.00     0.009 A 
ATOM     62  C   UNL A   1      38.626  29.559  27.820  1.00  0.00     0.009 A 
ATOM     63  C   UNL A   1      37.048  29.055  30.066  1.00  0.00     0.001 A 
ATOM     64  C   UNL A   1      37.261  29.850  27.795  1.00  0.00     0.001 A 
ATOM     65  C   UNL A   1      36.471  29.589  28.914  1.00  0.00     0.000 A 
ENDBRANCH  46  60
BRANCH  47  66
ATOM     66  C   UNL A   1      48.921  26.740  28.608  1.00  0.00    -0.014 A 
ATOM     67  C   UNL A   1      49.603  26.282  29.746  1.00  0.00     0.009 A 
ATOM     68  C   UNL A   1      49.629  26.888  27.405  1.00  0.00     0.009 A 
ATOM     69  C   UNL A   1      50.969  26.000  29.686  1.00  0.00     0.001 A 
ATOM     70  C   UNL A   1      50.990  26.581  27.342  1.00  0.00     0.001 A 
ATOM     71  C   UNL A   1      51.660  26.145  28.484  1.00  0.00     0.000 A 
ENDBRANCH  47  66
BRANCH  59  72
ATOM     72  C   UNL A   1      45.391  32.437  30.485  1.00  0.00    -0.014 A 
ATOM     73  C   UNL A   1      45.613  32.658  31.853  1.00  0.00     0.009 A 
ATOM     74  C   UNL A   1      45.624  33.483  29.578  1.00  0.00     0.009 A 
ATOM     75  C   UNL A   1      46.031  33.911  32.306  1.00  0.00     0.001 A 
ATOM     76  C   UNL A   1      46.067  34.726  30.031  1.00  0.00     0.001 A 
ATOM     77  C   UNL A   1      46.261  34.941  31.395  1.00  0.00     0.000 A 
ENDBRANCH  59  72
ENDBRANCH  33  34
ENDBRANCH  25  28
ENDBRANCH  23  24
ENDBRANCH  22  23
ENDBRANCH   1  22
TORSDOF 15
ENDMDL
MODEL 3
REMARK VINA RESULT:     -10.6      5.436      9.974
REMARK SMILES CC1C[NH+]([C@@H](C(=O)NCCCCCCNC(=O)c2ccc(-c3c4nc(c(-c5ccccc5)c5ccc([nH]5)c(-c5ccccc5)c5nc(c(-c6ccccc6)c6ccc3[nH]6)C=C5)C=C4)cc2)C2CCCCC2)C1
REMARK SMILES IDX 12 1 11 2 10 3 9 4 8 5 6 6 7 7 5 9 4 10 1 11 2 12 3 13 72 14
REMARK SMILES IDX 66 16 67 17 71 18 68 19 70 20 69 21 13 22 14 23 15 24 16 25
REMARK SMILES IDX 17 27 18 28 19 29 65 30 20 31 64 32 21 33 22 34 23 35 58 36
REMARK SMILES IDX 24 37 63 38 57 39 59 40 25 41 62 42 56 43 55 44 26 46 48 47
REMARK SMILES IDX 33 48 47 49 34 50 37 51 46 52 60 53 35 54 36 55 45 57 61 58
REMARK SMILES IDX 38 59 27 60 28 61 32 62 29 63 31 64 30 65 49 66 50 67 54 68
REMARK SMILES IDX 51 69 53 70 52 71 39 72 40 73 44 74 41 75 43 76 42 77
REMARK H PARENT 8 8 4 15 15 26 59 45 37 56
REMARK Flexibility Score: inf
ROOT
ATOM      1  C   UNL A   1      36.609  20.836  24.851  1.00  0.00     0.002 C 
ENDROOT
BRANCH   1   2
ATOM      2  C   UNL A   1      36.782  22.276  24.368  1.00  0.00     0.002 C 
BRANCH   2   3
ATOM      3  C   UNL A   1      35.872  22.674  23.200  1.00  0.00     0.021 C 
BRANCH   3   4
ATOM      4  C   UNL A   1      34.514  23.264  23.601  1.00  0.00     0.116 C 
BRANCH   4   5
ATOM      5  N   UNL A   1      33.416  22.632  22.891  1.00  0.00    -0.351 N 
ATOM      6  C   UNL A   1      32.740  21.459  23.067  1.00  0.00     0.278 C 
ATOM      7  O   UNL A   1      31.895  21.211  22.200  1.00  0.00    -0.268 OA
ATOM      8  H   UNL A   1      33.093  23.158  22.123  1.00  0.00     0.163 HD
BRANCH   6   9
ATOM      9  C   UNL A   1      32.987  20.516  24.277  1.00  0.00     0.277 C 
BRANCH   9  10
ATOM     10  N   UNL A   1      32.492  19.113  24.157  1.00  0.00    -0.324 N 
ATOM     11  C   UNL A   1      34.193  16.162  24.692  1.00  0.00     0.020 C 
ATOM     12  C   UNL A   1      33.971  17.655  24.599  1.00  0.00     0.096 C 
ATOM     13  C   UNL A   1      33.318  18.211  23.325  1.00  0.00     0.271 C 
ATOM     14  C   UNL A   1      32.740  18.256  25.324  1.00  0.00     0.271 C 
ATOM     15  H   UNL A   1      31.537  19.341  23.877  1.00  0.00     0.348 HD
ENDBRANCH   9  10
BRANCH   9  16
ATOM     16  C   UNL A   1      32.416  21.160  25.604  1.00  0.00     0.057 C 
ATOM     17  C   UNL A   1      33.484  21.834  26.499  1.00  0.00     0.010 C 
ATOM     18  C   UNL A   1      31.284  22.166  25.284  1.00  0.00     0.010 C 
ATOM     19  C   UNL A   1      32.900  22.506  27.734  1.00  0.00     0.001 C 
ATOM     20  C   UNL A   1      30.748  22.887  26.523  1.00  0.00     0.001 C 
ATOM     21  C   UNL A   1      31.862  23.541  27.330  1.00  0.00     0.000 C 
ENDBRANCH   9  16
ENDBRANCH   6   9
ENDBRANCH   4   5
ENDBRANCH   3   4
ENDBRANCH   2   3
ENDBRANCH   1   2
BRANCH   1  22
ATOM     22  C   UNL A   1      37.871  19.969  24.787  1.00  0.00     0.021 C 
BRANCH  22  23
ATOM     23  C   UNL A   1      38.967  20.341  25.782  1.00  0.00     0.116 C 
BRANCH  23  24
ATOM     24  N   UNL A   1      40.006  19.328  25.859  1.00  0.00    -0.352 N 
ATOM     25  C   UNL A   1      41.347  19.486  26.111  1.00  0.00     0.251 C 
ATOM     26  H   UNL A   1      39.708  18.402  25.708  1.00  0.00     0.163 HD
ATOM     27  O   UNL A   1      42.128  18.557  25.941  1.00  0.00    -0.269 OA
BRANCH  25  28
ATOM     28  C   UNL A   1      41.850  20.795  26.577  1.00  0.00     0.039 A 
ATOM     29  C   UNL A   1      42.278  21.732  25.634  1.00  0.00     0.014 A 
ATOM     30  C   UNL A   1      41.904  21.093  27.943  1.00  0.00     0.014 A 
ATOM     31  C   UNL A   1      42.711  22.991  26.057  1.00  0.00     0.010 A 
ATOM     32  C   UNL A   1      42.276  22.368  28.358  1.00  0.00     0.010 A 
ATOM     33  C   UNL A   1      42.687  23.328  27.420  1.00  0.00    -0.014 A 
BRANCH  33  34
ATOM     34  C   UNL A   1      43.095  24.678  27.884  1.00  0.00     0.031 A 
ATOM     35  C   UNL A   1      42.056  25.727  28.166  1.00  0.00     0.074 A 
ATOM     36  C   UNL A   1      44.403  24.980  27.995  1.00  0.00     0.049 A 
ATOM     37  N   UNL A   1      42.220  26.975  28.529  1.00  0.00    -0.248 NA
ATOM     38  C   UNL A   1      40.650  25.330  27.996  1.00  0.00     0.031 C 
ATOM     39  C   UNL A   1      45.511  24.064  27.714  1.00  0.00     0.029 A 
ATOM     40  N   UNL A   1      45.022  26.148  28.366  1.00  0.00    -0.354 N 
ATOM     41  C   UNL A   1      40.942  27.513  28.613  1.00  0.00     0.074 A 
ATOM     42  C   UNL A   1      40.017  26.472  28.219  1.00  0.00     0.031 C 
ATOM     43  C   UNL A   1      46.672  24.698  27.947  1.00  0.00     0.029 A 
ATOM     44  C   UNL A   1      46.393  26.071  28.356  1.00  0.00     0.049 A 
ATOM     45  H   UNL A   1      44.529  26.962  28.615  1.00  0.00     0.167 HD
ATOM     46  C   UNL A   1      40.568  28.757  29.000  1.00  0.00     0.031 A 
ATOM     47  C   UNL A   1      47.322  27.002  28.642  1.00  0.00     0.031 A 
ATOM     48  C   UNL A   1      41.485  29.789  29.403  1.00  0.00     0.049 A 
ATOM     49  C   UNL A   1      46.884  28.377  29.062  1.00  0.00     0.074 A 
ATOM     50  C   UNL A   1      41.200  31.062  29.868  1.00  0.00     0.029 A 
ATOM     51  N   UNL A   1      42.865  29.669  29.388  1.00  0.00    -0.354 N 
ATOM     52  N   UNL A   1      45.669  28.849  29.200  1.00  0.00    -0.248 NA
ATOM     53  C   UNL A   1      47.946  29.343  29.375  1.00  0.00     0.031 C 
ATOM     54  C   UNL A   1      42.410  31.727  30.089  1.00  0.00     0.029 A 
ATOM     55  C   UNL A   1      43.447  30.851  29.812  1.00  0.00     0.049 A 
ATOM     56  H   UNL A   1      43.359  28.861  29.115  1.00  0.00     0.167 HD
ATOM     57  C   UNL A   1      45.821  30.158  29.640  1.00  0.00     0.074 A 
ATOM     58  C   UNL A   1      47.244  30.399  29.759  1.00  0.00     0.031 C 
ATOM     59  C   UNL A   1      44.865  31.077  29.923  1.00  0.00     0.031 A 
BRANCH  46  60
ATOM     60  C   UNL A   1      39.097  29.068  28.995  1.00  0.00    -0.014 A 
ATOM     61  C   UNL A   1      38.307  28.865  30.137  1.00  0.00     0.009 A 
ATOM     62  C   UNL A   1      38.499  29.596  27.840  1.00  0.00     0.009 A 
ATOM     63  C   UNL A   1      36.939  29.148  30.111  1.00  0.00     0.001 A 
ATOM     64  C   UNL A   1      37.137  29.904  27.826  1.00  0.00     0.001 A 
ATOM     65  C   UNL A   1      36.357  29.671  28.957  1.00  0.00     0.000 A 
ENDBRANCH  46  60
BRANCH  47  66
ATOM     66  C   UNL A   1      48.766  26.659  28.561  1.00  0.00    -0.014 A 
ATOM     67  C   UNL A   1      49.443  26.166  29.687  1.00  0.00     0.009 A 
ATOM     68  C   UNL A   1      49.473  26.822  27.360  1.00  0.00     0.009 A 
ATOM     69  C   UNL A   1      50.805  25.865  29.617  1.00  0.00     0.001 A 
ATOM     70  C   UNL A   1      50.829  26.496  27.287  1.00  0.00     0.001 A 
ATOM     71  C   UNL A   1      51.496  26.026  28.417  1.00  0.00     0.000 A 
ENDBRANCH  47  66
BRANCH  59  72
ATOM     72  C   UNL A   1      45.327  32.417  30.418  1.00  0.00    -0.014 A 
ATOM     73  C   UNL A   1      45.544  32.654  31.784  1.00  0.00     0.009 A 
ATOM     74  C   UNL A   1      45.586  33.445  29.498  1.00  0.00     0.009 A 
ATOM     75  C   UNL A   1      45.983  33.905  32.222  1.00  0.00     0.001 A 
ATOM     76  C   UNL A   1      46.050  34.687  29.936  1.00  0.00     0.001 A 
ATOM     77  C   UNL A   1      46.239  34.917  31.298  1.00  0.00     0.000 A 
ENDBRANCH  59  72
ENDBRANCH  33  34
ENDBRANCH  25  28
ENDBRANCH  23  24
ENDBRANCH  22  23
ENDBRANCH   1  22
TORSDOF 15
ENDMDL
