MODEL 1
REMARK VINA RESULT:     -11.2      0.000      0.000
REMARK SMILES O=C(NCCCCCCNC(=O)[C@@H]1CCCC[C@@H]1C(=O)Nc1cccc(C(F)(F)F)c1)c1ccc(-c2c3nc(c(-c4ccccc4)c4ccc([nH]4)c(-c4ccccc4)c4nc(c(-c5ccccc5)c5ccc2[nH]5)C=C4)C=C3)cc1
REMARK SMILES IDX 7 1 6 2 5 3 4 4 3 5 1 6 2 7 32 9 33 10 79 11 34 12 78 13
REMARK SMILES IDX 35 14 36 15 37 16 72 17 38 18 77 19 71 20 73 21 39 22 76 23
REMARK SMILES IDX 70 24 69 25 40 27 62 28 47 29 61 30 48 31 51 32 60 33 74 34
REMARK SMILES IDX 49 35 50 36 59 38 75 39 52 40 41 41 42 42 46 43 43 44 45 45
REMARK SMILES IDX 44 46 63 47 64 48 68 49 65 50 67 51 66 52 53 53 54 54 58 55
REMARK SMILES IDX 55 56 57 57 56 58 8 59 9 60 10 61 11 62 12 64 13 65 14 66
REMARK SMILES IDX 18 67 15 68 17 69 16 70 19 71 20 72 21 73 22 75 23 76 31 77
REMARK SMILES IDX 24 78 26 79 25 80 27 81 28 82 29 83 30 84
REMARK H PARENT 3 8 73 26 51 37 10 63 21 74
REMARK Flexibility Score: inf
ROOT
ATOM      1  C   UNL A   1      36.782  22.023  24.809  1.00  0.00     0.002 C 
ENDROOT
BRANCH   1   2
ATOM      2  C   UNL A   1      36.701  20.499  24.960  1.00  0.00     0.002 C 
BRANCH   2   3
ATOM      3  C   UNL A   1      38.024  19.737  24.870  1.00  0.00     0.021 C 
BRANCH   3   4
ATOM      4  C   UNL A   1      39.084  20.168  25.869  1.00  0.00     0.116 C 
BRANCH   4   5
ATOM      5  N   UNL A   1      40.243  19.295  25.850  1.00  0.00    -0.352 N 
ATOM      6  O   UNL A   1      42.443  18.790  25.823  1.00  0.00    -0.269 OA
ATOM      7  C   UNL A   1      41.565  19.609  26.062  1.00  0.00     0.251 C 
ATOM      8  H   UNL A   1      40.058  18.348  25.657  1.00  0.00     0.163 HD
BRANCH   7   9
ATOM      9  C   UNL A   1      41.928  20.953  26.570  1.00  0.00     0.039 A 
ATOM     10  C   UNL A   1      42.285  21.975  25.687  1.00  0.00     0.014 A 
ATOM     11  C   UNL A   1      41.887  21.199  27.946  1.00  0.00     0.014 A 
ATOM     12  C   UNL A   1      42.724  23.196  26.183  1.00  0.00     0.010 A 
ATOM     13  C   UNL A   1      42.238  22.460  28.438  1.00  0.00     0.010 A 
ATOM     14  C   UNL A   1      42.675  23.464  27.561  1.00  0.00    -0.014 A 
BRANCH  14  15
ATOM     15  C   UNL A   1      42.983  24.837  28.034  1.00  0.00     0.031 A 
ATOM     16  C   UNL A   1      41.903  25.853  28.267  1.00  0.00     0.074 A 
ATOM     17  C   UNL A   1      44.271  25.143  28.292  1.00  0.00     0.049 A 
ATOM     18  N   UNL A   1      42.015  27.076  28.725  1.00  0.00    -0.248 NA
ATOM     19  C   UNL A   1      40.524  25.457  27.943  1.00  0.00     0.031 C 
ATOM     20  C   UNL A   1      45.409  24.239  28.092  1.00  0.00     0.029 A 
ATOM     21  N   UNL A   1      44.839  26.281  28.801  1.00  0.00    -0.354 N 
ATOM     22  C   UNL A   1      40.728  27.599  28.733  1.00  0.00     0.074 A 
ATOM     23  C   UNL A   1      39.852  26.571  28.212  1.00  0.00     0.031 C 
ATOM     24  C   UNL A   1      46.526  24.835  28.529  1.00  0.00     0.029 A 
ATOM     25  C   UNL A   1      46.200  26.183  28.973  1.00  0.00     0.049 A 
ATOM     26  H   UNL A   1      44.325  27.091  29.021  1.00  0.00     0.167 HD
ATOM     27  C   UNL A   1      40.316  28.824  29.143  1.00  0.00     0.031 A 
ATOM     28  C   UNL A   1      47.092  27.082  29.425  1.00  0.00     0.031 A 
ATOM     29  C   UNL A   1      41.192  29.846  29.655  1.00  0.00     0.049 A 
ATOM     30  C   UNL A   1      46.607  28.439  29.838  1.00  0.00     0.074 A 
ATOM     31  C   UNL A   1      40.865  31.113  30.113  1.00  0.00     0.029 A 
ATOM     32  N   UNL A   1      42.568  29.724  29.773  1.00  0.00    -0.354 N 
ATOM     33  N   UNL A   1      45.382  28.903  29.869  1.00  0.00    -0.248 NA
ATOM     34  C   UNL A   1      47.630  29.396  30.277  1.00  0.00     0.031 C 
ATOM     35  C   UNL A   1      42.048  31.773  30.461  1.00  0.00     0.029 A 
ATOM     36  C   UNL A   1      43.107  30.899  30.273  1.00  0.00     0.049 A 
ATOM     37  H   UNL A   1      43.086  28.922  29.535  1.00  0.00     0.167 HD
ATOM     38  C   UNL A   1      45.484  30.203  30.342  1.00  0.00     0.074 A 
ATOM     39  C   UNL A   1      46.888  30.440  30.615  1.00  0.00     0.031 C 
ATOM     40  C   UNL A   1      44.506  31.122  30.527  1.00  0.00     0.031 A 
BRANCH  27  41
ATOM     41  C   UNL A   1      38.849  29.141  29.038  1.00  0.00    -0.014 A 
ATOM     42  C   UNL A   1      37.988  28.972  30.134  1.00  0.00     0.009 A 
ATOM     43  C   UNL A   1      38.336  29.683  27.849  1.00  0.00     0.009 A 
ATOM     44  C   UNL A   1      36.639  29.320  30.033  1.00  0.00     0.001 A 
ATOM     45  C   UNL A   1      36.992  30.051  27.758  1.00  0.00     0.001 A 
ATOM     46  C   UNL A   1      36.143  29.864  28.848  1.00  0.00     0.000 A 
ENDBRANCH  27  41
BRANCH  28  47
ATOM     47  C   UNL A   1      48.535  26.733  29.481  1.00  0.00    -0.014 A 
ATOM     48  C   UNL A   1      49.376  26.981  28.386  1.00  0.00     0.009 A 
ATOM     49  C   UNL A   1      49.076  26.144  30.635  1.00  0.00     0.009 A 
ATOM     50  C   UNL A   1      50.724  26.619  28.437  1.00  0.00     0.001 A 
ATOM     51  C   UNL A   1      50.432  25.815  30.695  1.00  0.00     0.001 A 
ATOM     52  C   UNL A   1      51.252  26.042  29.591  1.00  0.00     0.000 A 
ENDBRANCH  28  47
BRANCH  40  53
ATOM     53  C   UNL A   1      44.929  32.457  31.069  1.00  0.00    -0.014 A 
ATOM     54  C   UNL A   1      44.984  32.693  32.452  1.00  0.00     0.009 A 
ATOM     55  C   UNL A   1      45.281  33.488  30.186  1.00  0.00     0.009 A 
ATOM     56  C   UNL A   1      45.343  33.952  32.937  1.00  0.00     0.001 A 
ATOM     57  C   UNL A   1      45.668  34.736  30.675  1.00  0.00     0.001 A 
ATOM     58  C   UNL A   1      45.687  34.971  32.048  1.00  0.00     0.000 A 
ENDBRANCH  40  53
ENDBRANCH  14  15
ENDBRANCH   7   9
ENDBRANCH   4   5
ENDBRANCH   3   4
ENDBRANCH   2   3
ENDBRANCH   1   2
BRANCH   1  59
ATOM     59  C   UNL A   1      36.158  22.622  23.543  1.00  0.00     0.021 C 
BRANCH  59  60
ATOM     60  C   UNL A   1      34.876  23.417  23.753  1.00  0.00     0.116 C 
BRANCH  60  61
ATOM     61  N   UNL A   1      35.030  24.578  24.596  1.00  0.00    -0.356 N 
ATOM     62  C   UNL A   1      34.090  25.507  24.904  1.00  0.00     0.223 C 
ATOM     63  H   UNL A   1      35.920  24.711  24.993  1.00  0.00     0.163 HD
ATOM     64  O   UNL A   1      34.099  25.941  26.062  1.00  0.00    -0.275 OA
BRANCH  62  65
ATOM     65  C   UNL A   1      33.188  26.172  23.872  1.00  0.00     0.091 C 
ATOM     66  C   UNL A   1      32.936  27.671  23.985  1.00  0.00     0.014 C 
ATOM     67  C   UNL A   1      31.912  25.347  23.586  1.00  0.00     0.091 C 
ATOM     68  C   UNL A   1      32.310  28.204  22.703  1.00  0.00     0.001 C 
ATOM     69  C   UNL A   1      31.179  25.947  22.355  1.00  0.00     0.014 C 
ATOM     70  C   UNL A   1      31.012  27.473  22.383  1.00  0.00     0.001 C 
BRANCH  67  71
ATOM     71  C   UNL A   1      30.912  25.263  24.745  1.00  0.00     0.228 C 
ATOM     72  O   UNL A   1      30.169  26.213  25.011  1.00  0.00    -0.274 OA
ATOM     73  N   UNL A   1      30.668  24.090  25.408  1.00  0.00    -0.326 N 
ATOM     74  H   UNL A   1      29.730  23.995  25.693  1.00  0.00     0.169 HD
BRANCH  73  75
ATOM     75  C   UNL A   1      31.469  22.990  25.770  1.00  0.00     0.041 A 
ATOM     76  C   UNL A   1      32.330  23.142  26.863  1.00  0.00     0.026 A 
ATOM     77  C   UNL A   1      31.578  21.830  25.014  1.00  0.00     0.039 A 
ATOM     78  C   UNL A   1      33.278  22.159  27.175  1.00  0.00     0.003 A 
ATOM     79  C   UNL A   1      32.570  20.865  25.263  1.00  0.00     0.058 A 
ATOM     80  C   UNL A   1      33.408  21.030  26.368  1.00  0.00     0.013 A 
BRANCH  79  81
ATOM     81  C   UNL A   1      32.742  19.720  24.293  1.00  0.00     0.416 C 
ATOM     82  F   UNL A   1      32.056  18.599  24.658  1.00  0.00    -0.166 F 
ATOM     83  F   UNL A   1      32.323  20.023  23.036  1.00  0.00    -0.166 F 
ATOM     84  F   UNL A   1      34.044  19.328  24.186  1.00  0.00    -0.166 F 
ENDBRANCH  79  81
ENDBRANCH  73  75
ENDBRANCH  67  71
ENDBRANCH  62  65
ENDBRANCH  60  61
ENDBRANCH  59  60
ENDBRANCH   1  59
TORSDOF 16
ENDMDL
MODEL 2
REMARK VINA RESULT:     -11.2      0.419      5.781
REMARK SMILES O=C(NCCCCCCNC(=O)[C@@H]1CCCC[C@@H]1C(=O)Nc1cccc(C(F)(F)F)c1)c1ccc(-c2c3nc(c(-c4ccccc4)c4ccc([nH]4)c(-c4ccccc4)c4nc(c(-c5ccccc5)c5ccc2[nH]5)C=C4)C=C3)cc1
REMARK SMILES IDX 7 1 6 2 5 3 4 4 3 5 1 6 2 7 32 9 33 10 79 11 34 12 78 13
REMARK SMILES IDX 35 14 36 15 37 16 72 17 38 18 77 19 71 20 73 21 39 22 76 23
REMARK SMILES IDX 70 24 69 25 40 27 62 28 47 29 61 30 48 31 51 32 60 33 74 34
REMARK SMILES IDX 49 35 50 36 59 38 75 39 52 40 41 41 42 42 46 43 43 44 45 45
REMARK SMILES IDX 44 46 63 47 64 48 68 49 65 50 67 51 66 52 53 53 54 54 58 55
REMARK SMILES IDX 55 56 57 57 56 58 8 59 9 60 10 61 11 62 12 64 13 65 14 66
REMARK SMILES IDX 18 67 15 68 17 69 16 70 19 71 20 72 21 73 22 75 23 76 31 77
REMARK SMILES IDX 24 78 26 79 25 80 27 81 28 82 29 83 30 84
REMARK H PARENT 3 8 73 26 51 37 10 63 21 74
REMARK Flexibility Score: inf
ROOT
ATOM      1  C   UNL A   1      37.138  22.059  24.480  1.00  0.00     0.002 C 
ENDROOT
BRANCH   1   2
ATOM      2  C   UNL A   1      36.808  20.597  24.809  1.00  0.00     0.002 C 
BRANCH   2   3
ATOM      3  C   UNL A   1      38.000  19.651  24.962  1.00  0.00     0.021 C 
BRANCH   3   4
ATOM      4  C   UNL A   1      39.167  20.210  25.757  1.00  0.00     0.116 C 
BRANCH   4   5
ATOM      5  N   UNL A   1      40.298  19.300  25.785  1.00  0.00    -0.352 N 
ATOM      6  O   UNL A   1      42.479  18.725  25.837  1.00  0.00    -0.269 OA
ATOM      7  C   UNL A   1      41.620  19.574  26.040  1.00  0.00     0.251 C 
ATOM      8  H   UNL A   1      40.089  18.358  25.592  1.00  0.00     0.163 HD
BRANCH   7   9
ATOM      9  C   UNL A   1      42.008  20.909  26.552  1.00  0.00     0.039 A 
ATOM     10  C   UNL A   1      42.358  21.934  25.670  1.00  0.00     0.014 A 
ATOM     11  C   UNL A   1      41.999  21.143  27.930  1.00  0.00     0.014 A 
ATOM     12  C   UNL A   1      42.821  23.146  26.166  1.00  0.00     0.010 A 
ATOM     13  C   UNL A   1      42.374  22.397  28.425  1.00  0.00     0.010 A 
ATOM     14  C   UNL A   1      42.804  23.403  27.547  1.00  0.00    -0.014 A 
BRANCH  14  15
ATOM     15  C   UNL A   1      43.137  24.769  28.026  1.00  0.00     0.031 A 
ATOM     16  C   UNL A   1      44.557  25.212  28.223  1.00  0.00     0.074 A 
ATOM     17  C   UNL A   1      42.121  25.627  28.246  1.00  0.00     0.049 A 
ATOM     18  N   UNL A   1      45.005  26.388  28.589  1.00  0.00    -0.248 NA
ATOM     19  C   UNL A   1      45.614  24.215  27.986  1.00  0.00     0.031 C 
ATOM     20  C   UNL A   1      40.698  25.305  28.099  1.00  0.00     0.029 A 
ATOM     21  N   UNL A   1      42.124  26.948  28.610  1.00  0.00    -0.354 N 
ATOM     22  C   UNL A   1      46.388  26.271  28.639  1.00  0.00     0.074 A 
ATOM     23  C   UNL A   1      46.708  24.903  28.289  1.00  0.00     0.031 C 
ATOM     24  C   UNL A   1      39.971  26.410  28.312  1.00  0.00     0.029 A 
ATOM     25  C   UNL A   1      40.866  27.499  28.678  1.00  0.00     0.049 A 
ATOM     26  H   UNL A   1      42.946  27.453  28.806  1.00  0.00     0.167 HD
ATOM     27  C   UNL A   1      47.307  27.221  28.944  1.00  0.00     0.031 A 
ATOM     28  C   UNL A   1      40.472  28.741  29.011  1.00  0.00     0.031 A 
ATOM     29  C   UNL A   1      46.983  28.579  29.298  1.00  0.00     0.049 A 
ATOM     30  C   UNL A   1      41.511  29.758  29.376  1.00  0.00     0.074 A 
ATOM     31  C   UNL A   1      47.845  29.619  29.606  1.00  0.00     0.029 A 
ATOM     32  N   UNL A   1      45.697  29.087  29.398  1.00  0.00    -0.354 N 
ATOM     33  N   UNL A   1      42.816  29.637  29.386  1.00  0.00    -0.248 NA
ATOM     34  C   UNL A   1      41.021  31.082  29.778  1.00  0.00     0.031 C 
ATOM     35  C   UNL A   1      47.079  30.741  29.938  1.00  0.00     0.029 A 
ATOM     36  C   UNL A   1      45.741  30.416  29.785  1.00  0.00     0.049 A 
ATOM     37  H   UNL A   1      44.873  28.577  29.221  1.00  0.00     0.167 HD
ATOM     38  C   UNL A   1      43.305  30.872  29.783  1.00  0.00     0.074 A 
ATOM     39  C   UNL A   1      42.157  31.737  29.973  1.00  0.00     0.031 C 
ATOM     40  C   UNL A   1      44.588  31.257  29.981  1.00  0.00     0.031 A 
BRANCH  27  41
ATOM     41  C   UNL A   1      48.757  26.823  28.930  1.00  0.00    -0.014 A 
ATOM     42  C   UNL A   1      49.518  26.890  27.752  1.00  0.00     0.009 A 
ATOM     43  C   UNL A   1      49.388  26.444  30.125  1.00  0.00     0.009 A 
ATOM     44  C   UNL A   1      50.877  26.565  27.769  1.00  0.00     0.001 A 
ATOM     45  C   UNL A   1      50.752  26.142  30.144  1.00  0.00     0.001 A 
ATOM     46  C   UNL A   1      51.493  26.197  28.965  1.00  0.00     0.000 A 
ENDBRANCH  27  41
BRANCH  28  47
ATOM     47  C   UNL A   1      39.025  29.078  29.041  1.00  0.00    -0.014 A 
ATOM     48  C   UNL A   1      38.391  29.617  27.911  1.00  0.00     0.009 A 
ATOM     49  C   UNL A   1      38.272  28.865  30.206  1.00  0.00     0.009 A 
ATOM     50  C   UNL A   1      37.038  29.962  27.960  1.00  0.00     0.001 A 
ATOM     51  C   UNL A   1      36.912  29.179  30.240  1.00  0.00     0.001 A 
ATOM     52  C   UNL A   1      36.300  29.738  29.121  1.00  0.00     0.000 A 
ENDBRANCH  28  47
BRANCH  40  53
ATOM     53  C   UNL A   1      44.808  32.681  30.405  1.00  0.00    -0.014 A 
ATOM     54  C   UNL A   1      44.895  33.028  31.763  1.00  0.00     0.009 A 
ATOM     55  C   UNL A   1      44.935  33.685  29.435  1.00  0.00     0.009 A 
ATOM     56  C   UNL A   1      45.062  34.362  32.139  1.00  0.00     0.001 A 
ATOM     57  C   UNL A   1      45.131  35.013  29.814  1.00  0.00     0.001 A 
ATOM     58  C   UNL A   1      45.182  35.352  31.165  1.00  0.00     0.000 A 
ENDBRANCH  40  53
ENDBRANCH  14  15
ENDBRANCH   7   9
ENDBRANCH   4   5
ENDBRANCH   3   4
ENDBRANCH   2   3
ENDBRANCH   1   2
BRANCH   1  59
ATOM     59  C   UNL A   1      36.410  22.674  23.279  1.00  0.00     0.021 C 
BRANCH  59  60
ATOM     60  C   UNL A   1      35.072  23.333  23.586  1.00  0.00     0.116 C 
BRANCH  60  61
ATOM     61  N   UNL A   1      35.158  24.457  24.486  1.00  0.00    -0.356 N 
ATOM     62  C   UNL A   1      34.171  25.325  24.823  1.00  0.00     0.223 C 
ATOM     63  H   UNL A   1      36.035  24.613  24.904  1.00  0.00     0.163 HD
ATOM     64  O   UNL A   1      34.143  25.703  26.001  1.00  0.00    -0.275 OA
BRANCH  62  65
ATOM     65  C   UNL A   1      33.253  25.997  23.810  1.00  0.00     0.091 C 
ATOM     66  C   UNL A   1      33.033  27.501  23.912  1.00  0.00     0.014 C 
ATOM     67  C   UNL A   1      31.953  25.194  23.569  1.00  0.00     0.091 C 
ATOM     68  C   UNL A   1      32.381  28.033  22.643  1.00  0.00     0.001 C 
ATOM     69  C   UNL A   1      31.198  25.795  22.352  1.00  0.00     0.014 C 
ATOM     70  C   UNL A   1      31.061  27.324  22.368  1.00  0.00     0.001 C 
BRANCH  67  71
ATOM     71  C   UNL A   1      30.986  25.142  24.757  1.00  0.00     0.228 C 
ATOM     72  O   UNL A   1      30.258  26.104  25.024  1.00  0.00    -0.274 OA
ATOM     73  N   UNL A   1      30.750  23.984  25.450  1.00  0.00    -0.326 N 
ATOM     74  H   UNL A   1      29.820  23.904  25.762  1.00  0.00     0.169 HD
BRANCH  73  75
ATOM     75  C   UNL A   1      31.551  22.885  25.811  1.00  0.00     0.041 A 
ATOM     76  C   UNL A   1      32.410  23.035  26.906  1.00  0.00     0.026 A 
ATOM     77  C   UNL A   1      31.662  21.726  25.053  1.00  0.00     0.039 A 
ATOM     78  C   UNL A   1      33.358  22.052  27.218  1.00  0.00     0.003 A 
ATOM     79  C   UNL A   1      32.654  20.761  25.303  1.00  0.00     0.058 A 
ATOM     80  C   UNL A   1      33.490  20.925  26.409  1.00  0.00     0.013 A 
BRANCH  79  81
ATOM     81  C   UNL A   1      32.828  19.618  24.331  1.00  0.00     0.416 C 
ATOM     82  F   UNL A   1      32.465  19.937  23.055  1.00  0.00    -0.166 F 
ATOM     83  F   UNL A   1      34.112  19.177  24.256  1.00  0.00    -0.166 F 
ATOM     84  F   UNL A   1      32.065  18.538  24.665  1.00  0.00    -0.166 F 
ENDBRANCH  79  81
ENDBRANCH  73  75
ENDBRANCH  67  71
ENDBRANCH  62  65
ENDBRANCH  60  61
ENDBRANCH  59  60
ENDBRANCH   1  59
TORSDOF 16
ENDMDL
MODEL 3
REMARK VINA RESULT:     -11.1      4.697      9.259
REMARK SMILES O=C(NCCCCCCNC(=O)[C@@H]1CCCC[C@@H]1C(=O)Nc1cccc(C(F)(F)F)c1)c1ccc(-c2c3nc(c(-c4ccccc4)c4ccc([nH]4)c(-c4ccccc4)c4nc(c(-c5ccccc5)c5ccc2[nH]5)C=C4)C=C3)cc1
REMARK SMILES IDX 7 1 6 2 5 3 4 4 3 5 1 6 2 7 32 9 33 10 79 11 34 12 78 13
REMARK SMILES IDX 35 14 36 15 37 16 72 17 38 18 77 19 71 20 73 21 39 22 76 23
REMARK SMILES IDX 70 24 69 25 40 27 62 28 47 29 61 30 48 31 51 32 60 33 74 34
REMARK SMILES IDX 49 35 50 36 59 38 75 39 52 40 41 41 42 42 46 43 43 44 45 45
REMARK SMILES IDX 44 46 63 47 64 48 68 49 65 50 67 51 66 52 53 53 54 54 58 55
REMARK SMILES IDX 55 56 57 57 56 58 8 59 9 60 10 61 11 62 12 64 13 65 14 66
REMARK SMILES IDX 18 67 15 68 17 69 16 70 19 71 20 72 21 73 22 75 23 76 31 77
REMARK SMILES IDX 24 78 26 79 25 80 27 81 28 82 29 83 30 84
REMARK H PARENT 3 8 73 26 51 37 10 63 21 74
REMARK Flexibility Score: inf
ROOT
ATOM      1  C   UNL A   1      32.440  30.251  26.823  1.00  0.00     0.002 C 
ENDROOT
BRANCH   1   2
ATOM      2  C   UNL A   1      31.289  31.064  26.217  1.00  0.00     0.002 C 
BRANCH   2   3
ATOM      3  C   UNL A   1      31.297  32.567  26.501  1.00  0.00     0.021 C 
BRANCH   3   4
ATOM      4  C   UNL A   1      32.569  33.093  27.145  1.00  0.00     0.116 C 
BRANCH   4   5
ATOM      5  N   UNL A   1      32.383  34.407  27.732  1.00  0.00    -0.352 N 
ATOM      6  O   UNL A   1      32.630  36.023  29.288  1.00  0.00    -0.269 OA
ATOM      7  C   UNL A   1      33.037  34.977  28.798  1.00  0.00     0.251 C 
ATOM      8  H   UNL A   1      31.692  34.967  27.309  1.00  0.00     0.163 HD
BRANCH   7   9
ATOM      9  C   UNL A   1      34.233  34.313  29.366  1.00  0.00     0.039 A 
ATOM     10  C   UNL A   1      35.501  34.548  28.826  1.00  0.00     0.014 A 
ATOM     11  C   UNL A   1      34.088  33.463  30.466  1.00  0.00     0.014 A 
ATOM     12  C   UNL A   1      36.597  33.839  29.300  1.00  0.00     0.010 A 
ATOM     13  C   UNL A   1      35.209  32.822  31.004  1.00  0.00     0.010 A 
ATOM     14  C   UNL A   1      36.470  32.992  30.414  1.00  0.00    -0.014 A 
BRANCH  14  15
ATOM     15  C   UNL A   1      37.695  32.391  30.999  1.00  0.00     0.031 A 
ATOM     16  C   UNL A   1      38.292  32.902  32.278  1.00  0.00     0.074 A 
ATOM     17  C   UNL A   1      38.244  31.334  30.368  1.00  0.00     0.049 A 
ATOM     18  N   UNL A   1      39.331  32.448  32.935  1.00  0.00    -0.248 NA
ATOM     19  C   UNL A   1      37.654  34.072  32.900  1.00  0.00     0.031 C 
ATOM     20  C   UNL A   1      37.758  30.756  29.110  1.00  0.00     0.029 A 
ATOM     21  N   UNL A   1      39.310  30.541  30.703  1.00  0.00    -0.354 N 
ATOM     22  C   UNL A   1      39.479  33.279  34.038  1.00  0.00     0.074 A 
ATOM     23  C   UNL A   1      38.438  34.283  33.950  1.00  0.00     0.031 C 
ATOM     24  C   UNL A   1      38.483  29.669  28.815  1.00  0.00     0.029 A 
ATOM     25  C   UNL A   1      39.526  29.512  29.818  1.00  0.00     0.049 A 
ATOM     26  H   UNL A   1      39.867  30.692  31.501  1.00  0.00     0.167 HD
ATOM     27  C   UNL A   1      40.395  33.208  35.034  1.00  0.00     0.031 A 
ATOM     28  C   UNL A   1      40.470  28.554  29.803  1.00  0.00     0.031 A 
ATOM     29  C   UNL A   1      41.433  32.212  35.113  1.00  0.00     0.049 A 
ATOM     30  C   UNL A   1      41.490  28.525  30.902  1.00  0.00     0.074 A 
ATOM     31  C   UNL A   1      42.398  32.047  36.094  1.00  0.00     0.029 A 
ATOM     32  N   UNL A   1      41.647  31.214  34.174  1.00  0.00    -0.354 N 
ATOM     33  N   UNL A   1      41.593  29.300  31.953  1.00  0.00    -0.248 NA
ATOM     34  C   UNL A   1      42.525  27.488  30.809  1.00  0.00     0.031 C 
ATOM     35  C   UNL A   1      43.223  30.981  35.723  1.00  0.00     0.029 A 
ATOM     36  C   UNL A   1      42.741  30.447  34.540  1.00  0.00     0.049 A 
ATOM     37  H   UNL A   1      41.102  31.073  33.366  1.00  0.00     0.167 HD
ATOM     38  C   UNL A   1      42.696  28.838  32.654  1.00  0.00     0.074 A 
ATOM     39  C   UNL A   1      43.208  27.695  31.925  1.00  0.00     0.031 C 
ATOM     40  C   UNL A   1      43.243  29.321  33.796  1.00  0.00     0.031 A 
BRANCH  27  41
ATOM     41  C   UNL A   1      40.336  34.250  36.117  1.00  0.00    -0.014 A 
ATOM     42  C   UNL A   1      41.018  35.470  35.990  1.00  0.00     0.009 A 
ATOM     43  C   UNL A   1      39.530  34.038  37.246  1.00  0.00     0.009 A 
ATOM     44  C   UNL A   1      40.911  36.447  36.983  1.00  0.00     0.001 A 
ATOM     45  C   UNL A   1      39.405  35.025  38.227  1.00  0.00     0.001 A 
ATOM     46  C   UNL A   1      40.101  36.226  38.097  1.00  0.00     0.000 A 
ENDBRANCH  27  41
BRANCH  28  47
ATOM     47  C   UNL A   1      40.508  27.565  28.695  1.00  0.00    -0.014 A 
ATOM     48  C   UNL A   1      39.819  26.347  28.798  1.00  0.00     0.009 A 
ATOM     49  C   UNL A   1      41.240  27.835  27.528  1.00  0.00     0.009 A 
ATOM     50  C   UNL A   1      39.888  25.409  27.765  1.00  0.00     0.001 A 
ATOM     51  C   UNL A   1      41.278  26.911  26.483  1.00  0.00     0.001 A 
ATOM     52  C   UNL A   1      40.611  25.693  26.608  1.00  0.00     0.000 A 
ENDBRANCH  28  47
BRANCH  40  53
ATOM     53  C   UNL A   1      44.444  28.593  34.328  1.00  0.00    -0.014 A 
ATOM     54  C   UNL A   1      44.303  27.510  35.211  1.00  0.00     0.009 A 
ATOM     55  C   UNL A   1      45.730  28.992  33.938  1.00  0.00     0.009 A 
ATOM     56  C   UNL A   1      45.432  26.869  35.725  1.00  0.00     0.001 A 
ATOM     57  C   UNL A   1      46.856  28.331  34.431  1.00  0.00     0.001 A 
ATOM     58  C   UNL A   1      46.707  27.279  35.333  1.00  0.00     0.000 A 
ENDBRANCH  40  53
ENDBRANCH  14  15
ENDBRANCH   7   9
ENDBRANCH   4   5
ENDBRANCH   3   4
ENDBRANCH   2   3
ENDBRANCH   1   2
BRANCH   1  59
ATOM     59  C   UNL A   1      33.087  29.196  25.919  1.00  0.00     0.021 C 
BRANCH  59  60
ATOM     60  C   UNL A   1      32.692  29.255  24.450  1.00  0.00     0.116 C 
BRANCH  60  61
ATOM     61  N   UNL A   1      33.464  28.388  23.593  1.00  0.00    -0.356 N 
ATOM     62  C   UNL A   1      33.339  27.045  23.445  1.00  0.00     0.223 C 
ATOM     63  H   UNL A   1      34.164  28.821  23.054  1.00  0.00     0.163 HD
ATOM     64  O   UNL A   1      33.487  26.597  22.302  1.00  0.00    -0.275 OA
BRANCH  62  65
ATOM     65  C   UNL A   1      33.234  26.071  24.612  1.00  0.00     0.091 C 
ATOM     66  C   UNL A   1      34.088  24.808  24.585  1.00  0.00     0.014 C 
ATOM     67  C   UNL A   1      31.770  25.822  25.043  1.00  0.00     0.091 C 
ATOM     68  C   UNL A   1      34.108  24.149  25.957  1.00  0.00     0.001 C 
ATOM     69  C   UNL A   1      31.757  25.035  26.382  1.00  0.00     0.014 C 
ATOM     70  C   UNL A   1      32.696  23.822  26.428  1.00  0.00     0.001 C 
BRANCH  67  71
ATOM     71  C   UNL A   1      30.909  25.059  24.029  1.00  0.00     0.228 C 
ATOM     72  O   UNL A   1      31.289  23.982  23.560  1.00  0.00    -0.274 OA
ATOM     73  N   UNL A   1      29.623  25.433  23.744  1.00  0.00    -0.326 N 
ATOM     74  H   UNL A   1      29.030  24.668  23.566  1.00  0.00     0.169 HD
BRANCH  73  75
ATOM     75  C   UNL A   1      28.967  26.674  23.652  1.00  0.00     0.041 A 
ATOM     76  C   UNL A   1      27.596  26.710  23.930  1.00  0.00     0.026 A 
ATOM     77  C   UNL A   1      29.555  27.825  23.143  1.00  0.00     0.039 A 
ATOM     78  C   UNL A   1      26.842  27.866  23.693  1.00  0.00     0.003 A 
ATOM     79  C   UNL A   1      28.806  28.972  22.827  1.00  0.00     0.058 A 
ATOM     80  C   UNL A   1      27.443  28.991  23.128  1.00  0.00     0.013 A 
BRANCH  79  81
ATOM     81  C   UNL A   1      29.483  30.119  22.113  1.00  0.00     0.416 C 
ATOM     82  F   UNL A   1      29.513  31.267  22.849  1.00  0.00    -0.166 F 
ATOM     83  F   UNL A   1      30.774  29.851  21.784  1.00  0.00    -0.166 F 
ATOM     84  F   UNL A   1      28.846  30.449  20.953  1.00  0.00    -0.166 F 
ENDBRANCH  79  81
ENDBRANCH  73  75
ENDBRANCH  67  71
ENDBRANCH  62  65
ENDBRANCH  60  61
ENDBRANCH  59  60
ENDBRANCH   1  59
TORSDOF 16
ENDMDL
