MODEL 1
REMARK VINA RESULT:     -11.3      0.000      0.000
REMARK SMILES C[C@H]1C[N@H+]2CCC[C@@H]2CN1c1cc(Cl)ccc1C(=O)NCCCCCCNC(=O)c1ccc(-c2c3nc(c(-c4ccccc4)c4ccc([nH]4)c(-c4ccccc4)c4nc(c(-c5ccccc5)c5ccc2[nH]5)C=C4)C=C3)cc1
REMARK SMILES IDX 24 1 23 2 22 3 21 4 20 5 18 6 19 7 17 9 11 10 12 11 13 12
REMARK SMILES IDX 16 13 14 14 15 15 10 16 1 17 2 18 3 19 4 20 9 21 5 22 8 23
REMARK SMILES IDX 6 25 7 26 25 27 26 28 27 29 28 30 29 32 30 33 31 34 77 35
REMARK SMILES IDX 32 36 76 37 33 38 34 39 35 40 70 41 36 42 75 43 69 44 71 45
REMARK SMILES IDX 37 46 74 47 68 48 67 49 38 51 60 52 45 53 59 54 46 55 49 56
REMARK SMILES IDX 58 57 72 58 47 59 48 60 57 62 73 63 50 64 39 65 40 66 44 67
REMARK SMILES IDX 41 68 43 69 42 70 61 71 62 72 66 73 63 74 65 75 64 76 51 77
REMARK SMILES IDX 52 78 56 79 53 80 55 81 54 82
REMARK H PARENT 20 8 4 24 27 31 71 50 49 61
REMARK Flexibility Score: inf
ROOT
ATOM      1  C   UNL A   1      31.784  30.351  26.262  1.00  0.00     0.002 C 
ENDROOT
BRANCH   1   2
ATOM      2  C   UNL A   1      32.128  29.244  27.268  1.00  0.00     0.002 C 
BRANCH   2   3
ATOM      3  C   UNL A   1      33.502  28.575  27.092  1.00  0.00     0.021 C 
BRANCH   3   4
ATOM      4  C   UNL A   1      33.596  27.357  26.166  1.00  0.00     0.116 C 
BRANCH   4   5
ATOM      5  N   UNL A   1      32.597  26.338  26.366  1.00  0.00    -0.352 N 
ATOM      6  C   UNL A   1      32.096  25.426  25.466  1.00  0.00     0.253 C 
ATOM      7  O   UNL A   1      31.296  24.588  25.889  1.00  0.00    -0.269 OA
ATOM      8  H   UNL A   1      32.221  26.288  27.274  1.00  0.00     0.163 HD
BRANCH   6   9
ATOM      9  C   UNL A   1      32.387  25.441  24.000  1.00  0.00     0.063 A 
ATOM     10  C   UNL A   1      33.335  24.634  23.320  1.00  0.00     0.052 A 
ATOM     11  C   UNL A   1      33.353  24.694  21.910  1.00  0.00     0.047 A 
ATOM     12  C   UNL A   1      32.484  25.520  21.196  1.00  0.00     0.043 A 
ATOM     13  C   UNL A   1      31.509  26.263  23.258  1.00  0.00     0.017 A 
ATOM     14  Cl  UNL A   1      32.538  25.535  19.476  1.00  0.00    -0.084 Cl
ATOM     15  C   UNL A   1      31.560  26.309  21.865  1.00  0.00     0.021 A 
BRANCH  10  16
ATOM     16  N   UNL A   1      34.172  23.732  23.969  1.00  0.00    -0.357 N 
ATOM     17  C   UNL A   1      32.657  21.726  23.679  1.00  0.00     0.037 C 
ATOM     18  C   UNL A   1      33.695  22.439  24.555  1.00  0.00     0.134 C 
ATOM     19  C   UNL A   1      34.915  21.468  24.765  1.00  0.00     0.287 C 
ATOM     20  N   UNL A   1      36.022  22.104  25.486  1.00  0.00    -0.329 N 
ATOM     21  C   UNL A   1      35.253  24.374  24.766  1.00  0.00     0.182 C 
ATOM     22  C   UNL A   1      37.258  21.334  25.558  1.00  0.00     0.262 C 
ATOM     23  C   UNL A   1      36.411  23.381  24.857  1.00  0.00     0.203 C 
ATOM     24  H   UNL A   1      35.637  22.209  26.425  1.00  0.00     0.348 HD
ATOM     25  C   UNL A   1      38.325  22.401  25.834  1.00  0.00     0.068 C 
ATOM     26  C   UNL A   1      37.595  23.745  25.726  1.00  0.00     0.073 C 
ENDBRANCH  10  16
ENDBRANCH   6   9
ENDBRANCH   4   5
ENDBRANCH   3   4
ENDBRANCH   2   3
ENDBRANCH   1   2
BRANCH   1  27
ATOM     27  C   UNL A   1      31.325  31.674  26.883  1.00  0.00     0.021 C 
BRANCH  27  28
ATOM     28  C   UNL A   1      31.880  32.939  26.211  1.00  0.00     0.116 C 
BRANCH  28  29
ATOM     29  N   UNL A   1      32.112  33.943  27.235  1.00  0.00    -0.352 N 
ATOM     30  C   UNL A   1      32.953  34.001  28.311  1.00  0.00     0.251 C 
ATOM     31  H   UNL A   1      31.550  34.745  27.133  1.00  0.00     0.163 HD
ATOM     32  O   UNL A   1      32.631  34.745  29.236  1.00  0.00    -0.269 OA
BRANCH  30  33
ATOM     33  C   UNL A   1      34.261  33.295  28.392  1.00  0.00     0.039 A 
ATOM     34  C   UNL A   1      34.227  31.943  28.775  1.00  0.00     0.014 A 
ATOM     35  C   UNL A   1      35.492  33.953  28.352  1.00  0.00     0.014 A 
ATOM     36  C   UNL A   1      35.389  31.282  29.186  1.00  0.00     0.010 A 
ATOM     37  C   UNL A   1      36.668  33.276  28.732  1.00  0.00     0.010 A 
ATOM     38  C   UNL A   1      36.618  31.954  29.206  1.00  0.00    -0.014 A 
BRANCH  38  39
ATOM     39  C   UNL A   1      37.800  31.312  29.852  1.00  0.00     0.031 A 
ATOM     40  C   UNL A   1      38.123  31.606  31.299  1.00  0.00     0.074 A 
ATOM     41  C   UNL A   1      38.559  30.423  29.182  1.00  0.00     0.049 A 
ATOM     42  N   UNL A   1      39.089  31.129  32.048  1.00  0.00    -0.248 NA
ATOM     43  C   UNL A   1      37.248  32.566  31.991  1.00  0.00     0.031 C 
ATOM     44  C   UNL A   1      38.369  30.024  27.789  1.00  0.00     0.029 A 
ATOM     45  N   UNL A   1      39.644  29.686  29.596  1.00  0.00    -0.354 N 
ATOM     46  C   UNL A   1      38.945  31.739  33.289  1.00  0.00     0.074 A 
ATOM     47  C   UNL A   1      37.822  32.645  33.183  1.00  0.00     0.031 C 
ATOM     48  C   UNL A   1      39.296  29.106  27.466  1.00  0.00     0.029 A 
ATOM     49  C   UNL A   1      40.155  28.862  28.623  1.00  0.00     0.049 A 
ATOM     50  H   UNL A   1      40.018  29.743  30.505  1.00  0.00     0.167 HD
ATOM     51  C   UNL A   1      39.666  31.557  34.423  1.00  0.00     0.031 A 
ATOM     52  C   UNL A   1      41.192  28.003  28.656  1.00  0.00     0.031 A 
ATOM     53  C   UNL A   1      40.774  30.650  34.557  1.00  0.00     0.049 A 
ATOM     54  C   UNL A   1      41.971  27.811  29.928  1.00  0.00     0.074 A 
ATOM     55  C   UNL A   1      41.560  30.404  35.672  1.00  0.00     0.029 A 
ATOM     56  N   UNL A   1      41.244  29.827  33.549  1.00  0.00    -0.354 N 
ATOM     57  N   UNL A   1      41.810  28.389  31.092  1.00  0.00    -0.248 NA
ATOM     58  C   UNL A   1      43.065  26.827  29.893  1.00  0.00     0.031 C 
ATOM     59  C   UNL A   1      42.521  29.446  35.330  1.00  0.00     0.029 A 
ATOM     60  C   UNL A   1      42.308  29.070  34.014  1.00  0.00     0.049 A 
ATOM     61  H   UNL A   1      40.878  29.784  32.636  1.00  0.00     0.167 HD
ATOM     62  C   UNL A   1      42.763  27.823  31.931  1.00  0.00     0.074 A 
ATOM     63  C   UNL A   1      43.486  26.843  31.149  1.00  0.00     0.031 C 
ATOM     64  C   UNL A   1      43.014  28.091  33.235  1.00  0.00     0.031 A 
BRANCH  51  65
ATOM     65  C   UNL A   1      39.273  32.370  35.624  1.00  0.00    -0.014 A 
ATOM     66  C   UNL A   1      39.788  33.661  35.821  1.00  0.00     0.009 A 
ATOM     67  C   UNL A   1      38.349  31.856  36.547  1.00  0.00     0.009 A 
ATOM     68  C   UNL A   1      39.409  34.408  36.938  1.00  0.00     0.001 A 
ATOM     69  C   UNL A   1      37.956  32.615  37.651  1.00  0.00     0.001 A 
ATOM     70  C   UNL A   1      38.492  33.886  37.850  1.00  0.00     0.000 A 
ENDBRANCH  51  65
BRANCH  52  71
ATOM     71  C   UNL A   1      41.559  27.233  27.440  1.00  0.00    -0.014 A 
ATOM     72  C   UNL A   1      41.080  25.927  27.250  1.00  0.00     0.009 A 
ATOM     73  C   UNL A   1      42.418  27.790  26.481  1.00  0.00     0.009 A 
ATOM     74  C   UNL A   1      41.479  25.185  26.137  1.00  0.00     0.001 A 
ATOM     75  C   UNL A   1      42.795  27.052  25.357  1.00  0.00     0.001 A 
ATOM     76  C   UNL A   1      42.334  25.748  25.191  1.00  0.00     0.000 A 
ENDBRANCH  52  71
BRANCH  64  77
ATOM     77  C   UNL A   1      44.090  27.288  33.908  1.00  0.00    -0.014 A 
ATOM     78  C   UNL A   1      43.808  26.047  34.500  1.00  0.00     0.009 A 
ATOM     79  C   UNL A   1      45.408  27.769  33.930  1.00  0.00     0.009 A 
ATOM     80  C   UNL A   1      44.820  25.320  35.131  1.00  0.00     0.001 A 
ATOM     81  C   UNL A   1      46.421  27.032  34.543  1.00  0.00     0.001 A 
ATOM     82  C   UNL A   1      46.126  25.813  35.151  1.00  0.00     0.000 A 
ENDBRANCH  64  77
ENDBRANCH  38  39
ENDBRANCH  30  33
ENDBRANCH  28  29
ENDBRANCH  27  28
ENDBRANCH   1  27
TORSDOF 14
ENDMDL
MODEL 2
REMARK VINA RESULT:     -11.2      3.516      7.302
REMARK SMILES C[C@H]1C[N@H+]2CCC[C@@H]2CN1c1cc(Cl)ccc1C(=O)NCCCCCCNC(=O)c1ccc(-c2c3nc(c(-c4ccccc4)c4ccc([nH]4)c(-c4ccccc4)c4nc(c(-c5ccccc5)c5ccc2[nH]5)C=C4)C=C3)cc1
REMARK SMILES IDX 24 1 23 2 22 3 21 4 20 5 18 6 19 7 17 9 11 10 12 11 13 12
REMARK SMILES IDX 16 13 14 14 15 15 10 16 1 17 2 18 3 19 4 20 9 21 5 22 8 23
REMARK SMILES IDX 6 25 7 26 25 27 26 28 27 29 28 30 29 32 30 33 31 34 77 35
REMARK SMILES IDX 32 36 76 37 33 38 34 39 35 40 70 41 36 42 75 43 69 44 71 45
REMARK SMILES IDX 37 46 74 47 68 48 67 49 38 51 60 52 45 53 59 54 46 55 49 56
REMARK SMILES IDX 58 57 72 58 47 59 48 60 57 62 73 63 50 64 39 65 40 66 44 67
REMARK SMILES IDX 41 68 43 69 42 70 61 71 62 72 66 73 63 74 65 75 64 76 51 77
REMARK SMILES IDX 52 78 56 79 53 80 55 81 54 82
REMARK H PARENT 20 8 4 24 27 31 71 50 49 61
REMARK Flexibility Score: inf
ROOT
ATOM      1  C   UNL A   1      34.945  23.465  24.509  1.00  0.00     0.002 C 
ENDROOT
BRANCH   1   2
ATOM      2  C   UNL A   1      34.744  24.152  25.866  1.00  0.00     0.002 C 
BRANCH   2   3
ATOM      3  C   UNL A   1      33.889  23.387  26.890  1.00  0.00     0.021 C 
BRANCH   3   4
ATOM      4  C   UNL A   1      32.380  23.287  26.637  1.00  0.00     0.116 C 
BRANCH   4   5
ATOM      5  N   UNL A   1      31.608  24.454  26.979  1.00  0.00    -0.352 N 
ATOM      6  C   UNL A   1      31.124  25.446  26.157  1.00  0.00     0.253 C 
ATOM      7  O   UNL A   1      30.413  26.314  26.668  1.00  0.00    -0.269 OA
ATOM      8  H   UNL A   1      31.396  24.556  27.935  1.00  0.00     0.163 HD
BRANCH   6   9
ATOM      9  C   UNL A   1      31.478  25.591  24.712  1.00  0.00     0.063 A 
ATOM     10  C   UNL A   1      32.119  26.703  24.109  1.00  0.00     0.052 A 
ATOM     11  C   UNL A   1      32.499  26.583  22.755  1.00  0.00     0.047 A 
ATOM     12  C   UNL A   1      32.250  25.425  22.019  1.00  0.00     0.043 A 
ATOM     13  C   UNL A   1      31.243  24.423  23.953  1.00  0.00     0.017 A 
ATOM     14  Cl  UNL A   1      32.755  25.328  20.377  1.00  0.00    -0.084 Cl
ATOM     15  C   UNL A   1      31.621  24.340  22.613  1.00  0.00     0.021 A 
BRANCH  10  16
ATOM     16  N   UNL A   1      32.466  27.854  24.809  1.00  0.00    -0.357 N 
ATOM     17  C   UNL A   1      30.442  29.200  24.103  1.00  0.00     0.037 C 
ATOM     18  C   UNL A   1      31.929  29.213  24.479  1.00  0.00     0.134 C 
ATOM     19  C   UNL A   1      32.119  30.173  25.711  1.00  0.00     0.287 C 
ATOM     20  N   UNL A   1      33.490  30.157  26.230  1.00  0.00    -0.329 N 
ATOM     21  C   UNL A   1      33.879  27.878  25.273  1.00  0.00     0.182 C 
ATOM     22  C   UNL A   1      33.703  30.875  27.482  1.00  0.00     0.262 C 
ATOM     23  C   UNL A   1      33.946  28.781  26.504  1.00  0.00     0.203 C 
ATOM     24  H   UNL A   1      34.009  30.621  25.485  1.00  0.00     0.348 HD
ATOM     25  C   UNL A   1      34.987  30.245  28.037  1.00  0.00     0.068 C 
ATOM     26  C   UNL A   1      35.305  29.075  27.100  1.00  0.00     0.073 C 
ENDBRANCH  10  16
ENDBRANCH   6   9
ENDBRANCH   4   5
ENDBRANCH   3   4
ENDBRANCH   2   3
ENDBRANCH   1   2
BRANCH   1  27
ATOM     27  C   UNL A   1      35.537  22.053  24.575  1.00  0.00     0.021 C 
BRANCH  27  28
ATOM     28  C   UNL A   1      36.983  21.927  24.075  1.00  0.00     0.116 C 
BRANCH  28  29
ATOM     29  N   UNL A   1      37.648  20.884  24.839  1.00  0.00    -0.352 N 
ATOM     30  C   UNL A   1      38.764  20.874  25.628  1.00  0.00     0.251 C 
ATOM     31  H   UNL A   1      37.204  20.008  24.776  1.00  0.00     0.163 HD
ATOM     32  O   UNL A   1      39.334  19.794  25.781  1.00  0.00    -0.269 OA
BRANCH  30  33
ATOM     33  C   UNL A   1      39.273  22.055  26.376  1.00  0.00     0.039 A 
ATOM     34  C   UNL A   1      38.630  23.282  26.135  1.00  0.00     0.014 A 
ATOM     35  C   UNL A   1      40.475  22.054  27.088  1.00  0.00     0.014 A 
ATOM     36  C   UNL A   1      39.214  24.490  26.527  1.00  0.00     0.010 A 
ATOM     37  C   UNL A   1      41.045  23.269  27.515  1.00  0.00     0.010 A 
ATOM     38  C   UNL A   1      40.449  24.500  27.189  1.00  0.00    -0.014 A 
BRANCH  38  39
ATOM     39  C   UNL A   1      41.162  25.793  27.402  1.00  0.00     0.031 A 
ATOM     40  C   UNL A   1      40.568  26.841  28.316  1.00  0.00     0.074 A 
ATOM     41  C   UNL A   1      42.362  26.026  26.837  1.00  0.00     0.049 A 
ATOM     42  N   UNL A   1      41.045  28.016  28.652  1.00  0.00    -0.248 NA
ATOM     43  C   UNL A   1      39.267  26.527  28.927  1.00  0.00     0.031 C 
ATOM     44  C   UNL A   1      43.071  25.111  25.943  1.00  0.00     0.029 A 
ATOM     45  N   UNL A   1      43.202  27.110  26.942  1.00  0.00    -0.354 N 
ATOM     46  C   UNL A   1      40.098  28.583  29.499  1.00  0.00     0.074 A 
ATOM     47  C   UNL A   1      39.006  27.639  29.598  1.00  0.00     0.031 C 
ATOM     48  C   UNL A   1      44.244  25.665  25.592  1.00  0.00     0.029 A 
ATOM     49  C   UNL A   1      44.365  26.979  26.221  1.00  0.00     0.049 A 
ATOM     50  H   UNL A   1      42.991  27.904  27.484  1.00  0.00     0.167 HD
ATOM     51  C   UNL A   1      40.133  29.772  30.151  1.00  0.00     0.031 A 
ATOM     52  C   UNL A   1      45.411  27.815  26.085  1.00  0.00     0.031 A 
ATOM     53  C   UNL A   1      41.215  30.717  30.081  1.00  0.00     0.049 A 
ATOM     54  C   UNL A   1      45.432  29.124  26.826  1.00  0.00     0.074 A 
ATOM     55  C   UNL A   1      41.330  31.947  30.711  1.00  0.00     0.029 A 
ATOM     56  N   UNL A   1      42.376  30.533  29.351  1.00  0.00    -0.354 N 
ATOM     57  N   UNL A   1      44.533  29.634  27.629  1.00  0.00    -0.248 NA
ATOM     58  C   UNL A   1      46.628  29.964  26.654  1.00  0.00     0.031 C 
ATOM     59  C   UNL A   1      42.555  32.516  30.343  1.00  0.00     0.029 A 
ATOM     60  C   UNL A   1      43.215  31.624  29.515  1.00  0.00     0.049 A 
ATOM     61  H   UNL A   1      42.577  29.745  28.797  1.00  0.00     0.167 HD
ATOM     62  C   UNL A   1      45.064  30.838  28.077  1.00  0.00     0.074 A 
ATOM     63  C   UNL A   1      46.370  30.975  27.470  1.00  0.00     0.031 C 
ATOM     64  C   UNL A   1      44.516  31.748  28.917  1.00  0.00     0.031 A 
BRANCH  51  65
ATOM     65  C   UNL A   1      38.948  30.121  31.005  1.00  0.00    -0.014 A 
ATOM     66  C   UNL A   1      37.813  30.732  30.449  1.00  0.00     0.009 A 
ATOM     67  C   UNL A   1      38.950  29.800  32.372  1.00  0.00     0.009 A 
ATOM     68  C   UNL A   1      36.715  31.045  31.254  1.00  0.00     0.001 A 
ATOM     69  C   UNL A   1      37.841  30.094  33.168  1.00  0.00     0.001 A 
ATOM     70  C   UNL A   1      36.729  30.723  32.611  1.00  0.00     0.000 A 
ENDBRANCH  51  65
BRANCH  52  71
ATOM     71  C   UNL A   1      46.555  27.439  25.215  1.00  0.00    -0.014 A 
ATOM     72  C   UNL A   1      47.555  26.573  25.684  1.00  0.00     0.009 A 
ATOM     73  C   UNL A   1      46.667  27.973  23.922  1.00  0.00     0.009 A 
ATOM     74  C   UNL A   1      48.661  26.274  24.885  1.00  0.00     0.001 A 
ATOM     75  C   UNL A   1      47.762  27.652  23.118  1.00  0.00     0.001 A 
ATOM     76  C   UNL A   1      48.762  26.812  23.603  1.00  0.00     0.000 A 
ENDBRANCH  52  71
BRANCH  64  77
ATOM     77  C   UNL A   1      45.344  32.953  29.261  1.00  0.00    -0.014 A 
ATOM     78  C   UNL A   1      45.226  34.148  28.535  1.00  0.00     0.009 A 
ATOM     79  C   UNL A   1      46.239  32.898  30.340  1.00  0.00     0.009 A 
ATOM     80  C   UNL A   1      46.013  35.254  28.863  1.00  0.00     0.001 A 
ATOM     81  C   UNL A   1      47.010  34.010  30.679  1.00  0.00     0.001 A 
ATOM     82  C   UNL A   1      46.904  35.184  29.934  1.00  0.00     0.000 A 
ENDBRANCH  64  77
ENDBRANCH  38  39
ENDBRANCH  30  33
ENDBRANCH  28  29
ENDBRANCH  27  28
ENDBRANCH   1  27
TORSDOF 14
ENDMDL
MODEL 3
REMARK VINA RESULT:     -11.2      3.601      9.093
REMARK SMILES C[C@H]1C[N@H+]2CCC[C@@H]2CN1c1cc(Cl)ccc1C(=O)NCCCCCCNC(=O)c1ccc(-c2c3nc(c(-c4ccccc4)c4ccc([nH]4)c(-c4ccccc4)c4nc(c(-c5ccccc5)c5ccc2[nH]5)C=C4)C=C3)cc1
REMARK SMILES IDX 24 1 23 2 22 3 21 4 20 5 18 6 19 7 17 9 11 10 12 11 13 12
REMARK SMILES IDX 16 13 14 14 15 15 10 16 1 17 2 18 3 19 4 20 9 21 5 22 8 23
REMARK SMILES IDX 6 25 7 26 25 27 26 28 27 29 28 30 29 32 30 33 31 34 77 35
REMARK SMILES IDX 32 36 76 37 33 38 34 39 35 40 70 41 36 42 75 43 69 44 71 45
REMARK SMILES IDX 37 46 74 47 68 48 67 49 38 51 60 52 45 53 59 54 46 55 49 56
REMARK SMILES IDX 58 57 72 58 47 59 48 60 57 62 73 63 50 64 39 65 40 66 44 67
REMARK SMILES IDX 41 68 43 69 42 70 61 71 62 72 66 73 63 74 65 75 64 76 51 77
REMARK SMILES IDX 52 78 56 79 53 80 55 81 54 82
REMARK H PARENT 20 8 4 24 27 31 71 50 49 61
REMARK Flexibility Score: inf
ROOT
ATOM      1  C   UNL A   1      35.269  21.644  25.950  1.00  0.00     0.002 C 
ENDROOT
BRANCH   1   2
ATOM      2  C   UNL A   1      33.939  22.139  25.365  1.00  0.00     0.002 C 
BRANCH   2   3
ATOM      3  C   UNL A   1      32.930  22.714  26.373  1.00  0.00     0.021 C 
BRANCH   3   4
ATOM      4  C   UNL A   1      33.036  24.202  26.726  1.00  0.00     0.116 C 
BRANCH   4   5
ATOM      5  N   UNL A   1      31.785  24.895  26.906  1.00  0.00    -0.352 N 
ATOM      6  C   UNL A   1      30.972  25.477  25.962  1.00  0.00     0.253 C 
ATOM      7  O   UNL A   1      29.899  25.948  26.344  1.00  0.00    -0.269 OA
ATOM      8  H   UNL A   1      31.468  24.960  27.836  1.00  0.00     0.163 HD
BRANCH   6   9
ATOM      9  C   UNL A   1      31.344  25.657  24.525  1.00  0.00     0.063 A 
ATOM     10  C   UNL A   1      32.007  26.776  23.960  1.00  0.00     0.052 A 
ATOM     11  C   UNL A   1      32.400  26.689  22.607  1.00  0.00     0.047 A 
ATOM     12  C   UNL A   1      32.142  25.555  21.836  1.00  0.00     0.043 A 
ATOM     13  C   UNL A   1      31.100  24.515  23.730  1.00  0.00     0.017 A 
ATOM     14  Cl  UNL A   1      32.664  25.497  20.197  1.00  0.00    -0.084 Cl
ATOM     15  C   UNL A   1      31.490  24.464  22.392  1.00  0.00     0.021 A 
BRANCH  10  16
ATOM     16  N   UNL A   1      32.364  27.902  24.696  1.00  0.00    -0.357 N 
ATOM     17  C   UNL A   1      30.355  29.288  24.029  1.00  0.00     0.037 C 
ATOM     18  C   UNL A   1      31.841  29.275  24.407  1.00  0.00     0.134 C 
ATOM     19  C   UNL A   1      32.038  30.194  25.669  1.00  0.00     0.287 C 
ATOM     20  N   UNL A   1      33.407  30.149  26.189  1.00  0.00    -0.329 N 
ATOM     21  C   UNL A   1      33.777  27.897  25.163  1.00  0.00     0.182 C 
ATOM     22  C   UNL A   1      33.625  30.826  27.463  1.00  0.00     0.262 C 
ATOM     23  C   UNL A   1      33.850  28.761  26.422  1.00  0.00     0.203 C 
ATOM     24  H   UNL A   1      33.933  30.631  25.460  1.00  0.00     0.348 HD
ATOM     25  C   UNL A   1      34.902  30.167  28.001  1.00  0.00     0.068 C 
ATOM     26  C   UNL A   1      35.210  29.023  27.028  1.00  0.00     0.073 C 
ENDBRANCH  10  16
ENDBRANCH   6   9
ENDBRANCH   4   5
ENDBRANCH   3   4
ENDBRANCH   2   3
ENDBRANCH   1   2
BRANCH   1  27
ATOM     27  C   UNL A   1      36.101  20.759  25.016  1.00  0.00     0.021 C 
BRANCH  27  28
ATOM     28  C   UNL A   1      37.509  21.284  24.699  1.00  0.00     0.116 C 
BRANCH  28  29
ATOM     29  N   UNL A   1      38.482  20.426  25.353  1.00  0.00    -0.352 N 
ATOM     30  C   UNL A   1      39.631  20.678  26.049  1.00  0.00     0.251 C 
ATOM     31  H   UNL A   1      38.271  19.467  25.279  1.00  0.00     0.163 HD
ATOM     32  O   UNL A   1      40.467  19.778  26.099  1.00  0.00    -0.269 OA
BRANCH  30  33
ATOM     33  C   UNL A   1      39.889  21.929  26.814  1.00  0.00     0.039 A 
ATOM     34  C   UNL A   1      39.250  23.094  26.357  1.00  0.00     0.014 A 
ATOM     35  C   UNL A   1      40.896  22.046  27.775  1.00  0.00     0.014 A 
ATOM     36  C   UNL A   1      39.661  24.358  26.791  1.00  0.00     0.010 A 
ATOM     37  C   UNL A   1      41.285  23.318  28.239  1.00  0.00     0.010 A 
ATOM     38  C   UNL A   1      40.710  24.486  27.710  1.00  0.00    -0.014 A 
BRANCH  38  39
ATOM     39  C   UNL A   1      41.282  25.835  27.993  1.00  0.00     0.031 A 
ATOM     40  C   UNL A   1      42.611  26.233  27.394  1.00  0.00     0.074 A 
ATOM     41  C   UNL A   1      40.605  26.734  28.734  1.00  0.00     0.049 A 
ATOM     42  N   UNL A   1      43.263  27.367  27.499  1.00  0.00    -0.248 NA
ATOM     43  C   UNL A   1      43.298  25.223  26.574  1.00  0.00     0.031 C 
ATOM     44  C   UNL A   1      39.308  26.506  29.368  1.00  0.00     0.029 A 
ATOM     45  N   UNL A   1      40.919  28.030  29.068  1.00  0.00    -0.354 N 
ATOM     46  C   UNL A   1      44.437  27.200  26.772  1.00  0.00     0.074 A 
ATOM     47  C   UNL A   1      44.424  25.846  26.261  1.00  0.00     0.031 C 
ATOM     48  C   UNL A   1      38.930  27.628  30.004  1.00  0.00     0.029 A 
ATOM     49  C   UNL A   1      39.962  28.649  29.836  1.00  0.00     0.049 A 
ATOM     50  H   UNL A   1      41.749  28.475  28.783  1.00  0.00     0.167 HD
ATOM     51  C   UNL A   1      45.433  28.090  26.534  1.00  0.00     0.031 A 
ATOM     52  C   UNL A   1      39.915  29.895  30.343  1.00  0.00     0.031 A 
ATOM     53  C   UNL A   1      45.459  29.444  27.017  1.00  0.00     0.049 A 
ATOM     54  C   UNL A   1      41.026  30.868  30.058  1.00  0.00     0.074 A 
ATOM     55  C   UNL A   1      46.430  30.413  26.822  1.00  0.00     0.029 A 
ATOM     56  N   UNL A   1      44.461  30.028  27.778  1.00  0.00    -0.354 N 
ATOM     57  N   UNL A   1      42.120  30.692  29.360  1.00  0.00    -0.248 NA
ATOM     58  C   UNL A   1      40.882  32.222  30.618  1.00  0.00     0.031 C 
ATOM     59  C   UNL A   1      46.028  31.579  27.485  1.00  0.00     0.029 A 
ATOM     60  C   UNL A   1      44.791  31.345  28.059  1.00  0.00     0.049 A 
ATOM     61  H   UNL A   1      43.638  29.577  28.076  1.00  0.00     0.167 HD
ATOM     62  C   UNL A   1      42.779  31.916  29.375  1.00  0.00     0.074 A 
ATOM     63  C   UNL A   1      41.956  32.831  30.136  1.00  0.00     0.031 C 
ATOM     64  C   UNL A   1      43.963  32.251  28.807  1.00  0.00     0.031 A 
BRANCH  51  65
ATOM     65  C   UNL A   1      46.593  27.616  25.706  1.00  0.00    -0.014 A 
ATOM     66  C   UNL A   1      46.646  27.871  24.327  1.00  0.00     0.009 A 
ATOM     67  C   UNL A   1      47.661  26.941  26.317  1.00  0.00     0.009 A 
ATOM     68  C   UNL A   1      47.734  27.431  23.570  1.00  0.00     0.001 A 
ATOM     69  C   UNL A   1      48.757  26.523  25.560  1.00  0.00     0.001 A 
ATOM     70  C   UNL A   1      48.789  26.760  24.187  1.00  0.00     0.000 A 
ENDBRANCH  51  65
BRANCH  52  71
ATOM     71  C   UNL A   1      38.758  30.317  31.174  1.00  0.00    -0.014 A 
ATOM     72  C   UNL A   1      37.609  30.859  30.576  1.00  0.00     0.009 A 
ATOM     73  C   UNL A   1      38.812  30.210  32.572  1.00  0.00     0.009 A 
ATOM     74  C   UNL A   1      36.550  31.314  31.366  1.00  0.00     0.001 A 
ATOM     75  C   UNL A   1      37.741  30.643  33.356  1.00  0.00     0.001 A 
ATOM     76  C   UNL A   1      36.616  31.203  32.754  1.00  0.00     0.000 A 
ENDBRANCH  52  71
BRANCH  64  77
ATOM     77  C   UNL A   1      44.418  33.674  28.953  1.00  0.00    -0.014 A 
ATOM     78  C   UNL A   1      45.209  34.077  30.040  1.00  0.00     0.009 A 
ATOM     79  C   UNL A   1      44.068  34.620  27.978  1.00  0.00     0.009 A 
ATOM     80  C   UNL A   1      45.612  35.408  30.164  1.00  0.00     0.001 A 
ATOM     81  C   UNL A   1      44.490  35.946  28.093  1.00  0.00     0.001 A 
ATOM     82  C   UNL A   1      45.253  36.341  29.191  1.00  0.00     0.000 A 
ENDBRANCH  64  77
ENDBRANCH  38  39
ENDBRANCH  30  33
ENDBRANCH  28  29
ENDBRANCH  27  28
ENDBRANCH   1  27
TORSDOF 14
ENDMDL
