MODEL 1
REMARK VINA RESULT:     -11.1      0.000      0.000
REMARK SMILES CC(=O)c1nnn(-c2ccc(C(=O)NCCCCCCNC(=O)c3ccc(-c4c5nc(c(-c6ccccc6)c6ccc([nH]6)c(-c6ccccc6)c6nc(c(-c7ccccc7)c7ccc4[nH]7)C=C6)C=C5)cc3)cc2)c1C
REMARK SMILES IDX 17 1 16 2 15 3 14 4 12 5 13 6 11 8 8 9 9 10 73 11 10 12
REMARK SMILES IDX 72 13 7 14 4 15 5 16 74 17 6 18 75 19 2 20 1 21 3 22 18 23
REMARK SMILES IDX 19 24 20 25 21 26 22 27 23 29 24 30 25 31 71 32 26 33 70 34
REMARK SMILES IDX 27 35 28 36 29 37 64 38 30 39 69 40 63 41 65 42 31 43 68 44
REMARK SMILES IDX 62 45 61 46 32 48 54 49 39 50 53 51 40 52 43 53 52 54 66 55
REMARK SMILES IDX 41 56 42 57 51 59 67 60 44 61 33 62 34 63 38 64 35 65 37 66
REMARK SMILES IDX 36 67 55 68 56 69 60 70 57 71 59 72 58 73 45 74 46 75 50 76
REMARK SMILES IDX 47 77 49 78 48 79
REMARK H PARENT 14 7 21 28 65 47 43 58
REMARK Flexibility Score: inf
ROOT
ATOM      1  C   UNL A   1      36.522  23.154  25.703  1.00  0.00     0.002 C 
ENDROOT
BRANCH   1   2
ATOM      2  C   UNL A   1      35.640  24.404  25.586  1.00  0.00     0.021 C 
BRANCH   2   3
ATOM      3  C   UNL A   1      34.263  24.116  24.981  1.00  0.00     0.116 C 
BRANCH   3   4
ATOM      4  N   UNL A   1      33.280  23.957  26.037  1.00  0.00    -0.352 N 
ATOM      5  C   UNL A   1      32.048  24.516  26.262  1.00  0.00     0.251 C 
ATOM      6  O   UNL A   1      31.448  24.180  27.284  1.00  0.00    -0.269 OA
ATOM      7  H   UNL A   1      33.554  23.316  26.732  1.00  0.00     0.163 HD
BRANCH   5   8
ATOM      8  C   UNL A   1      31.376  25.426  25.293  1.00  0.00     0.039 A 
ATOM      9  C   UNL A   1      29.948  27.315  23.819  1.00  0.00     0.067 A 
ATOM     10  C   UNL A   1      31.042  27.735  24.573  1.00  0.00     0.029 A 
ATOM     11  C   UNL A   1      29.649  25.958  23.684  1.00  0.00     0.029 A 
ATOM     12  C   UNL A   1      31.730  26.787  25.335  1.00  0.00     0.016 A 
ATOM     13  C   UNL A   1      30.407  25.014  24.375  1.00  0.00     0.016 A 
BRANCH   9  14
ATOM     14  N   UNL A   1      29.093  28.264  23.234  1.00  0.00    -0.217 N 
ATOM     15  C   UNL A   1      28.259  30.043  22.303  1.00  0.00     0.151 A 
ATOM     16  N   UNL A   1      27.253  29.339  22.917  1.00  0.00    -0.126 NA
ATOM     17  C   UNL A   1      29.449  29.346  22.446  1.00  0.00     0.073 A 
ATOM     18  N   UNL A   1      27.758  28.206  23.384  1.00  0.00    -0.061 NA
ATOM     19  C   UNL A   1      30.815  29.538  21.900  1.00  0.00     0.069 C 
BRANCH  15  20
ATOM     20  C   UNL A   1      28.000  31.293  21.606  1.00  0.00     0.181 C 
ATOM     21  C   UNL A   1      28.233  32.582  22.353  1.00  0.00     0.095 C 
ATOM     22  O   UNL A   1      27.611  31.310  20.440  1.00  0.00    -0.293 OA
ENDBRANCH  15  20
ENDBRANCH   9  14
ENDBRANCH   5   8
ENDBRANCH   3   4
ENDBRANCH   2   3
ENDBRANCH   1   2
BRANCH   1  23
ATOM     23  C   UNL A   1      37.986  23.417  26.097  1.00  0.00     0.002 C 
BRANCH  23  24
ATOM     24  C   UNL A   1      38.901  22.184  26.134  1.00  0.00     0.021 C 
BRANCH  24  25
ATOM     25  C   UNL A   1      40.116  22.375  27.025  1.00  0.00     0.116 C 
BRANCH  25  26
ATOM     26  N   UNL A   1      41.368  22.180  26.293  1.00  0.00    -0.352 N 
ATOM     27  C   UNL A   1      42.196  23.144  25.746  1.00  0.00     0.251 C 
ATOM     28  H   UNL A   1      41.656  21.247  26.173  1.00  0.00     0.163 HD
ATOM     29  O   UNL A   1      42.996  22.881  24.870  1.00  0.00    -0.269 OA
BRANCH  27  30
ATOM     30  C   UNL A   1      42.095  24.508  26.288  1.00  0.00     0.039 A 
ATOM     31  C   UNL A   1      41.273  25.478  25.708  1.00  0.00     0.014 A 
ATOM     32  C   UNL A   1      42.827  24.776  27.441  1.00  0.00     0.014 A 
ATOM     33  C   UNL A   1      41.143  26.709  26.347  1.00  0.00     0.010 A 
ATOM     34  C   UNL A   1      42.560  25.907  28.158  1.00  0.00     0.010 A 
ATOM     35  C   UNL A   1      41.786  26.905  27.579  1.00  0.00    -0.014 A 
BRANCH  35  36
ATOM     36  C   UNL A   1      41.608  28.125  28.352  1.00  0.00     0.031 A 
ATOM     37  C   UNL A   1      42.635  29.172  28.102  1.00  0.00     0.074 A 
ATOM     38  C   UNL A   1      40.455  28.374  29.012  1.00  0.00     0.049 A 
ATOM     39  N   UNL A   1      43.498  29.653  28.933  1.00  0.00    -0.248 NA
ATOM     40  C   UNL A   1      42.810  29.656  26.720  1.00  0.00     0.031 C 
ATOM     41  C   UNL A   1      39.221  27.572  29.028  1.00  0.00     0.029 A 
ATOM     42  N   UNL A   1      40.090  29.480  29.708  1.00  0.00    -0.354 N 
ATOM     43  C   UNL A   1      44.198  30.639  28.240  1.00  0.00     0.074 A 
ATOM     44  C   UNL A   1      43.858  30.473  26.851  1.00  0.00     0.031 C 
ATOM     45  C   UNL A   1      38.193  28.327  29.473  1.00  0.00     0.029 A 
ATOM     46  C   UNL A   1      38.724  29.590  29.949  1.00  0.00     0.049 A 
ATOM     47  H   UNL A   1      40.740  30.152  30.017  1.00  0.00     0.167 HD
ATOM     48  C   UNL A   1      44.809  31.667  28.893  1.00  0.00     0.031 A 
ATOM     49  C   UNL A   1      38.079  30.660  30.474  1.00  0.00     0.031 A 
ATOM     50  C   UNL A   1      44.906  31.405  30.306  1.00  0.00     0.049 A 
ATOM     51  C   UNL A   1      39.104  31.493  31.145  1.00  0.00     0.074 A 
ATOM     52  C   UNL A   1      45.545  30.463  31.085  1.00  0.00     0.029 A 
ATOM     53  N   UNL A   1      43.926  31.954  31.097  1.00  0.00    -0.354 N 
ATOM     54  N   UNL A   1      39.777  31.100  32.188  1.00  0.00    -0.248 NA
ATOM     55  C   UNL A   1      39.706  32.570  30.378  1.00  0.00     0.031 C 
ATOM     56  C   UNL A   1      44.618  30.162  32.126  1.00  0.00     0.029 A 
ATOM     57  C   UNL A   1      43.503  30.993  31.976  1.00  0.00     0.049 A 
ATOM     58  H   UNL A   1      43.586  32.877  31.043  1.00  0.00     0.167 HD
ATOM     59  C   UNL A   1      41.069  31.555  31.964  1.00  0.00     0.074 A 
ATOM     60  C   UNL A   1      40.942  32.536  30.886  1.00  0.00     0.031 C 
ATOM     61  C   UNL A   1      42.147  30.886  32.471  1.00  0.00     0.031 A 
BRANCH  48  62
ATOM     62  C   UNL A   1      44.929  33.070  28.343  1.00  0.00    -0.014 A 
ATOM     63  C   UNL A   1      43.766  33.861  28.265  1.00  0.00     0.009 A 
ATOM     64  C   UNL A   1      46.057  33.541  27.646  1.00  0.00     0.009 A 
ATOM     65  C   UNL A   1      43.715  35.011  27.466  1.00  0.00     0.001 A 
ATOM     66  C   UNL A   1      46.021  34.711  26.879  1.00  0.00     0.001 A 
ATOM     67  C   UNL A   1      44.840  35.429  26.765  1.00  0.00     0.000 A 
ENDBRANCH  48  62
BRANCH  49  68
ATOM     68  C   UNL A   1      36.728  31.178  30.170  1.00  0.00    -0.014 A 
ATOM     69  C   UNL A   1      35.937  31.759  31.175  1.00  0.00     0.009 A 
ATOM     70  C   UNL A   1      36.331  31.372  28.833  1.00  0.00     0.009 A 
ATOM     71  C   UNL A   1      34.820  32.543  30.852  1.00  0.00     0.001 A 
ATOM     72  C   UNL A   1      35.216  32.155  28.512  1.00  0.00     0.001 A 
ATOM     73  C   UNL A   1      34.470  32.753  29.521  1.00  0.00     0.000 A 
ENDBRANCH  49  68
BRANCH  61  74
ATOM     74  C   UNL A   1      41.889  29.782  33.471  1.00  0.00    -0.014 A 
ATOM     75  C   UNL A   1      41.692  28.437  33.110  1.00  0.00     0.009 A 
ATOM     76  C   UNL A   1      42.016  30.091  34.832  1.00  0.00     0.009 A 
ATOM     77  C   UNL A   1      41.607  27.437  34.088  1.00  0.00     0.001 A 
ATOM     78  C   UNL A   1      41.953  29.093  35.806  1.00  0.00     0.001 A 
ATOM     79  C   UNL A   1      41.745  27.766  35.435  1.00  0.00     0.000 A 
ENDBRANCH  61  74
ENDBRANCH  35  36
ENDBRANCH  27  30
ENDBRANCH  25  26
ENDBRANCH  24  25
ENDBRANCH  23  24
ENDBRANCH   1  23
TORSDOF 15
ENDMDL
MODEL 2
REMARK VINA RESULT:     -11.1      3.576      8.636
REMARK SMILES CC(=O)c1nnn(-c2ccc(C(=O)NCCCCCCNC(=O)c3ccc(-c4c5nc(c(-c6ccccc6)c6ccc([nH]6)c(-c6ccccc6)c6nc(c(-c7ccccc7)c7ccc4[nH]7)C=C6)C=C5)cc3)cc2)c1C
REMARK SMILES IDX 17 1 16 2 15 3 14 4 12 5 13 6 11 8 8 9 9 10 73 11 10 12
REMARK SMILES IDX 72 13 7 14 4 15 5 16 74 17 6 18 75 19 2 20 1 21 3 22 18 23
REMARK SMILES IDX 19 24 20 25 21 26 22 27 23 29 24 30 25 31 71 32 26 33 70 34
REMARK SMILES IDX 27 35 28 36 29 37 64 38 30 39 69 40 63 41 65 42 31 43 68 44
REMARK SMILES IDX 62 45 61 46 32 48 54 49 39 50 53 51 40 52 43 53 52 54 66 55
REMARK SMILES IDX 41 56 42 57 51 59 67 60 44 61 33 62 34 63 38 64 35 65 37 66
REMARK SMILES IDX 36 67 55 68 56 69 60 70 57 71 59 72 58 73 45 74 46 75 50 76
REMARK SMILES IDX 47 77 49 78 48 79
REMARK H PARENT 14 7 21 28 65 47 43 58
REMARK Flexibility Score: inf
ROOT
ATOM      1  C   UNL A   1      35.471  31.573  28.270  1.00  0.00     0.002 C 
ENDROOT
BRANCH   1   2
ATOM      2  C   UNL A   1      36.191  30.225  28.140  1.00  0.00     0.021 C 
BRANCH   2   3
ATOM      3  C   UNL A   1      35.368  29.171  27.394  1.00  0.00     0.116 C 
BRANCH   3   4
ATOM      4  N   UNL A   1      33.954  29.369  27.658  1.00  0.00    -0.352 N 
ATOM      5  C   UNL A   1      32.824  28.700  27.262  1.00  0.00     0.251 C 
ATOM      6  O   UNL A   1      31.740  29.134  27.650  1.00  0.00    -0.269 OA
ATOM      7  H   UNL A   1      33.770  30.140  28.241  1.00  0.00     0.163 HD
BRANCH   5   8
ATOM      8  C   UNL A   1      32.859  27.438  26.470  1.00  0.00     0.039 A 
ATOM      9  C   UNL A   1      32.851  24.881  25.357  1.00  0.00     0.067 A 
ATOM     10  C   UNL A   1      31.650  25.422  25.812  1.00  0.00     0.029 A 
ATOM     11  C   UNL A   1      34.016  25.650  25.324  1.00  0.00     0.029 A 
ATOM     12  C   UNL A   1      31.670  26.689  26.399  1.00  0.00     0.016 A 
ATOM     13  C   UNL A   1      33.997  26.950  25.825  1.00  0.00     0.016 A 
BRANCH   9  14
ATOM     14  N   UNL A   1      32.914  23.529  24.982  1.00  0.00    -0.217 N 
ATOM     15  C   UNL A   1      33.433  21.425  24.801  1.00  0.00     0.151 A 
ATOM     16  N   UNL A   1      32.806  21.838  23.651  1.00  0.00    -0.126 NA
ATOM     17  C   UNL A   1      33.470  22.481  25.698  1.00  0.00     0.073 A 
ATOM     18  N   UNL A   1      32.400  23.088  23.820  1.00  0.00    -0.061 NA
ATOM     19  C   UNL A   1      33.893  22.601  27.114  1.00  0.00     0.069 C 
BRANCH  15  20
ATOM     20  C   UNL A   1      33.910  20.060  24.961  1.00  0.00     0.181 C 
ATOM     21  C   UNL A   1      32.903  18.995  25.313  1.00  0.00     0.095 C 
ATOM     22  O   UNL A   1      35.096  19.771  24.807  1.00  0.00    -0.293 OA
ENDBRANCH  15  20
ENDBRANCH   9  14
ENDBRANCH   5   8
ENDBRANCH   3   4
ENDBRANCH   2   3
ENDBRANCH   1   2
BRANCH   1  23
ATOM     23  C   UNL A   1      35.802  32.375  29.541  1.00  0.00     0.002 C 
BRANCH  23  24
ATOM     24  C   UNL A   1      36.349  33.793  29.316  1.00  0.00     0.021 C 
BRANCH  24  25
ATOM     25  C   UNL A   1      37.852  33.820  29.102  1.00  0.00     0.116 C 
BRANCH  25  26
ATOM     26  N   UNL A   1      38.561  34.348  30.268  1.00  0.00    -0.352 N 
ATOM     27  C   UNL A   1      39.389  33.669  31.144  1.00  0.00     0.251 C 
ATOM     28  H   UNL A   1      38.432  35.305  30.454  1.00  0.00     0.163 HD
ATOM     29  O   UNL A   1      39.634  34.093  32.256  1.00  0.00    -0.269 OA
BRANCH  27  30
ATOM     30  C   UNL A   1      39.995  32.415  30.667  1.00  0.00     0.039 A 
ATOM     31  C   UNL A   1      41.319  32.352  30.225  1.00  0.00     0.014 A 
ATOM     32  C   UNL A   1      39.195  31.278  30.721  1.00  0.00     0.014 A 
ATOM     33  C   UNL A   1      41.853  31.108  29.900  1.00  0.00     0.010 A 
ATOM     34  C   UNL A   1      39.769  30.047  30.578  1.00  0.00     0.010 A 
ATOM     35  C   UNL A   1      41.068  29.961  30.092  1.00  0.00    -0.014 A 
BRANCH  35  36
ATOM     36  C   UNL A   1      41.598  28.623  29.875  1.00  0.00     0.031 A 
ATOM     37  C   UNL A   1      42.340  28.056  31.033  1.00  0.00     0.074 A 
ATOM     38  C   UNL A   1      41.199  27.874  28.823  1.00  0.00     0.049 A 
ATOM     39  N   UNL A   1      43.589  27.736  31.096  1.00  0.00    -0.248 NA
ATOM     40  C   UNL A   1      41.635  27.947  32.323  1.00  0.00     0.031 C 
ATOM     41  C   UNL A   1      40.182  28.193  27.808  1.00  0.00     0.029 A 
ATOM     42  N   UNL A   1      41.524  26.594  28.513  1.00  0.00    -0.354 N 
ATOM     43  C   UNL A   1      43.791  27.204  32.368  1.00  0.00     0.074 A 
ATOM     44  C   UNL A   1      42.610  27.522  33.129  1.00  0.00     0.031 C 
ATOM     45  C   UNL A   1      39.802  27.063  27.172  1.00  0.00     0.029 A 
ATOM     46  C   UNL A   1      40.674  25.985  27.595  1.00  0.00     0.049 A 
ATOM     47  H   UNL A   1      42.299  26.132  28.907  1.00  0.00     0.167 HD
ATOM     48  C   UNL A   1      44.807  26.332  32.621  1.00  0.00     0.031 A 
ATOM     49  C   UNL A   1      40.675  24.678  27.236  1.00  0.00     0.031 A 
ATOM     50  C   UNL A   1      45.765  26.322  31.545  1.00  0.00     0.049 A 
ATOM     51  C   UNL A   1      41.987  24.121  27.639  1.00  0.00     0.074 A 
ATOM     52  C   UNL A   1      46.627  27.247  30.994  1.00  0.00     0.029 A 
ATOM     53  N   UNL A   1      45.620  25.328  30.607  1.00  0.00    -0.354 N 
ATOM     54  N   UNL A   1      43.118  24.500  27.117  1.00  0.00    -0.248 NA
ATOM     55  C   UNL A   1      42.079  23.487  28.943  1.00  0.00     0.031 C 
ATOM     56  C   UNL A   1      46.573  27.003  29.590  1.00  0.00     0.029 A 
ATOM     57  C   UNL A   1      45.751  25.894  29.367  1.00  0.00     0.049 A 
ATOM     58  H   UNL A   1      45.452  24.376  30.794  1.00  0.00     0.167 HD
ATOM     59  C   UNL A   1      43.997  24.560  28.189  1.00  0.00     0.074 A 
ATOM     60  C   UNL A   1      43.329  23.832  29.267  1.00  0.00     0.031 C 
ATOM     61  C   UNL A   1      45.046  25.436  28.189  1.00  0.00     0.031 A 
BRANCH  48  62
ATOM     62  C   UNL A   1      44.722  25.192  33.609  1.00  0.00    -0.014 A 
ATOM     63  C   UNL A   1      44.263  23.941  33.153  1.00  0.00     0.009 A 
ATOM     64  C   UNL A   1      44.799  25.362  35.004  1.00  0.00     0.009 A 
ATOM     65  C   UNL A   1      43.827  22.952  34.044  1.00  0.00     0.001 A 
ATOM     66  C   UNL A   1      44.402  24.361  35.897  1.00  0.00     0.001 A 
ATOM     67  C   UNL A   1      43.887  23.167  35.416  1.00  0.00     0.000 A 
ENDBRANCH  48  62
BRANCH  49  68
ATOM     68  C   UNL A   1      39.534  23.808  26.876  1.00  0.00    -0.014 A 
ATOM     69  C   UNL A   1      38.267  24.356  26.616  1.00  0.00     0.009 A 
ATOM     70  C   UNL A   1      39.759  22.471  26.496  1.00  0.00     0.009 A 
ATOM     71  C   UNL A   1      37.278  23.608  25.960  1.00  0.00     0.001 A 
ATOM     72  C   UNL A   1      38.771  21.726  25.840  1.00  0.00     0.001 A 
ATOM     73  C   UNL A   1      37.537  22.300  25.558  1.00  0.00     0.000 A 
ENDBRANCH  49  68
BRANCH  61  74
ATOM     74  C   UNL A   1      45.359  26.165  26.902  1.00  0.00    -0.014 A 
ATOM     75  C   UNL A   1      44.779  27.395  26.543  1.00  0.00     0.009 A 
ATOM     76  C   UNL A   1      46.402  25.668  26.107  1.00  0.00     0.009 A 
ATOM     77  C   UNL A   1      45.220  28.093  25.411  1.00  0.00     0.001 A 
ATOM     78  C   UNL A   1      46.857  26.373  24.992  1.00  0.00     0.001 A 
ATOM     79  C   UNL A   1      46.264  27.584  24.642  1.00  0.00     0.000 A 
ENDBRANCH  61  74
ENDBRANCH  35  36
ENDBRANCH  27  30
ENDBRANCH  25  26
ENDBRANCH  24  25
ENDBRANCH  23  24
ENDBRANCH   1  23
TORSDOF 15
ENDMDL
MODEL 3
REMARK VINA RESULT:     -11.0      2.965      8.385
REMARK SMILES CC(=O)c1nnn(-c2ccc(C(=O)NCCCCCCNC(=O)c3ccc(-c4c5nc(c(-c6ccccc6)c6ccc([nH]6)c(-c6ccccc6)c6nc(c(-c7ccccc7)c7ccc4[nH]7)C=C6)C=C5)cc3)cc2)c1C
REMARK SMILES IDX 17 1 16 2 15 3 14 4 12 5 13 6 11 8 8 9 9 10 73 11 10 12
REMARK SMILES IDX 72 13 7 14 4 15 5 16 74 17 6 18 75 19 2 20 1 21 3 22 18 23
REMARK SMILES IDX 19 24 20 25 21 26 22 27 23 29 24 30 25 31 71 32 26 33 70 34
REMARK SMILES IDX 27 35 28 36 29 37 64 38 30 39 69 40 63 41 65 42 31 43 68 44
REMARK SMILES IDX 62 45 61 46 32 48 54 49 39 50 53 51 40 52 43 53 52 54 66 55
REMARK SMILES IDX 41 56 42 57 51 59 67 60 44 61 33 62 34 63 38 64 35 65 37 66
REMARK SMILES IDX 36 67 55 68 56 69 60 70 57 71 59 72 58 73 45 74 46 75 50 76
REMARK SMILES IDX 47 77 49 78 48 79
REMARK H PARENT 14 7 21 28 65 47 43 58
REMARK Flexibility Score: inf
ROOT
ATOM      1  C   UNL A   1      32.507  30.097  26.523  1.00  0.00     0.002 C 
ENDROOT
BRANCH   1   2
ATOM      2  C   UNL A   1      32.102  28.749  27.134  1.00  0.00     0.021 C 
BRANCH   2   3
ATOM      3  C   UNL A   1      31.815  27.673  26.083  1.00  0.00     0.116 C 
BRANCH   3   4
ATOM      4  N   UNL A   1      31.842  28.258  24.755  1.00  0.00    -0.352 N 
ATOM      5  C   UNL A   1      31.989  27.726  23.500  1.00  0.00     0.251 C 
ATOM      6  O   UNL A   1      31.984  28.505  22.546  1.00  0.00    -0.269 OA
ATOM      7  H   UNL A   1      31.729  29.236  24.756  1.00  0.00     0.163 HD
BRANCH   5   8
ATOM      8  C   UNL A   1      32.061  26.261  23.238  1.00  0.00     0.039 A 
ATOM      9  C   UNL A   1      32.082  23.473  23.153  1.00  0.00     0.067 A 
ATOM     10  C   UNL A   1      30.860  24.135  23.254  1.00  0.00     0.029 A 
ATOM     11  C   UNL A   1      33.268  24.184  22.954  1.00  0.00     0.029 A 
ATOM     12  C   UNL A   1      30.862  25.530  23.331  1.00  0.00     0.016 A 
ATOM     13  C   UNL A   1      33.240  25.577  22.935  1.00  0.00     0.016 A 
BRANCH   9  14
ATOM     14  N   UNL A   1      32.140  22.079  23.313  1.00  0.00    -0.217 N 
ATOM     15  C   UNL A   1      32.564  20.065  24.012  1.00  0.00     0.151 A 
ATOM     16  N   UNL A   1      32.198  20.017  22.689  1.00  0.00    -0.126 NA
ATOM     17  C   UNL A   1      32.485  21.375  24.455  1.00  0.00     0.073 A 
ATOM     18  N   UNL A   1      31.838  21.235  22.310  1.00  0.00    -0.061 NA
ATOM     19  C   UNL A   1      32.630  22.012  25.787  1.00  0.00     0.069 C 
BRANCH  15  20
ATOM     20  C   UNL A   1      32.922  18.861  24.747  1.00  0.00     0.181 C 
ATOM     21  C   UNL A   1      34.187  18.141  24.356  1.00  0.00     0.095 C 
ATOM     22  O   UNL A   1      32.225  18.440  25.669  1.00  0.00    -0.293 OA
ENDBRANCH  15  20
ENDBRANCH   9  14
ENDBRANCH   5   8
ENDBRANCH   3   4
ENDBRANCH   2   3
ENDBRANCH   1   2
BRANCH   1  23
ATOM     23  C   UNL A   1      33.266  31.046  27.468  1.00  0.00     0.002 C 
BRANCH  23  24
ATOM     24  C   UNL A   1      34.781  30.815  27.574  1.00  0.00     0.021 C 
BRANCH  24  25
ATOM     25  C   UNL A   1      35.549  32.076  27.929  1.00  0.00     0.116 C 
BRANCH  25  26
ATOM     26  N   UNL A   1      35.150  32.610  29.232  1.00  0.00    -0.352 N 
ATOM     27  C   UNL A   1      35.438  32.105  30.487  1.00  0.00     0.251 C 
ATOM     28  H   UNL A   1      34.608  33.431  29.213  1.00  0.00     0.163 HD
ATOM     29  O   UNL A   1      34.780  32.401  31.465  1.00  0.00    -0.269 OA
BRANCH  27  30
ATOM     30  C   UNL A   1      36.599  31.209  30.604  1.00  0.00     0.039 A 
ATOM     31  C   UNL A   1      36.460  29.820  30.681  1.00  0.00     0.014 A 
ATOM     32  C   UNL A   1      37.854  31.810  30.590  1.00  0.00     0.014 A 
ATOM     33  C   UNL A   1      37.611  29.036  30.673  1.00  0.00     0.010 A 
ATOM     34  C   UNL A   1      38.965  31.040  30.400  1.00  0.00     0.010 A 
ATOM     35  C   UNL A   1      38.858  29.660  30.521  1.00  0.00    -0.014 A 
BRANCH  35  36
ATOM     36  C   UNL A   1      40.090  28.895  30.398  1.00  0.00     0.031 A 
ATOM     37  C   UNL A   1      40.801  28.655  31.683  1.00  0.00     0.074 A 
ATOM     38  C   UNL A   1      40.392  28.232  29.260  1.00  0.00     0.049 A 
ATOM     39  N   UNL A   1      41.969  29.075  32.035  1.00  0.00    -0.248 NA
ATOM     40  C   UNL A   1      40.069  27.967  32.763  1.00  0.00     0.031 C 
ATOM     41  C   UNL A   1      39.579  28.094  28.041  1.00  0.00     0.029 A 
ATOM     42  N   UNL A   1      41.444  27.416  28.999  1.00  0.00    -0.354 N 
ATOM     43  C   UNL A   1      42.208  28.546  33.302  1.00  0.00     0.074 A 
ATOM     44  C   UNL A   1      40.947  28.029  33.766  1.00  0.00     0.031 C 
ATOM     45  C   UNL A   1      40.040  27.064  27.299  1.00  0.00     0.029 A 
ATOM     46  C   UNL A   1      41.281  26.597  27.886  1.00  0.00     0.049 A 
ATOM     47  H   UNL A   1      42.257  27.404  29.554  1.00  0.00     0.167 HD
ATOM     48  C   UNL A   1      43.475  28.355  33.765  1.00  0.00     0.031 A 
ATOM     49  C   UNL A   1      42.099  25.587  27.500  1.00  0.00     0.031 A 
ATOM     50  C   UNL A   1      44.439  29.051  32.950  1.00  0.00     0.049 A 
ATOM     51  C   UNL A   1      43.393  25.793  28.190  1.00  0.00     0.074 A 
ATOM     52  C   UNL A   1      44.693  30.373  32.650  1.00  0.00     0.029 A 
ATOM     53  N   UNL A   1      45.064  28.310  31.976  1.00  0.00    -0.354 N 
ATOM     54  N   UNL A   1      44.172  26.812  27.965  1.00  0.00    -0.248 NA
ATOM     55  C   UNL A   1      43.597  25.115  29.458  1.00  0.00     0.031 C 
ATOM     56  C   UNL A   1      45.043  30.370  31.267  1.00  0.00     0.029 A 
ATOM     57  C   UNL A   1      45.065  29.045  30.821  1.00  0.00     0.049 A 
ATOM     58  H   UNL A   1      45.444  27.408  32.089  1.00  0.00     0.167 HD
ATOM     59  C   UNL A   1      44.645  27.175  29.218  1.00  0.00     0.074 A 
ATOM     60  C   UNL A   1      44.338  26.036  30.082  1.00  0.00     0.031 C 
ATOM     61  C   UNL A   1      44.978  28.471  29.495  1.00  0.00     0.031 A 
BRANCH  48  62
ATOM     62  C   UNL A   1      43.886  27.217  34.670  1.00  0.00    -0.014 A 
ATOM     63  C   UNL A   1      43.850  25.905  34.158  1.00  0.00     0.009 A 
ATOM     64  C   UNL A   1      44.031  27.342  36.065  1.00  0.00     0.009 A 
ATOM     65  C   UNL A   1      43.872  24.788  35.003  1.00  0.00     0.001 A 
ATOM     66  C   UNL A   1      44.094  26.228  36.908  1.00  0.00     0.001 A 
ATOM     67  C   UNL A   1      43.983  24.951  36.379  1.00  0.00     0.000 A 
ENDBRANCH  48  62
BRANCH  49  68
ATOM     68  C   UNL A   1      41.754  24.303  26.851  1.00  0.00    -0.014 A 
ATOM     69  C   UNL A   1      42.687  23.633  26.044  1.00  0.00     0.009 A 
ATOM     70  C   UNL A   1      40.614  23.588  27.264  1.00  0.00     0.009 A 
ATOM     71  C   UNL A   1      42.509  22.285  25.701  1.00  0.00     0.001 A 
ATOM     72  C   UNL A   1      40.438  22.241  26.923  1.00  0.00     0.001 A 
ATOM     73  C   UNL A   1      41.394  21.586  26.154  1.00  0.00     0.000 A 
ENDBRANCH  49  68
BRANCH  61  74
ATOM     74  C   UNL A   1      45.039  29.448  28.343  1.00  0.00    -0.014 A 
ATOM     75  C   UNL A   1      43.929  30.176  27.880  1.00  0.00     0.009 A 
ATOM     76  C   UNL A   1      46.302  29.762  27.820  1.00  0.00     0.009 A 
ATOM     77  C   UNL A   1      44.079  31.175  26.909  1.00  0.00     0.001 A 
ATOM     78  C   UNL A   1      46.456  30.772  26.869  1.00  0.00     0.001 A 
ATOM     79  C   UNL A   1      45.345  31.476  26.410  1.00  0.00     0.000 A 
ENDBRANCH  61  74
ENDBRANCH  35  36
ENDBRANCH  27  30
ENDBRANCH  25  26
ENDBRANCH  24  25
ENDBRANCH  23  24
ENDBRANCH   1  23
TORSDOF 15
ENDMDL
