MODEL 1
REMARK VINA RESULT:     -11.4      0.000      0.000
REMARK SMILES C=Cc1cc(Cl)cc2c1O[C@H](C(F)(F)F)C(C(=O)NCCCCCCNC(=O)c1ccc(-c3c4nc(c(-c5ccccc5)c5ccc([nH]5)c(-c5ccccc5)c5nc(c(-c6ccccc6)c6ccc3[nH]6)C=C5)C=C4)cc1)=C2
REMARK SMILES IDX 23 1 22 2 21 3 20 4 19 5 17 6 18 7 16 9 3 10 4 11 9 12 5 13
REMARK SMILES IDX 8 14 10 15 6 16 7 17 77 18 11 19 2 20 1 21 12 22 13 23 14 24
REMARK SMILES IDX 15 25 24 26 25 27 26 28 27 29 28 31 29 32 30 33 76 34 31 35
REMARK SMILES IDX 75 36 32 37 33 38 34 39 69 40 35 41 74 42 68 43 70 44 36 45
REMARK SMILES IDX 73 46 67 47 66 48 37 50 59 51 44 52 58 53 45 54 48 55 57 56
REMARK SMILES IDX 71 57 46 58 47 59 56 61 72 62 49 63 38 64 39 65 43 66 40 67
REMARK SMILES IDX 42 68 41 69 60 70 61 71 65 72 62 73 64 74 63 75 50 76 51 77
REMARK SMILES IDX 55 78 52 79 54 80 53 81
REMARK H PARENT 19 8 26 30 70 49 48 60
REMARK Flexibility Score: inf
ROOT
ATOM      1  C   UNL A   1      32.042  29.129  25.244  1.00  0.00     0.002 C 
ENDROOT
BRANCH   1   2
ATOM      2  C   UNL A   1      31.299  28.335  24.162  1.00  0.00     0.002 C 
BRANCH   2   3
ATOM      3  C   UNL A   1      30.785  26.955  24.585  1.00  0.00     0.021 C 
BRANCH   3   4
ATOM      4  C   UNL A   1      30.505  26.007  23.421  1.00  0.00     0.116 C 
BRANCH   4   5
ATOM      5  N   UNL A   1      31.523  26.097  22.390  1.00  0.00    -0.352 N 
ATOM      6  C   UNL A   1      32.672  25.460  22.067  1.00  0.00     0.251 C 
ATOM      7  O   UNL A   1      33.220  25.864  21.036  1.00  0.00    -0.270 OA
ATOM      8  H   UNL A   1      31.321  26.817  21.750  1.00  0.00     0.163 HD
BRANCH   6   9
ATOM      9  C   UNL A   1      33.300  24.350  22.845  1.00  0.00     0.067 C 
ATOM     10  C   UNL A   1      35.045  21.023  24.770  1.00  0.00     0.018 A 
ATOM     11  C   UNL A   1      34.322  19.826  24.846  1.00  0.00     0.032 A 
ATOM     12  C   UNL A   1      34.468  22.122  24.109  1.00  0.00     0.135 A 
ATOM     13  C   UNL A   1      33.064  19.730  24.251  1.00  0.00     0.042 A 
ATOM     14  C   UNL A   1      33.213  22.022  23.504  1.00  0.00     0.019 A 
ATOM     15  O   UNL A   1      35.215  23.266  24.028  1.00  0.00    -0.475 OA
ATOM     16  Cl  UNL A   1      32.190  18.250  24.344  1.00  0.00    -0.084 Cl
ATOM     17  C   UNL A   1      32.508  20.818  23.577  1.00  0.00     0.032 A 
ATOM     18  C   UNL A   1      32.675  23.160  22.765  1.00  0.00     0.025 C 
ATOM     19  C   UNL A   1      34.523  24.498  23.701  1.00  0.00     0.314 C 
BRANCH  10  20
ATOM     20  C   UNL A   1      36.361  21.151  25.413  1.00  0.00     0.004 C 
ATOM     21  C   UNL A   1      37.509  20.771  24.840  1.00  0.00     0.009 C 
ENDBRANCH  10  20
BRANCH  19  22
ATOM     22  C   UNL A   1      34.255  25.278  24.999  1.00  0.00     0.429 C 
ATOM     23  F   UNL A   1      33.068  24.904  25.542  1.00  0.00    -0.167 F 
ATOM     24  F   UNL A   1      35.194  25.053  25.947  1.00  0.00    -0.167 F 
ATOM     25  F   UNL A   1      34.205  26.615  24.800  1.00  0.00    -0.167 F 
ENDBRANCH  19  22
ENDBRANCH   6   9
ENDBRANCH   4   5
ENDBRANCH   3   4
ENDBRANCH   2   3
ENDBRANCH   1   2
BRANCH   1  26
ATOM     26  C   UNL A   1      32.208  28.423  26.592  1.00  0.00     0.021 C 
BRANCH  26  27
ATOM     27  C   UNL A   1      33.477  28.782  27.356  1.00  0.00     0.116 C 
BRANCH  27  28
ATOM     28  N   UNL A   1      33.504  30.173  27.777  1.00  0.00    -0.352 N 
ATOM     29  C   UNL A   1      34.526  30.885  28.357  1.00  0.00     0.251 C 
ATOM     30  H   UNL A   1      32.671  30.676  27.627  1.00  0.00     0.163 HD
ATOM     31  O   UNL A   1      34.329  32.019  28.785  1.00  0.00    -0.269 OA
BRANCH  29  32
ATOM     32  C   UNL A   1      35.861  30.265  28.495  1.00  0.00     0.039 A 
ATOM     33  C   UNL A   1      36.244  29.656  29.692  1.00  0.00     0.014 A 
ATOM     34  C   UNL A   1      36.748  30.315  27.417  1.00  0.00     0.014 A 
ATOM     35  C   UNL A   1      37.561  29.243  29.863  1.00  0.00     0.010 A 
ATOM     36  C   UNL A   1      38.049  29.827  27.565  1.00  0.00     0.010 A 
ATOM     37  C   UNL A   1      38.481  29.329  28.805  1.00  0.00    -0.014 A 
BRANCH  37  38
ATOM     38  C   UNL A   1      39.886  28.898  29.019  1.00  0.00     0.031 A 
ATOM     39  C   UNL A   1      40.858  29.783  29.755  1.00  0.00     0.074 A 
ATOM     40  C   UNL A   1      40.271  27.676  28.601  1.00  0.00     0.049 A 
ATOM     41  N   UNL A   1      42.111  29.553  30.056  1.00  0.00    -0.248 NA
ATOM     42  C   UNL A   1      40.364  31.091  30.218  1.00  0.00     0.031 C 
ATOM     43  C   UNL A   1      39.412  26.715  27.905  1.00  0.00     0.029 A 
ATOM     44  N   UNL A   1      41.469  27.019  28.729  1.00  0.00    -0.354 N 
ATOM     45  C   UNL A   1      42.558  30.686  30.724  1.00  0.00     0.074 A 
ATOM     46  C   UNL A   1      41.451  31.616  30.767  1.00  0.00     0.031 C 
ATOM     47  C   UNL A   1      40.090  25.570  27.728  1.00  0.00     0.029 A 
ATOM     48  C   UNL A   1      41.449  25.738  28.232  1.00  0.00     0.049 A 
ATOM     49  H   UNL A   1      42.267  27.426  29.138  1.00  0.00     0.167 HD
ATOM     50  C   UNL A   1      43.777  30.924  31.260  1.00  0.00     0.031 A 
ATOM     51  C   UNL A   1      42.416  24.802  28.177  1.00  0.00     0.031 A 
ATOM     52  C   UNL A   1      44.872  29.991  31.234  1.00  0.00     0.049 A 
ATOM     53  C   UNL A   1      43.777  25.122  28.726  1.00  0.00     0.074 A 
ATOM     54  C   UNL A   1      46.139  30.144  31.772  1.00  0.00     0.029 A 
ATOM     55  N   UNL A   1      44.831  28.736  30.650  1.00  0.00    -0.354 N 
ATOM     56  N   UNL A   1      44.178  26.198  29.356  1.00  0.00    -0.248 NA
ATOM     57  C   UNL A   1      44.821  24.101  28.549  1.00  0.00     0.031 C 
ATOM     58  C   UNL A   1      46.882  29.003  31.466  1.00  0.00     0.029 A 
ATOM     59  C   UNL A   1      46.060  28.115  30.792  1.00  0.00     0.049 A 
ATOM     60  H   UNL A   1      44.047  28.345  30.201  1.00  0.00     0.167 HD
ATOM     61  C   UNL A   1      45.514  25.978  29.669  1.00  0.00     0.074 A 
ATOM     62  C   UNL A   1      45.849  24.659  29.175  1.00  0.00     0.031 C 
ATOM     63  C   UNL A   1      46.381  26.800  30.305  1.00  0.00     0.031 A 
BRANCH  50  64
ATOM     64  C   UNL A   1      44.021  32.249  31.926  1.00  0.00    -0.014 A 
ATOM     65  C   UNL A   1      43.706  32.411  33.286  1.00  0.00     0.009 A 
ATOM     66  C   UNL A   1      44.429  33.368  31.184  1.00  0.00     0.009 A 
ATOM     67  C   UNL A   1      43.774  33.671  33.884  1.00  0.00     0.001 A 
ATOM     68  C   UNL A   1      44.518  34.622  31.793  1.00  0.00     0.001 A 
ATOM     69  C   UNL A   1      44.179  34.775  33.136  1.00  0.00     0.000 A 
ENDBRANCH  50  64
BRANCH  51  70
ATOM     70  C   UNL A   1      42.125  23.471  27.582  1.00  0.00    -0.014 A 
ATOM     71  C   UNL A   1      41.525  22.458  28.347  1.00  0.00     0.009 A 
ATOM     72  C   UNL A   1      42.465  23.200  26.247  1.00  0.00     0.009 A 
ATOM     73  C   UNL A   1      41.291  21.196  27.797  1.00  0.00     0.001 A 
ATOM     74  C   UNL A   1      42.200  21.947  25.690  1.00  0.00     0.001 A 
ATOM     75  C   UNL A   1      41.622  20.944  26.467  1.00  0.00     0.000 A 
ENDBRANCH  51  70
BRANCH  63  76
ATOM     76  C   UNL A   1      47.780  26.303  30.533  1.00  0.00    -0.014 A 
ATOM     77  C   UNL A   1      48.700  26.305  29.472  1.00  0.00     0.009 A 
ATOM     78  C   UNL A   1      48.155  25.738  31.760  1.00  0.00     0.009 A 
ATOM     79  C   UNL A   1      49.964  25.736  29.630  1.00  0.00     0.001 A 
ATOM     80  C   UNL A   1      49.431  25.194  31.924  1.00  0.00     0.001 A 
ATOM     81  C   UNL A   1      50.329  25.185  30.857  1.00  0.00     0.000 A 
ENDBRANCH  63  76
ENDBRANCH  37  38
ENDBRANCH  29  32
ENDBRANCH  27  28
ENDBRANCH  26  27
ENDBRANCH   1  26
TORSDOF 15
ENDMDL
MODEL 2
REMARK VINA RESULT:     -11.2      2.836      7.859
REMARK SMILES C=Cc1cc(Cl)cc2c1O[C@H](C(F)(F)F)C(C(=O)NCCCCCCNC(=O)c1ccc(-c3c4nc(c(-c5ccccc5)c5ccc([nH]5)c(-c5ccccc5)c5nc(c(-c6ccccc6)c6ccc3[nH]6)C=C5)C=C4)cc1)=C2
REMARK SMILES IDX 23 1 22 2 21 3 20 4 19 5 17 6 18 7 16 9 3 10 4 11 9 12 5 13
REMARK SMILES IDX 8 14 10 15 6 16 7 17 77 18 11 19 2 20 1 21 12 22 13 23 14 24
REMARK SMILES IDX 15 25 24 26 25 27 26 28 27 29 28 31 29 32 30 33 76 34 31 35
REMARK SMILES IDX 75 36 32 37 33 38 34 39 69 40 35 41 74 42 68 43 70 44 36 45
REMARK SMILES IDX 73 46 67 47 66 48 37 50 59 51 44 52 58 53 45 54 48 55 57 56
REMARK SMILES IDX 71 57 46 58 47 59 56 61 72 62 49 63 38 64 39 65 43 66 40 67
REMARK SMILES IDX 42 68 41 69 60 70 61 71 65 72 62 73 64 74 63 75 50 76 51 77
REMARK SMILES IDX 55 78 52 79 54 80 53 81
REMARK H PARENT 19 8 26 30 70 49 48 60
REMARK Flexibility Score: inf
ROOT
ATOM      1  C   UNL A   1      35.367  21.678  25.842  1.00  0.00     0.002 C 
ENDROOT
BRANCH   1   2
ATOM      2  C   UNL A   1      33.856  21.431  25.737  1.00  0.00     0.002 C 
BRANCH   2   3
ATOM      3  C   UNL A   1      33.267  21.504  24.324  1.00  0.00     0.021 C 
BRANCH   3   4
ATOM      4  C   UNL A   1      32.025  22.382  24.209  1.00  0.00     0.116 C 
BRANCH   4   5
ATOM      5  N   UNL A   1      31.380  22.584  25.494  1.00  0.00    -0.352 N 
ATOM      6  C   UNL A   1      30.969  23.629  26.250  1.00  0.00     0.251 C 
ATOM      7  O   UNL A   1      30.411  23.320  27.308  1.00  0.00    -0.270 OA
ATOM      8  H   UNL A   1      31.188  21.725  25.937  1.00  0.00     0.163 HD
BRANCH   6   9
ATOM      9  C   UNL A   1      31.142  25.072  25.905  1.00  0.00     0.067 C 
ATOM     10  C   UNL A   1      31.305  29.189  24.988  1.00  0.00     0.018 A 
ATOM     11  C   UNL A   1      30.501  29.688  23.957  1.00  0.00     0.032 A 
ATOM     12  C   UNL A   1      31.232  27.821  25.305  1.00  0.00     0.135 A 
ATOM     13  C   UNL A   1      29.626  28.837  23.279  1.00  0.00     0.042 A 
ATOM     14  C   UNL A   1      30.348  26.972  24.633  1.00  0.00     0.019 A 
ATOM     15  O   UNL A   1      32.011  27.375  26.337  1.00  0.00    -0.475 OA
ATOM     16  Cl  UNL A   1      28.635  29.465  22.019  1.00  0.00    -0.084 Cl
ATOM     17  C   UNL A   1      29.542  27.486  23.614  1.00  0.00     0.032 A 
ATOM     18  C   UNL A   1      30.247  25.573  25.034  1.00  0.00     0.025 C 
ATOM     19  C   UNL A   1      32.240  25.946  26.437  1.00  0.00     0.314 C 
BRANCH  10  20
ATOM     20  C   UNL A   1      32.252  30.065  25.696  1.00  0.00     0.004 C 
ATOM     21  C   UNL A   1      31.899  30.901  26.680  1.00  0.00     0.009 C 
ENDBRANCH  10  20
BRANCH  19  22
ATOM     22  C   UNL A   1      33.614  25.619  25.827  1.00  0.00     0.429 C 
ATOM     23  F   UNL A   1      33.478  25.217  24.538  1.00  0.00    -0.167 F 
ATOM     24  F   UNL A   1      34.445  26.687  25.807  1.00  0.00    -0.167 F 
ATOM     25  F   UNL A   1      34.255  24.631  26.494  1.00  0.00    -0.167 F 
ENDBRANCH  19  22
ENDBRANCH   6   9
ENDBRANCH   4   5
ENDBRANCH   3   4
ENDBRANCH   2   3
ENDBRANCH   1   2
BRANCH   1  26
ATOM     26  C   UNL A   1      35.968  22.591  24.772  1.00  0.00     0.021 C 
BRANCH  26  27
ATOM     27  C   UNL A   1      37.187  23.391  25.217  1.00  0.00     0.116 C 
BRANCH  27  28
ATOM     28  N   UNL A   1      38.333  22.547  25.512  1.00  0.00    -0.352 N 
ATOM     29  C   UNL A   1      39.500  22.865  26.166  1.00  0.00     0.251 C 
ATOM     30  H   UNL A   1      38.265  21.617  25.198  1.00  0.00     0.163 HD
ATOM     31  O   UNL A   1      40.430  22.065  26.201  1.00  0.00    -0.269 OA
BRANCH  29  32
ATOM     32  C   UNL A   1      39.643  24.193  26.801  1.00  0.00     0.039 A 
ATOM     33  C   UNL A   1      40.316  25.226  26.146  1.00  0.00     0.014 A 
ATOM     34  C   UNL A   1      39.114  24.396  28.077  1.00  0.00     0.014 A 
ATOM     35  C   UNL A   1      40.598  26.405  26.830  1.00  0.00     0.010 A 
ATOM     36  C   UNL A   1      39.330  25.611  28.734  1.00  0.00     0.010 A 
ATOM     37  C   UNL A   1      40.115  26.609  28.133  1.00  0.00    -0.014 A 
BRANCH  37  38
ATOM     38  C   UNL A   1      40.445  27.868  28.848  1.00  0.00     0.031 A 
ATOM     39  C   UNL A   1      39.433  28.978  28.957  1.00  0.00     0.074 A 
ATOM     40  C   UNL A   1      41.643  27.986  29.454  1.00  0.00     0.049 A 
ATOM     41  N   UNL A   1      39.543  30.131  29.568  1.00  0.00    -0.248 NA
ATOM     42  C   UNL A   1      38.130  28.772  28.303  1.00  0.00     0.031 C 
ATOM     43  C   UNL A   1      42.695  26.967  29.447  1.00  0.00     0.029 A 
ATOM     44  N   UNL A   1      42.165  28.998  30.222  1.00  0.00    -0.354 N 
ATOM     45  C   UNL A   1      38.337  30.791  29.359  1.00  0.00     0.074 A 
ATOM     46  C   UNL A   1      37.515  29.922  28.546  1.00  0.00     0.031 C 
ATOM     47  C   UNL A   1      43.706  27.376  30.228  1.00  0.00     0.029 A 
ATOM     48  C   UNL A   1      43.408  28.712  30.734  1.00  0.00     0.049 A 
ATOM     49  H   UNL A   1      41.695  29.846  30.390  1.00  0.00     0.167 HD
ATOM     50  C   UNL A   1      37.950  32.005  29.813  1.00  0.00     0.031 A 
ATOM     51  C   UNL A   1      44.224  29.444  31.516  1.00  0.00     0.031 A 
ATOM     52  C   UNL A   1      38.760  32.860  30.639  1.00  0.00     0.049 A 
ATOM     53  C   UNL A   1      43.789  30.814  31.950  1.00  0.00     0.074 A 
ATOM     54  C   UNL A   1      38.437  34.101  31.161  1.00  0.00     0.029 A 
ATOM     55  N   UNL A   1      40.043  32.564  31.068  1.00  0.00    -0.354 N 
ATOM     56  N   UNL A   1      42.645  31.417  31.746  1.00  0.00    -0.248 NA
ATOM     57  C   UNL A   1      44.761  31.607  32.718  1.00  0.00     0.031 C 
ATOM     58  C   UNL A   1      39.545  34.581  31.861  1.00  0.00     0.029 A 
ATOM     59  C   UNL A   1      40.535  33.612  31.827  1.00  0.00     0.049 A 
ATOM     60  H   UNL A   1      40.532  31.735  30.864  1.00  0.00     0.167 HD
ATOM     61  C   UNL A   1      42.750  32.652  32.374  1.00  0.00     0.074 A 
ATOM     62  C   UNL A   1      44.062  32.703  32.983  1.00  0.00     0.031 C 
ATOM     63  C   UNL A   1      41.838  33.650  32.435  1.00  0.00     0.031 A 
BRANCH  50  64
ATOM     64  C   UNL A   1      36.586  32.509  29.434  1.00  0.00    -0.014 A 
ATOM     65  C   UNL A   1      36.414  33.211  28.229  1.00  0.00     0.009 A 
ATOM     66  C   UNL A   1      35.505  32.411  30.324  1.00  0.00     0.009 A 
ATOM     67  C   UNL A   1      35.196  33.823  27.933  1.00  0.00     0.001 A 
ATOM     68  C   UNL A   1      34.280  33.006  30.013  1.00  0.00     0.001 A 
ATOM     69  C   UNL A   1      34.130  33.721  28.825  1.00  0.00     0.000 A 
ENDBRANCH  50  64
BRANCH  51  70
ATOM     70  C   UNL A   1      45.537  28.888  31.940  1.00  0.00    -0.014 A 
ATOM     71  C   UNL A   1      46.660  28.980  31.103  1.00  0.00     0.009 A 
ATOM     72  C   UNL A   1      45.668  28.241  33.179  1.00  0.00     0.009 A 
ATOM     73  C   UNL A   1      47.881  28.421  31.487  1.00  0.00     0.001 A 
ATOM     74  C   UNL A   1      46.898  27.710  33.575  1.00  0.00     0.001 A 
ATOM     75  C   UNL A   1      48.000  27.792  32.725  1.00  0.00     0.000 A 
ENDBRANCH  51  70
BRANCH  63  76
ATOM     76  C   UNL A   1      42.204  34.888  33.203  1.00  0.00    -0.014 A 
ATOM     77  C   UNL A   1      42.932  35.909  32.571  1.00  0.00     0.009 A 
ATOM     78  C   UNL A   1      41.923  34.999  34.572  1.00  0.00     0.009 A 
ATOM     79  C   UNL A   1      43.386  37.010  33.298  1.00  0.00     0.001 A 
ATOM     80  C   UNL A   1      42.355  36.115  35.292  1.00  0.00     0.001 A 
ATOM     81  C   UNL A   1      43.094  37.112  34.657  1.00  0.00     0.000 A 
ENDBRANCH  63  76
ENDBRANCH  37  38
ENDBRANCH  29  32
ENDBRANCH  27  28
ENDBRANCH  26  27
ENDBRANCH   1  26
TORSDOF 15
ENDMDL
MODEL 3
REMARK VINA RESULT:     -11.2      2.819      7.793
REMARK SMILES C=Cc1cc(Cl)cc2c1O[C@H](C(F)(F)F)C(C(=O)NCCCCCCNC(=O)c1ccc(-c3c4nc(c(-c5ccccc5)c5ccc([nH]5)c(-c5ccccc5)c5nc(c(-c6ccccc6)c6ccc3[nH]6)C=C5)C=C4)cc1)=C2
REMARK SMILES IDX 23 1 22 2 21 3 20 4 19 5 17 6 18 7 16 9 3 10 4 11 9 12 5 13
REMARK SMILES IDX 8 14 10 15 6 16 7 17 77 18 11 19 2 20 1 21 12 22 13 23 14 24
REMARK SMILES IDX 15 25 24 26 25 27 26 28 27 29 28 31 29 32 30 33 76 34 31 35
REMARK SMILES IDX 75 36 32 37 33 38 34 39 69 40 35 41 74 42 68 43 70 44 36 45
REMARK SMILES IDX 73 46 67 47 66 48 37 50 59 51 44 52 58 53 45 54 48 55 57 56
REMARK SMILES IDX 71 57 46 58 47 59 56 61 72 62 49 63 38 64 39 65 43 66 40 67
REMARK SMILES IDX 42 68 41 69 60 70 61 71 65 72 62 73 64 74 63 75 50 76 51 77
REMARK SMILES IDX 55 78 52 79 54 80 53 81
REMARK H PARENT 19 8 26 30 70 49 48 60
REMARK Flexibility Score: inf
ROOT
ATOM      1  C   UNL A   1      35.571  21.955  26.526  1.00  0.00     0.002 C 
ENDROOT
BRANCH   1   2
ATOM      2  C   UNL A   1      34.081  21.752  26.832  1.00  0.00     0.002 C 
BRANCH   2   3
ATOM      3  C   UNL A   1      33.274  21.022  25.753  1.00  0.00     0.021 C 
BRANCH   3   4
ATOM      4  C   UNL A   1      32.502  21.947  24.816  1.00  0.00     0.116 C 
BRANCH   4   5
ATOM      5  N   UNL A   1      33.321  22.409  23.710  1.00  0.00    -0.352 N 
ATOM      6  C   UNL A   1      33.607  23.585  23.105  1.00  0.00     0.251 C 
ATOM      7  O   UNL A   1      34.424  23.511  22.181  1.00  0.00    -0.270 OA
ATOM      8  H   UNL A   1      33.801  21.661  23.284  1.00  0.00     0.163 HD
BRANCH   6   9
ATOM      9  C   UNL A   1      33.021  24.911  23.463  1.00  0.00     0.067 C 
ATOM     10  C   UNL A   1      31.665  28.793  24.417  1.00  0.00     0.018 A 
ATOM     11  C   UNL A   1      32.295  29.499  25.449  1.00  0.00     0.032 A 
ATOM     12  C   UNL A   1      32.134  27.509  24.088  1.00  0.00     0.135 A 
ATOM     13  C   UNL A   1      33.385  28.937  26.115  1.00  0.00     0.042 A 
ATOM     14  C   UNL A   1      33.232  26.952  24.749  1.00  0.00     0.019 A 
ATOM     15  O   UNL A   1      31.513  26.861  23.055  1.00  0.00    -0.475 OA
ATOM     16  Cl  UNL A   1      34.157  29.818  27.376  1.00  0.00    -0.084 Cl
ATOM     17  C   UNL A   1      33.859  27.672  25.768  1.00  0.00     0.032 A 
ATOM     18  C   UNL A   1      33.736  25.646  24.334  1.00  0.00     0.025 C 
ATOM     19  C   UNL A   1      31.711  25.429  22.944  1.00  0.00     0.314 C 
BRANCH  10  20
ATOM     20  C   UNL A   1      30.499  29.358  23.721  1.00  0.00     0.004 C 
ATOM     21  C   UNL A   1      29.915  30.513  24.063  1.00  0.00     0.009 C 
ENDBRANCH  10  20
BRANCH  19  22
ATOM     22  C   UNL A   1      30.497  24.709  23.557  1.00  0.00     0.429 C 
ATOM     23  F   UNL A   1      29.383  25.475  23.442  1.00  0.00    -0.167 F 
ATOM     24  F   UNL A   1      30.219  23.537  22.939  1.00  0.00    -0.167 F 
ATOM     25  F   UNL A   1      30.667  24.434  24.870  1.00  0.00    -0.167 F 
ENDBRANCH  19  22
ENDBRANCH   6   9
ENDBRANCH   4   5
ENDBRANCH   3   4
ENDBRANCH   2   3
ENDBRANCH   1   2
BRANCH   1  26
ATOM     26  C   UNL A   1      35.980  23.372  26.122  1.00  0.00     0.021 C 
BRANCH  26  27
ATOM     27  C   UNL A   1      37.124  23.450  25.117  1.00  0.00     0.116 C 
BRANCH  27  28
ATOM     28  N   UNL A   1      38.230  22.569  25.456  1.00  0.00    -0.352 N 
ATOM     29  C   UNL A   1      39.392  22.855  26.131  1.00  0.00     0.251 C 
ATOM     30  H   UNL A   1      38.132  21.636  25.158  1.00  0.00     0.163 HD
ATOM     31  O   UNL A   1      40.289  22.021  26.203  1.00  0.00    -0.269 OA
BRANCH  29  32
ATOM     32  C   UNL A   1      39.572  24.189  26.743  1.00  0.00     0.039 A 
ATOM     33  C   UNL A   1      40.251  25.200  26.060  1.00  0.00     0.014 A 
ATOM     34  C   UNL A   1      39.073  24.420  28.027  1.00  0.00     0.014 A 
ATOM     35  C   UNL A   1      40.569  26.383  26.720  1.00  0.00     0.010 A 
ATOM     36  C   UNL A   1      39.325  25.640  28.660  1.00  0.00     0.010 A 
ATOM     37  C   UNL A   1      40.115  26.615  28.030  1.00  0.00    -0.014 A 
BRANCH  37  38
ATOM     38  C   UNL A   1      40.483  27.878  28.719  1.00  0.00     0.031 A 
ATOM     39  C   UNL A   1      39.482  28.993  28.865  1.00  0.00     0.074 A 
ATOM     40  C   UNL A   1      41.708  27.995  29.270  1.00  0.00     0.049 A 
ATOM     41  N   UNL A   1      39.624  30.150  29.462  1.00  0.00    -0.248 NA
ATOM     42  C   UNL A   1      38.150  28.788  28.272  1.00  0.00     0.031 C 
ATOM     43  C   UNL A   1      42.754  26.970  29.223  1.00  0.00     0.029 A 
ATOM     44  N   UNL A   1      42.268  29.009  30.005  1.00  0.00    -0.354 N 
ATOM     45  C   UNL A   1      38.413  30.814  29.302  1.00  0.00     0.074 A 
ATOM     46  C   UNL A   1      37.551  29.943  28.534  1.00  0.00     0.031 C 
ATOM     47  C   UNL A   1      43.801  27.380  29.955  1.00  0.00     0.029 A 
ATOM     48  C   UNL A   1      43.532  28.721  30.463  1.00  0.00     0.049 A 
ATOM     49  H   UNL A   1      41.810  29.861  30.188  1.00  0.00     0.167 HD
ATOM     50  C   UNL A   1      38.052  32.033  29.764  1.00  0.00     0.031 A 
ATOM     51  C   UNL A   1      44.386  29.455  31.202  1.00  0.00     0.031 A 
ATOM     52  C   UNL A   1      38.902  32.890  30.546  1.00  0.00     0.049 A 
ATOM     53  C   UNL A   1      43.977  30.831  31.645  1.00  0.00     0.074 A 
ATOM     54  C   UNL A   1      38.608  34.137  31.072  1.00  0.00     0.029 A 
ATOM     55  N   UNL A   1      40.202  32.592  30.919  1.00  0.00    -0.354 N 
ATOM     56  N   UNL A   1      42.826  31.437  31.488  1.00  0.00    -0.248 NA
ATOM     57  C   UNL A   1      44.985  31.625  32.363  1.00  0.00     0.031 C 
ATOM     58  C   UNL A   1      39.749  34.617  31.718  1.00  0.00     0.029 A 
ATOM     59  C   UNL A   1      40.732  33.643  31.647  1.00  0.00     0.049 A 
ATOM     60  H   UNL A   1      40.678  31.759  30.699  1.00  0.00     0.167 HD
ATOM     61  C   UNL A   1      42.965  32.676  32.101  1.00  0.00     0.074 A 
ATOM     62  C   UNL A   1      44.304  32.727  32.650  1.00  0.00     0.031 C 
ATOM     63  C   UNL A   1      42.061  33.680  32.195  1.00  0.00     0.031 A 
BRANCH  50  64
ATOM     64  C   UNL A   1      36.674  32.541  29.443  1.00  0.00    -0.014 A 
ATOM     65  C   UNL A   1      36.455  33.246  28.248  1.00  0.00     0.009 A 
ATOM     66  C   UNL A   1      35.631  32.442  30.376  1.00  0.00     0.009 A 
ATOM     67  C   UNL A   1      35.226  33.862  28.004  1.00  0.00     0.001 A 
ATOM     68  C   UNL A   1      34.396  33.040  30.117  1.00  0.00     0.001 A 
ATOM     69  C   UNL A   1      34.198  33.759  28.939  1.00  0.00     0.000 A 
ENDBRANCH  50  64
BRANCH  51  70
ATOM     70  C   UNL A   1      45.714  28.896  31.571  1.00  0.00    -0.014 A 
ATOM     71  C   UNL A   1      46.823  29.065  30.728  1.00  0.00     0.009 A 
ATOM     72  C   UNL A   1      45.873  28.171  32.762  1.00  0.00     0.009 A 
ATOM     73  C   UNL A   1      48.058  28.504  31.057  1.00  0.00     0.001 A 
ATOM     74  C   UNL A   1      47.117  27.638  33.105  1.00  0.00     0.001 A 
ATOM     75  C   UNL A   1      48.206  27.796  32.249  1.00  0.00     0.000 A 
ENDBRANCH  51  70
BRANCH  63  76
ATOM     76  C   UNL A   1      42.467  34.922  32.937  1.00  0.00    -0.014 A 
ATOM     77  C   UNL A   1      42.017  35.124  34.252  1.00  0.00     0.009 A 
ATOM     78  C   UNL A   1      43.201  35.935  32.304  1.00  0.00     0.009 A 
ATOM     79  C   UNL A   1      42.280  36.323  34.914  1.00  0.00     0.001 A 
ATOM     80  C   UNL A   1      43.486  37.124  32.978  1.00  0.00     0.001 A 
ATOM     81  C   UNL A   1      43.018  37.320  34.277  1.00  0.00     0.000 A 
ENDBRANCH  63  76
ENDBRANCH  37  38
ENDBRANCH  29  32
ENDBRANCH  27  28
ENDBRANCH  26  27
ENDBRANCH   1  26
TORSDOF 15
ENDMDL
