MODEL 1
REMARK VINA RESULT:     -11.1      0.000      0.000
REMARK SMILES O=C(NCCCCCCNC(=O)c1ccccc1[C@@H]1SCC(=O)N1NC(=S)Nc1ccccc1)c1ccc(-c2c3nc(c(-c4ccccc4)c4ccc([nH]4)c(-c4ccccc4)c4nc(c(-c5ccccc5)c5ccc2[nH]5)C=C4)C=C3)cc1
REMARK SMILES IDX 8 1 7 2 6 3 5 4 4 5 3 6 1 7 2 8 35 10 36 11 82 12 37 13
REMARK SMILES IDX 81 14 38 15 39 16 40 17 75 18 41 19 80 20 74 21 76 22 42 23
REMARK SMILES IDX 79 24 73 25 72 26 43 28 65 29 50 30 64 31 51 32 54 33 63 34
REMARK SMILES IDX 77 35 52 36 53 37 62 39 78 40 55 41 44 42 45 43 49 44 46 45
REMARK SMILES IDX 48 46 47 47 66 48 67 49 71 50 68 51 70 52 69 53 56 54 57 55
REMARK SMILES IDX 61 56 58 57 60 58 59 59 9 60 10 61 11 62 12 64 13 65 14 66
REMARK SMILES IDX 18 67 15 68 17 69 16 70 19 71 20 72 24 73 21 74 22 75 23 76
REMARK SMILES IDX 25 77 26 79 27 80 28 81 29 83 30 84 34 85 31 86 33 87 32 88
REMARK H PARENT 3 9 76 27 54 38 10 63 25 78 28 82
REMARK Flexibility Score: inf
ROOT
ATOM      1  C   UNL A   1      34.042  28.495  24.724  1.00  0.00     0.021 C 
ENDROOT
BRANCH   1   2
ATOM      2  C   UNL A   1      33.129  27.972  25.847  1.00  0.00     0.002 C 
BRANCH   2   3
ATOM      3  C   UNL A   1      33.122  28.616  27.245  1.00  0.00     0.002 C 
BRANCH   3   4
ATOM      4  C   UNL A   1      33.197  30.147  27.382  1.00  0.00     0.021 C 
BRANCH   4   5
ATOM      5  C   UNL A   1      34.565  30.800  27.566  1.00  0.00     0.116 C 
BRANCH   5   6
ATOM      6  N   UNL A   1      34.917  30.981  28.968  1.00  0.00    -0.352 N 
ATOM      7  O   UNL A   1      35.814  30.700  30.984  1.00  0.00    -0.269 OA
ATOM      8  C   UNL A   1      35.929  30.506  29.770  1.00  0.00     0.251 C 
ATOM      9  H   UNL A   1      34.295  31.575  29.447  1.00  0.00     0.163 HD
BRANCH   8  10
ATOM     10  C   UNL A   1      37.152  29.794  29.292  1.00  0.00     0.039 A 
ATOM     11  C   UNL A   1      37.627  29.847  27.981  1.00  0.00     0.014 A 
ATOM     12  C   UNL A   1      37.969  29.182  30.261  1.00  0.00     0.014 A 
ATOM     13  C   UNL A   1      38.859  29.265  27.638  1.00  0.00     0.010 A 
ATOM     14  C   UNL A   1      39.235  28.668  29.935  1.00  0.00     0.010 A 
ATOM     15  C   UNL A   1      39.702  28.713  28.615  1.00  0.00    -0.014 A 
BRANCH  15  16
ATOM     16  C   UNL A   1      41.104  28.312  28.283  1.00  0.00     0.031 A 
ATOM     17  C   UNL A   1      41.460  26.889  27.941  1.00  0.00     0.074 A 
ATOM     18  C   UNL A   1      42.086  29.236  28.339  1.00  0.00     0.049 A 
ATOM     19  N   UNL A   1      42.638  26.368  27.696  1.00  0.00    -0.248 NA
ATOM     20  C   UNL A   1      40.353  25.925  27.876  1.00  0.00     0.031 C 
ATOM     21  C   UNL A   1      41.897  30.648  28.679  1.00  0.00     0.029 A 
ATOM     22  N   UNL A   1      43.439  29.131  28.116  1.00  0.00    -0.354 N 
ATOM     23  C   UNL A   1      42.419  25.013  27.473  1.00  0.00     0.074 A 
ATOM     24  C   UNL A   1      40.997  24.791  27.633  1.00  0.00     0.031 C 
ATOM     25  C   UNL A   1      43.076  31.283  28.608  1.00  0.00     0.029 A 
ATOM     26  C   UNL A   1      44.119  30.315  28.286  1.00  0.00     0.049 A 
ATOM     27  H   UNL A   1      43.879  28.289  27.859  1.00  0.00     0.167 HD
ATOM     28  C   UNL A   1      43.316  24.044  27.161  1.00  0.00     0.031 A 
ATOM     29  C   UNL A   1      45.434  30.598  28.221  1.00  0.00     0.031 A 
ATOM     30  C   UNL A   1      44.734  24.258  27.008  1.00  0.00     0.049 A 
ATOM     31  C   UNL A   1      46.413  29.504  27.909  1.00  0.00     0.074 A 
ATOM     32  C   UNL A   1      45.712  23.340  26.660  1.00  0.00     0.029 A 
ATOM     33  N   UNL A   1      45.378  25.470  27.201  1.00  0.00    -0.354 N 
ATOM     34  N   UNL A   1      46.180  28.237  27.667  1.00  0.00    -0.248 NA
ATOM     35  C   UNL A   1      47.834  29.877  27.863  1.00  0.00     0.031 C 
ATOM     36  C   UNL A   1      46.953  23.986  26.698  1.00  0.00     0.029 A 
ATOM     37  C   UNL A   1      46.742  25.320  27.005  1.00  0.00     0.049 A 
ATOM     38  H   UNL A   1      44.932  26.315  27.441  1.00  0.00     0.167 HD
ATOM     39  C   UNL A   1      47.421  27.666  27.414  1.00  0.00     0.074 A 
ATOM     40  C   UNL A   1      48.401  28.727  27.523  1.00  0.00     0.031 C 
ATOM     41  C   UNL A   1      47.714  26.378  27.115  1.00  0.00     0.031 A 
BRANCH  28  42
ATOM     42  C   UNL A   1      42.791  22.641  27.004  1.00  0.00    -0.014 A 
ATOM     43  C   UNL A   1      42.256  21.931  28.092  1.00  0.00     0.009 A 
ATOM     44  C   UNL A   1      42.807  22.028  25.741  1.00  0.00     0.009 A 
ATOM     45  C   UNL A   1      41.797  20.621  27.927  1.00  0.00     0.001 A 
ATOM     46  C   UNL A   1      42.319  20.730  25.572  1.00  0.00     0.001 A 
ATOM     47  C   UNL A   1      41.827  20.023  26.667  1.00  0.00     0.000 A 
ENDBRANCH  28  42
BRANCH  29  48
ATOM     48  C   UNL A   1      45.897  31.988  28.475  1.00  0.00    -0.014 A 
ATOM     49  C   UNL A   1      45.996  32.913  27.424  1.00  0.00     0.009 A 
ATOM     50  C   UNL A   1      46.208  32.408  29.778  1.00  0.00     0.009 A 
ATOM     51  C   UNL A   1      46.405  34.226  27.673  1.00  0.00     0.001 A 
ATOM     52  C   UNL A   1      46.587  33.728  30.028  1.00  0.00     0.001 A 
ATOM     53  C   UNL A   1      46.690  34.634  28.976  1.00  0.00     0.000 A 
ENDBRANCH  29  48
BRANCH  41  54
ATOM     54  C   UNL A   1      49.153  26.044  26.835  1.00  0.00    -0.014 A 
ATOM     55  C   UNL A   1      49.737  26.307  25.585  1.00  0.00     0.009 A 
ATOM     56  C   UNL A   1      49.949  25.504  27.857  1.00  0.00     0.009 A 
ATOM     57  C   UNL A   1      51.084  26.011  25.360  1.00  0.00     0.001 A 
ATOM     58  C   UNL A   1      51.300  25.235  27.638  1.00  0.00     0.001 A 
ATOM     59  C   UNL A   1      51.865  25.481  26.388  1.00  0.00     0.000 A 
ENDBRANCH  41  54
ENDBRANCH  15  16
ENDBRANCH   8  10
ENDBRANCH   5   6
ENDBRANCH   4   5
ENDBRANCH   3   4
ENDBRANCH   2   3
ENDBRANCH   1   2
BRANCH   1  60
ATOM     60  C   UNL A   1      33.568  28.663  23.267  1.00  0.00     0.116 C 
BRANCH  60  61
ATOM     61  N   UNL A   1      33.878  27.642  22.286  1.00  0.00    -0.352 N 
ATOM     62  C   UNL A   1      33.043  26.610  21.881  1.00  0.00     0.251 C 
ATOM     63  H   UNL A   1      34.767  27.684  21.866  1.00  0.00     0.163 HD
ATOM     64  O   UNL A   1      33.261  26.010  20.833  1.00  0.00    -0.269 OA
BRANCH  62  65
ATOM     65  C   UNL A   1      31.903  26.166  22.730  1.00  0.00     0.046 A 
ATOM     66  C   UNL A   1      30.915  27.147  22.930  1.00  0.00     0.014 A 
ATOM     67  C   UNL A   1      31.819  24.926  23.418  1.00  0.00    -0.001 A 
ATOM     68  C   UNL A   1      29.809  26.895  23.743  1.00  0.00     0.001 A 
ATOM     69  C   UNL A   1      30.671  24.694  24.214  1.00  0.00     0.007 A 
ATOM     70  C   UNL A   1      29.677  25.662  24.367  1.00  0.00     0.000 A 
BRANCH  67  71
ATOM     71  C   UNL A   1      32.828  23.783  23.355  1.00  0.00     0.197 C 
ATOM     72  S   UNL A   1      32.667  22.725  21.912  1.00  0.00    -0.120 SA
ATOM     73  N   UNL A   1      32.780  22.936  24.519  1.00  0.00    -0.236 N 
ATOM     74  C   UNL A   1      32.255  21.269  22.904  1.00  0.00     0.174 C 
ATOM     75  C   UNL A   1      32.070  21.752  24.327  1.00  0.00     0.252 C 
ATOM     76  O   UNL A   1      31.401  21.142  25.156  1.00  0.00    -0.272 OA
BRANCH  73  77
ATOM     77  N   UNL A   1      33.088  23.580  25.740  1.00  0.00    -0.270 N 
ATOM     78  H   UNL A   1      32.415  24.221  26.065  1.00  0.00     0.191 HD
BRANCH  77  79
ATOM     79  C   UNL A   1      34.189  23.432  26.526  1.00  0.00     0.189 C 
ATOM     80  S   UNL A   1      34.000  22.629  27.982  1.00  0.00    -0.039 S 
BRANCH  79  81
ATOM     81  N   UNL A   1      35.422  23.680  26.043  1.00  0.00    -0.331 N 
ATOM     82  H   UNL A   1      35.581  24.604  25.744  1.00  0.00     0.169 HD
BRANCH  81  83
ATOM     83  C   UNL A   1      36.509  22.808  25.904  1.00  0.00     0.040 A 
ATOM     84  C   UNL A   1      36.264  21.573  25.288  1.00  0.00     0.026 A 
ATOM     85  C   UNL A   1      37.799  23.158  26.280  1.00  0.00     0.026 A 
ATOM     86  C   UNL A   1      37.315  20.728  24.962  1.00  0.00     0.002 A 
ATOM     87  C   UNL A   1      38.851  22.295  25.977  1.00  0.00     0.002 A 
ATOM     88  C   UNL A   1      38.612  21.094  25.302  1.00  0.00     0.000 A 
ENDBRANCH  81  83
ENDBRANCH  79  81
ENDBRANCH  77  79
ENDBRANCH  73  77
ENDBRANCH  67  71
ENDBRANCH  62  65
ENDBRANCH  60  61
ENDBRANCH   1  60
TORSDOF 18
ENDMDL
MODEL 2
REMARK VINA RESULT:     -11.1      4.819      9.467
REMARK SMILES O=C(NCCCCCCNC(=O)c1ccccc1[C@@H]1SCC(=O)N1NC(=S)Nc1ccccc1)c1ccc(-c2c3nc(c(-c4ccccc4)c4ccc([nH]4)c(-c4ccccc4)c4nc(c(-c5ccccc5)c5ccc2[nH]5)C=C4)C=C3)cc1
REMARK SMILES IDX 8 1 7 2 6 3 5 4 4 5 3 6 1 7 2 8 35 10 36 11 82 12 37 13
REMARK SMILES IDX 81 14 38 15 39 16 40 17 75 18 41 19 80 20 74 21 76 22 42 23
REMARK SMILES IDX 79 24 73 25 72 26 43 28 65 29 50 30 64 31 51 32 54 33 63 34
REMARK SMILES IDX 77 35 52 36 53 37 62 39 78 40 55 41 44 42 45 43 49 44 46 45
REMARK SMILES IDX 48 46 47 47 66 48 67 49 71 50 68 51 70 52 69 53 56 54 57 55
REMARK SMILES IDX 61 56 58 57 60 58 59 59 9 60 10 61 11 62 12 64 13 65 14 66
REMARK SMILES IDX 18 67 15 68 17 69 16 70 19 71 20 72 24 73 21 74 22 75 23 76
REMARK SMILES IDX 25 77 26 79 27 80 28 81 29 83 30 84 34 85 31 86 33 87 32 88
REMARK H PARENT 3 9 76 27 54 38 10 63 25 78 28 82
REMARK Flexibility Score: inf
ROOT
ATOM      1  C   UNL A   1      36.256  22.756  23.220  1.00  0.00     0.021 C 
ENDROOT
BRANCH   1   2
ATOM      2  C   UNL A   1      37.094  21.952  24.230  1.00  0.00     0.002 C 
BRANCH   2   3
ATOM      3  C   UNL A   1      37.668  22.605  25.500  1.00  0.00     0.002 C 
BRANCH   3   4
ATOM      4  C   UNL A   1      38.969  22.062  26.119  1.00  0.00     0.021 C 
BRANCH   4   5
ATOM      5  C   UNL A   1      39.838  23.008  26.943  1.00  0.00     0.116 C 
BRANCH   5   6
ATOM      6  N   UNL A   1      40.748  23.795  26.121  1.00  0.00    -0.352 N 
ATOM      7  O   UNL A   1      41.737  25.493  25.081  1.00  0.00    -0.269 OA
ATOM      8  C   UNL A   1      41.056  25.133  26.045  1.00  0.00     0.251 C 
ATOM      9  H   UNL A   1      41.256  23.248  25.479  1.00  0.00     0.163 HD
BRANCH   8  10
ATOM     10  C   UNL A   1      40.647  26.174  27.036  1.00  0.00     0.039 A 
ATOM     11  C   UNL A   1      39.839  25.924  28.146  1.00  0.00     0.014 A 
ATOM     12  C   UNL A   1      41.258  27.438  26.941  1.00  0.00     0.014 A 
ATOM     13  C   UNL A   1      39.611  26.921  29.109  1.00  0.00     0.010 A 
ATOM     14  C   UNL A   1      41.093  28.410  27.942  1.00  0.00     0.010 A 
ATOM     15  C   UNL A   1      40.273  28.159  29.048  1.00  0.00    -0.014 A 
BRANCH  15  16
ATOM     16  C   UNL A   1      40.211  29.120  30.192  1.00  0.00     0.031 A 
ATOM     17  C   UNL A   1      41.132  28.999  31.378  1.00  0.00     0.074 A 
ATOM     18  C   UNL A   1      39.274  30.091  30.189  1.00  0.00     0.049 A 
ATOM     19  N   UNL A   1      41.159  29.710  32.479  1.00  0.00    -0.248 NA
ATOM     20  C   UNL A   1      42.146  27.937  31.325  1.00  0.00     0.031 C 
ATOM     21  C   UNL A   1      38.297  30.317  29.121  1.00  0.00     0.029 A 
ATOM     22  N   UNL A   1      38.983  31.069  31.111  1.00  0.00    -0.354 N 
ATOM     23  C   UNL A   1      42.173  29.168  33.260  1.00  0.00     0.074 A 
ATOM     24  C   UNL A   1      42.722  28.054  32.514  1.00  0.00     0.031 C 
ATOM     25  C   UNL A   1      37.542  31.381  29.430  1.00  0.00     0.029 A 
ATOM     26  C   UNL A   1      37.930  31.875  30.746  1.00  0.00     0.049 A 
ATOM     27  H   UNL A   1      39.481  31.181  31.953  1.00  0.00     0.167 HD
ATOM     28  C   UNL A   1      42.611  29.560  34.484  1.00  0.00     0.031 A 
ATOM     29  C   UNL A   1      37.318  32.882  31.398  1.00  0.00     0.031 A 
ATOM     30  C   UNL A   1      42.063  30.663  35.235  1.00  0.00     0.049 A 
ATOM     31  C   UNL A   1      37.795  33.277  32.765  1.00  0.00     0.074 A 
ATOM     32  C   UNL A   1      42.466  31.152  36.467  1.00  0.00     0.029 A 
ATOM     33  N   UNL A   1      40.991  31.443  34.829  1.00  0.00    -0.354 N 
ATOM     34  N   UNL A   1      38.778  32.774  33.471  1.00  0.00    -0.248 NA
ATOM     35  C   UNL A   1      37.078  34.377  33.427  1.00  0.00     0.031 C 
ATOM     36  C   UNL A   1      41.601  32.191  36.831  1.00  0.00     0.029 A 
ATOM     37  C   UNL A   1      40.701  32.392  35.798  1.00  0.00     0.049 A 
ATOM     38  H   UNL A   1      40.506  31.339  33.979  1.00  0.00     0.167 HD
ATOM     39  C   UNL A   1      38.815  33.511  34.647  1.00  0.00     0.074 A 
ATOM     40  C   UNL A   1      37.763  34.501  34.556  1.00  0.00     0.031 C 
ATOM     41  C   UNL A   1      39.653  33.376  35.704  1.00  0.00     0.031 A 
BRANCH  28  42
ATOM     42  C   UNL A   1      43.720  28.758  35.112  1.00  0.00    -0.014 A 
ATOM     43  C   UNL A   1      43.451  27.631  35.908  1.00  0.00     0.009 A 
ATOM     44  C   UNL A   1      45.057  29.118  34.883  1.00  0.00     0.009 A 
ATOM     45  C   UNL A   1      44.496  26.917  36.500  1.00  0.00     0.001 A 
ATOM     46  C   UNL A   1      46.101  28.383  35.450  1.00  0.00     0.001 A 
ATOM     47  C   UNL A   1      45.819  27.292  36.269  1.00  0.00     0.000 A 
ENDBRANCH  28  42
BRANCH  29  48
ATOM     48  C   UNL A   1      36.169  33.577  30.759  1.00  0.00    -0.014 A 
ATOM     49  C   UNL A   1      36.272  34.076  29.451  1.00  0.00     0.009 A 
ATOM     50  C   UNL A   1      34.950  33.712  31.442  1.00  0.00     0.009 A 
ATOM     51  C   UNL A   1      35.179  34.703  28.846  1.00  0.00     0.001 A 
ATOM     52  C   UNL A   1      33.851  34.312  30.823  1.00  0.00     0.001 A 
ATOM     53  C   UNL A   1      33.968  34.811  29.528  1.00  0.00     0.000 A 
ENDBRANCH  29  48
BRANCH  41  54
ATOM     54  C   UNL A   1      39.501  34.355  36.835  1.00  0.00    -0.014 A 
ATOM     55  C   UNL A   1      38.806  34.019  38.007  1.00  0.00     0.009 A 
ATOM     56  C   UNL A   1      40.108  35.617  36.742  1.00  0.00     0.009 A 
ATOM     57  C   UNL A   1      38.702  34.939  39.053  1.00  0.00     0.001 A 
ATOM     58  C   UNL A   1      40.026  36.523  37.799  1.00  0.00     0.001 A 
ATOM     59  C   UNL A   1      39.317  36.188  38.951  1.00  0.00     0.000 A 
ENDBRANCH  41  54
ENDBRANCH  15  16
ENDBRANCH   8  10
ENDBRANCH   5   6
ENDBRANCH   4   5
ENDBRANCH   3   4
ENDBRANCH   2   3
ENDBRANCH   1   2
BRANCH   1  60
ATOM     60  C   UNL A   1      35.532  24.068  23.585  1.00  0.00     0.116 C 
BRANCH  60  61
ATOM     61  N   UNL A   1      34.453  24.552  22.747  1.00  0.00    -0.352 N 
ATOM     62  C   UNL A   1      33.169  24.029  22.676  1.00  0.00     0.251 C 
ATOM     63  H   UNL A   1      34.649  25.326  22.173  1.00  0.00     0.163 HD
ATOM     64  O   UNL A   1      32.254  24.694  22.200  1.00  0.00    -0.269 OA
BRANCH  62  65
ATOM     65  C   UNL A   1      32.881  22.635  23.117  1.00  0.00     0.046 A 
ATOM     66  C   UNL A   1      32.506  21.766  22.076  1.00  0.00     0.014 A 
ATOM     67  C   UNL A   1      32.838  22.187  24.464  1.00  0.00    -0.001 A 
ATOM     68  C   UNL A   1      32.159  20.441  22.340  1.00  0.00     0.001 A 
ATOM     69  C   UNL A   1      32.505  20.830  24.693  1.00  0.00     0.007 A 
ATOM     70  C   UNL A   1      32.179  19.968  23.645  1.00  0.00     0.000 A 
BRANCH  67  71
ATOM     71  C   UNL A   1      33.158  23.014  25.706  1.00  0.00     0.197 C 
ATOM     72  S   UNL A   1      33.950  22.092  27.030  1.00  0.00    -0.120 SA
ATOM     73  N   UNL A   1      31.994  23.654  26.263  1.00  0.00    -0.236 N 
ATOM     74  C   UNL A   1      32.568  22.351  28.169  1.00  0.00     0.174 C 
ATOM     75  C   UNL A   1      31.457  22.991  27.364  1.00  0.00     0.252 C 
ATOM     76  O   UNL A   1      30.274  22.924  27.690  1.00  0.00    -0.272 OA
BRANCH  73  77
ATOM     77  N   UNL A   1      31.356  24.582  25.406  1.00  0.00    -0.270 N 
ATOM     78  H   UNL A   1      30.969  24.205  24.583  1.00  0.00     0.191 HD
BRANCH  77  79
ATOM     79  C   UNL A   1      31.207  25.924  25.567  1.00  0.00     0.189 C 
ATOM     80  S   UNL A   1      30.234  26.733  24.471  1.00  0.00    -0.039 S 
BRANCH  79  81
ATOM     81  N   UNL A   1      31.600  26.534  26.703  1.00  0.00    -0.331 N 
ATOM     82  H   UNL A   1      31.364  26.067  27.537  1.00  0.00     0.169 HD
BRANCH  81  83
ATOM     83  C   UNL A   1      32.295  27.738  26.865  1.00  0.00     0.040 A 
ATOM     84  C   UNL A   1      33.667  27.728  26.581  1.00  0.00     0.026 A 
ATOM     85  C   UNL A   1      31.662  28.923  27.216  1.00  0.00     0.026 A 
ATOM     86  C   UNL A   1      34.389  28.913  26.554  1.00  0.00     0.002 A 
ATOM     87  C   UNL A   1      32.395  30.109  27.216  1.00  0.00     0.002 A 
ATOM     88  C   UNL A   1      33.749  30.107  26.866  1.00  0.00     0.000 A 
ENDBRANCH  81  83
ENDBRANCH  79  81
ENDBRANCH  77  79
ENDBRANCH  73  77
ENDBRANCH  67  71
ENDBRANCH  62  65
ENDBRANCH  60  61
ENDBRANCH   1  60
TORSDOF 18
ENDMDL
MODEL 3
REMARK VINA RESULT:     -11.1      0.761      5.736
REMARK SMILES O=C(NCCCCCCNC(=O)c1ccccc1[C@@H]1SCC(=O)N1NC(=S)Nc1ccccc1)c1ccc(-c2c3nc(c(-c4ccccc4)c4ccc([nH]4)c(-c4ccccc4)c4nc(c(-c5ccccc5)c5ccc2[nH]5)C=C4)C=C3)cc1
REMARK SMILES IDX 8 1 7 2 6 3 5 4 4 5 3 6 1 7 2 8 35 10 36 11 82 12 37 13
REMARK SMILES IDX 81 14 38 15 39 16 40 17 75 18 41 19 80 20 74 21 76 22 42 23
REMARK SMILES IDX 79 24 73 25 72 26 43 28 65 29 50 30 64 31 51 32 54 33 63 34
REMARK SMILES IDX 77 35 52 36 53 37 62 39 78 40 55 41 44 42 45 43 49 44 46 45
REMARK SMILES IDX 48 46 47 47 66 48 67 49 71 50 68 51 70 52 69 53 56 54 57 55
REMARK SMILES IDX 61 56 58 57 60 58 59 59 9 60 10 61 11 62 12 64 13 65 14 66
REMARK SMILES IDX 18 67 15 68 17 69 16 70 19 71 20 72 24 73 21 74 22 75 23 76
REMARK SMILES IDX 25 77 26 79 27 80 28 81 29 83 30 84 34 85 31 86 33 87 32 88
REMARK H PARENT 3 9 76 27 54 38 10 63 25 78 28 82
REMARK Flexibility Score: inf
ROOT
ATOM      1  C   UNL A   1      34.082  28.448  24.818  1.00  0.00     0.021 C 
ENDROOT
BRANCH   1   2
ATOM      2  C   UNL A   1      33.192  27.734  25.851  1.00  0.00     0.002 C 
BRANCH   2   3
ATOM      3  C   UNL A   1      32.807  28.404  27.182  1.00  0.00     0.002 C 
BRANCH   3   4
ATOM      4  C   UNL A   1      32.706  29.938  27.266  1.00  0.00     0.021 C 
BRANCH   4   5
ATOM      5  C   UNL A   1      33.995  30.756  27.282  1.00  0.00     0.116 C 
BRANCH   5   6
ATOM      6  N   UNL A   1      34.301  31.298  28.600  1.00  0.00    -0.352 N 
ATOM      7  O   UNL A   1      35.143  31.567  30.639  1.00  0.00    -0.269 OA
ATOM      8  C   UNL A   1      35.300  31.076  29.518  1.00  0.00     0.251 C 
ATOM      9  H   UNL A   1      33.648  31.973  28.898  1.00  0.00     0.163 HD
BRANCH   8  10
ATOM     10  C   UNL A   1      36.556  30.307  29.263  1.00  0.00     0.039 A 
ATOM     11  C   UNL A   1      37.157  30.182  28.011  1.00  0.00     0.014 A 
ATOM     12  C   UNL A   1      37.266  29.834  30.382  1.00  0.00     0.014 A 
ATOM     13  C   UNL A   1      38.410  29.561  27.873  1.00  0.00     0.010 A 
ATOM     14  C   UNL A   1      38.552  29.282  30.255  1.00  0.00     0.010 A 
ATOM     15  C   UNL A   1      39.147  29.148  28.995  1.00  0.00    -0.014 A 
BRANCH  15  16
ATOM     16  C   UNL A   1      40.569  28.708  28.860  1.00  0.00     0.031 A 
ATOM     17  C   UNL A   1      41.715  29.673  29.019  1.00  0.00     0.074 A 
ATOM     18  C   UNL A   1      40.836  27.425  28.538  1.00  0.00     0.049 A 
ATOM     19  N   UNL A   1      43.000  29.463  28.866  1.00  0.00    -0.248 NA
ATOM     20  C   UNL A   1      41.372  31.054  29.387  1.00  0.00     0.031 C 
ATOM     21  C   UNL A   1      39.830  26.381  28.328  1.00  0.00     0.029 A 
ATOM     22  N   UNL A   1      42.030  26.776  28.326  1.00  0.00    -0.354 N 
ATOM     23  C   UNL A   1      43.618  30.687  29.094  1.00  0.00     0.074 A 
ATOM     24  C   UNL A   1      42.563  31.639  29.374  1.00  0.00     0.031 C 
ATOM     25  C   UNL A   1      40.445  25.222  28.054  1.00  0.00     0.029 A 
ATOM     26  C   UNL A   1      41.885  25.448  27.998  1.00  0.00     0.049 A 
ATOM     27  H   UNL A   1      42.905  27.220  28.400  1.00  0.00     0.167 HD
ATOM     28  C   UNL A   1      44.940  30.993  29.074  1.00  0.00     0.031 A 
ATOM     29  C   UNL A   1      42.795  24.514  27.663  1.00  0.00     0.031 A 
ATOM     30  C   UNL A   1      45.995  30.051  28.787  1.00  0.00     0.049 A 
ATOM     31  C   UNL A   1      44.250  24.881  27.614  1.00  0.00     0.074 A 
ATOM     32  C   UNL A   1      47.363  30.265  28.779  1.00  0.00     0.029 A 
ATOM     33  N   UNL A   1      45.798  28.720  28.452  1.00  0.00    -0.354 N 
ATOM     34  N   UNL A   1      44.815  26.036  27.867  1.00  0.00    -0.248 NA
ATOM     35  C   UNL A   1      45.191  23.818  27.231  1.00  0.00     0.031 C 
ATOM     36  C   UNL A   1      47.991  29.078  28.383  1.00  0.00     0.029 A 
ATOM     37  C   UNL A   1      47.018  28.108  28.208  1.00  0.00     0.049 A 
ATOM     38  H   UNL A   1      44.922  28.275  28.395  1.00  0.00     0.167 HD
ATOM     39  C   UNL A   1      46.179  25.834  27.700  1.00  0.00     0.074 A 
ATOM     40  C   UNL A   1      46.356  24.444  27.333  1.00  0.00     0.031 C 
ATOM     41  C   UNL A   1      47.190  26.725  27.843  1.00  0.00     0.031 A 
BRANCH  28  42
ATOM     42  C   UNL A   1      45.323  32.427  29.332  1.00  0.00    -0.014 A 
ATOM     43  C   UNL A   1      45.438  32.932  30.638  1.00  0.00     0.009 A 
ATOM     44  C   UNL A   1      45.599  33.280  28.253  1.00  0.00     0.009 A 
ATOM     45  C   UNL A   1      45.772  34.272  30.853  1.00  0.00     0.001 A 
ATOM     46  C   UNL A   1      45.963  34.611  28.470  1.00  0.00     0.001 A 
ATOM     47  C   UNL A   1      46.036  35.109  29.769  1.00  0.00     0.000 A 
ENDBRANCH  28  42
BRANCH  29  48
ATOM     48  C   UNL A   1      42.343  23.136  27.332  1.00  0.00    -0.014 A 
ATOM     49  C   UNL A   1      41.881  22.274  28.338  1.00  0.00     0.009 A 
ATOM     50  C   UNL A   1      42.338  22.689  26.001  1.00  0.00     0.009 A 
ATOM     51  C   UNL A   1      41.431  20.990  28.017  1.00  0.00     0.001 A 
ATOM     52  C   UNL A   1      41.859  21.418  25.680  1.00  0.00     0.001 A 
ATOM     53  C   UNL A   1      41.411  20.568  26.688  1.00  0.00     0.000 A 
ENDBRANCH  29  48
BRANCH  41  54
ATOM     54  C   UNL A   1      48.591  26.215  27.650  1.00  0.00    -0.014 A 
ATOM     55  C   UNL A   1      49.275  25.542  28.675  1.00  0.00     0.009 A 
ATOM     56  C   UNL A   1      49.216  26.369  26.403  1.00  0.00     0.009 A 
ATOM     57  C   UNL A   1      50.567  25.057  28.460  1.00  0.00     0.001 A 
ATOM     58  C   UNL A   1      50.496  25.859  26.182  1.00  0.00     0.001 A 
ATOM     59  C   UNL A   1      51.174  25.210  27.213  1.00  0.00     0.000 A 
ENDBRANCH  41  54
ENDBRANCH  15  16
ENDBRANCH   8  10
ENDBRANCH   5   6
ENDBRANCH   4   5
ENDBRANCH   3   4
ENDBRANCH   2   3
ENDBRANCH   1   2
BRANCH   1  60
ATOM     60  C   UNL A   1      33.647  28.692  23.360  1.00  0.00     0.116 C 
BRANCH  60  61
ATOM     61  N   UNL A   1      33.937  27.698  22.346  1.00  0.00    -0.352 N 
ATOM     62  C   UNL A   1      33.080  26.700  21.905  1.00  0.00     0.251 C 
ATOM     63  H   UNL A   1      34.828  27.734  21.930  1.00  0.00     0.163 HD
ATOM     64  O   UNL A   1      33.288  26.131  20.837  1.00  0.00    -0.269 OA
BRANCH  62  65
ATOM     65  C   UNL A   1      31.928  26.253  22.736  1.00  0.00     0.046 A 
ATOM     66  C   UNL A   1      30.924  27.225  22.902  1.00  0.00     0.014 A 
ATOM     67  C   UNL A   1      31.844  25.022  23.437  1.00  0.00    -0.001 A 
ATOM     68  C   UNL A   1      29.805  26.971  23.694  1.00  0.00     0.001 A 
ATOM     69  C   UNL A   1      30.682  24.786  24.213  1.00  0.00     0.007 A 
ATOM     70  C   UNL A   1      29.673  25.744  24.331  1.00  0.00     0.000 A 
BRANCH  67  71
ATOM     71  C   UNL A   1      32.867  23.890  23.411  1.00  0.00     0.197 C 
ATOM     72  S   UNL A   1      32.779  22.839  21.956  1.00  0.00    -0.120 SA
ATOM     73  N   UNL A   1      32.779  23.035  24.567  1.00  0.00    -0.236 N 
ATOM     74  C   UNL A   1      32.341  21.373  22.923  1.00  0.00     0.174 C 
ATOM     75  C   UNL A   1      32.091  21.845  24.339  1.00  0.00     0.252 C 
ATOM     76  O   UNL A   1      31.395  21.223  25.137  1.00  0.00    -0.272 OA
BRANCH  73  77
ATOM     77  N   UNL A   1      33.029  23.675  25.804  1.00  0.00    -0.270 N 
ATOM     78  H   UNL A   1      32.606  24.557  25.920  1.00  0.00     0.191 HD
BRANCH  77  79
ATOM     79  C   UNL A   1      33.775  23.237  26.854  1.00  0.00     0.189 C 
ATOM     80  S   UNL A   1      33.015  22.282  27.999  1.00  0.00    -0.039 S 
BRANCH  79  81
ATOM     81  N   UNL A   1      35.118  23.338  26.839  1.00  0.00    -0.331 N 
ATOM     82  H   UNL A   1      35.495  24.049  27.407  1.00  0.00     0.169 HD
BRANCH  81  83
ATOM     83  C   UNL A   1      36.055  22.578  26.128  1.00  0.00     0.040 A 
ATOM     84  C   UNL A   1      37.363  23.075  26.060  1.00  0.00     0.026 A 
ATOM     85  C   UNL A   1      35.746  21.343  25.572  1.00  0.00     0.026 A 
ATOM     86  C   UNL A   1      38.383  22.302  25.522  1.00  0.00     0.002 A 
ATOM     87  C   UNL A   1      36.767  20.580  25.007  1.00  0.00     0.002 A 
ATOM     88  C   UNL A   1      38.083  21.049  25.001  1.00  0.00     0.000 A 
ENDBRANCH  81  83
ENDBRANCH  79  81
ENDBRANCH  77  79
ENDBRANCH  73  77
ENDBRANCH  67  71
ENDBRANCH  62  65
ENDBRANCH  60  61
ENDBRANCH   1  60
TORSDOF 18
ENDMDL
