MODEL 1
REMARK VINA RESULT:     -11.2      0.000      0.000
REMARK SMILES CC(C)(C)OC(=O)N1CCC[C@@]1(Cc1ccc(C(C)(C)C)cc1)C(=O)NCCCCCCNC(=O)c1ccc(-c2c3nc(c(-c4ccccc4)c4ccc([nH]4)c(-c4ccccc4)c4nc(c(-c5ccccc5)c5ccc2[nH]5)C=C4)C=C3)cc1
REMARK SMILES IDX 29 1 28 2 27 3 26 4 24 5 25 6 12 8 8 9 9 10 10 11 11 12 6 13
REMARK SMILES IDX 7 14 5 15 2 16 1 17 3 18 4 19 13 20 14 21 15 22 23 23 16 24
REMARK SMILES IDX 22 25 17 26 18 27 19 28 20 29 21 30 30 31 31 32 32 33 33 34
REMARK SMILES IDX 34 35 35 37 36 38 37 39 83 40 38 41 82 42 39 43 40 44 41 45
REMARK SMILES IDX 76 46 42 47 81 48 75 49 77 50 43 51 80 52 74 53 73 54 44 56
REMARK SMILES IDX 66 57 51 58 65 59 52 60 55 61 64 62 78 63 53 64 54 65 63 67
REMARK SMILES IDX 79 68 56 69 45 70 46 71 50 72 47 73 49 74 48 75 67 76 68 77
REMARK SMILES IDX 72 78 69 79 71 80 70 81 57 82 58 83 62 84 59 85 61 86 60 87
REMARK H PARENT 26 7 33 36 77 55 55 66
REMARK Flexibility Score: inf
ROOT
ATOM      1  C   UNL A   1      36.380  22.155  24.414  1.00  0.00     0.002 C 
ENDROOT
BRANCH   1   2
ATOM      2  C   UNL A   1      36.436  23.297  25.438  1.00  0.00     0.021 C 
BRANCH   2   3
ATOM      3  C   UNL A   1      35.214  24.214  25.445  1.00  0.00     0.116 C 
BRANCH   3   4
ATOM      4  N   UNL A   1      34.839  24.653  24.115  1.00  0.00    -0.354 N 
ATOM      5  C   UNL A   1      33.626  24.813  23.508  1.00  0.00     0.246 C 
ATOM      6  O   UNL A   1      33.682  25.237  22.347  1.00  0.00    -0.272 OA
ATOM      7  H   UNL A   1      35.605  24.878  23.539  1.00  0.00     0.163 HD
BRANCH   5   8
ATOM      8  C   UNL A   1      32.266  24.462  24.209  1.00  0.00     0.129 C 
ATOM      9  N   UNL A   1      31.682  25.720  24.785  1.00  0.00    -0.293 N 
ATOM     10  C   UNL A   1      30.555  26.207  24.021  1.00  0.00     0.124 C 
ATOM     11  C   UNL A   1      29.970  24.954  23.424  1.00  0.00     0.025 C 
ATOM     12  C   UNL A   1      31.199  24.100  23.130  1.00  0.00     0.041 C 
BRANCH   9  13
ATOM     13  C   UNL A   1      32.136  26.303  25.948  1.00  0.00     0.411 C 
ATOM     14  O   UNL A   1      31.500  26.357  26.990  1.00  0.00    -0.224 OA
BRANCH  13  15
ATOM     15  O   UNL A   1      33.311  26.952  25.741  1.00  0.00    -0.444 OA
BRANCH  15  16
ATOM     16  C   UNL A   1      33.354  28.392  25.564  1.00  0.00     0.106 C 
ATOM     17  C   UNL A   1      33.792  28.590  24.105  1.00  0.00     0.056 C 
ATOM     18  C   UNL A   1      34.408  28.981  26.501  1.00  0.00     0.056 C 
ATOM     19  C   UNL A   1      31.989  29.079  25.735  1.00  0.00     0.056 C 
ENDBRANCH  15  16
ENDBRANCH  13  15
ENDBRANCH   9  13
BRANCH   8  20
ATOM     20  C   UNL A   1      32.349  23.397  25.349  1.00  0.00     0.074 C 
BRANCH  20  21
ATOM     21  C   UNL A   1      32.559  21.939  25.031  1.00  0.00    -0.045 A 
ATOM     22  C   UNL A   1      32.396  21.444  23.736  1.00  0.00     0.004 A 
ATOM     23  C   UNL A   1      32.853  21.034  26.057  1.00  0.00     0.004 A 
ATOM     24  C   UNL A   1      32.597  20.085  23.463  1.00  0.00     0.004 A 
ATOM     25  C   UNL A   1      33.058  19.677  25.780  1.00  0.00     0.004 A 
ATOM     26  C   UNL A   1      32.976  19.177  24.471  1.00  0.00    -0.043 A 
BRANCH  26  27
ATOM     27  C   UNL A   1      33.287  17.706  24.137  1.00  0.00    -0.013 C 
ATOM     28  C   UNL A   1      34.798  17.456  24.283  1.00  0.00     0.016 C 
ATOM     29  C   UNL A   1      32.541  16.747  25.097  1.00  0.00     0.016 C 
ATOM     30  C   UNL A   1      32.891  17.330  22.688  1.00  0.00     0.016 C 
ENDBRANCH  26  27
ENDBRANCH  20  21
ENDBRANCH   8  20
ENDBRANCH   5   8
ENDBRANCH   3   4
ENDBRANCH   2   3
ENDBRANCH   1   2
BRANCH   1  31
ATOM     31  C   UNL A   1      36.331  20.733  24.990  1.00  0.00     0.002 C 
BRANCH  31  32
ATOM     32  C   UNL A   1      37.628  19.937  24.863  1.00  0.00     0.021 C 
BRANCH  32  33
ATOM     33  C   UNL A   1      38.769  20.408  25.749  1.00  0.00     0.116 C 
BRANCH  33  34
ATOM     34  N   UNL A   1      39.818  19.403  25.835  1.00  0.00    -0.352 N 
ATOM     35  C   UNL A   1      41.179  19.538  25.980  1.00  0.00     0.251 C 
ATOM     36  H   UNL A   1      39.502  18.472  25.782  1.00  0.00     0.163 HD
ATOM     37  O   UNL A   1      41.905  18.572  25.754  1.00  0.00    -0.269 OA
BRANCH  35  38
ATOM     38  C   UNL A   1      41.794  20.823  26.400  1.00  0.00     0.039 A 
ATOM     39  C   UNL A   1      42.075  21.032  27.757  1.00  0.00     0.014 A 
ATOM     40  C   UNL A   1      42.025  21.854  25.490  1.00  0.00     0.014 A 
ATOM     41  C   UNL A   1      42.622  22.248  28.187  1.00  0.00     0.010 A 
ATOM     42  C   UNL A   1      42.663  23.021  25.901  1.00  0.00     0.010 A 
ATOM     43  C   UNL A   1      42.947  23.245  27.256  1.00  0.00    -0.014 A 
BRANCH  43  44
ATOM     44  C   UNL A   1      43.519  24.561  27.649  1.00  0.00     0.031 A 
ATOM     45  C   UNL A   1      42.595  25.662  28.103  1.00  0.00     0.074 A 
ATOM     46  C   UNL A   1      44.834  24.811  27.502  1.00  0.00     0.049 A 
ATOM     47  N   UNL A   1      42.838  26.938  28.262  1.00  0.00    -0.248 NA
ATOM     48  C   UNL A   1      41.200  25.278  28.372  1.00  0.00     0.031 C 
ATOM     49  C   UNL A   1      45.845  23.843  27.077  1.00  0.00     0.029 A 
ATOM     50  N   UNL A   1      45.541  25.975  27.678  1.00  0.00    -0.354 N 
ATOM     51  C   UNL A   1      41.617  27.513  28.597  1.00  0.00     0.074 A 
ATOM     52  C   UNL A   1      40.631  26.454  28.580  1.00  0.00     0.031 C 
ATOM     53  C   UNL A   1      47.045  24.449  27.043  1.00  0.00     0.029 A 
ATOM     54  C   UNL A   1      46.876  25.858  27.383  1.00  0.00     0.049 A 
ATOM     55  H   UNL A   1      45.128  26.815  27.986  1.00  0.00     0.167 HD
ATOM     56  C   UNL A   1      41.339  28.804  28.903  1.00  0.00     0.031 A 
ATOM     57  C   UNL A   1      47.853  26.785  27.364  1.00  0.00     0.031 A 
ATOM     58  C   UNL A   1      42.326  29.850  28.958  1.00  0.00     0.049 A 
ATOM     59  C   UNL A   1      47.523  28.215  27.692  1.00  0.00     0.074 A 
ATOM     60  C   UNL A   1      42.156  31.179  29.304  1.00  0.00     0.029 A 
ATOM     61  N   UNL A   1      43.671  29.678  28.670  1.00  0.00    -0.354 N 
ATOM     62  N   UNL A   1      46.367  28.744  28.013  1.00  0.00    -0.248 NA
ATOM     63  C   UNL A   1      48.636  29.176  27.655  1.00  0.00     0.031 C 
ATOM     64  C   UNL A   1      43.393  31.821  29.189  1.00  0.00     0.029 A 
ATOM     65  C   UNL A   1      44.341  30.880  28.821  1.00  0.00     0.049 A 
ATOM     66  H   UNL A   1      44.086  28.829  28.399  1.00  0.00     0.167 HD
ATOM     67  C   UNL A   1      46.620  30.089  28.252  1.00  0.00     0.074 A 
ATOM     68  C   UNL A   1      48.038  30.295  28.039  1.00  0.00     0.031 C 
ATOM     69  C   UNL A   1      45.754  31.065  28.620  1.00  0.00     0.031 A 
BRANCH  56  70
ATOM     70  C   UNL A   1      39.904  29.152  29.185  1.00  0.00    -0.014 A 
ATOM     71  C   UNL A   1      39.374  29.077  30.484  1.00  0.00     0.009 A 
ATOM     72  C   UNL A   1      39.071  29.572  28.137  1.00  0.00     0.009 A 
ATOM     73  C   UNL A   1      38.027  29.364  30.717  1.00  0.00     0.001 A 
ATOM     74  C   UNL A   1      37.732  29.892  28.379  1.00  0.00     0.001 A 
ATOM     75  C   UNL A   1      37.209  29.774  29.665  1.00  0.00     0.000 A 
ENDBRANCH  56  70
BRANCH  57  76
ATOM     76  C   UNL A   1      49.246  26.387  27.034  1.00  0.00    -0.014 A 
ATOM     77  C   UNL A   1      50.138  26.035  28.058  1.00  0.00     0.009 A 
ATOM     78  C   UNL A   1      49.689  26.348  25.703  1.00  0.00     0.009 A 
ATOM     79  C   UNL A   1      51.452  25.670  27.757  1.00  0.00     0.001 A 
ATOM     80  C   UNL A   1      50.996  25.957  25.403  1.00  0.00     0.001 A 
ATOM     81  C   UNL A   1      51.878  25.625  26.431  1.00  0.00     0.000 A 
ENDBRANCH  57  76
BRANCH  69  82
ATOM     82  C   UNL A   1      46.320  32.431  28.879  1.00  0.00    -0.014 A 
ATOM     83  C   UNL A   1      46.370  33.406  27.870  1.00  0.00     0.009 A 
ATOM     84  C   UNL A   1      46.751  32.765  30.173  1.00  0.00     0.009 A 
ATOM     85  C   UNL A   1      46.863  34.682  28.151  1.00  0.00     0.001 A 
ATOM     86  C   UNL A   1      47.219  34.048  30.455  1.00  0.00     0.001 A 
ATOM     87  C   UNL A   1      47.281  35.004  29.442  1.00  0.00     0.000 A 
ENDBRANCH  69  82
ENDBRANCH  43  44
ENDBRANCH  35  38
ENDBRANCH  33  34
ENDBRANCH  32  33
ENDBRANCH  31  32
ENDBRANCH   1  31
TORSDOF 19
ENDMDL
MODEL 2
REMARK VINA RESULT:     -10.9      1.475      5.813
REMARK SMILES CC(C)(C)OC(=O)N1CCC[C@@]1(Cc1ccc(C(C)(C)C)cc1)C(=O)NCCCCCCNC(=O)c1ccc(-c2c3nc(c(-c4ccccc4)c4ccc([nH]4)c(-c4ccccc4)c4nc(c(-c5ccccc5)c5ccc2[nH]5)C=C4)C=C3)cc1
REMARK SMILES IDX 29 1 28 2 27 3 26 4 24 5 25 6 12 8 8 9 9 10 10 11 11 12 6 13
REMARK SMILES IDX 7 14 5 15 2 16 1 17 3 18 4 19 13 20 14 21 15 22 23 23 16 24
REMARK SMILES IDX 22 25 17 26 18 27 19 28 20 29 21 30 30 31 31 32 32 33 33 34
REMARK SMILES IDX 34 35 35 37 36 38 37 39 83 40 38 41 82 42 39 43 40 44 41 45
REMARK SMILES IDX 76 46 42 47 81 48 75 49 77 50 43 51 80 52 74 53 73 54 44 56
REMARK SMILES IDX 66 57 51 58 65 59 52 60 55 61 64 62 78 63 53 64 54 65 63 67
REMARK SMILES IDX 79 68 56 69 45 70 46 71 50 72 47 73 49 74 48 75 67 76 68 77
REMARK SMILES IDX 72 78 69 79 71 80 70 81 57 82 58 83 62 84 59 85 61 86 60 87
REMARK H PARENT 26 7 33 36 77 55 55 66
REMARK Flexibility Score: inf
ROOT
ATOM      1  C   UNL A   1      36.730  21.838  24.586  1.00  0.00     0.002 C 
ENDROOT
BRANCH   1   2
ATOM      2  C   UNL A   1      36.533  22.736  25.815  1.00  0.00     0.021 C 
BRANCH   2   3
ATOM      3  C   UNL A   1      35.345  23.692  25.728  1.00  0.00     0.116 C 
BRANCH   3   4
ATOM      4  N   UNL A   1      35.097  24.151  24.375  1.00  0.00    -0.354 N 
ATOM      5  C   UNL A   1      33.946  24.318  23.658  1.00  0.00     0.246 C 
ATOM      6  O   UNL A   1      34.111  24.760  22.514  1.00  0.00    -0.272 OA
ATOM      7  H   UNL A   1      35.914  24.388  23.879  1.00  0.00     0.163 HD
BRANCH   5   8
ATOM      8  C   UNL A   1      32.528  23.951  24.219  1.00  0.00     0.129 C 
ATOM      9  N   UNL A   1      31.869  25.204  24.720  1.00  0.00    -0.293 N 
ATOM     10  C   UNL A   1      30.819  25.667  23.841  1.00  0.00     0.124 C 
ATOM     11  C   UNL A   1      30.317  24.400  23.199  1.00  0.00     0.025 C 
ATOM     12  C   UNL A   1      31.582  23.563  23.041  1.00  0.00     0.041 C 
BRANCH   9  13
ATOM     13  C   UNL A   1      32.193  25.804  25.918  1.00  0.00     0.411 C 
ATOM     14  O   UNL A   1      31.483  25.794  26.912  1.00  0.00    -0.224 OA
BRANCH  13  15
ATOM     15  O   UNL A   1      33.326  26.545  25.800  1.00  0.00    -0.444 OA
BRANCH  15  16
ATOM     16  C   UNL A   1      33.272  27.947  25.431  1.00  0.00     0.106 C 
ATOM     17  C   UNL A   1      34.296  28.629  26.351  1.00  0.00     0.056 C 
ATOM     18  C   UNL A   1      31.874  28.490  25.726  1.00  0.00     0.056 C 
ATOM     19  C   UNL A   1      33.698  28.223  23.980  1.00  0.00     0.056 C 
ENDBRANCH  15  16
ENDBRANCH  13  15
ENDBRANCH   9  13
BRANCH   8  20
ATOM     20  C   UNL A   1      32.510  22.896  25.373  1.00  0.00     0.074 C 
BRANCH  20  21
ATOM     21  C   UNL A   1      32.792  21.442  25.096  1.00  0.00    -0.045 A 
ATOM     22  C   UNL A   1      32.600  20.891  23.827  1.00  0.00     0.004 A 
ATOM     23  C   UNL A   1      33.187  20.595  26.137  1.00  0.00     0.004 A 
ATOM     24  C   UNL A   1      32.869  19.537  23.593  1.00  0.00     0.004 A 
ATOM     25  C   UNL A   1      33.460  19.244  25.898  1.00  0.00     0.004 A 
ATOM     26  C   UNL A   1      33.348  18.691  24.611  1.00  0.00    -0.043 A 
BRANCH  26  27
ATOM     27  C   UNL A   1      33.731  17.229  24.314  1.00  0.00    -0.013 C 
ATOM     28  C   UNL A   1      35.127  16.938  24.891  1.00  0.00     0.016 C 
ATOM     29  C   UNL A   1      32.724  16.246  24.960  1.00  0.00     0.016 C 
ATOM     30  C   UNL A   1      33.783  16.926  22.797  1.00  0.00     0.016 C 
ENDBRANCH  26  27
ENDBRANCH  20  21
ENDBRANCH   8  20
ENDBRANCH   5   8
ENDBRANCH   3   4
ENDBRANCH   2   3
ENDBRANCH   1   2
BRANCH   1  31
ATOM     31  C   UNL A   1      36.727  20.325  24.847  1.00  0.00     0.002 C 
BRANCH  31  32
ATOM     32  C   UNL A   1      38.099  19.656  24.802  1.00  0.00     0.021 C 
BRANCH  32  33
ATOM     33  C   UNL A   1      38.986  19.912  26.009  1.00  0.00     0.116 C 
BRANCH  33  34
ATOM     34  N   UNL A   1      40.246  19.193  25.898  1.00  0.00    -0.352 N 
ATOM     35  C   UNL A   1      41.544  19.646  25.944  1.00  0.00     0.251 C 
ATOM     36  H   UNL A   1      40.156  18.221  25.770  1.00  0.00     0.163 HD
ATOM     37  O   UNL A   1      42.449  18.911  25.555  1.00  0.00    -0.269 OA
BRANCH  35  38
ATOM     38  C   UNL A   1      41.879  21.001  26.449  1.00  0.00     0.039 A 
ATOM     39  C   UNL A   1      41.867  21.236  27.831  1.00  0.00     0.014 A 
ATOM     40  C   UNL A   1      42.125  22.064  25.580  1.00  0.00     0.014 A 
ATOM     41  C   UNL A   1      42.144  22.513  28.334  1.00  0.00     0.010 A 
ATOM     42  C   UNL A   1      42.501  23.307  26.083  1.00  0.00     0.010 A 
ATOM     43  C   UNL A   1      42.491  23.556  27.463  1.00  0.00    -0.014 A 
BRANCH  43  44
ATOM     44  C   UNL A   1      42.785  24.936  27.933  1.00  0.00     0.031 A 
ATOM     45  C   UNL A   1      44.202  25.313  28.279  1.00  0.00     0.074 A 
ATOM     46  C   UNL A   1      41.788  25.815  28.152  1.00  0.00     0.049 A 
ATOM     47  N   UNL A   1      44.651  26.360  28.923  1.00  0.00    -0.248 NA
ATOM     48  C   UNL A   1      45.249  24.357  27.884  1.00  0.00     0.031 C 
ATOM     49  C   UNL A   1      40.373  25.592  27.860  1.00  0.00     0.029 A 
ATOM     50  N   UNL A   1      41.821  27.076  28.696  1.00  0.00    -0.354 N 
ATOM     51  C   UNL A   1      46.021  26.162  29.054  1.00  0.00     0.074 A 
ATOM     52  C   UNL A   1      46.322  24.878  28.458  1.00  0.00     0.031 C 
ATOM     53  C   UNL A   1      39.674  26.685  28.212  1.00  0.00     0.029 A 
ATOM     54  C   UNL A   1      40.583  27.659  28.809  1.00  0.00     0.049 A 
ATOM     55  H   UNL A   1      42.654  27.520  28.980  1.00  0.00     0.167 HD
ATOM     56  C   UNL A   1      46.950  26.977  29.609  1.00  0.00     0.031 A 
ATOM     57  C   UNL A   1      40.216  28.835  29.352  1.00  0.00     0.031 A 
ATOM     58  C   UNL A   1      46.658  28.271  30.166  1.00  0.00     0.049 A 
ATOM     59  C   UNL A   1      41.259  29.721  29.977  1.00  0.00     0.074 A 
ATOM     60  C   UNL A   1      47.534  29.194  30.709  1.00  0.00     0.029 A 
ATOM     61  N   UNL A   1      45.391  28.828  30.239  1.00  0.00    -0.354 N 
ATOM     62  N   UNL A   1      42.550  29.524  30.089  1.00  0.00    -0.248 NA
ATOM     63  C   UNL A   1      40.791  30.991  30.551  1.00  0.00     0.031 C 
ATOM     64  C   UNL A   1      46.791  30.296  31.146  1.00  0.00     0.029 A 
ATOM     65  C   UNL A   1      45.460  30.079  30.827  1.00  0.00     0.049 A 
ATOM     66  H   UNL A   1      44.566  28.397  29.920  1.00  0.00     0.167 HD
ATOM     67  C   UNL A   1      43.053  30.660  30.711  1.00  0.00     0.074 A 
ATOM     68  C   UNL A   1      41.929  31.540  30.952  1.00  0.00     0.031 C 
ATOM     69  C   UNL A   1      44.334  30.949  31.046  1.00  0.00     0.031 A 
BRANCH  56  70
ATOM     70  C   UNL A   1      48.368  26.479  29.651  1.00  0.00    -0.014 A 
ATOM     71  C   UNL A   1      48.835  25.687  30.713  1.00  0.00     0.009 A 
ATOM     72  C   UNL A   1      49.249  26.798  28.606  1.00  0.00     0.009 A 
ATOM     73  C   UNL A   1      50.168  25.270  30.753  1.00  0.00     0.001 A 
ATOM     74  C   UNL A   1      50.572  26.351  28.632  1.00  0.00     0.001 A 
ATOM     75  C   UNL A   1      51.033  25.600  29.711  1.00  0.00     0.000 A 
ENDBRANCH  56  70
BRANCH  57  76
ATOM     76  C   UNL A   1      38.791  29.254  29.319  1.00  0.00    -0.014 A 
ATOM     77  C   UNL A   1      38.284  29.935  28.202  1.00  0.00     0.009 A 
ATOM     78  C   UNL A   1      37.930  28.970  30.391  1.00  0.00     0.009 A 
ATOM     79  C   UNL A   1      36.948  30.341  28.167  1.00  0.00     0.001 A 
ATOM     80  C   UNL A   1      36.588  29.355  30.341  1.00  0.00     0.001 A 
ATOM     81  C   UNL A   1      36.100  30.046  29.233  1.00  0.00     0.000 A 
ENDBRANCH  57  76
BRANCH  69  82
ATOM     82  C   UNL A   1      44.604  32.295  31.654  1.00  0.00    -0.014 A 
ATOM     83  C   UNL A   1      44.857  33.421  30.855  1.00  0.00     0.009 A 
ATOM     84  C   UNL A   1      44.538  32.448  33.048  1.00  0.00     0.009 A 
ATOM     85  C   UNL A   1      45.063  34.669  31.446  1.00  0.00     0.001 A 
ATOM     86  C   UNL A   1      44.718  33.701  33.633  1.00  0.00     0.001 A 
ATOM     87  C   UNL A   1      44.988  34.810  32.831  1.00  0.00     0.000 A 
ENDBRANCH  69  82
ENDBRANCH  43  44
ENDBRANCH  35  38
ENDBRANCH  33  34
ENDBRANCH  32  33
ENDBRANCH  31  32
ENDBRANCH   1  31
TORSDOF 19
ENDMDL
MODEL 3
REMARK VINA RESULT:     -10.4      3.973      9.391
REMARK SMILES CC(C)(C)OC(=O)N1CCC[C@@]1(Cc1ccc(C(C)(C)C)cc1)C(=O)NCCCCCCNC(=O)c1ccc(-c2c3nc(c(-c4ccccc4)c4ccc([nH]4)c(-c4ccccc4)c4nc(c(-c5ccccc5)c5ccc2[nH]5)C=C4)C=C3)cc1
REMARK SMILES IDX 29 1 28 2 27 3 26 4 24 5 25 6 12 8 8 9 9 10 10 11 11 12 6 13
REMARK SMILES IDX 7 14 5 15 2 16 1 17 3 18 4 19 13 20 14 21 15 22 23 23 16 24
REMARK SMILES IDX 22 25 17 26 18 27 19 28 20 29 21 30 30 31 31 32 32 33 33 34
REMARK SMILES IDX 34 35 35 37 36 38 37 39 83 40 38 41 82 42 39 43 40 44 41 45
REMARK SMILES IDX 76 46 42 47 81 48 75 49 77 50 43 51 80 52 74 53 73 54 44 56
REMARK SMILES IDX 66 57 51 58 65 59 52 60 55 61 64 62 78 63 53 64 54 65 63 67
REMARK SMILES IDX 79 68 56 69 45 70 46 71 50 72 47 73 49 74 48 75 67 76 68 77
REMARK SMILES IDX 72 78 69 79 71 80 70 81 57 82 58 83 62 84 59 85 61 86 60 87
REMARK H PARENT 26 7 33 36 77 55 55 66
REMARK Flexibility Score: inf
ROOT
ATOM      1  C   UNL A   1      33.752  29.108  27.250  1.00  0.00     0.002 C 
ENDROOT
BRANCH   1   2
ATOM      2  C   UNL A   1      32.288  28.681  27.073  1.00  0.00     0.021 C 
BRANCH   2   3
ATOM      3  C   UNL A   1      32.090  27.228  26.646  1.00  0.00     0.116 C 
BRANCH   3   4
ATOM      4  N   UNL A   1      33.327  26.597  26.229  1.00  0.00    -0.354 N 
ATOM      5  C   UNL A   1      33.585  25.429  25.567  1.00  0.00     0.246 C 
ATOM      6  O   UNL A   1      34.783  25.211  25.354  1.00  0.00    -0.272 OA
ATOM      7  H   UNL A   1      34.135  27.105  26.468  1.00  0.00     0.163 HD
BRANCH   5   8
ATOM      8  C   UNL A   1      32.459  24.425  25.134  1.00  0.00     0.129 C 
ATOM      9  N   UNL A   1      33.045  23.043  25.069  1.00  0.00    -0.293 N 
ATOM     10  C   UNL A   1      32.627  22.212  26.176  1.00  0.00     0.124 C 
ATOM     11  C   UNL A   1      31.272  22.763  26.534  1.00  0.00     0.025 C 
ATOM     12  C   UNL A   1      31.429  24.261  26.294  1.00  0.00     0.041 C 
BRANCH   9  13
ATOM     13  C   UNL A   1      33.841  22.606  24.033  1.00  0.00     0.411 C 
ATOM     14  O   UNL A   1      33.684  22.916  22.861  1.00  0.00    -0.224 OA
BRANCH  13  15
ATOM     15  O   UNL A   1      34.718  21.660  24.458  1.00  0.00    -0.444 OA
BRANCH  15  16
ATOM     16  C   UNL A   1      36.129  21.960  24.617  1.00  0.00     0.106 C 
ATOM     17  C   UNL A   1      36.813  20.585  24.672  1.00  0.00     0.056 C 
ATOM     18  C   UNL A   1      36.340  22.692  25.941  1.00  0.00     0.056 C 
ATOM     19  C   UNL A   1      36.736  22.732  23.434  1.00  0.00     0.056 C 
ENDBRANCH  15  16
ENDBRANCH  13  15
ENDBRANCH   9  13
BRANCH   8  20
ATOM     20  C   UNL A   1      31.773  24.728  23.763  1.00  0.00     0.074 C 
BRANCH  20  21
ATOM     21  C   UNL A   1      31.047  26.028  23.533  1.00  0.00    -0.045 A 
ATOM     22  C   UNL A   1      31.690  27.133  22.971  1.00  0.00     0.004 A 
ATOM     23  C   UNL A   1      29.719  26.171  23.951  1.00  0.00     0.004 A 
ATOM     24  C   UNL A   1      30.994  28.332  22.766  1.00  0.00     0.004 A 
ATOM     25  C   UNL A   1      29.026  27.369  23.740  1.00  0.00     0.004 A 
ATOM     26  C   UNL A   1      29.634  28.464  23.104  1.00  0.00    -0.043 A 
BRANCH  26  27
ATOM     27  C   UNL A   1      28.859  29.756  22.784  1.00  0.00    -0.013 C 
ATOM     28  C   UNL A   1      29.263  30.856  23.781  1.00  0.00     0.016 C 
ATOM     29  C   UNL A   1      29.178  30.257  21.353  1.00  0.00     0.016 C 
ATOM     30  C   UNL A   1      27.326  29.571  22.891  1.00  0.00     0.016 C 
ENDBRANCH  26  27
ENDBRANCH  20  21
ENDBRANCH   8  20
ENDBRANCH   5   8
ENDBRANCH   3   4
ENDBRANCH   2   3
ENDBRANCH   1   2
BRANCH   1  31
ATOM     31  C   UNL A   1      34.002  30.614  27.408  1.00  0.00     0.002 C 
BRANCH  31  32
ATOM     32  C   UNL A   1      32.745  31.468  27.555  1.00  0.00     0.021 C 
BRANCH  32  33
ATOM     33  C   UNL A   1      32.793  32.820  26.861  1.00  0.00     0.116 C 
BRANCH  33  34
ATOM     34  N   UNL A   1      32.543  33.903  27.800  1.00  0.00    -0.352 N 
ATOM     35  C   UNL A   1      33.195  34.254  28.959  1.00  0.00     0.251 C 
ATOM     36  H   UNL A   1      31.781  34.482  27.567  1.00  0.00     0.163 HD
ATOM     37  O   UNL A   1      32.653  35.032  29.739  1.00  0.00    -0.269 OA
BRANCH  35  38
ATOM     38  C   UNL A   1      34.538  33.715  29.291  1.00  0.00     0.039 A 
ATOM     39  C   UNL A   1      34.669  32.820  30.361  1.00  0.00     0.014 A 
ATOM     40  C   UNL A   1      35.683  34.139  28.615  1.00  0.00     0.014 A 
ATOM     41  C   UNL A   1      35.928  32.323  30.719  1.00  0.00     0.010 A 
ATOM     42  C   UNL A   1      36.919  33.567  28.903  1.00  0.00     0.010 A 
ATOM     43  C   UNL A   1      37.064  32.672  29.973  1.00  0.00    -0.014 A 
BRANCH  43  44
ATOM     44  C   UNL A   1      38.429  32.188  30.308  1.00  0.00     0.031 A 
ATOM     45  C   UNL A   1      38.919  30.891  29.717  1.00  0.00     0.074 A 
ATOM     46  C   UNL A   1      39.188  32.838  31.211  1.00  0.00     0.049 A 
ATOM     47  N   UNL A   1      39.957  30.165  30.047  1.00  0.00    -0.248 NA
ATOM     48  C   UNL A   1      38.101  30.312  28.639  1.00  0.00     0.031 C 
ATOM     49  C   UNL A   1      38.847  34.104  31.860  1.00  0.00     0.029 A 
ATOM     50  N   UNL A   1      40.404  32.502  31.754  1.00  0.00    -0.354 N 
ATOM     51  C   UNL A   1      39.886  29.025  29.255  1.00  0.00     0.074 A 
ATOM     52  C   UNL A   1      38.684  29.138  28.458  1.00  0.00     0.031 C 
ATOM     53  C   UNL A   1      39.838  34.446  32.701  1.00  0.00     0.029 A 
ATOM     54  C   UNL A   1      40.852  33.397  32.694  1.00  0.00     0.049 A 
ATOM     55  H   UNL A   1      40.906  31.696  31.495  1.00  0.00     0.167 HD
ATOM     56  C   UNL A   1      40.748  27.982  29.185  1.00  0.00     0.031 A 
ATOM     57  C   UNL A   1      41.945  33.366  33.481  1.00  0.00     0.031 A 
ATOM     58  C   UNL A   1      41.964  27.888  29.948  1.00  0.00     0.049 A 
ATOM     59  C   UNL A   1      42.883  32.193  33.400  1.00  0.00     0.074 A 
ATOM     60  C   UNL A   1      42.929  26.897  29.916  1.00  0.00     0.029 A 
ATOM     61  N   UNL A   1      42.387  28.830  30.874  1.00  0.00    -0.354 N 
ATOM     62  N   UNL A   1      42.807  31.126  32.643  1.00  0.00    -0.248 NA
ATOM     63  C   UNL A   1      44.057  32.222  34.285  1.00  0.00     0.031 C 
ATOM     64  C   UNL A   1      43.918  27.220  30.850  1.00  0.00     0.029 A 
ATOM     65  C   UNL A   1      43.594  28.438  31.426  1.00  0.00     0.049 A 
ATOM     66  H   UNL A   1      41.900  29.654  31.103  1.00  0.00     0.167 HD
ATOM     67  C   UNL A   1      43.940  30.375  32.932  1.00  0.00     0.074 A 
ATOM     68  C   UNL A   1      44.686  31.110  33.934  1.00  0.00     0.031 C 
ATOM     69  C   UNL A   1      44.330  29.187  32.410  1.00  0.00     0.031 A 
BRANCH  56  70
ATOM     70  C   UNL A   1      40.391  26.853  28.259  1.00  0.00    -0.014 A 
ATOM     71  C   UNL A   1      40.898  26.790  26.951  1.00  0.00     0.009 A 
ATOM     72  C   UNL A   1      39.541  25.829  28.706  1.00  0.00     0.009 A 
ATOM     73  C   UNL A   1      40.519  25.754  26.093  1.00  0.00     0.001 A 
ATOM     74  C   UNL A   1      39.190  24.776  27.857  1.00  0.00     0.001 A 
ATOM     75  C   UNL A   1      39.668  24.748  26.549  1.00  0.00     0.000 A 
ENDBRANCH  56  70
BRANCH  57  76
ATOM     76  C   UNL A   1      42.222  34.493  34.409  1.00  0.00    -0.014 A 
ATOM     77  C   UNL A   1      41.739  34.452  35.727  1.00  0.00     0.009 A 
ATOM     78  C   UNL A   1      42.970  35.604  33.993  1.00  0.00     0.009 A 
ATOM     79  C   UNL A   1      41.986  35.511  36.603  1.00  0.00     0.001 A 
ATOM     80  C   UNL A   1      43.238  36.649  34.880  1.00  0.00     0.001 A 
ATOM     81  C   UNL A   1      42.739  36.606  36.181  1.00  0.00     0.000 A 
ENDBRANCH  57  76
BRANCH  69  82
ATOM     82  C   UNL A   1      45.650  28.632  32.861  1.00  0.00    -0.014 A 
ATOM     83  C   UNL A   1      46.848  28.978  32.217  1.00  0.00     0.009 A 
ATOM     84  C   UNL A   1      45.698  27.801  33.991  1.00  0.00     0.009 A 
ATOM     85  C   UNL A   1      48.066  28.480  32.685  1.00  0.00     0.001 A 
ATOM     86  C   UNL A   1      46.919  27.326  34.471  1.00  0.00     0.001 A 
ATOM     87  C   UNL A   1      48.102  27.661  33.812  1.00  0.00     0.000 A 
ENDBRANCH  69  82
ENDBRANCH  43  44
ENDBRANCH  35  38
ENDBRANCH  33  34
ENDBRANCH  32  33
ENDBRANCH  31  32
ENDBRANCH   1  31
TORSDOF 19
ENDMDL
