MODEL 1
REMARK VINA RESULT:     -10.7      0.000      0.000
REMARK SMILES O=C(NCCCCCCNC(=O)[C@H]1C=C[C@@H](NS(=O)(=O)c2ccc(Br)cc2)C1)c1ccc(-c2c3nc(c(-c4ccccc4)c4ccc([nH]4)c(-c4ccccc4)c4nc(c(-c5ccccc5)c5ccc2[nH]5)C=C4)C=C3)cc1
REMARK SMILES IDX 7 1 6 2 5 3 4 4 3 5 1 6 2 7 29 9 30 10 76 11 31 12 75 13
REMARK SMILES IDX 32 14 33 15 34 16 69 17 35 18 74 19 68 20 70 21 36 22 73 23
REMARK SMILES IDX 67 24 66 25 37 27 59 28 44 29 58 30 45 31 48 32 57 33 71 34
REMARK SMILES IDX 46 35 47 36 56 38 72 39 49 40 38 41 39 42 43 43 40 44 42 45
REMARK SMILES IDX 41 46 60 47 61 48 65 49 62 50 64 51 63 52 50 53 51 54 55 55
REMARK SMILES IDX 52 56 54 57 53 58 8 59 9 60 10 61 11 62 12 64 13 65 14 66
REMARK SMILES IDX 28 67 15 68 16 69 17 70 18 72 19 73 20 74 21 75 22 76 27 77
REMARK SMILES IDX 23 78 26 79 24 80 25 81
REMARK H PARENT 3 8 70 26 48 37 10 63 17 71
REMARK Flexibility Score: inf
ROOT
ATOM      1  C   UNL A   1      34.428  32.284  29.234  1.00  0.00     0.002 C 
ENDROOT
BRANCH   1   2
ATOM      2  C   UNL A   1      34.593  33.773  28.908  1.00  0.00     0.002 C 
BRANCH   2   3
ATOM      3  C   UNL A   1      33.306  34.594  28.974  1.00  0.00     0.021 C 
BRANCH   3   4
ATOM      4  C   UNL A   1      33.491  36.004  29.518  1.00  0.00     0.116 C 
BRANCH   4   5
ATOM      5  N   UNL A   1      32.574  36.300  30.609  1.00  0.00    -0.352 N 
ATOM      6  O   UNL A   1      31.642  36.050  32.652  1.00  0.00    -0.269 OA
ATOM      7  C   UNL A   1      32.596  35.851  31.907  1.00  0.00     0.251 C 
ATOM      8  H   UNL A   1      31.833  36.908  30.385  1.00  0.00     0.163 HD
BRANCH   7   9
ATOM      9  C   UNL A   1      33.772  35.101  32.396  1.00  0.00     0.039 A 
ATOM     10  C   UNL A   1      35.014  35.729  32.501  1.00  0.00     0.014 A 
ATOM     11  C   UNL A   1      33.634  33.753  32.736  1.00  0.00     0.014 A 
ATOM     12  C   UNL A   1      36.145  34.972  32.776  1.00  0.00     0.010 A 
ATOM     13  C   UNL A   1      34.760  33.015  33.114  1.00  0.00     0.010 A 
ATOM     14  C   UNL A   1      36.031  33.610  33.099  1.00  0.00    -0.014 A 
BRANCH  14  15
ATOM     15  C   UNL A   1      37.256  32.851  33.458  1.00  0.00     0.031 A 
ATOM     16  C   UNL A   1      37.889  31.883  32.495  1.00  0.00     0.074 A 
ATOM     17  C   UNL A   1      37.828  33.079  34.657  1.00  0.00     0.049 A 
ATOM     18  N   UNL A   1      38.991  31.189  32.633  1.00  0.00    -0.248 NA
ATOM     19  C   UNL A   1      37.195  31.655  31.218  1.00  0.00     0.031 C 
ATOM     20  C   UNL A   1      37.308  33.993  35.677  1.00  0.00     0.029 A 
ATOM     21  N   UNL A   1      38.985  32.590  35.207  1.00  0.00    -0.354 N 
ATOM     22  C   UNL A   1      39.109  30.425  31.477  1.00  0.00     0.074 A 
ATOM     23  C   UNL A   1      37.953  30.722  30.659  1.00  0.00     0.031 C 
ATOM     24  C   UNL A   1      38.176  34.053  36.697  1.00  0.00     0.029 A 
ATOM     25  C   UNL A   1      39.273  33.131  36.436  1.00  0.00     0.049 A 
ATOM     26  H   UNL A   1      39.552  31.919  34.764  1.00  0.00     0.167 HD
ATOM     27  C   UNL A   1      40.092  29.558  31.130  1.00  0.00     0.031 A 
ATOM     28  C   UNL A   1      40.304  32.904  37.270  1.00  0.00     0.031 A 
ATOM     29  C   UNL A   1      41.245  29.270  31.945  1.00  0.00     0.049 A 
ATOM     30  C   UNL A   1      41.361  31.918  36.871  1.00  0.00     0.074 A 
ATOM     31  C   UNL A   1      42.314  28.438  31.661  1.00  0.00     0.029 A 
ATOM     32  N   UNL A   1      41.474  29.798  33.206  1.00  0.00    -0.354 N 
ATOM     33  N   UNL A   1      41.477  31.236  35.758  1.00  0.00    -0.248 NA
ATOM     34  C   UNL A   1      42.431  31.673  37.846  1.00  0.00     0.031 C 
ATOM     35  C   UNL A   1      43.161  28.417  32.774  1.00  0.00     0.029 A 
ATOM     36  C   UNL A   1      42.653  29.287  33.725  1.00  0.00     0.049 A 
ATOM     37  H   UNL A   1      40.887  30.442  33.664  1.00  0.00     0.167 HD
ATOM     38  C   UNL A   1      42.646  30.500  35.887  1.00  0.00     0.074 A 
ATOM     39  C   UNL A   1      43.212  30.835  37.178  1.00  0.00     0.031 C 
ATOM     40  C   UNL A   1      43.201  29.626  35.014  1.00  0.00     0.031 A 
BRANCH  27  41
ATOM     41  C   UNL A   1      39.945  28.826  29.822  1.00  0.00    -0.014 A 
ATOM     42  C   UNL A   1      40.364  29.392  28.609  1.00  0.00     0.009 A 
ATOM     43  C   UNL A   1      39.414  27.525  29.814  1.00  0.00     0.009 A 
ATOM     44  C   UNL A   1      40.219  28.687  27.410  1.00  0.00     0.001 A 
ATOM     45  C   UNL A   1      39.298  26.811  28.620  1.00  0.00     0.001 A 
ATOM     46  C   UNL A   1      39.690  27.396  27.418  1.00  0.00     0.000 A 
ENDBRANCH  27  41
BRANCH  28  47
ATOM     47  C   UNL A   1      40.382  33.628  38.566  1.00  0.00    -0.014 A 
ATOM     48  C   UNL A   1      41.146  34.798  38.685  1.00  0.00     0.009 A 
ATOM     49  C   UNL A   1      39.686  33.153  39.690  1.00  0.00     0.009 A 
ATOM     50  C   UNL A   1      41.231  35.465  39.909  1.00  0.00     0.001 A 
ATOM     51  C   UNL A   1      39.746  33.840  40.903  1.00  0.00     0.001 A 
ATOM     52  C   UNL A   1      40.527  34.989  41.015  1.00  0.00     0.000 A 
ENDBRANCH  28  47
BRANCH  40  53
ATOM     53  C   UNL A   1      44.510  29.003  35.415  1.00  0.00    -0.014 A 
ATOM     54  C   UNL A   1      45.736  29.614  35.109  1.00  0.00     0.009 A 
ATOM     55  C   UNL A   1      44.511  27.790  36.120  1.00  0.00     0.009 A 
ATOM     56  C   UNL A   1      46.938  28.999  35.465  1.00  0.00     0.001 A 
ATOM     57  C   UNL A   1      45.714  27.194  36.502  1.00  0.00     0.001 A 
ATOM     58  C   UNL A   1      46.925  27.793  36.164  1.00  0.00     0.000 A 
ENDBRANCH  40  53
ENDBRANCH  14  15
ENDBRANCH   7   9
ENDBRANCH   4   5
ENDBRANCH   3   4
ENDBRANCH   2   3
ENDBRANCH   1   2
BRANCH   1  59
ATOM     59  C   UNL A   1      34.625  31.330  28.048  1.00  0.00     0.021 C 
BRANCH  59  60
ATOM     60  C   UNL A   1      33.338  31.022  27.285  1.00  0.00     0.116 C 
BRANCH  60  61
ATOM     61  N   UNL A   1      32.765  29.762  27.716  1.00  0.00    -0.356 N 
ATOM     62  C   UNL A   1      32.223  28.740  27.000  1.00  0.00     0.226 C 
ATOM     63  H   UNL A   1      32.769  29.622  28.691  1.00  0.00     0.163 HD
ATOM     64  O   UNL A   1      31.703  27.818  27.635  1.00  0.00    -0.274 OA
BRANCH  62  65
ATOM     65  C   UNL A   1      32.305  28.669  25.472  1.00  0.00     0.103 C 
ATOM     66  C   UNL A   1      33.673  28.487  24.901  1.00  0.00    -0.016 C 
ATOM     67  C   UNL A   1      31.500  27.498  24.896  1.00  0.00     0.042 C 
ATOM     68  C   UNL A   1      33.710  27.490  24.010  1.00  0.00    -0.011 C 
ATOM     69  C   UNL A   1      32.384  26.837  23.820  1.00  0.00     0.093 C 
BRANCH  69  70
ATOM     70  N   UNL A   1      32.446  25.404  24.064  1.00  0.00    -0.204 NA
ATOM     71  H   UNL A   1      31.478  25.089  24.130  1.00  0.00     0.142 HD
BRANCH  70  72
ATOM     72  S   UNL A   1      33.208  24.330  23.035  1.00  0.00     0.241 S 
ATOM     73  O   UNL A   1      32.368  23.160  22.916  1.00  0.00    -0.207 OA
ATOM     74  O   UNL A   1      33.595  25.103  21.875  1.00  0.00    -0.207 OA
BRANCH  72  75
ATOM     75  C   UNL A   1      34.696  23.865  23.884  1.00  0.00     0.082 A 
ATOM     76  C   UNL A   1      34.902  24.310  25.194  1.00  0.00     0.023 A 
ATOM     77  C   UNL A   1      35.655  23.075  23.240  1.00  0.00     0.023 A 
ATOM     78  C   UNL A   1      36.085  23.982  25.858  1.00  0.00     0.017 A 
ATOM     79  C   UNL A   1      36.842  22.759  23.906  1.00  0.00     0.017 A 
ATOM     80  C   UNL A   1      37.052  23.216  25.208  1.00  0.00     0.018 A 
ATOM     81  Br  UNL A   1      38.666  22.798  26.102  1.00  0.00    -0.051 Br
ENDBRANCH  72  75
ENDBRANCH  70  72
ENDBRANCH  69  70
ENDBRANCH  62  65
ENDBRANCH  60  61
ENDBRANCH  59  60
ENDBRANCH   1  59
TORSDOF 16
ENDMDL
MODEL 2
REMARK VINA RESULT:     -10.5      0.697      5.919
REMARK SMILES O=C(NCCCCCCNC(=O)[C@H]1C=C[C@@H](NS(=O)(=O)c2ccc(Br)cc2)C1)c1ccc(-c2c3nc(c(-c4ccccc4)c4ccc([nH]4)c(-c4ccccc4)c4nc(c(-c5ccccc5)c5ccc2[nH]5)C=C4)C=C3)cc1
REMARK SMILES IDX 7 1 6 2 5 3 4 4 3 5 1 6 2 7 29 9 30 10 76 11 31 12 75 13
REMARK SMILES IDX 32 14 33 15 34 16 69 17 35 18 74 19 68 20 70 21 36 22 73 23
REMARK SMILES IDX 67 24 66 25 37 27 59 28 44 29 58 30 45 31 48 32 57 33 71 34
REMARK SMILES IDX 46 35 47 36 56 38 72 39 49 40 38 41 39 42 43 43 40 44 42 45
REMARK SMILES IDX 41 46 60 47 61 48 65 49 62 50 64 51 63 52 50 53 51 54 55 55
REMARK SMILES IDX 52 56 54 57 53 58 8 59 9 60 10 61 11 62 12 64 13 65 14 66
REMARK SMILES IDX 28 67 15 68 16 69 17 70 18 72 19 73 20 74 21 75 22 76 27 77
REMARK SMILES IDX 23 78 26 79 24 80 25 81
REMARK H PARENT 3 8 70 26 48 37 10 63 17 71
REMARK Flexibility Score: inf
ROOT
ATOM      1  C   UNL A   1      34.495  32.413  29.184  1.00  0.00     0.002 C 
ENDROOT
BRANCH   1   2
ATOM      2  C   UNL A   1      34.576  33.889  28.777  1.00  0.00     0.002 C 
BRANCH   2   3
ATOM      3  C   UNL A   1      33.267  34.666  28.907  1.00  0.00     0.021 C 
BRANCH   3   4
ATOM      4  C   UNL A   1      33.393  35.986  29.656  1.00  0.00     0.116 C 
BRANCH   4   5
ATOM      5  N   UNL A   1      32.455  36.085  30.763  1.00  0.00    -0.352 N 
ATOM      6  O   UNL A   1      31.562  35.558  32.771  1.00  0.00    -0.269 OA
ATOM      7  C   UNL A   1      32.529  35.528  32.017  1.00  0.00     0.251 C 
ATOM      8  H   UNL A   1      31.652  36.628  30.590  1.00  0.00     0.163 HD
BRANCH   7   9
ATOM      9  C   UNL A   1      33.780  34.867  32.445  1.00  0.00     0.039 A 
ATOM     10  C   UNL A   1      34.982  35.576  32.459  1.00  0.00     0.014 A 
ATOM     11  C   UNL A   1      33.753  33.521  32.817  1.00  0.00     0.014 A 
ATOM     12  C   UNL A   1      36.175  34.901  32.677  1.00  0.00     0.010 A 
ATOM     13  C   UNL A   1      34.947  32.866  33.136  1.00  0.00     0.010 A 
ATOM     14  C   UNL A   1      36.173  33.542  33.031  1.00  0.00    -0.014 A 
BRANCH  14  15
ATOM     15  C   UNL A   1      37.465  32.872  33.325  1.00  0.00     0.031 A 
ATOM     16  C   UNL A   1      38.189  33.103  34.624  1.00  0.00     0.074 A 
ATOM     17  C   UNL A   1      37.964  32.007  32.420  1.00  0.00     0.049 A 
ATOM     18  N   UNL A   1      39.295  32.550  35.057  1.00  0.00    -0.248 NA
ATOM     19  C   UNL A   1      37.607  34.085  35.552  1.00  0.00     0.031 C 
ATOM     20  C   UNL A   1      37.355  31.701  31.123  1.00  0.00     0.029 A 
ATOM     21  N   UNL A   1      39.074  31.204  32.463  1.00  0.00    -0.354 N 
ATOM     22  C   UNL A   1      39.555  33.133  36.293  1.00  0.00     0.074 A 
ATOM     23  C   UNL A   1      38.505  34.101  36.528  1.00  0.00     0.031 C 
ATOM     24  C   UNL A   1      38.057  30.728  30.526  1.00  0.00     0.029 A 
ATOM     25  C   UNL A   1      39.203  30.394  31.361  1.00  0.00     0.049 A 
ATOM     26  H   UNL A   1      39.715  31.207  33.210  1.00  0.00     0.167 HD
ATOM     27  C   UNL A   1      40.573  32.881  37.152  1.00  0.00     0.031 A 
ATOM     28  C   UNL A   1      40.145  29.486  31.050  1.00  0.00     0.031 A 
ATOM     29  C   UNL A   1      41.613  31.912  36.916  1.00  0.00     0.049 A 
ATOM     30  C   UNL A   1      41.275  29.251  32.007  1.00  0.00     0.074 A 
ATOM     31  C   UNL A   1      42.663  31.557  37.745  1.00  0.00     0.029 A 
ATOM     32  N   UNL A   1      41.737  31.149  35.765  1.00  0.00    -0.354 N 
ATOM     33  N   UNL A   1      41.483  29.782  33.187  1.00  0.00    -0.248 NA
ATOM     34  C   UNL A   1      42.301  28.288  31.587  1.00  0.00     0.031 C 
ATOM     35  C   UNL A   1      43.457  30.623  37.071  1.00  0.00     0.029 A 
ATOM     36  C   UNL A   1      42.863  30.347  35.849  1.00  0.00     0.049 A 
ATOM     37  H   UNL A   1      41.116  31.173  35.002  1.00  0.00     0.167 HD
ATOM     38  C   UNL A   1      42.648  29.199  33.663  1.00  0.00     0.074 A 
ATOM     39  C   UNL A   1      43.090  28.260  32.651  1.00  0.00     0.031 C 
ATOM     40  C   UNL A   1      43.294  29.421  34.833  1.00  0.00     0.031 A 
BRANCH  27  41
ATOM     41  C   UNL A   1      40.636  33.698  38.416  1.00  0.00    -0.014 A 
ATOM     42  C   UNL A   1      41.316  34.924  38.469  1.00  0.00     0.009 A 
ATOM     43  C   UNL A   1      39.962  33.248  39.564  1.00  0.00     0.009 A 
ATOM     44  C   UNL A   1      41.353  35.663  39.655  1.00  0.00     0.001 A 
ATOM     45  C   UNL A   1      39.975  34.002  40.739  1.00  0.00     0.001 A 
ATOM     46  C   UNL A   1      40.680  35.203  40.787  1.00  0.00     0.000 A 
ENDBRANCH  27  41
BRANCH  28  47
ATOM     47  C   UNL A   1      40.055  28.733  29.771  1.00  0.00    -0.014 A 
ATOM     48  C   UNL A   1      40.552  29.286  28.582  1.00  0.00     0.009 A 
ATOM     49  C   UNL A   1      39.476  27.455  29.736  1.00  0.00     0.009 A 
ATOM     50  C   UNL A   1      40.450  28.584  27.379  1.00  0.00     0.001 A 
ATOM     51  C   UNL A   1      39.405  26.741  28.539  1.00  0.00     0.001 A 
ATOM     52  C   UNL A   1      39.882  27.311  27.360  1.00  0.00     0.000 A 
ENDBRANCH  28  47
BRANCH  40  53
ATOM     53  C   UNL A   1      44.527  28.601  35.095  1.00  0.00    -0.014 A 
ATOM     54  C   UNL A   1      44.457  27.365  35.758  1.00  0.00     0.009 A 
ATOM     55  C   UNL A   1      45.776  29.071  34.661  1.00  0.00     0.009 A 
ATOM     56  C   UNL A   1      45.621  26.638  36.017  1.00  0.00     0.001 A 
ATOM     57  C   UNL A   1      46.933  28.326  34.893  1.00  0.00     0.001 A 
ATOM     58  C   UNL A   1      46.855  27.117  35.582  1.00  0.00     0.000 A 
ENDBRANCH  40  53
ENDBRANCH  14  15
ENDBRANCH   7   9
ENDBRANCH   4   5
ENDBRANCH   3   4
ENDBRANCH   2   3
ENDBRANCH   1   2
BRANCH   1  59
ATOM     59  C   UNL A   1      34.831  31.410  28.072  1.00  0.00     0.021 C 
BRANCH  59  60
ATOM     60  C   UNL A   1      33.628  31.012  27.218  1.00  0.00     0.116 C 
BRANCH  60  61
ATOM     61  N   UNL A   1      32.978  29.832  27.752  1.00  0.00    -0.356 N 
ATOM     62  C   UNL A   1      32.341  28.806  27.124  1.00  0.00     0.226 C 
ATOM     63  H   UNL A   1      32.999  29.761  28.734  1.00  0.00     0.163 HD
ATOM     64  O   UNL A   1      31.773  27.973  27.836  1.00  0.00    -0.274 OA
BRANCH  62  65
ATOM     65  C   UNL A   1      32.372  28.623  25.604  1.00  0.00     0.103 C 
ATOM     66  C   UNL A   1      33.685  28.205  25.026  1.00  0.00    -0.016 C 
ATOM     67  C   UNL A   1      31.392  27.547  25.123  1.00  0.00     0.042 C 
ATOM     68  C   UNL A   1      33.554  27.156  24.206  1.00  0.00    -0.011 C 
ATOM     69  C   UNL A   1      32.142  26.694  24.081  1.00  0.00     0.093 C 
BRANCH  69  70
ATOM     70  N   UNL A   1      32.002  25.287  24.423  1.00  0.00    -0.204 NA
ATOM     71  H   UNL A   1      31.075  25.191  24.840  1.00  0.00     0.142 HD
BRANCH  70  72
ATOM     72  S   UNL A   1      32.130  24.052  23.304  1.00  0.00     0.241 S 
ATOM     73  O   UNL A   1      30.986  23.184  23.469  1.00  0.00    -0.207 OA
ATOM     74  O   UNL A   1      32.414  24.696  22.040  1.00  0.00    -0.207 OA
BRANCH  72  75
ATOM     75  C   UNL A   1      33.586  23.155  23.783  1.00  0.00     0.082 A 
ATOM     76  C   UNL A   1      34.843  23.724  23.558  1.00  0.00     0.023 A 
ATOM     77  C   UNL A   1      33.469  21.887  24.363  1.00  0.00     0.023 A 
ATOM     78  C   UNL A   1      35.995  23.012  23.896  1.00  0.00     0.017 A 
ATOM     79  C   UNL A   1      34.626  21.174  24.690  1.00  0.00     0.017 A 
ATOM     80  C   UNL A   1      35.881  21.738  24.452  1.00  0.00     0.018 A 
ATOM     81  Br  UNL A   1      37.445  20.765  24.883  1.00  0.00    -0.051 Br
ENDBRANCH  72  75
ENDBRANCH  70  72
ENDBRANCH  69  70
ENDBRANCH  62  65
ENDBRANCH  60  61
ENDBRANCH  59  60
ENDBRANCH   1  59
TORSDOF 16
ENDMDL
MODEL 3
REMARK VINA RESULT:     -10.5      7.162     12.259
REMARK SMILES O=C(NCCCCCCNC(=O)[C@H]1C=C[C@@H](NS(=O)(=O)c2ccc(Br)cc2)C1)c1ccc(-c2c3nc(c(-c4ccccc4)c4ccc([nH]4)c(-c4ccccc4)c4nc(c(-c5ccccc5)c5ccc2[nH]5)C=C4)C=C3)cc1
REMARK SMILES IDX 7 1 6 2 5 3 4 4 3 5 1 6 2 7 29 9 30 10 76 11 31 12 75 13
REMARK SMILES IDX 32 14 33 15 34 16 69 17 35 18 74 19 68 20 70 21 36 22 73 23
REMARK SMILES IDX 67 24 66 25 37 27 59 28 44 29 58 30 45 31 48 32 57 33 71 34
REMARK SMILES IDX 46 35 47 36 56 38 72 39 49 40 38 41 39 42 43 43 40 44 42 45
REMARK SMILES IDX 41 46 60 47 61 48 65 49 62 50 64 51 63 52 50 53 51 54 55 55
REMARK SMILES IDX 52 56 54 57 53 58 8 59 9 60 10 61 11 62 12 64 13 65 14 66
REMARK SMILES IDX 28 67 15 68 16 69 17 70 18 72 19 73 20 74 21 75 22 76 27 77
REMARK SMILES IDX 23 78 26 79 24 80 25 81
REMARK H PARENT 3 8 70 26 48 37 10 63 17 71
REMARK Flexibility Score: inf
ROOT
ATOM      1  C   UNL A   1      40.998  21.086  27.476  1.00  0.00     0.002 C 
ENDROOT
BRANCH   1   2
ATOM      2  C   UNL A   1      42.126  20.782  26.482  1.00  0.00     0.002 C 
BRANCH   2   3
ATOM      3  C   UNL A   1      42.307  19.304  26.144  1.00  0.00     0.021 C 
BRANCH   3   4
ATOM      4  C   UNL A   1      43.752  18.826  26.177  1.00  0.00     0.116 C 
BRANCH   4   5
ATOM      5  N   UNL A   1      44.276  18.560  24.846  1.00  0.00    -0.352 N 
ATOM      6  O   UNL A   1      45.030  19.074  22.778  1.00  0.00    -0.269 OA
ATOM      7  C   UNL A   1      44.803  19.436  23.928  1.00  0.00     0.251 C 
ATOM      8  H   UNL A   1      44.250  17.617  24.562  1.00  0.00     0.163 HD
BRANCH   7   9
ATOM      9  C   UNL A   1      45.072  20.833  24.330  1.00  0.00     0.039 A 
ATOM     10  C   UNL A   1      45.783  21.104  25.501  1.00  0.00     0.014 A 
ATOM     11  C   UNL A   1      44.594  21.880  23.539  1.00  0.00     0.014 A 
ATOM     12  C   UNL A   1      45.865  22.409  25.968  1.00  0.00     0.010 A 
ATOM     13  C   UNL A   1      44.769  23.202  23.960  1.00  0.00     0.010 A 
ATOM     14  C   UNL A   1      45.371  23.475  25.198  1.00  0.00    -0.014 A 
BRANCH  14  15
ATOM     15  C   UNL A   1      45.541  24.863  25.698  1.00  0.00     0.031 A 
ATOM     16  C   UNL A   1      44.409  25.603  26.359  1.00  0.00     0.074 A 
ATOM     17  C   UNL A   1      46.753  25.442  25.593  1.00  0.00     0.049 A 
ATOM     18  N   UNL A   1      44.413  26.795  26.902  1.00  0.00    -0.248 NA
ATOM     19  C   UNL A   1      43.104  24.925  26.411  1.00  0.00     0.031 C 
ATOM     20  C   UNL A   1      47.929  24.827  24.971  1.00  0.00     0.029 A 
ATOM     21  N   UNL A   1      47.209  26.658  26.033  1.00  0.00    -0.354 N 
ATOM     22  C   UNL A   1      43.111  27.021  27.335  1.00  0.00     0.074 A 
ATOM     23  C   UNL A   1      42.339  25.853  26.969  1.00  0.00     0.031 C 
ATOM     24  C   UNL A   1      48.985  25.637  25.131  1.00  0.00     0.029 A 
ATOM     25  C   UNL A   1      48.548  26.855  25.800  1.00  0.00     0.049 A 
ATOM     26  H   UNL A   1      46.632  27.324  26.473  1.00  0.00     0.167 HD
ATOM     27  C   UNL A   1      42.608  28.102  27.980  1.00  0.00     0.031 A 
ATOM     28  C   UNL A   1      49.339  27.904  26.085  1.00  0.00     0.031 A 
ATOM     29  C   UNL A   1      43.382  29.260  28.348  1.00  0.00     0.049 A 
ATOM     30  C   UNL A   1      48.747  29.098  26.773  1.00  0.00     0.074 A 
ATOM     31  C   UNL A   1      42.971  30.387  29.040  1.00  0.00     0.029 A 
ATOM     32  N   UNL A   1      44.723  29.443  28.048  1.00  0.00    -0.354 N 
ATOM     33  N   UNL A   1      47.525  29.278  27.210  1.00  0.00    -0.248 NA
ATOM     34  C   UNL A   1      49.648  30.233  27.008  1.00  0.00     0.031 C 
ATOM     35  C   UNL A   1      44.047  31.277  29.106  1.00  0.00     0.029 A 
ATOM     36  C   UNL A   1      45.147  30.677  28.514  1.00  0.00     0.049 A 
ATOM     37  H   UNL A   1      45.290  28.793  27.575  1.00  0.00     0.167 HD
ATOM     38  C   UNL A   1      47.515  30.536  27.795  1.00  0.00     0.074 A 
ATOM     39  C   UNL A   1      48.859  31.064  27.674  1.00  0.00     0.031 C 
ATOM     40  C   UNL A   1      46.486  31.193  28.382  1.00  0.00     0.031 A 
BRANCH  27  41
ATOM     41  C   UNL A   1      41.136  28.101  28.298  1.00  0.00    -0.014 A 
ATOM     42  C   UNL A   1      40.202  28.739  27.468  1.00  0.00     0.009 A 
ATOM     43  C   UNL A   1      40.673  27.409  29.430  1.00  0.00     0.009 A 
ATOM     44  C   UNL A   1      38.840  28.717  27.786  1.00  0.00     0.001 A 
ATOM     45  C   UNL A   1      39.310  27.363  29.729  1.00  0.00     0.001 A 
ATOM     46  C   UNL A   1      38.396  28.026  28.913  1.00  0.00     0.000 A 
ENDBRANCH  27  41
BRANCH  28  47
ATOM     47  C   UNL A   1      50.779  27.869  25.716  1.00  0.00    -0.014 A 
ATOM     48  C   UNL A   1      51.733  27.371  26.616  1.00  0.00     0.009 A 
ATOM     49  C   UNL A   1      51.204  28.328  24.459  1.00  0.00     0.009 A 
ATOM     50  C   UNL A   1      53.087  27.355  26.273  1.00  0.00     0.001 A 
ATOM     51  C   UNL A   1      52.553  28.280  24.107  1.00  0.00     0.001 A 
ATOM     52  C   UNL A   1      53.495  27.804  25.017  1.00  0.00     0.000 A 
ENDBRANCH  28  47
BRANCH  40  53
ATOM     53  C   UNL A   1      46.789  32.543  28.972  1.00  0.00    -0.014 A 
ATOM     54  C   UNL A   1      47.233  32.679  30.297  1.00  0.00     0.009 A 
ATOM     55  C   UNL A   1      46.638  33.693  28.183  1.00  0.00     0.009 A 
ATOM     56  C   UNL A   1      47.478  33.947  30.831  1.00  0.00     0.001 A 
ATOM     57  C   UNL A   1      46.914  34.955  28.710  1.00  0.00     0.001 A 
ATOM     58  C   UNL A   1      47.321  35.081  30.036  1.00  0.00     0.000 A 
ENDBRANCH  40  53
ENDBRANCH  14  15
ENDBRANCH   7   9
ENDBRANCH   4   5
ENDBRANCH   3   4
ENDBRANCH   2   3
ENDBRANCH   1   2
BRANCH   1  59
ATOM     59  C   UNL A   1      40.705  22.576  27.697  1.00  0.00     0.021 C 
BRANCH  59  60
ATOM     60  C   UNL A   1      39.513  23.094  26.894  1.00  0.00     0.116 C 
BRANCH  60  61
ATOM     61  N   UNL A   1      39.098  22.128  25.896  1.00  0.00    -0.356 N 
ATOM     62  C   UNL A   1      37.861  21.807  25.429  1.00  0.00     0.226 C 
ATOM     63  H   UNL A   1      39.835  21.619  25.487  1.00  0.00     0.163 HD
ATOM     64  O   UNL A   1      37.782  20.858  24.644  1.00  0.00    -0.274 OA
BRANCH  62  65
ATOM     65  C   UNL A   1      36.610  22.617  25.782  1.00  0.00     0.103 C 
ATOM     66  C   UNL A   1      36.428  23.894  25.029  1.00  0.00    -0.016 C 
ATOM     67  C   UNL A   1      35.315  21.840  25.520  1.00  0.00     0.042 C 
ATOM     68  C   UNL A   1      35.198  23.993  24.511  1.00  0.00    -0.011 C 
ATOM     69  C   UNL A   1      34.342  22.815  24.829  1.00  0.00     0.093 C 
BRANCH  69  70
ATOM     70  N   UNL A   1      33.811  22.191  23.626  1.00  0.00    -0.204 NA
ATOM     71  H   UNL A   1      34.447  21.425  23.405  1.00  0.00     0.142 HD
BRANCH  70  72
ATOM     72  S   UNL A   1      32.271  21.551  23.527  1.00  0.00     0.241 S 
ATOM     73  O   UNL A   1      31.451  22.212  24.516  1.00  0.00    -0.207 OA
ATOM     74  O   UNL A   1      31.925  21.574  22.122  1.00  0.00    -0.207 OA
BRANCH  72  75
ATOM     75  C   UNL A   1      32.455  19.850  24.001  1.00  0.00     0.082 A 
ATOM     76  C   UNL A   1      32.566  19.527  25.358  1.00  0.00     0.023 A 
ATOM     77  C   UNL A   1      32.504  18.850  23.023  1.00  0.00     0.023 A 
ATOM     78  C   UNL A   1      32.748  18.197  25.740  1.00  0.00     0.017 A 
ATOM     79  C   UNL A   1      32.698  17.521  23.411  1.00  0.00     0.017 A 
ATOM     80  C   UNL A   1      32.822  17.202  24.765  1.00  0.00     0.018 A 
ATOM     81  Br  UNL A   1      33.098  15.406  25.286  1.00  0.00    -0.051 Br
ENDBRANCH  72  75
ENDBRANCH  70  72
ENDBRANCH  69  70
ENDBRANCH  62  65
ENDBRANCH  60  61
ENDBRANCH  59  60
ENDBRANCH   1  59
TORSDOF 16
ENDMDL
