MODEL 1
REMARK VINA RESULT:     -12.1      0.000      0.000
REMARK SMILES O=C(NCCCCCCNC(=O)c1cn(-c2cc(F)cc(F)c2F)c(=O)[nH]c1=O)c1ccc(-c2c3nc(c(-c4ccccc4)c4ccc([nH]4)c(-c4ccccc4)c4nc(c(-c5ccccc5)c5ccc2[nH]5)C=C4)C=C3)cc1
REMARK SMILES IDX 6 1 5 2 4 3 3 4 1 5 2 6 30 8 31 9 77 10 32 11 76 12 33 13
REMARK SMILES IDX 34 14 35 15 70 16 36 17 75 18 69 19 71 20 37 21 74 22 68 23
REMARK SMILES IDX 67 24 38 26 60 27 45 28 59 29 46 30 49 31 58 32 72 33 47 34
REMARK SMILES IDX 48 35 57 37 73 38 50 39 39 40 40 41 44 42 41 43 43 44 42 45
REMARK SMILES IDX 61 46 62 47 66 48 63 49 65 50 64 51 51 52 52 53 56 54 53 55
REMARK SMILES IDX 55 56 54 57 7 58 8 59 9 60 10 61 11 62 12 64 13 65 14 66
REMARK SMILES IDX 28 67 15 68 27 69 29 70 25 71 26 73 16 74 17 75 23 76 18 77
REMARK SMILES IDX 21 78 24 79 19 80 20 81 22 82
REMARK H PARENT 3 7 71 25 49 36 10 63 27 72
REMARK Flexibility Score: inf
ROOT
ATOM      1  C   UNL A   1      31.619  30.495  25.826  1.00  0.00     0.002 C 
ENDROOT
BRANCH   1   2
ATOM      2  C   UNL A   1      31.400  31.852  26.501  1.00  0.00     0.021 C 
BRANCH   2   3
ATOM      3  C   UNL A   1      32.609  32.430  27.231  1.00  0.00     0.116 C 
BRANCH   3   4
ATOM      4  N   UNL A   1      32.435  33.832  27.566  1.00  0.00    -0.352 N 
ATOM      5  O   UNL A   1      32.653  35.728  28.752  1.00  0.00    -0.269 OA
ATOM      6  C   UNL A   1      33.066  34.596  28.513  1.00  0.00     0.251 C 
ATOM      7  H   UNL A   1      31.761  34.307  27.028  1.00  0.00     0.163 HD
BRANCH   6   8
ATOM      8  C   UNL A   1      34.235  34.078  29.259  1.00  0.00     0.039 A 
ATOM      9  C   UNL A   1      35.516  34.348  28.763  1.00  0.00     0.014 A 
ATOM     10  C   UNL A   1      34.084  33.265  30.386  1.00  0.00     0.014 A 
ATOM     11  C   UNL A   1      36.642  33.824  29.403  1.00  0.00     0.010 A 
ATOM     12  C   UNL A   1      35.208  32.785  31.056  1.00  0.00     0.010 A 
ATOM     13  C   UNL A   1      36.496  33.043  30.559  1.00  0.00    -0.014 A 
BRANCH  13  14
ATOM     14  C   UNL A   1      37.673  32.444  31.235  1.00  0.00     0.031 A 
ATOM     15  C   UNL A   1      38.356  31.249  30.630  1.00  0.00     0.074 A 
ATOM     16  C   UNL A   1      38.100  32.937  32.412  1.00  0.00     0.049 A 
ATOM     17  N   UNL A   1      39.345  30.536  31.106  1.00  0.00    -0.248 NA
ATOM     18  C   UNL A   1      37.848  30.781  29.330  1.00  0.00     0.031 C 
ATOM     19  C   UNL A   1      37.522  34.089  33.104  1.00  0.00     0.029 A 
ATOM     20  N   UNL A   1      39.116  32.523  33.237  1.00  0.00    -0.354 N 
ATOM     21  C   UNL A   1      39.561  29.526  30.178  1.00  0.00     0.074 A 
ATOM     22  C   UNL A   1      38.580  29.695  29.130  1.00  0.00     0.031 C 
ATOM     23  C   UNL A   1      38.204  34.301  34.240  1.00  0.00     0.029 A 
ATOM     24  C   UNL A   1      39.237  33.277  34.378  1.00  0.00     0.049 A 
ATOM     25  H   UNL A   1      39.701  31.759  33.032  1.00  0.00     0.167 HD
ATOM     26  C   UNL A   1      40.503  28.553  30.192  1.00  0.00     0.031 A 
ATOM     27  C   UNL A   1      40.076  33.154  35.426  1.00  0.00     0.031 A 
ATOM     28  C   UNL A   1      41.497  28.406  31.220  1.00  0.00     0.049 A 
ATOM     29  C   UNL A   1      41.086  32.044  35.443  1.00  0.00     0.074 A 
ATOM     30  C   UNL A   1      42.549  27.509  31.271  1.00  0.00     0.029 A 
ATOM     31  N   UNL A   1      41.559  29.166  32.377  1.00  0.00    -0.354 N 
ATOM     32  N   UNL A   1      41.315  31.128  34.533  1.00  0.00    -0.248 NA
ATOM     33  C   UNL A   1      41.950  31.942  36.629  1.00  0.00     0.031 C 
ATOM     34  C   UNL A   1      43.210  27.683  32.489  1.00  0.00     0.029 A 
ATOM     35  C   UNL A   1      42.604  28.727  33.171  1.00  0.00     0.049 A 
ATOM     36  H   UNL A   1      40.951  29.907  32.600  1.00  0.00     0.167 HD
ATOM     37  C   UNL A   1      42.351  30.349  35.028  1.00  0.00     0.074 A 
ATOM     38  C   UNL A   1      42.717  30.905  36.315  1.00  0.00     0.031 C 
ATOM     39  C   UNL A   1      42.946  29.272  34.460  1.00  0.00     0.031 A 
BRANCH  26  40
ATOM     40  C   UNL A   1      40.501  27.558  29.067  1.00  0.00    -0.014 A 
ATOM     41  C   UNL A   1      41.244  27.824  27.905  1.00  0.00     0.009 A 
ATOM     42  C   UNL A   1      39.719  26.394  29.122  1.00  0.00     0.009 A 
ATOM     43  C   UNL A   1      41.203  26.946  26.821  1.00  0.00     0.001 A 
ATOM     44  C   UNL A   1      39.704  25.503  28.047  1.00  0.00     0.001 A 
ATOM     45  C   UNL A   1      40.439  25.783  26.896  1.00  0.00     0.000 A 
ENDBRANCH  26  40
BRANCH  27  46
ATOM     46  C   UNL A   1      39.985  34.136  36.536  1.00  0.00    -0.014 A 
ATOM     47  C   UNL A   1      39.126  33.910  37.624  1.00  0.00     0.009 A 
ATOM     48  C   UNL A   1      40.693  35.344  36.469  1.00  0.00     0.009 A 
ATOM     49  C   UNL A   1      38.953  34.888  38.604  1.00  0.00     0.001 A 
ATOM     50  C   UNL A   1      40.533  36.312  37.464  1.00  0.00     0.001 A 
ATOM     51  C   UNL A   1      39.656  36.089  38.524  1.00  0.00     0.000 A 
ENDBRANCH  27  46
BRANCH  39  52
ATOM     52  C   UNL A   1      44.052  28.593  35.218  1.00  0.00    -0.014 A 
ATOM     53  C   UNL A   1      43.748  27.576  36.136  1.00  0.00     0.009 A 
ATOM     54  C   UNL A   1      45.374  29.050  35.117  1.00  0.00     0.009 A 
ATOM     55  C   UNL A   1      44.743  27.045  36.958  1.00  0.00     0.001 A 
ATOM     56  C   UNL A   1      46.372  28.499  35.925  1.00  0.00     0.001 A 
ATOM     57  C   UNL A   1      46.053  27.507  36.852  1.00  0.00     0.000 A 
ENDBRANCH  39  52
ENDBRANCH  13  14
ENDBRANCH   6   8
ENDBRANCH   3   4
ENDBRANCH   2   3
ENDBRANCH   1   2
BRANCH   1  58
ATOM     58  C   UNL A   1      32.493  29.497  26.589  1.00  0.00     0.002 C 
BRANCH  58  59
ATOM     59  C   UNL A   1      31.767  28.286  27.180  1.00  0.00     0.021 C 
BRANCH  59  60
ATOM     60  C   UNL A   1      31.706  27.051  26.286  1.00  0.00     0.116 C 
BRANCH  60  61
ATOM     61  N   UNL A   1      30.794  26.027  26.774  1.00  0.00    -0.352 N 
ATOM     62  C   UNL A   1      30.575  24.758  26.303  1.00  0.00     0.258 C 
ATOM     63  H   UNL A   1      30.256  26.281  27.557  1.00  0.00     0.163 HD
ATOM     64  O   UNL A   1      29.789  24.011  26.878  1.00  0.00    -0.269 OA
BRANCH  62  65
ATOM     65  C   UNL A   1      31.323  24.315  25.110  1.00  0.00     0.121 A 
ATOM     66  C   UNL A   1      32.453  23.612  25.275  1.00  0.00     0.116 A 
ATOM     67  C   UNL A   1      30.910  24.676  23.747  1.00  0.00     0.266 A 
ATOM     68  N   UNL A   1      33.328  23.337  24.231  1.00  0.00    -0.265 N 
ATOM     69  N   UNL A   1      31.744  24.251  22.752  1.00  0.00    -0.273 N 
ATOM     70  O   UNL A   1      29.922  25.365  23.503  1.00  0.00    -0.268 OA
ATOM     71  C   UNL A   1      32.971  23.651  22.908  1.00  0.00     0.333 A 
ATOM     72  H   UNL A   1      31.435  24.389  21.827  1.00  0.00     0.175 HD
ATOM     73  O   UNL A   1      33.657  23.431  21.912  1.00  0.00    -0.247 OA
BRANCH  68  74
ATOM     74  C   UNL A   1      34.646  22.824  24.507  1.00  0.00     0.092 A 
ATOM     75  C   UNL A   1      35.697  23.706  24.806  1.00  0.00     0.069 A 
ATOM     76  C   UNL A   1      34.902  21.447  24.586  1.00  0.00     0.183 A 
ATOM     77  C   UNL A   1      36.945  23.215  25.186  1.00  0.00     0.128 A 
ATOM     78  C   UNL A   1      36.166  20.975  24.942  1.00  0.00     0.163 A 
ATOM     79  F   UNL A   1      33.941  20.557  24.294  1.00  0.00    -0.201 F 
ATOM     80  F   UNL A   1      37.913  24.076  25.523  1.00  0.00    -0.207 F 
ATOM     81  C   UNL A   1      37.193  21.852  25.253  1.00  0.00     0.081 A 
ATOM     82  F   UNL A   1      36.393  19.656  25.001  1.00  0.00    -0.204 F 
ENDBRANCH  68  74
ENDBRANCH  62  65
ENDBRANCH  60  61
ENDBRANCH  59  60
ENDBRANCH  58  59
ENDBRANCH   1  58
TORSDOF 14
ENDMDL
MODEL 2
REMARK VINA RESULT:     -11.8      3.800      7.537
REMARK SMILES O=C(NCCCCCCNC(=O)c1cn(-c2cc(F)cc(F)c2F)c(=O)[nH]c1=O)c1ccc(-c2c3nc(c(-c4ccccc4)c4ccc([nH]4)c(-c4ccccc4)c4nc(c(-c5ccccc5)c5ccc2[nH]5)C=C4)C=C3)cc1
REMARK SMILES IDX 6 1 5 2 4 3 3 4 1 5 2 6 30 8 31 9 77 10 32 11 76 12 33 13
REMARK SMILES IDX 34 14 35 15 70 16 36 17 75 18 69 19 71 20 37 21 74 22 68 23
REMARK SMILES IDX 67 24 38 26 60 27 45 28 59 29 46 30 49 31 58 32 72 33 47 34
REMARK SMILES IDX 48 35 57 37 73 38 50 39 39 40 40 41 44 42 41 43 43 44 42 45
REMARK SMILES IDX 61 46 62 47 66 48 63 49 65 50 64 51 51 52 52 53 56 54 53 55
REMARK SMILES IDX 55 56 54 57 7 58 8 59 9 60 10 61 11 62 12 64 13 65 14 66
REMARK SMILES IDX 28 67 15 68 27 69 29 70 25 71 26 73 16 74 17 75 23 76 18 77
REMARK SMILES IDX 21 78 24 79 19 80 20 81 22 82
REMARK H PARENT 3 7 71 25 49 36 10 63 27 72
REMARK Flexibility Score: inf
ROOT
ATOM      1  C   UNL A   1      32.775  27.744  25.209  1.00  0.00     0.002 C 
ENDROOT
BRANCH   1   2
ATOM      2  C   UNL A   1      32.413  28.385  26.552  1.00  0.00     0.021 C 
BRANCH   2   3
ATOM      3  C   UNL A   1      33.587  28.687  27.479  1.00  0.00     0.116 C 
BRANCH   3   4
ATOM      4  N   UNL A   1      33.644  30.085  27.864  1.00  0.00    -0.352 N 
ATOM      5  O   UNL A   1      34.459  31.943  28.828  1.00  0.00    -0.269 OA
ATOM      6  C   UNL A   1      34.670  30.804  28.420  1.00  0.00     0.251 C 
ATOM      7  H   UNL A   1      32.819  30.596  27.698  1.00  0.00     0.163 HD
BRANCH   6   8
ATOM      8  C   UNL A   1      36.028  30.229  28.544  1.00  0.00     0.039 A 
ATOM      9  C   UNL A   1      36.433  29.734  29.789  1.00  0.00     0.014 A 
ATOM     10  C   UNL A   1      36.931  30.248  27.476  1.00  0.00     0.014 A 
ATOM     11  C   UNL A   1      37.728  29.241  29.961  1.00  0.00     0.010 A 
ATOM     12  C   UNL A   1      38.207  29.707  27.633  1.00  0.00     0.010 A 
ATOM     13  C   UNL A   1      38.624  29.218  28.882  1.00  0.00    -0.014 A 
BRANCH  13  14
ATOM     14  C   UNL A   1      40.016  28.735  29.048  1.00  0.00     0.031 A 
ATOM     15  C   UNL A   1      41.079  29.672  29.552  1.00  0.00     0.074 A 
ATOM     16  C   UNL A   1      40.341  27.476  28.704  1.00  0.00     0.049 A 
ATOM     17  N   UNL A   1      42.364  29.464  29.690  1.00  0.00    -0.248 NA
ATOM     18  C   UNL A   1      40.644  31.026  29.932  1.00  0.00     0.031 C 
ATOM     19  C   UNL A   1      39.404  26.471  28.200  1.00  0.00     0.029 A 
ATOM     20  N   UNL A   1      41.552  26.830  28.718  1.00  0.00    -0.354 N 
ATOM     21  C   UNL A   1      42.891  30.664  30.148  1.00  0.00     0.074 A 
ATOM     22  C   UNL A   1      41.797  31.605  30.232  1.00  0.00     0.031 C 
ATOM     23  C   UNL A   1      40.073  25.330  27.971  1.00  0.00     0.029 A 
ATOM     24  C   UNL A   1      41.488  25.534  28.269  1.00  0.00     0.049 A 
ATOM     25  H   UNL A   1      42.387  27.255  29.020  1.00  0.00     0.167 HD
ATOM     26  C   UNL A   1      44.172  30.950  30.483  1.00  0.00     0.031 A 
ATOM     27  C   UNL A   1      42.459  24.614  28.103  1.00  0.00     0.031 A 
ATOM     28  C   UNL A   1      45.252  30.003  30.428  1.00  0.00     0.049 A 
ATOM     29  C   UNL A   1      43.879  24.964  28.440  1.00  0.00     0.074 A 
ATOM     30  C   UNL A   1      46.563  30.176  30.837  1.00  0.00     0.029 A 
ATOM     31  N   UNL A   1      45.151  28.714  29.931  1.00  0.00    -0.354 N 
ATOM     32  N   UNL A   1      44.356  26.085  28.924  1.00  0.00    -0.248 NA
ATOM     33  C   UNL A   1      44.897  23.929  28.206  1.00  0.00     0.031 C 
ATOM     34  C   UNL A   1      47.271  29.012  30.527  1.00  0.00     0.029 A 
ATOM     35  C   UNL A   1      46.388  28.095  29.978  1.00  0.00     0.049 A 
ATOM     36  H   UNL A   1      44.324  28.301  29.594  1.00  0.00     0.167 HD
ATOM     37  C   UNL A   1      45.723  25.890  29.062  1.00  0.00     0.074 A 
ATOM     38  C   UNL A   1      46.001  24.538  28.621  1.00  0.00     0.031 C 
ATOM     39  C   UNL A   1      46.660  26.757  29.517  1.00  0.00     0.031 A 
BRANCH  26  40
ATOM     40  C   UNL A   1      44.485  32.350  30.930  1.00  0.00    -0.014 A 
ATOM     41  C   UNL A   1      44.958  33.286  29.996  1.00  0.00     0.009 A 
ATOM     42  C   UNL A   1      44.377  32.728  32.277  1.00  0.00     0.009 A 
ATOM     43  C   UNL A   1      45.319  34.572  30.402  1.00  0.00     0.001 A 
ATOM     44  C   UNL A   1      44.711  34.024  32.675  1.00  0.00     0.001 A 
ATOM     45  C   UNL A   1      45.187  34.942  31.739  1.00  0.00     0.000 A 
ENDBRANCH  26  40
BRANCH  27  46
ATOM     46  C   UNL A   1      42.091  23.266  27.600  1.00  0.00    -0.014 A 
ATOM     47  C   UNL A   1      42.152  22.973  26.228  1.00  0.00     0.009 A 
ATOM     48  C   UNL A   1      41.595  22.295  28.482  1.00  0.00     0.009 A 
ATOM     49  C   UNL A   1      41.692  21.746  25.745  1.00  0.00     0.001 A 
ATOM     50  C   UNL A   1      41.156  21.060  27.997  1.00  0.00     0.001 A 
ATOM     51  C   UNL A   1      41.194  20.791  26.630  1.00  0.00     0.000 A 
ENDBRANCH  27  46
BRANCH  39  52
ATOM     52  C   UNL A   1      48.090  26.297  29.557  1.00  0.00    -0.014 A 
ATOM     53  C   UNL A   1      48.570  25.603  30.679  1.00  0.00     0.009 A 
ATOM     54  C   UNL A   1      48.988  26.665  28.545  1.00  0.00     0.009 A 
ATOM     55  C   UNL A   1      49.928  25.307  30.798  1.00  0.00     0.001 A 
ATOM     56  C   UNL A   1      50.344  26.345  28.658  1.00  0.00     0.001 A 
ATOM     57  C   UNL A   1      50.813  25.678  29.788  1.00  0.00     0.000 A 
ENDBRANCH  39  52
ENDBRANCH  13  14
ENDBRANCH   6   8
ENDBRANCH   3   4
ENDBRANCH   2   3
ENDBRANCH   1   2
BRANCH   1  58
ATOM     58  C   UNL A   1      33.817  28.486  24.369  1.00  0.00     0.002 C 
BRANCH  58  59
ATOM     59  C   UNL A   1      33.639  28.400  22.851  1.00  0.00     0.021 C 
BRANCH  59  60
ATOM     60  C   UNL A   1      32.379  27.685  22.373  1.00  0.00     0.116 C 
BRANCH  60  61
ATOM     61  N   UNL A   1      32.630  26.703  21.329  1.00  0.00    -0.352 N 
ATOM     62  C   UNL A   1      32.875  25.358  21.437  1.00  0.00     0.258 C 
ATOM     63  H   UNL A   1      32.622  27.055  20.410  1.00  0.00     0.163 HD
ATOM     64  O   UNL A   1      33.021  24.673  20.429  1.00  0.00    -0.269 OA
BRANCH  62  65
ATOM     65  C   UNL A   1      32.932  24.764  22.786  1.00  0.00     0.121 A 
ATOM     66  C   UNL A   1      34.102  24.290  23.239  1.00  0.00     0.116 A 
ATOM     67  C   UNL A   1      31.736  24.610  23.626  1.00  0.00     0.266 A 
ATOM     68  N   UNL A   1      34.209  23.530  24.398  1.00  0.00    -0.265 N 
ATOM     69  N   UNL A   1      31.939  23.977  24.820  1.00  0.00    -0.273 N 
ATOM     70  O   UNL A   1      30.614  24.962  23.272  1.00  0.00    -0.268 OA
ATOM     71  C   UNL A   1      33.096  23.366  25.241  1.00  0.00     0.333 A 
ATOM     72  H   UNL A   1      31.177  23.956  25.444  1.00  0.00     0.175 HD
ATOM     73  O   UNL A   1      33.086  22.736  26.297  1.00  0.00    -0.247 OA
BRANCH  68  74
ATOM     74  C   UNL A   1      35.428  22.821  24.689  1.00  0.00     0.092 A 
ATOM     75  C   UNL A   1      36.560  23.519  25.141  1.00  0.00     0.069 A 
ATOM     76  C   UNL A   1      35.500  21.421  24.633  1.00  0.00     0.183 A 
ATOM     77  C   UNL A   1      37.706  22.829  25.535  1.00  0.00     0.128 A 
ATOM     78  C   UNL A   1      36.666  20.750  25.006  1.00  0.00     0.163 A 
ATOM     79  F   UNL A   1      34.456  20.702  24.193  1.00  0.00    -0.201 F 
ATOM     80  F   UNL A   1      38.749  23.514  26.017  1.00  0.00    -0.207 F 
ATOM     81  C   UNL A   1      37.772  21.446  25.467  1.00  0.00     0.081 A 
ATOM     82  F   UNL A   1      36.718  19.413  24.934  1.00  0.00    -0.204 F 
ENDBRANCH  68  74
ENDBRANCH  62  65
ENDBRANCH  60  61
ENDBRANCH  59  60
ENDBRANCH  58  59
ENDBRANCH   1  58
TORSDOF 14
ENDMDL
MODEL 3
REMARK VINA RESULT:     -11.8      3.108      7.531
REMARK SMILES O=C(NCCCCCCNC(=O)c1cn(-c2cc(F)cc(F)c2F)c(=O)[nH]c1=O)c1ccc(-c2c3nc(c(-c4ccccc4)c4ccc([nH]4)c(-c4ccccc4)c4nc(c(-c5ccccc5)c5ccc2[nH]5)C=C4)C=C3)cc1
REMARK SMILES IDX 6 1 5 2 4 3 3 4 1 5 2 6 30 8 31 9 77 10 32 11 76 12 33 13
REMARK SMILES IDX 34 14 35 15 70 16 36 17 75 18 69 19 71 20 37 21 74 22 68 23
REMARK SMILES IDX 67 24 38 26 60 27 45 28 59 29 46 30 49 31 58 32 72 33 47 34
REMARK SMILES IDX 48 35 57 37 73 38 50 39 39 40 40 41 44 42 41 43 43 44 42 45
REMARK SMILES IDX 61 46 62 47 66 48 63 49 65 50 64 51 51 52 52 53 56 54 53 55
REMARK SMILES IDX 55 56 54 57 7 58 8 59 9 60 10 61 11 62 12 64 13 65 14 66
REMARK SMILES IDX 28 67 15 68 27 69 29 70 25 71 26 73 16 74 17 75 23 76 18 77
REMARK SMILES IDX 21 78 24 79 19 80 20 81 22 82
REMARK H PARENT 3 7 71 25 49 36 10 63 27 72
REMARK Flexibility Score: inf
ROOT
ATOM      1  C   UNL A   1      34.757  23.616  25.663  1.00  0.00     0.002 C 
ENDROOT
BRANCH   1   2
ATOM      2  C   UNL A   1      35.795  23.073  24.676  1.00  0.00     0.021 C 
BRANCH   2   3
ATOM      3  C   UNL A   1      37.208  23.630  24.828  1.00  0.00     0.116 C 
BRANCH   3   4
ATOM      4  N   UNL A   1      38.134  22.651  25.367  1.00  0.00    -0.352 N 
ATOM      5  O   UNL A   1      39.976  21.880  26.398  1.00  0.00    -0.269 OA
ATOM      6  C   UNL A   1      39.216  22.823  26.191  1.00  0.00     0.251 C 
ATOM      7  H   UNL A   1      37.957  21.720  25.100  1.00  0.00     0.163 HD
BRANCH   6   8
ATOM      8  C   UNL A   1      39.489  24.128  26.833  1.00  0.00     0.039 A 
ATOM      9  C   UNL A   1      40.230  25.080  26.123  1.00  0.00     0.014 A 
ATOM     10  C   UNL A   1      39.097  24.393  28.149  1.00  0.00     0.014 A 
ATOM     11  C   UNL A   1      40.562  26.299  26.719  1.00  0.00     0.010 A 
ATOM     12  C   UNL A   1      39.382  25.631  28.725  1.00  0.00     0.010 A 
ATOM     13  C   UNL A   1      40.134  26.587  28.023  1.00  0.00    -0.014 A 
BRANCH  13  14
ATOM     14  C   UNL A   1      40.505  27.858  28.691  1.00  0.00     0.031 A 
ATOM     15  C   UNL A   1      41.875  28.017  29.290  1.00  0.00     0.074 A 
ATOM     16  C   UNL A   1      39.604  28.850  28.805  1.00  0.00     0.049 A 
ATOM     17  N   UNL A   1      42.361  29.016  29.982  1.00  0.00    -0.248 NA
ATOM     18  C   UNL A   1      42.815  26.899  29.105  1.00  0.00     0.031 C 
ATOM     19  C   UNL A   1      38.243  28.819  28.270  1.00  0.00     0.029 A 
ATOM     20  N   UNL A   1      39.697  30.076  29.416  1.00  0.00    -0.354 N 
ATOM     21  C   UNL A   1      43.651  28.637  30.333  1.00  0.00     0.074 A 
ATOM     22  C   UNL A   1      43.860  27.306  29.810  1.00  0.00     0.031 C 
ATOM     23  C   UNL A   1      37.634  29.979  28.561  1.00  0.00     0.029 A 
ATOM     24  C   UNL A   1      38.544  30.817  29.338  1.00  0.00     0.049 A 
ATOM     25  H   UNL A   1      40.511  30.393  29.868  1.00  0.00     0.167 HD
ATOM     26  C   UNL A   1      44.581  29.344  31.018  1.00  0.00     0.031 A 
ATOM     27  C   UNL A   1      38.244  32.030  29.843  1.00  0.00     0.031 A 
ATOM     28  C   UNL A   1      44.381  30.679  31.511  1.00  0.00     0.049 A 
ATOM     29  C   UNL A   1      39.275  32.779  30.636  1.00  0.00     0.074 A 
ATOM     30  C   UNL A   1      45.297  31.508  32.133  1.00  0.00     0.029 A 
ATOM     31  N   UNL A   1      43.186  31.377  31.444  1.00  0.00    -0.354 N 
ATOM     32  N   UNL A   1      40.509  32.433  30.914  1.00  0.00    -0.248 NA
ATOM     33  C   UNL A   1      38.878  34.082  31.189  1.00  0.00     0.031 C 
ATOM     34  C   UNL A   1      44.639  32.684  32.501  1.00  0.00     0.029 A 
ATOM     35  C   UNL A   1      43.328  32.610  32.056  1.00  0.00     0.049 A 
ATOM     36  H   UNL A   1      42.360  31.046  31.024  1.00  0.00     0.167 HD
ATOM     37  C   UNL A   1      41.038  33.474  31.664  1.00  0.00     0.074 A 
ATOM     38  C   UNL A   1      39.996  34.473  31.789  1.00  0.00     0.031 C 
ATOM     39  C   UNL A   1      42.279  33.588  32.196  1.00  0.00     0.031 A 
BRANCH  26  40
ATOM     40  C   UNL A   1      45.903  28.684  31.290  1.00  0.00    -0.014 A 
ATOM     41  C   UNL A   1      46.936  28.785  30.344  1.00  0.00     0.009 A 
ATOM     42  C   UNL A   1      46.110  27.911  32.443  1.00  0.00     0.009 A 
ATOM     43  C   UNL A   1      48.148  28.125  30.546  1.00  0.00     0.001 A 
ATOM     44  C   UNL A   1      47.335  27.275  32.655  1.00  0.00     0.001 A 
ATOM     45  C   UNL A   1      48.350  27.376  31.704  1.00  0.00     0.000 A 
ENDBRANCH  26  40
BRANCH  27  46
ATOM     46  C   UNL A   1      36.897  32.600  29.589  1.00  0.00    -0.014 A 
ATOM     47  C   UNL A   1      35.852  32.405  30.506  1.00  0.00     0.009 A 
ATOM     48  C   UNL A   1      36.629  33.268  28.386  1.00  0.00     0.009 A 
ATOM     49  C   UNL A   1      34.559  32.837  30.209  1.00  0.00     0.001 A 
ATOM     50  C   UNL A   1      35.338  33.719  28.101  1.00  0.00     0.001 A 
ATOM     51  C   UNL A   1      34.302  33.494  29.007  1.00  0.00     0.000 A 
ENDBRANCH  27  46
BRANCH  39  52
ATOM     52  C   UNL A   1      42.599  34.827  32.984  1.00  0.00    -0.014 A 
ATOM     53  C   UNL A   1      42.169  34.939  34.316  1.00  0.00     0.009 A 
ATOM     54  C   UNL A   1      43.210  35.929  32.368  1.00  0.00     0.009 A 
ATOM     55  C   UNL A   1      42.322  36.140  35.009  1.00  0.00     0.001 A 
ATOM     56  C   UNL A   1      43.383  37.122  33.074  1.00  0.00     0.001 A 
ATOM     57  C   UNL A   1      42.929  37.230  34.388  1.00  0.00     0.000 A 
ENDBRANCH  39  52
ENDBRANCH  13  14
ENDBRANCH   6   8
ENDBRANCH   3   4
ENDBRANCH   2   3
ENDBRANCH   1   2
BRANCH   1  58
ATOM     58  C   UNL A   1      34.774  23.000  27.064  1.00  0.00     0.002 C 
BRANCH  58  59
ATOM     59  C   UNL A   1      33.502  22.261  27.486  1.00  0.00     0.021 C 
BRANCH  59  60
ATOM     60  C   UNL A   1      32.394  22.200  26.439  1.00  0.00     0.116 C 
BRANCH  60  61
ATOM     61  N   UNL A   1      31.130  22.755  26.900  1.00  0.00    -0.352 N 
ATOM     62  C   UNL A   1      30.521  23.936  26.562  1.00  0.00     0.258 C 
ATOM     63  H   UNL A   1      30.639  22.201  27.548  1.00  0.00     0.163 HD
ATOM     64  O   UNL A   1      29.420  24.220  27.024  1.00  0.00    -0.269 OA
BRANCH  62  65
ATOM     65  C   UNL A   1      31.212  24.835  25.618  1.00  0.00     0.121 A 
ATOM     66  C   UNL A   1      31.679  26.011  26.061  1.00  0.00     0.116 A 
ATOM     67  C   UNL A   1      31.347  24.516  24.189  1.00  0.00     0.266 A 
ATOM     68  N   UNL A   1      32.150  27.003  25.211  1.00  0.00    -0.265 N 
ATOM     69  N   UNL A   1      31.949  25.480  23.430  1.00  0.00    -0.273 N 
ATOM     70  O   UNL A   1      30.900  23.490  23.683  1.00  0.00    -0.268 OA
ATOM     71  C   UNL A   1      32.310  26.742  23.839  1.00  0.00     0.333 A 
ATOM     72  H   UNL A   1      32.145  25.246  22.494  1.00  0.00     0.175 HD
ATOM     73  O   UNL A   1      32.738  27.537  23.004  1.00  0.00    -0.247 OA
BRANCH  68  74
ATOM     74  C   UNL A   1      32.380  28.336  25.708  1.00  0.00     0.092 A 
ATOM     75  C   UNL A   1      31.485  29.371  25.391  1.00  0.00     0.069 A 
ATOM     76  C   UNL A   1      33.427  28.623  26.597  1.00  0.00     0.183 A 
ATOM     77  C   UNL A   1      31.635  30.634  25.961  1.00  0.00     0.128 A 
ATOM     78  C   UNL A   1      33.576  29.901  27.136  1.00  0.00     0.163 A 
ATOM     79  F   UNL A   1      34.322  27.678  26.923  1.00  0.00    -0.201 F 
ATOM     80  F   UNL A   1      30.736  31.587  25.688  1.00  0.00    -0.207 F 
ATOM     81  C   UNL A   1      32.678  30.912  26.831  1.00  0.00     0.081 A 
ATOM     82  F   UNL A   1      34.590  30.157  27.974  1.00  0.00    -0.204 F 
ENDBRANCH  68  74
ENDBRANCH  62  65
ENDBRANCH  60  61
ENDBRANCH  59  60
ENDBRANCH  58  59
ENDBRANCH   1  58
TORSDOF 14
ENDMDL
