MODEL 1
REMARK VINA RESULT:     -12.2      0.000      0.000
REMARK SMILES O=C(NCCCCCCNC(=O)[C@H](c1c[nH]c2ccc(Cl)cc12)[NH+]1CCN(c2cccc(Cl)c2)CC1)c1ccc(-c2c3nc(c(-c4ccccc4)c4ccc([nH]4)c(-c4ccccc4)c4nc(c(-c5ccccc5)c5ccc2[nH]5)C=C4)C=C3)cc1
REMARK SMILES IDX 6 1 5 2 4 3 3 4 1 5 2 6 37 8 38 9 84 10 39 11 83 12 40 13
REMARK SMILES IDX 41 14 42 15 77 16 43 17 82 18 76 19 78 20 44 21 81 22 75 23
REMARK SMILES IDX 74 24 45 26 67 27 52 28 66 29 53 30 56 31 65 32 79 33 54 34
REMARK SMILES IDX 55 35 64 37 80 38 57 39 46 40 47 41 51 42 48 43 50 44 49 45
REMARK SMILES IDX 68 46 69 47 73 48 70 49 72 50 71 51 58 52 59 53 63 54 60 55
REMARK SMILES IDX 62 56 61 57 7 58 8 59 9 60 10 61 11 62 12 64 13 65 24 66
REMARK SMILES IDX 25 67 36 68 26 70 35 71 27 72 28 73 29 74 34 75 30 76 32 77
REMARK SMILES IDX 31 78 33 79 14 80 15 81 23 82 16 83 17 84 22 85 18 87 20 88
REMARK SMILES IDX 19 89 21 90
REMARK H PARENT 3 7 78 25 56 36 10 63 24 69 16 86
REMARK Flexibility Score: inf
ROOT
ATOM      1  C   UNL A   1      37.220  20.571  24.622  1.00  0.00     0.002 C 
ENDROOT
BRANCH   1   2
ATOM      2  C   UNL A   1      38.221  19.487  25.020  1.00  0.00     0.021 C 
BRANCH   2   3
ATOM      3  C   UNL A   1      39.329  19.948  25.950  1.00  0.00     0.116 C 
BRANCH   3   4
ATOM      4  N   UNL A   1      40.492  19.080  25.913  1.00  0.00    -0.352 N 
ATOM      5  O   UNL A   1      42.702  18.605  25.923  1.00  0.00    -0.269 OA
ATOM      6  C   UNL A   1      41.811  19.415  26.123  1.00  0.00     0.251 C 
ATOM      7  H   UNL A   1      40.316  18.133  25.714  1.00  0.00     0.163 HD
BRANCH   6   8
ATOM      8  C   UNL A   1      42.137  20.787  26.572  1.00  0.00     0.039 A 
ATOM      9  C   UNL A   1      42.104  21.110  27.930  1.00  0.00     0.014 A 
ATOM     10  C   UNL A   1      42.457  21.762  25.623  1.00  0.00     0.014 A 
ATOM     11  C   UNL A   1      42.254  22.432  28.326  1.00  0.00     0.010 A 
ATOM     12  C   UNL A   1      42.706  23.076  26.034  1.00  0.00     0.010 A 
ATOM     13  C   UNL A   1      42.585  23.425  27.387  1.00  0.00    -0.014 A 
BRANCH  13  14
ATOM     14  C   UNL A   1      42.893  24.790  27.881  1.00  0.00     0.031 A 
ATOM     15  C   UNL A   1      41.815  25.804  28.136  1.00  0.00     0.074 A 
ATOM     16  C   UNL A   1      44.180  25.083  28.157  1.00  0.00     0.049 A 
ATOM     17  N   UNL A   1      41.929  27.007  28.643  1.00  0.00    -0.248 NA
ATOM     18  C   UNL A   1      40.439  25.432  27.773  1.00  0.00     0.031 C 
ATOM     19  C   UNL A   1      45.315  24.182  27.930  1.00  0.00     0.029 A 
ATOM     20  N   UNL A   1      44.748  26.194  28.725  1.00  0.00    -0.354 N 
ATOM     21  C   UNL A   1      40.646  27.540  28.649  1.00  0.00     0.074 A 
ATOM     22  C   UNL A   1      39.773  26.540  28.073  1.00  0.00     0.031 C 
ATOM     23  C   UNL A   1      46.428  24.745  28.419  1.00  0.00     0.029 A 
ATOM     24  C   UNL A   1      46.100  26.069  28.931  1.00  0.00     0.049 A 
ATOM     25  H   UNL A   1      44.237  27.001  28.961  1.00  0.00     0.167 HD
ATOM     26  C   UNL A   1      40.236  28.752  29.097  1.00  0.00     0.031 A 
ATOM     27  C   UNL A   1      46.987  26.927  29.465  1.00  0.00     0.031 A 
ATOM     28  C   UNL A   1      41.110  29.748  29.663  1.00  0.00     0.049 A 
ATOM     29  C   UNL A   1      46.502  28.260  29.950  1.00  0.00     0.074 A 
ATOM     30  C   UNL A   1      40.788  31.006  30.147  1.00  0.00     0.029 A 
ATOM     31  N   UNL A   1      42.480  29.599  29.822  1.00  0.00    -0.354 N 
ATOM     32  N   UNL A   1      45.282  28.737  29.962  1.00  0.00    -0.248 NA
ATOM     33  C   UNL A   1      47.518  29.170  30.493  1.00  0.00     0.031 C 
ATOM     34  C   UNL A   1      41.968  31.631  30.563  1.00  0.00     0.029 A 
ATOM     35  C   UNL A   1      43.018  30.746  30.384  1.00  0.00     0.049 A 
ATOM     36  H   UNL A   1      42.993  28.798  29.572  1.00  0.00     0.167 HD
ATOM     37  C   UNL A   1      45.382  30.006  30.513  1.00  0.00     0.074 A 
ATOM     38  C   UNL A   1      46.775  30.204  30.859  1.00  0.00     0.031 C 
ATOM     39  C   UNL A   1      44.410  30.930  30.704  1.00  0.00     0.031 A 
BRANCH  26  40
ATOM     40  C   UNL A   1      38.773  29.081  28.979  1.00  0.00    -0.014 A 
ATOM     41  C   UNL A   1      37.903  28.921  30.068  1.00  0.00     0.009 A 
ATOM     42  C   UNL A   1      38.271  29.616  27.781  1.00  0.00     0.009 A 
ATOM     43  C   UNL A   1      36.554  29.268  29.953  1.00  0.00     0.001 A 
ATOM     44  C   UNL A   1      36.928  29.984  27.677  1.00  0.00     0.001 A 
ATOM     45  C   UNL A   1      36.070  29.805  28.760  1.00  0.00     0.000 A 
ENDBRANCH  26  40
BRANCH  27  46
ATOM     46  C   UNL A   1      48.421  26.552  29.545  1.00  0.00    -0.014 A 
ATOM     47  C   UNL A   1      49.311  26.888  28.515  1.00  0.00     0.009 A 
ATOM     48  C   UNL A   1      48.908  25.863  30.667  1.00  0.00     0.009 A 
ATOM     49  C   UNL A   1      50.657  26.523  28.598  1.00  0.00     0.001 A 
ATOM     50  C   UNL A   1      50.259  25.529  30.763  1.00  0.00     0.001 A 
ATOM     51  C   UNL A   1      51.131  25.851  29.724  1.00  0.00     0.000 A 
ENDBRANCH  27  46
BRANCH  39  52
ATOM     52  C   UNL A   1      44.834  32.231  31.320  1.00  0.00    -0.014 A 
ATOM     53  C   UNL A   1      45.252  33.308  30.521  1.00  0.00     0.009 A 
ATOM     54  C   UNL A   1      44.822  32.381  32.715  1.00  0.00     0.009 A 
ATOM     55  C   UNL A   1      45.690  34.494  31.111  1.00  0.00     0.001 A 
ATOM     56  C   UNL A   1      45.234  33.578  33.300  1.00  0.00     0.001 A 
ATOM     57  C   UNL A   1      45.678  34.629  32.499  1.00  0.00     0.000 A 
ENDBRANCH  39  52
ENDBRANCH  13  14
ENDBRANCH   6   8
ENDBRANCH   3   4
ENDBRANCH   2   3
ENDBRANCH   1   2
BRANCH   1  58
ATOM     58  C   UNL A   1      36.779  21.521  25.742  1.00  0.00     0.002 C 
BRANCH  58  59
ATOM     59  C   UNL A   1      37.336  22.947  25.673  1.00  0.00     0.021 C 
BRANCH  59  60
ATOM     60  C   UNL A   1      36.356  23.981  25.147  1.00  0.00     0.116 C 
BRANCH  60  61
ATOM     61  N   UNL A   1      35.779  23.604  23.876  1.00  0.00    -0.351 N 
ATOM     62  C   UNL A   1      34.434  23.565  23.646  1.00  0.00     0.283 C 
ATOM     63  H   UNL A   1      36.387  23.364  23.140  1.00  0.00     0.163 HD
ATOM     64  O   UNL A   1      34.038  24.326  22.751  1.00  0.00    -0.268 OA
BRANCH  62  65
ATOM     65  C   UNL A   1      33.456  22.597  24.386  1.00  0.00     0.307 C 
BRANCH  65  66
ATOM     66  N   UNL A   1      32.591  23.233  25.429  1.00  0.00    -0.318 N 
ATOM     67  C   UNL A   1      33.316  24.158  26.344  1.00  0.00     0.284 C 
ATOM     68  C   UNL A   1      31.305  23.855  25.078  1.00  0.00     0.284 C 
ATOM     69  H   UNL A   1      32.323  22.359  25.882  1.00  0.00     0.349 HD
ATOM     70  C   UNL A   1      33.417  25.640  25.876  1.00  0.00     0.178 C 
ATOM     71  C   UNL A   1      31.372  25.293  24.519  1.00  0.00     0.178 C 
ATOM     72  N   UNL A   1      32.095  26.137  25.474  1.00  0.00    -0.360 N 
BRANCH  72  73
ATOM     73  C   UNL A   1      31.939  27.512  25.403  1.00  0.00     0.038 A 
ATOM     74  C   UNL A   1      31.067  28.036  24.440  1.00  0.00     0.026 A 
ATOM     75  C   UNL A   1      32.558  28.392  26.295  1.00  0.00     0.046 A 
ATOM     76  C   UNL A   1      30.786  29.403  24.386  1.00  0.00     0.004 A 
ATOM     77  C   UNL A   1      32.279  29.760  26.239  1.00  0.00     0.043 A 
ATOM     78  C   UNL A   1      31.389  30.268  25.294  1.00  0.00     0.020 A 
ATOM     79  Cl  UNL A   1      33.024  30.830  27.364  1.00  0.00    -0.084 Cl
ENDBRANCH  72  73
ENDBRANCH  65  66
BRANCH  65  80
ATOM     80  C   UNL A   1      32.764  21.558  23.513  1.00  0.00     0.044 A 
ATOM     81  C   UNL A   1      31.991  21.733  22.375  1.00  0.00     0.094 A 
ATOM     82  C   UNL A   1      32.955  20.126  23.628  1.00  0.00     0.011 A 
ATOM     83  N   UNL A   1      31.658  20.508  21.861  1.00  0.00    -0.361 N 
ATOM     84  C   UNL A   1      32.309  19.517  22.549  1.00  0.00     0.046 A 
ATOM     85  C   UNL A   1      33.715  19.307  24.493  1.00  0.00     0.031 A 
ATOM     86  H   UNL A   1      31.042  20.362  21.107  1.00  0.00     0.166 HD
ATOM     87  C   UNL A   1      32.393  18.146  22.279  1.00  0.00     0.028 A 
ATOM     88  C   UNL A   1      33.824  17.939  24.223  1.00  0.00     0.041 A 
ATOM     89  C   UNL A   1      33.179  17.366  23.131  1.00  0.00     0.022 A 
ATOM     90  Cl  UNL A   1      34.811  16.955  25.234  1.00  0.00    -0.084 Cl
ENDBRANCH  65  80
ENDBRANCH  62  65
ENDBRANCH  60  61
ENDBRANCH  59  60
ENDBRANCH  58  59
ENDBRANCH   1  58
TORSDOF 16
ENDMDL
MODEL 2
REMARK VINA RESULT:     -12.2      1.271      5.728
REMARK SMILES O=C(NCCCCCCNC(=O)[C@H](c1c[nH]c2ccc(Cl)cc12)[NH+]1CCN(c2cccc(Cl)c2)CC1)c1ccc(-c2c3nc(c(-c4ccccc4)c4ccc([nH]4)c(-c4ccccc4)c4nc(c(-c5ccccc5)c5ccc2[nH]5)C=C4)C=C3)cc1
REMARK SMILES IDX 6 1 5 2 4 3 3 4 1 5 2 6 37 8 38 9 84 10 39 11 83 12 40 13
REMARK SMILES IDX 41 14 42 15 77 16 43 17 82 18 76 19 78 20 44 21 81 22 75 23
REMARK SMILES IDX 74 24 45 26 67 27 52 28 66 29 53 30 56 31 65 32 79 33 54 34
REMARK SMILES IDX 55 35 64 37 80 38 57 39 46 40 47 41 51 42 48 43 50 44 49 45
REMARK SMILES IDX 68 46 69 47 73 48 70 49 72 50 71 51 58 52 59 53 63 54 60 55
REMARK SMILES IDX 62 56 61 57 7 58 8 59 9 60 10 61 11 62 12 64 13 65 24 66
REMARK SMILES IDX 25 67 36 68 26 70 35 71 27 72 28 73 29 74 34 75 30 76 32 77
REMARK SMILES IDX 31 78 33 79 14 80 15 81 23 82 16 83 17 84 22 85 18 87 20 88
REMARK SMILES IDX 19 89 21 90
REMARK H PARENT 3 7 78 25 56 36 10 63 24 69 16 86
REMARK Flexibility Score: inf
ROOT
ATOM      1  C   UNL A   1      37.114  20.340  24.653  1.00  0.00     0.002 C 
ENDROOT
BRANCH   1   2
ATOM      2  C   UNL A   1      38.147  19.278  25.026  1.00  0.00     0.021 C 
BRANCH   2   3
ATOM      3  C   UNL A   1      39.352  19.796  25.790  1.00  0.00     0.116 C 
BRANCH   3   4
ATOM      4  N   UNL A   1      40.462  18.861  25.793  1.00  0.00    -0.352 N 
ATOM      5  O   UNL A   1      42.639  18.256  25.850  1.00  0.00    -0.269 OA
ATOM      6  C   UNL A   1      41.796  19.122  26.015  1.00  0.00     0.251 C 
ATOM      7  H   UNL A   1      40.233  17.920  25.615  1.00  0.00     0.163 HD
BRANCH   6   8
ATOM      8  C   UNL A   1      42.196  20.484  26.435  1.00  0.00     0.039 A 
ATOM      9  C   UNL A   1      42.645  21.409  25.491  1.00  0.00     0.014 A 
ATOM     10  C   UNL A   1      42.140  20.828  27.788  1.00  0.00     0.014 A 
ATOM     11  C   UNL A   1      43.167  22.624  25.913  1.00  0.00     0.010 A 
ATOM     12  C   UNL A   1      42.575  22.092  28.202  1.00  0.00     0.010 A 
ATOM     13  C   UNL A   1      43.111  22.992  27.270  1.00  0.00    -0.014 A 
BRANCH  13  14
ATOM     14  C   UNL A   1      43.533  24.363  27.648  1.00  0.00     0.031 A 
ATOM     15  C   UNL A   1      44.957  24.821  27.512  1.00  0.00     0.074 A 
ATOM     16  C   UNL A   1      42.581  25.221  28.065  1.00  0.00     0.049 A 
ATOM     17  N   UNL A   1      45.455  26.014  27.728  1.00  0.00    -0.248 NA
ATOM     18  C   UNL A   1      45.951  23.822  27.091  1.00  0.00     0.031 C 
ATOM     19  C   UNL A   1      41.167  24.880  28.254  1.00  0.00     0.029 A 
ATOM     20  N   UNL A   1      42.642  26.557  28.365  1.00  0.00    -0.354 N 
ATOM     21  C   UNL A   1      46.819  25.907  27.482  1.00  0.00     0.074 A 
ATOM     22  C   UNL A   1      47.074  24.528  27.124  1.00  0.00     0.031 C 
ATOM     23  C   UNL A   1      40.484  25.991  28.565  1.00  0.00     0.029 A 
ATOM     24  C   UNL A   1      41.419  27.105  28.664  1.00  0.00     0.049 A 
ATOM     25  H   UNL A   1      43.480  27.072  28.365  1.00  0.00     0.167 HD
ATOM     26  C   UNL A   1      47.767  26.873  27.547  1.00  0.00     0.031 A 
ATOM     27  C   UNL A   1      41.080  28.364  28.993  1.00  0.00     0.031 A 
ATOM     28  C   UNL A   1      47.510  28.243  27.910  1.00  0.00     0.049 A 
ATOM     29  C   UNL A   1      42.153  29.408  29.056  1.00  0.00     0.074 A 
ATOM     30  C   UNL A   1      48.406  29.296  28.002  1.00  0.00     0.029 A 
ATOM     31  N   UNL A   1      46.263  28.752  28.243  1.00  0.00    -0.354 N 
ATOM     32  N   UNL A   1      43.433  29.290  28.803  1.00  0.00    -0.248 NA
ATOM     33  C   UNL A   1      41.732  30.758  29.452  1.00  0.00     0.031 C 
ATOM     34  C   UNL A   1      47.707  30.431  28.427  1.00  0.00     0.029 A 
ATOM     35  C   UNL A   1      46.369  30.098  28.552  1.00  0.00     0.049 A 
ATOM     36  H   UNL A   1      45.427  28.233  28.257  1.00  0.00     0.167 HD
ATOM     37  C   UNL A   1      43.974  30.550  29.010  1.00  0.00     0.074 A 
ATOM     38  C   UNL A   1      42.875  31.424  29.368  1.00  0.00     0.031 C 
ATOM     39  C   UNL A   1      45.266  30.946  28.924  1.00  0.00     0.031 A 
BRANCH  26  40
ATOM     40  C   UNL A   1      49.185  26.480  27.232  1.00  0.00    -0.014 A 
ATOM     41  C   UNL A   1      50.053  26.027  28.237  1.00  0.00     0.009 A 
ATOM     42  C   UNL A   1      49.638  26.503  25.903  1.00  0.00     0.009 A 
ATOM     43  C   UNL A   1      51.354  25.627  27.922  1.00  0.00     0.001 A 
ATOM     44  C   UNL A   1      50.932  26.081  25.588  1.00  0.00     0.001 A 
ATOM     45  C   UNL A   1      51.790  25.649  26.597  1.00  0.00     0.000 A 
ENDBRANCH  26  40
BRANCH  27  46
ATOM     46  C   UNL A   1      39.665  28.690  29.304  1.00  0.00    -0.014 A 
ATOM     47  C   UNL A   1      39.158  28.523  30.601  1.00  0.00     0.009 A 
ATOM     48  C   UNL A   1      38.818  29.186  28.300  1.00  0.00     0.009 A 
ATOM     49  C   UNL A   1      37.823  28.827  30.880  1.00  0.00     0.001 A 
ATOM     50  C   UNL A   1      37.495  29.519  28.590  1.00  0.00     0.001 A 
ATOM     51  C   UNL A   1      36.996  29.331  29.877  1.00  0.00     0.000 A 
ENDBRANCH  27  46
BRANCH  39  52
ATOM     52  C   UNL A   1      45.545  32.391  29.220  1.00  0.00    -0.014 A 
ATOM     53  C   UNL A   1      45.502  33.359  28.203  1.00  0.00     0.009 A 
ATOM     54  C   UNL A   1      45.860  32.789  30.527  1.00  0.00     0.009 A 
ATOM     55  C   UNL A   1      45.812  34.690  28.483  1.00  0.00     0.001 A 
ATOM     56  C   UNL A   1      46.142  34.125  30.810  1.00  0.00     0.001 A 
ATOM     57  C   UNL A   1      46.129  35.072  29.787  1.00  0.00     0.000 A 
ENDBRANCH  39  52
ENDBRANCH  13  14
ENDBRANCH   6   8
ENDBRANCH   3   4
ENDBRANCH   2   3
ENDBRANCH   1   2
BRANCH   1  58
ATOM     58  C   UNL A   1      36.841  21.412  25.714  1.00  0.00     0.002 C 
BRANCH  58  59
ATOM     59  C   UNL A   1      37.462  22.789  25.455  1.00  0.00     0.021 C 
BRANCH  59  60
ATOM     60  C   UNL A   1      36.472  23.851  25.006  1.00  0.00     0.116 C 
BRANCH  60  61
ATOM     61  N   UNL A   1      35.811  23.507  23.767  1.00  0.00    -0.351 N 
ATOM     62  C   UNL A   1      34.454  23.448  23.634  1.00  0.00     0.283 C 
ATOM     63  H   UNL A   1      36.368  23.304  22.981  1.00  0.00     0.163 HD
ATOM     64  O   UNL A   1      33.981  24.231  22.796  1.00  0.00    -0.268 OA
BRANCH  62  65
ATOM     65  C   UNL A   1      33.550  22.436  24.407  1.00  0.00     0.307 C 
BRANCH  65  66
ATOM     66  N   UNL A   1      32.733  23.023  25.514  1.00  0.00    -0.318 N 
ATOM     67  C   UNL A   1      33.471  23.989  26.374  1.00  0.00     0.284 C 
ATOM     68  C   UNL A   1      31.390  23.570  25.265  1.00  0.00     0.284 C 
ATOM     69  H   UNL A   1      32.550  22.136  25.984  1.00  0.00     0.349 HD
ATOM     70  C   UNL A   1      33.453  25.474  25.905  1.00  0.00     0.178 C 
ATOM     71  C   UNL A   1      31.333  25.009  24.706  1.00  0.00     0.178 C 
ATOM     72  N   UNL A   1      32.078  25.895  25.606  1.00  0.00    -0.360 N 
BRANCH  72  73
ATOM     73  C   UNL A   1      31.838  27.258  25.552  1.00  0.00     0.038 A 
ATOM     74  C   UNL A   1      32.529  28.093  26.440  1.00  0.00     0.026 A 
ATOM     75  C   UNL A   1      30.991  27.843  24.606  1.00  0.00     0.046 A 
ATOM     76  C   UNL A   1      32.411  29.482  26.367  1.00  0.00     0.004 A 
ATOM     77  C   UNL A   1      30.871  29.233  24.536  1.00  0.00     0.043 A 
ATOM     78  C   UNL A   1      31.585  30.055  25.405  1.00  0.00     0.020 A 
ATOM     79  Cl  UNL A   1      29.849  29.941  23.344  1.00  0.00    -0.084 Cl
ENDBRANCH  72  73
ENDBRANCH  65  66
BRANCH  65  80
ATOM     80  C   UNL A   1      32.835  21.397  23.552  1.00  0.00     0.044 A 
ATOM     81  C   UNL A   1      32.033  21.572  22.434  1.00  0.00     0.094 A 
ATOM     82  C   UNL A   1      33.028  19.965  23.662  1.00  0.00     0.011 A 
ATOM     83  N   UNL A   1      31.685  20.348  21.929  1.00  0.00    -0.361 N 
ATOM     84  C   UNL A   1      32.355  19.356  22.600  1.00  0.00     0.046 A 
ATOM     85  C   UNL A   1      33.810  19.146  24.507  1.00  0.00     0.031 A 
ATOM     86  H   UNL A   1      31.050  20.202  21.192  1.00  0.00     0.166 HD
ATOM     87  C   UNL A   1      32.431  17.985  22.328  1.00  0.00     0.028 A 
ATOM     88  C   UNL A   1      33.912  17.778  24.233  1.00  0.00     0.041 A 
ATOM     89  C   UNL A   1      33.239  17.205  23.159  1.00  0.00     0.022 A 
ATOM     90  Cl  UNL A   1      34.925  16.794  25.219  1.00  0.00    -0.084 Cl
ENDBRANCH  65  80
ENDBRANCH  62  65
ENDBRANCH  60  61
ENDBRANCH  59  60
ENDBRANCH  58  59
ENDBRANCH   1  58
TORSDOF 16
ENDMDL
MODEL 3
REMARK VINA RESULT:     -12.0      2.301      6.828
REMARK SMILES O=C(NCCCCCCNC(=O)[C@H](c1c[nH]c2ccc(Cl)cc12)[NH+]1CCN(c2cccc(Cl)c2)CC1)c1ccc(-c2c3nc(c(-c4ccccc4)c4ccc([nH]4)c(-c4ccccc4)c4nc(c(-c5ccccc5)c5ccc2[nH]5)C=C4)C=C3)cc1
REMARK SMILES IDX 6 1 5 2 4 3 3 4 1 5 2 6 37 8 38 9 84 10 39 11 83 12 40 13
REMARK SMILES IDX 41 14 42 15 77 16 43 17 82 18 76 19 78 20 44 21 81 22 75 23
REMARK SMILES IDX 74 24 45 26 67 27 52 28 66 29 53 30 56 31 65 32 79 33 54 34
REMARK SMILES IDX 55 35 64 37 80 38 57 39 46 40 47 41 51 42 48 43 50 44 49 45
REMARK SMILES IDX 68 46 69 47 73 48 70 49 72 50 71 51 58 52 59 53 63 54 60 55
REMARK SMILES IDX 62 56 61 57 7 58 8 59 9 60 10 61 11 62 12 64 13 65 24 66
REMARK SMILES IDX 25 67 36 68 26 70 35 71 27 72 28 73 29 74 34 75 30 76 32 77
REMARK SMILES IDX 31 78 33 79 14 80 15 81 23 82 16 83 17 84 22 85 18 87 20 88
REMARK SMILES IDX 19 89 21 90
REMARK H PARENT 3 7 78 25 56 36 10 63 24 69 16 86
REMARK Flexibility Score: inf
ROOT
ATOM      1  C   UNL A   1      36.739  20.613  25.040  1.00  0.00     0.002 C 
ENDROOT
BRANCH   1   2
ATOM      2  C   UNL A   1      38.024  19.805  24.863  1.00  0.00     0.021 C 
BRANCH   2   3
ATOM      3  C   UNL A   1      39.082  20.043  25.926  1.00  0.00     0.116 C 
BRANCH   3   4
ATOM      4  N   UNL A   1      40.227  19.162  25.788  1.00  0.00    -0.352 N 
ATOM      5  O   UNL A   1      42.427  18.653  25.682  1.00  0.00    -0.269 OA
ATOM      6  C   UNL A   1      41.559  19.462  25.968  1.00  0.00     0.251 C 
ATOM      7  H   UNL A   1      40.026  18.232  25.535  1.00  0.00     0.163 HD
BRANCH   6   8
ATOM      8  C   UNL A   1      41.926  20.796  26.494  1.00  0.00     0.039 A 
ATOM      9  C   UNL A   1      42.289  21.822  25.619  1.00  0.00     0.014 A 
ATOM     10  C   UNL A   1      41.925  21.014  27.874  1.00  0.00     0.014 A 
ATOM     11  C   UNL A   1      42.783  23.016  26.126  1.00  0.00     0.010 A 
ATOM     12  C   UNL A   1      42.330  22.253  28.381  1.00  0.00     0.010 A 
ATOM     13  C   UNL A   1      42.782  23.256  27.512  1.00  0.00    -0.014 A 
BRANCH  13  14
ATOM     14  C   UNL A   1      43.168  24.606  27.995  1.00  0.00     0.031 A 
ATOM     15  C   UNL A   1      44.604  25.036  28.084  1.00  0.00     0.074 A 
ATOM     16  C   UNL A   1      42.179  25.471  28.299  1.00  0.00     0.049 A 
ATOM     17  N   UNL A   1      45.086  26.210  28.410  1.00  0.00    -0.248 NA
ATOM     18  C   UNL A   1      45.631  24.029  27.777  1.00  0.00     0.031 C 
ATOM     19  C   UNL A   1      40.748  25.155  28.269  1.00  0.00     0.029 A 
ATOM     20  N   UNL A   1      42.220  26.794  28.651  1.00  0.00    -0.354 N 
ATOM     21  C   UNL A   1      46.468  26.081  28.362  1.00  0.00     0.074 A 
ATOM     22  C   UNL A   1      46.749  24.709  27.997  1.00  0.00     0.031 C 
ATOM     23  C   UNL A   1      40.046  26.270  28.517  1.00  0.00     0.029 A 
ATOM     24  C   UNL A   1      40.975  27.359  28.789  1.00  0.00     0.049 A 
ATOM     25  H   UNL A   1      43.057  27.291  28.791  1.00  0.00     0.167 HD
ATOM     26  C   UNL A   1      47.414  27.024  28.596  1.00  0.00     0.031 A 
ATOM     27  C   UNL A   1      40.613  28.614  29.109  1.00  0.00     0.031 A 
ATOM     28  C   UNL A   1      47.129  28.386  28.967  1.00  0.00     0.049 A 
ATOM     29  C   UNL A   1      41.684  29.632  29.364  1.00  0.00     0.074 A 
ATOM     30  C   UNL A   1      48.021  29.416  29.224  1.00  0.00     0.029 A 
ATOM     31  N   UNL A   1      45.857  28.911  29.133  1.00  0.00    -0.354 N 
ATOM     32  N   UNL A   1      42.984  29.494  29.295  1.00  0.00    -0.248 NA
ATOM     33  C   UNL A   1      41.233  30.977  29.741  1.00  0.00     0.031 C 
ATOM     34  C   UNL A   1      47.287  30.552  29.582  1.00  0.00     0.029 A 
ATOM     35  C   UNL A   1      45.939  30.245  29.500  1.00  0.00     0.049 A 
ATOM     36  H   UNL A   1      45.019  28.411  29.007  1.00  0.00     0.167 HD
ATOM     37  C   UNL A   1      43.511  30.734  29.622  1.00  0.00     0.074 A 
ATOM     38  C   UNL A   1      42.387  31.620  29.848  1.00  0.00     0.031 C 
ATOM     39  C   UNL A   1      44.809  31.104  29.738  1.00  0.00     0.031 A 
BRANCH  26  40
ATOM     40  C   UNL A   1      48.855  26.609  28.477  1.00  0.00    -0.014 A 
ATOM     41  C   UNL A   1      49.518  26.637  27.241  1.00  0.00     0.009 A 
ATOM     42  C   UNL A   1      49.576  26.247  29.627  1.00  0.00     0.009 A 
ATOM     43  C   UNL A   1      50.868  26.286  27.154  1.00  0.00     0.001 A 
ATOM     44  C   UNL A   1      50.931  25.920  29.540  1.00  0.00     0.001 A 
ATOM     45  C   UNL A   1      51.574  25.935  28.304  1.00  0.00     0.000 A 
ENDBRANCH  26  40
BRANCH  27  46
ATOM     46  C   UNL A   1      39.175  28.961  29.223  1.00  0.00    -0.014 A 
ATOM     47  C   UNL A   1      38.471  29.480  28.126  1.00  0.00     0.009 A 
ATOM     48  C   UNL A   1      38.494  28.760  30.434  1.00  0.00     0.009 A 
ATOM     49  C   UNL A   1      37.119  29.810  28.247  1.00  0.00     0.001 A 
ATOM     50  C   UNL A   1      37.135  29.059  30.543  1.00  0.00     0.001 A 
ATOM     51  C   UNL A   1      36.451  29.593  29.453  1.00  0.00     0.000 A 
ENDBRANCH  27  46
BRANCH  39  52
ATOM     52  C   UNL A   1      45.067  32.533  30.121  1.00  0.00    -0.014 A 
ATOM     53  C   UNL A   1      45.193  33.532  29.144  1.00  0.00     0.009 A 
ATOM     54  C   UNL A   1      45.190  32.882  31.475  1.00  0.00     0.009 A 
ATOM     55  C   UNL A   1      45.481  34.847  29.513  1.00  0.00     0.001 A 
ATOM     56  C   UNL A   1      45.451  34.202  31.842  1.00  0.00     0.001 A 
ATOM     57  C   UNL A   1      45.608  35.180  30.861  1.00  0.00     0.000 A 
ENDBRANCH  39  52
ENDBRANCH  13  14
ENDBRANCH   6   8
ENDBRANCH   3   4
ENDBRANCH   2   3
ENDBRANCH   1   2
BRANCH   1  58
ATOM     58  C   UNL A   1      36.664  21.934  24.264  1.00  0.00     0.002 C 
BRANCH  58  59
ATOM     59  C   UNL A   1      36.943  23.206  25.071  1.00  0.00     0.021 C 
BRANCH  59  60
ATOM     60  C   UNL A   1      35.759  24.150  25.188  1.00  0.00     0.116 C 
BRANCH  60  61
ATOM     61  N   UNL A   1      34.627  23.722  24.395  1.00  0.00    -0.351 N 
ATOM     62  C   UNL A   1      34.110  24.460  23.369  1.00  0.00     0.283 C 
ATOM     63  H   UNL A   1      34.209  22.856  24.606  1.00  0.00     0.163 HD
ATOM     64  O   UNL A   1      34.142  23.902  22.262  1.00  0.00    -0.268 OA
BRANCH  62  65
ATOM     65  C   UNL A   1      33.458  25.867  23.556  1.00  0.00     0.307 C 
BRANCH  65  66
ATOM     66  N   UNL A   1      33.034  26.549  22.294  1.00  0.00    -0.318 N 
ATOM     67  C   UNL A   1      31.610  26.323  21.924  1.00  0.00     0.284 C 
ATOM     68  C   UNL A   1      33.349  27.965  22.048  1.00  0.00     0.284 C 
ATOM     69  H   UNL A   1      33.684  26.048  21.687  1.00  0.00     0.349 HD
ATOM     70  C   UNL A   1      30.582  27.329  22.522  1.00  0.00     0.178 C 
ATOM     71  C   UNL A   1      32.407  28.997  22.707  1.00  0.00     0.178 C 
ATOM     72  N   UNL A   1      31.030  28.709  22.294  1.00  0.00    -0.360 N 
BRANCH  72  73
ATOM     73  C   UNL A   1      30.074  29.705  22.412  1.00  0.00     0.038 A 
ATOM     74  C   UNL A   1      29.755  30.177  23.692  1.00  0.00     0.026 A 
ATOM     75  C   UNL A   1      29.465  30.306  21.307  1.00  0.00     0.046 A 
ATOM     76  C   UNL A   1      28.878  31.248  23.870  1.00  0.00     0.004 A 
ATOM     77  C   UNL A   1      28.586  31.376  21.485  1.00  0.00     0.043 A 
ATOM     78  C   UNL A   1      28.297  31.856  22.762  1.00  0.00     0.020 A 
ATOM     79  Cl  UNL A   1      27.868  32.129  20.113  1.00  0.00    -0.084 Cl
ENDBRANCH  72  73
ENDBRANCH  65  66
BRANCH  65  80
ATOM     80  C   UNL A   1      32.489  25.999  24.724  1.00  0.00     0.044 A 
ATOM     81  C   UNL A   1      31.616  25.063  25.259  1.00  0.00     0.094 A 
ATOM     82  C   UNL A   1      32.440  27.127  25.632  1.00  0.00     0.011 A 
ATOM     83  N   UNL A   1      31.011  25.590  26.369  1.00  0.00    -0.361 N 
ATOM     84  C   UNL A   1      31.564  26.808  26.672  1.00  0.00     0.046 A 
ATOM     85  C   UNL A   1      33.153  28.345  25.717  1.00  0.00     0.031 A 
ATOM     86  H   UNL A   1      30.286  25.157  26.875  1.00  0.00     0.166 HD
ATOM     87  C   UNL A   1      31.373  27.624  27.792  1.00  0.00     0.028 A 
ATOM     88  C   UNL A   1      32.987  29.160  26.841  1.00  0.00     0.041 A 
ATOM     89  C   UNL A   1      32.116  28.805  27.867  1.00  0.00     0.022 A 
ATOM     90  Cl  UNL A   1      33.911  30.606  26.979  1.00  0.00    -0.084 Cl
ENDBRANCH  65  80
ENDBRANCH  62  65
ENDBRANCH  60  61
ENDBRANCH  59  60
ENDBRANCH  58  59
ENDBRANCH   1  58
TORSDOF 16
ENDMDL
