MODEL 1
REMARK VINA RESULT:     -11.6      0.000      0.000
REMARK SMILES CCc1ccc(OCC(=O)Nc2cc(C)c(O)c(C(=O)NCCCCCCNC(=O)c3ccc(-c4c5nc(c(-c6ccccc6)c6ccc([nH]6)c(-c6ccccc6)c6nc(c(-c7ccccc7)c7ccc4[nH]7)C=C6)C=C5)cc3)c2)cc1
REMARK SMILES IDX 23 1 22 2 21 3 19 4 20 5 18 7 12 8 13 9 79 10 14 11 15 12
REMARK SMILES IDX 16 13 11 14 9 15 10 16 8 18 7 19 6 20 3 21 4 22 81 23 5 24
REMARK SMILES IDX 80 25 2 26 1 27 17 28 24 30 25 31 26 32 27 33 28 34 29 35
REMARK SMILES IDX 30 37 31 38 32 39 78 40 33 41 77 42 34 43 35 44 36 45 71 46
REMARK SMILES IDX 37 47 76 48 70 49 72 50 38 51 75 52 69 53 68 54 39 56 61 57
REMARK SMILES IDX 46 58 60 59 47 60 50 61 59 62 73 63 48 64 49 65 58 67 74 68
REMARK SMILES IDX 51 69 40 70 41 71 45 72 42 73 44 74 43 75 62 76 63 77 67 78
REMARK SMILES IDX 64 79 66 80 65 81 52 82 53 83 57 84 54 85 56 86 55 87
REMARK H PARENT 21 6 11 17 17 29 28 36 72 55 50 66
REMARK Flexibility Score: inf
ROOT
ATOM      1  C   UNL A   1      34.853  22.887  26.751  1.00  0.00     0.021 C 
ENDROOT
BRANCH   1   2
ATOM      2  C   UNL A   1      33.950  22.033  27.642  1.00  0.00     0.116 C 
BRANCH   2   3
ATOM      3  N   UNL A   1      32.556  22.447  27.601  1.00  0.00    -0.352 N 
ATOM      4  C   UNL A   1      31.664  22.622  26.571  1.00  0.00     0.255 C 
ATOM      5  O   UNL A   1      30.553  23.080  26.859  1.00  0.00    -0.269 OA
ATOM      6  H   UNL A   1      32.176  22.640  28.489  1.00  0.00     0.163 HD
BRANCH   4   7
ATOM      7  C   UNL A   1      31.945  22.347  25.128  1.00  0.00     0.083 A 
ATOM      8  C   UNL A   1      32.411  23.063  22.840  1.00  0.00     0.042 A 
ATOM      9  C   UNL A   1      32.438  21.714  22.451  1.00  0.00     0.033 A 
ATOM     10  C   UNL A   1      32.188  23.366  24.186  1.00  0.00     0.043 A 
ATOM     11  C   UNL A   1      32.263  20.672  23.370  1.00  0.00    -0.006 A 
ATOM     12  C   UNL A   1      32.372  19.254  22.881  1.00  0.00     0.048 C 
ATOM     13  C   UNL A   1      32.024  21.000  24.708  1.00  0.00     0.131 A 
BRANCH   8  14
ATOM     14  N   UNL A   1      32.546  23.980  21.783  1.00  0.00    -0.323 N 
ATOM     15  C   UNL A   1      32.845  25.298  21.635  1.00  0.00     0.262 C 
ATOM     16  O   UNL A   1      32.688  25.766  20.499  1.00  0.00    -0.271 OA
ATOM     17  H   UNL A   1      32.377  23.552  20.913  1.00  0.00     0.170 HD
BRANCH  15  18
ATOM     18  C   UNL A   1      33.451  26.161  22.741  1.00  0.00     0.329 C 
BRANCH  18  19
ATOM     19  O   UNL A   1      32.614  26.515  23.837  1.00  0.00    -0.484 OA
BRANCH  19  20
ATOM     20  C   UNL A   1      31.416  27.080  23.507  1.00  0.00     0.120 A 
ATOM     21  C   UNL A   1      29.008  28.473  23.035  1.00  0.00    -0.048 A 
ATOM     22  C   UNL A   1      28.992  27.169  23.539  1.00  0.00     0.007 A 
ATOM     23  C   UNL A   1      30.252  29.040  22.715  1.00  0.00     0.007 A 
ATOM     24  C   UNL A   1      30.193  26.490  23.786  1.00  0.00     0.047 A 
ATOM     25  C   UNL A   1      31.444  28.354  22.963  1.00  0.00     0.047 A 
BRANCH  21  26
ATOM     26  C   UNL A   1      27.751  29.277  22.784  1.00  0.00     0.032 C 
ATOM     27  C   UNL A   1      27.732  30.701  23.333  1.00  0.00     0.009 C 
ENDBRANCH  21  26
ENDBRANCH  19  20
ENDBRANCH  18  19
ENDBRANCH  15  18
ENDBRANCH   8  14
BRANCH  13  28
ATOM     28  O   UNL A   1      31.869  19.951  25.582  1.00  0.00    -0.507 OA
ATOM     29  H   UNL A   1      31.059  19.839  26.040  1.00  0.00     0.293 HD
ENDBRANCH  13  28
ENDBRANCH   4   7
ENDBRANCH   2   3
ENDBRANCH   1   2
BRANCH   1  30
ATOM     30  C   UNL A   1      35.697  22.246  25.624  1.00  0.00     0.002 C 
BRANCH  30  31
ATOM     31  C   UNL A   1      35.601  20.750  25.299  1.00  0.00     0.002 C 
BRANCH  31  32
ATOM     32  C   UNL A   1      36.897  20.008  24.918  1.00  0.00     0.021 C 
BRANCH  32  33
ATOM     33  C   UNL A   1      38.251  20.639  25.286  1.00  0.00     0.116 C 
BRANCH  33  34
ATOM     34  N   UNL A   1      39.347  19.695  25.398  1.00  0.00    -0.352 N 
ATOM     35  C   UNL A   1      40.599  19.829  25.958  1.00  0.00     0.251 C 
ATOM     36  H   UNL A   1      39.166  18.809  25.009  1.00  0.00     0.163 HD
ATOM     37  O   UNL A   1      41.367  18.868  25.905  1.00  0.00    -0.269 OA
BRANCH  35  38
ATOM     38  C   UNL A   1      41.080  21.089  26.596  1.00  0.00     0.039 A 
ATOM     39  C   UNL A   1      41.670  22.055  25.768  1.00  0.00     0.014 A 
ATOM     40  C   UNL A   1      41.053  21.317  27.974  1.00  0.00     0.014 A 
ATOM     41  C   UNL A   1      42.171  23.251  26.302  1.00  0.00     0.010 A 
ATOM     42  C   UNL A   1      41.532  22.525  28.510  1.00  0.00     0.010 A 
ATOM     43  C   UNL A   1      42.086  23.510  27.678  1.00  0.00    -0.014 A 
BRANCH  43  44
ATOM     44  C   UNL A   1      42.493  24.835  28.226  1.00  0.00     0.031 A 
ATOM     45  C   UNL A   1      41.498  25.938  28.465  1.00  0.00     0.074 A 
ATOM     46  C   UNL A   1      43.796  25.061  28.485  1.00  0.00     0.049 A 
ATOM     47  N   UNL A   1      41.698  27.135  28.962  1.00  0.00    -0.248 NA
ATOM     48  C   UNL A   1      40.104  25.669  28.087  1.00  0.00     0.031 C 
ATOM     49  C   UNL A   1      44.877  24.098  28.273  1.00  0.00     0.029 A 
ATOM     50  N   UNL A   1      44.432  26.173  28.983  1.00  0.00    -0.354 N 
ATOM     51  C   UNL A   1      40.458  27.762  28.960  1.00  0.00     0.074 A 
ATOM     52  C   UNL A   1      39.520  26.825  28.376  1.00  0.00     0.031 C 
ATOM     53  C   UNL A   1      46.039  24.652  28.652  1.00  0.00     0.029 A 
ATOM     54  C   UNL A   1      45.791  26.016  29.110  1.00  0.00     0.049 A 
ATOM     55  H   UNL A   1      43.960  27.002  29.224  1.00  0.00     0.167 HD
ATOM     56  C   UNL A   1      40.128  28.999  29.411  1.00  0.00     0.031 A 
ATOM     57  C   UNL A   1      46.739  26.869  29.545  1.00  0.00     0.031 A 
ATOM     58  C   UNL A   1      41.056  29.943  29.982  1.00  0.00     0.049 A 
ATOM     59  C   UNL A   1      46.351  28.243  30.014  1.00  0.00     0.074 A 
ATOM     60  C   UNL A   1      40.792  31.194  30.520  1.00  0.00     0.029 A 
ATOM     61  N   UNL A   1      42.424  29.751  30.080  1.00  0.00    -0.354 N 
ATOM     62  N   UNL A   1      45.161  28.786  30.082  1.00  0.00    -0.248 NA
ATOM     63  C   UNL A   1      47.440  29.115  30.478  1.00  0.00     0.031 C 
ATOM     64  C   UNL A   1      42.008  31.779  30.895  1.00  0.00     0.029 A 
ATOM     65  C   UNL A   1      43.021  30.871  30.639  1.00  0.00     0.049 A 
ATOM     66  H   UNL A   1      42.902  28.939  29.796  1.00  0.00     0.167 HD
ATOM     67  C   UNL A   1      45.355  30.053  30.618  1.00  0.00     0.074 A 
ATOM     68  C   UNL A   1      46.774  30.192  30.869  1.00  0.00     0.031 C 
ATOM     69  C   UNL A   1      44.434  31.012  30.878  1.00  0.00     0.031 A 
BRANCH  56  70
ATOM     70  C   UNL A   1      38.687  29.418  29.296  1.00  0.00    -0.014 A 
ATOM     71  C   UNL A   1      37.783  29.201  30.349  1.00  0.00     0.009 A 
ATOM     72  C   UNL A   1      38.241  30.091  28.147  1.00  0.00     0.009 A 
ATOM     73  C   UNL A   1      36.455  29.620  30.240  1.00  0.00     0.001 A 
ATOM     74  C   UNL A   1      36.919  30.531  28.052  1.00  0.00     0.001 A 
ATOM     75  C   UNL A   1      36.025  30.287  29.093  1.00  0.00     0.000 A 
ENDBRANCH  56  70
BRANCH  57  76
ATOM     76  C   UNL A   1      48.159  26.438  29.576  1.00  0.00    -0.014 A 
ATOM     77  C   UNL A   1      48.996  26.668  28.475  1.00  0.00     0.009 A 
ATOM     78  C   UNL A   1      48.684  25.798  30.709  1.00  0.00     0.009 A 
ATOM     79  C   UNL A   1      50.327  26.248  28.499  1.00  0.00     0.001 A 
ATOM     80  C   UNL A   1      50.022  25.402  30.740  1.00  0.00     0.001 A 
ATOM     81  C   UNL A   1      50.840  25.620  29.632  1.00  0.00     0.000 A 
ENDBRANCH  57  76
BRANCH  69  82
ATOM     82  C   UNL A   1      44.931  32.294  31.487  1.00  0.00    -0.014 A 
ATOM     83  C   UNL A   1      45.032  32.446  32.879  1.00  0.00     0.009 A 
ATOM     84  C   UNL A   1      45.326  33.355  30.658  1.00  0.00     0.009 A 
ATOM     85  C   UNL A   1      45.487  33.647  33.427  1.00  0.00     0.001 A 
ATOM     86  C   UNL A   1      45.805  34.545  31.208  1.00  0.00     0.001 A 
ATOM     87  C   UNL A   1      45.878  34.694  32.592  1.00  0.00     0.000 A 
ENDBRANCH  69  82
ENDBRANCH  43  44
ENDBRANCH  35  38
ENDBRANCH  33  34
ENDBRANCH  32  33
ENDBRANCH  31  32
ENDBRANCH  30  31
ENDBRANCH   1  30
TORSDOF 19
ENDMDL
MODEL 2
REMARK VINA RESULT:     -11.5      0.980      5.825
REMARK SMILES CCc1ccc(OCC(=O)Nc2cc(C)c(O)c(C(=O)NCCCCCCNC(=O)c3ccc(-c4c5nc(c(-c6ccccc6)c6ccc([nH]6)c(-c6ccccc6)c6nc(c(-c7ccccc7)c7ccc4[nH]7)C=C6)C=C5)cc3)c2)cc1
REMARK SMILES IDX 23 1 22 2 21 3 19 4 20 5 18 7 12 8 13 9 79 10 14 11 15 12
REMARK SMILES IDX 16 13 11 14 9 15 10 16 8 18 7 19 6 20 3 21 4 22 81 23 5 24
REMARK SMILES IDX 80 25 2 26 1 27 17 28 24 30 25 31 26 32 27 33 28 34 29 35
REMARK SMILES IDX 30 37 31 38 32 39 78 40 33 41 77 42 34 43 35 44 36 45 71 46
REMARK SMILES IDX 37 47 76 48 70 49 72 50 38 51 75 52 69 53 68 54 39 56 61 57
REMARK SMILES IDX 46 58 60 59 47 60 50 61 59 62 73 63 48 64 49 65 58 67 74 68
REMARK SMILES IDX 51 69 40 70 41 71 45 72 42 73 44 74 43 75 62 76 63 77 67 78
REMARK SMILES IDX 64 79 66 80 65 81 52 82 53 83 57 84 54 85 56 86 55 87
REMARK H PARENT 21 6 11 17 17 29 28 36 72 55 50 66
REMARK Flexibility Score: inf
ROOT
ATOM      1  C   UNL A   1      35.214  22.401  27.054  1.00  0.00     0.021 C 
ENDROOT
BRANCH   1   2
ATOM      2  C   UNL A   1      34.113  21.574  27.722  1.00  0.00     0.116 C 
BRANCH   2   3
ATOM      3  N   UNL A   1      32.848  22.287  27.821  1.00  0.00    -0.352 N 
ATOM      4  C   UNL A   1      32.058  22.919  26.892  1.00  0.00     0.255 C 
ATOM      5  O   UNL A   1      31.067  23.525  27.315  1.00  0.00    -0.269 OA
ATOM      6  H   UNL A   1      32.488  22.323  28.737  1.00  0.00     0.163 HD
BRANCH   4   7
ATOM      7  C   UNL A   1      32.325  22.972  25.422  1.00  0.00     0.083 A 
ATOM      8  C   UNL A   1      33.050  24.125  23.395  1.00  0.00     0.042 A 
ATOM      9  C   UNL A   1      32.763  22.962  22.662  1.00  0.00     0.033 A 
ATOM     10  C   UNL A   1      32.850  24.109  24.778  1.00  0.00     0.043 A 
ATOM     11  C   UNL A   1      32.299  21.792  23.277  1.00  0.00    -0.006 A 
ATOM     12  C   UNL A   1      32.079  20.571  22.427  1.00  0.00     0.048 C 
ATOM     13  C   UNL A   1      32.090  21.806  24.659  1.00  0.00     0.131 A 
BRANCH   8  14
ATOM     14  N   UNL A   1      33.450  25.225  22.616  1.00  0.00    -0.323 N 
ATOM     15  C   UNL A   1      32.896  26.046  21.685  1.00  0.00     0.262 C 
ATOM     16  O   UNL A   1      33.676  26.814  21.106  1.00  0.00    -0.271 OA
ATOM     17  H   UNL A   1      34.388  25.466  22.792  1.00  0.00     0.170 HD
BRANCH  15  18
ATOM     18  C   UNL A   1      31.394  26.134  21.418  1.00  0.00     0.329 C 
BRANCH  18  19
ATOM     19  O   UNL A   1      30.706  27.292  21.882  1.00  0.00    -0.484 OA
BRANCH  19  20
ATOM     20  C   UNL A   1      30.818  27.549  23.218  1.00  0.00     0.120 A 
ATOM     21  C   UNL A   1      31.363  28.076  25.936  1.00  0.00    -0.048 A 
ATOM     22  C   UNL A   1      30.688  26.912  25.555  1.00  0.00     0.007 A 
ATOM     23  C   UNL A   1      31.704  28.998  24.932  1.00  0.00     0.007 A 
ATOM     24  C   UNL A   1      30.436  26.650  24.201  1.00  0.00     0.047 A 
ATOM     25  C   UNL A   1      31.447  28.728  23.586  1.00  0.00     0.047 A 
BRANCH  21  26
ATOM     26  C   UNL A   1      31.703  28.400  27.374  1.00  0.00     0.032 C 
ATOM     27  C   UNL A   1      33.165  28.715  27.674  1.00  0.00     0.009 C 
ENDBRANCH  21  26
ENDBRANCH  19  20
ENDBRANCH  18  19
ENDBRANCH  15  18
ENDBRANCH   8  14
BRANCH  13  28
ATOM     28  O   UNL A   1      31.646  20.637  25.227  1.00  0.00    -0.507 OA
ATOM     29  H   UNL A   1      30.778  20.586  25.576  1.00  0.00     0.293 HD
ENDBRANCH  13  28
ENDBRANCH   4   7
ENDBRANCH   2   3
ENDBRANCH   1   2
BRANCH   1  30
ATOM     30  C   UNL A   1      35.734  22.042  25.642  1.00  0.00     0.002 C 
BRANCH  30  31
ATOM     31  C   UNL A   1      35.664  20.609  25.099  1.00  0.00     0.002 C 
BRANCH  31  32
ATOM     32  C   UNL A   1      36.988  19.843  24.907  1.00  0.00     0.021 C 
BRANCH  32  33
ATOM     33  C   UNL A   1      38.300  20.495  25.379  1.00  0.00     0.116 C 
BRANCH  33  34
ATOM     34  N   UNL A   1      39.430  19.589  25.455  1.00  0.00    -0.352 N 
ATOM     35  C   UNL A   1      40.693  19.766  25.977  1.00  0.00     0.251 C 
ATOM     36  H   UNL A   1      39.269  18.698  25.069  1.00  0.00     0.163 HD
ATOM     37  O   UNL A   1      41.492  18.833  25.898  1.00  0.00    -0.269 OA
BRANCH  35  38
ATOM     38  C   UNL A   1      41.149  21.041  26.605  1.00  0.00     0.039 A 
ATOM     39  C   UNL A   1      41.739  22.002  25.772  1.00  0.00     0.014 A 
ATOM     40  C   UNL A   1      41.098  21.288  27.978  1.00  0.00     0.014 A 
ATOM     41  C   UNL A   1      42.218  23.212  26.295  1.00  0.00     0.010 A 
ATOM     42  C   UNL A   1      41.555  22.509  28.504  1.00  0.00     0.010 A 
ATOM     43  C   UNL A   1      42.109  23.489  27.666  1.00  0.00    -0.014 A 
BRANCH  43  44
ATOM     44  C   UNL A   1      42.492  24.827  28.201  1.00  0.00     0.031 A 
ATOM     45  C   UNL A   1      43.909  25.154  28.585  1.00  0.00     0.074 A 
ATOM     46  C   UNL A   1      41.534  25.759  28.375  1.00  0.00     0.049 A 
ATOM     47  N   UNL A   1      44.401  26.283  29.039  1.00  0.00    -0.248 NA
ATOM     48  C   UNL A   1      44.899  24.076  28.455  1.00  0.00     0.031 C 
ATOM     49  C   UNL A   1      40.114  25.573  28.078  1.00  0.00     0.029 A 
ATOM     50  N   UNL A   1      41.611  27.048  28.846  1.00  0.00    -0.354 N 
ATOM     51  C   UNL A   1      45.755  26.054  29.248  1.00  0.00     0.074 A 
ATOM     52  C   UNL A   1      45.999  24.667  28.905  1.00  0.00     0.031 C 
ATOM     53  C   UNL A   1      39.455  26.709  28.357  1.00  0.00     0.029 A 
ATOM     54  C   UNL A   1      40.400  27.694  28.876  1.00  0.00     0.049 A 
ATOM     55  H   UNL A   1      42.453  27.467  29.135  1.00  0.00     0.167 HD
ATOM     56  C   UNL A   1      46.710  26.919  29.674  1.00  0.00     0.031 A 
ATOM     57  C   UNL A   1      40.076  28.940  29.273  1.00  0.00     0.031 A 
ATOM     58  C   UNL A   1      46.475  28.296  30.028  1.00  0.00     0.049 A 
ATOM     59  C   UNL A   1      41.148  29.870  29.767  1.00  0.00     0.074 A 
ATOM     60  C   UNL A   1      47.399  29.258  30.411  1.00  0.00     0.029 A 
ATOM     61  N   UNL A   1      45.233  28.908  30.057  1.00  0.00    -0.354 N 
ATOM     62  N   UNL A   1      42.436  29.661  29.876  1.00  0.00    -0.248 NA
ATOM     63  C   UNL A   1      40.717  31.214  30.180  1.00  0.00     0.031 C 
ATOM     64  C   UNL A   1      46.707  30.435  30.721  1.00  0.00     0.029 A 
ATOM     65  C   UNL A   1      45.361  30.222  30.482  1.00  0.00     0.049 A 
ATOM     66  H   UNL A   1      44.384  28.473  29.812  1.00  0.00     0.167 HD
ATOM     67  C   UNL A   1      42.973  30.852  30.347  1.00  0.00     0.074 A 
ATOM     68  C   UNL A   1      41.874  31.784  30.489  1.00  0.00     0.031 C 
ATOM     69  C   UNL A   1      44.264  31.144  30.633  1.00  0.00     0.031 A 
BRANCH  56  70
ATOM     70  C   UNL A   1      48.116  26.397  29.794  1.00  0.00    -0.014 A 
ATOM     71  C   UNL A   1      48.574  25.814  30.986  1.00  0.00     0.009 A 
ATOM     72  C   UNL A   1      48.975  26.434  28.683  1.00  0.00     0.009 A 
ATOM     73  C   UNL A   1      49.873  25.309  31.074  1.00  0.00     0.001 A 
ATOM     74  C   UNL A   1      50.265  25.905  28.767  1.00  0.00     0.001 A 
ATOM     75  C   UNL A   1      50.717  25.352  29.964  1.00  0.00     0.000 A 
ENDBRANCH  56  70
BRANCH  57  76
ATOM     76  C   UNL A   1      38.663  29.391  29.203  1.00  0.00    -0.014 A 
ATOM     77  C   UNL A   1      38.161  29.972  28.029  1.00  0.00     0.009 A 
ATOM     78  C   UNL A   1      37.811  29.239  30.307  1.00  0.00     0.009 A 
ATOM     79  C   UNL A   1      36.837  30.410  27.969  1.00  0.00     0.001 A 
ATOM     80  C   UNL A   1      36.481  29.655  30.235  1.00  0.00     0.001 A 
ATOM     81  C   UNL A   1      35.997  30.247  29.070  1.00  0.00     0.000 A 
ENDBRANCH  57  76
BRANCH  69  82
ATOM     82  C   UNL A   1      44.565  32.538  31.110  1.00  0.00    -0.014 A 
ATOM     83  C   UNL A   1      44.851  33.571  30.203  1.00  0.00     0.009 A 
ATOM     84  C   UNL A   1      44.537  32.828  32.482  1.00  0.00     0.009 A 
ATOM     85  C   UNL A   1      45.136  34.857  30.664  1.00  0.00     0.001 A 
ATOM     86  C   UNL A   1      44.797  34.121  32.939  1.00  0.00     0.001 A 
ATOM     87  C   UNL A   1      45.105  35.133  32.031  1.00  0.00     0.000 A 
ENDBRANCH  69  82
ENDBRANCH  43  44
ENDBRANCH  35  38
ENDBRANCH  33  34
ENDBRANCH  32  33
ENDBRANCH  31  32
ENDBRANCH  30  31
ENDBRANCH   1  30
TORSDOF 19
ENDMDL
MODEL 3
REMARK VINA RESULT:     -11.1      4.921      9.888
REMARK SMILES CCc1ccc(OCC(=O)Nc2cc(C)c(O)c(C(=O)NCCCCCCNC(=O)c3ccc(-c4c5nc(c(-c6ccccc6)c6ccc([nH]6)c(-c6ccccc6)c6nc(c(-c7ccccc7)c7ccc4[nH]7)C=C6)C=C5)cc3)c2)cc1
REMARK SMILES IDX 23 1 22 2 21 3 19 4 20 5 18 7 12 8 13 9 79 10 14 11 15 12
REMARK SMILES IDX 16 13 11 14 9 15 10 16 8 18 7 19 6 20 3 21 4 22 81 23 5 24
REMARK SMILES IDX 80 25 2 26 1 27 17 28 24 30 25 31 26 32 27 33 28 34 29 35
REMARK SMILES IDX 30 37 31 38 32 39 78 40 33 41 77 42 34 43 35 44 36 45 71 46
REMARK SMILES IDX 37 47 76 48 70 49 72 50 38 51 75 52 69 53 68 54 39 56 61 57
REMARK SMILES IDX 46 58 60 59 47 60 50 61 59 62 73 63 48 64 49 65 58 67 74 68
REMARK SMILES IDX 51 69 40 70 41 71 45 72 42 73 44 74 43 75 62 76 63 77 67 78
REMARK SMILES IDX 64 79 66 80 65 81 52 82 53 83 57 84 54 85 56 86 55 87
REMARK H PARENT 21 6 11 17 17 29 28 36 72 55 50 66
REMARK Flexibility Score: inf
ROOT
ATOM      1  C   UNL A   1      34.790  31.891  28.553  1.00  0.00     0.021 C 
ENDROOT
BRANCH   1   2
ATOM      2  C   UNL A   1      33.909  31.285  27.458  1.00  0.00     0.116 C 
BRANCH   2   3
ATOM      3  N   UNL A   1      33.257  30.052  27.872  1.00  0.00    -0.352 N 
ATOM      4  C   UNL A   1      32.540  29.100  27.189  1.00  0.00     0.255 C 
ATOM      5  O   UNL A   1      32.026  28.196  27.856  1.00  0.00    -0.269 OA
ATOM      6  H   UNL A   1      33.349  29.862  28.834  1.00  0.00     0.163 HD
BRANCH   4   7
ATOM      7  C   UNL A   1      32.293  29.098  25.714  1.00  0.00     0.083 A 
ATOM      8  C   UNL A   1      30.845  29.339  23.762  1.00  0.00     0.042 A 
ATOM      9  C   UNL A   1      31.945  29.041  22.942  1.00  0.00     0.033 A 
ATOM     10  C   UNL A   1      31.037  29.389  25.145  1.00  0.00     0.043 A 
ATOM     11  C   UNL A   1      33.222  28.808  23.467  1.00  0.00    -0.006 A 
ATOM     12  C   UNL A   1      34.359  28.561  22.514  1.00  0.00     0.048 C 
ATOM     13  C   UNL A   1      33.387  28.846  24.855  1.00  0.00     0.131 A 
BRANCH   8  14
ATOM     14  N   UNL A   1      29.626  29.488  23.078  1.00  0.00    -0.323 N 
ATOM     15  C   UNL A   1      28.491  28.764  22.887  1.00  0.00     0.262 C 
ATOM     16  O   UNL A   1      27.699  29.209  22.046  1.00  0.00    -0.271 OA
ATOM     17  H   UNL A   1      29.582  30.351  22.607  1.00  0.00     0.170 HD
BRANCH  15  18
ATOM     18  C   UNL A   1      28.119  27.535  23.716  1.00  0.00     0.329 C 
BRANCH  18  19
ATOM     19  O   UNL A   1      28.757  26.303  23.396  1.00  0.00    -0.484 OA
BRANCH  19  20
ATOM     20  C   UNL A   1      29.911  26.041  24.077  1.00  0.00     0.120 A 
ATOM     21  C   UNL A   1      32.289  25.213  25.350  1.00  0.00    -0.048 A 
ATOM     22  C   UNL A   1      31.154  25.540  26.099  1.00  0.00     0.007 A 
ATOM     23  C   UNL A   1      32.225  25.370  23.956  1.00  0.00     0.007 A 
ATOM     24  C   UNL A   1      29.971  25.934  25.458  1.00  0.00     0.047 A 
ATOM     25  C   UNL A   1      31.042  25.765  23.327  1.00  0.00     0.047 A 
BRANCH  21  26
ATOM     26  C   UNL A   1      33.584  24.742  25.976  1.00  0.00     0.032 C 
ATOM     27  C   UNL A   1      34.794  24.653  25.050  1.00  0.00     0.009 C 
ENDBRANCH  21  26
ENDBRANCH  19  20
ENDBRANCH  18  19
ENDBRANCH  15  18
ENDBRANCH   8  14
BRANCH  13  28
ATOM     28  O   UNL A   1      34.656  28.624  25.331  1.00  0.00    -0.507 OA
ATOM     29  H   UNL A   1      34.988  29.143  26.037  1.00  0.00     0.293 HD
ENDBRANCH  13  28
ENDBRANCH   4   7
ENDBRANCH   2   3
ENDBRANCH   1   2
BRANCH   1  30
ATOM     30  C   UNL A   1      35.358  33.324  28.417  1.00  0.00     0.002 C 
BRANCH  30  31
ATOM     31  C   UNL A   1      34.470  34.504  28.001  1.00  0.00     0.002 C 
BRANCH  31  32
ATOM     32  C   UNL A   1      33.260  34.847  28.892  1.00  0.00     0.021 C 
BRANCH  32  33
ATOM     33  C   UNL A   1      33.165  36.254  29.508  1.00  0.00     0.116 C 
BRANCH  33  34
ATOM     34  N   UNL A   1      32.415  36.321  30.748  1.00  0.00    -0.352 N 
ATOM     35  C   UNL A   1      32.673  35.778  31.988  1.00  0.00     0.251 C 
ATOM     36  H   UNL A   1      31.581  36.842  30.695  1.00  0.00     0.163 HD
ATOM     37  O   UNL A   1      31.854  35.965  32.888  1.00  0.00    -0.269 OA
BRANCH  35  38
ATOM     38  C   UNL A   1      33.878  34.949  32.285  1.00  0.00     0.039 A 
ATOM     39  C   UNL A   1      35.135  35.550  32.130  1.00  0.00     0.014 A 
ATOM     40  C   UNL A   1      33.821  33.595  32.622  1.00  0.00     0.014 A 
ATOM     41  C   UNL A   1      36.313  34.825  32.363  1.00  0.00     0.010 A 
ATOM     42  C   UNL A   1      34.999  32.872  32.880  1.00  0.00     0.010 A 
ATOM     43  C   UNL A   1      36.257  33.482  32.765  1.00  0.00    -0.014 A 
BRANCH  43  44
ATOM     44  C   UNL A   1      37.500  32.752  33.145  1.00  0.00     0.031 A 
ATOM     45  C   UNL A   1      38.108  31.702  32.256  1.00  0.00     0.074 A 
ATOM     46  C   UNL A   1      38.077  33.020  34.332  1.00  0.00     0.049 A 
ATOM     47  N   UNL A   1      39.202  31.001  32.438  1.00  0.00    -0.248 NA
ATOM     48  C   UNL A   1      37.393  31.389  31.011  1.00  0.00     0.031 C 
ATOM     49  C   UNL A   1      37.582  33.989  35.311  1.00  0.00     0.029 A 
ATOM     50  N   UNL A   1      39.206  32.499  34.919  1.00  0.00    -0.354 N 
ATOM     51  C   UNL A   1      39.310  30.165  31.332  1.00  0.00     0.074 A 
ATOM     52  C   UNL A   1      38.149  30.422  30.504  1.00  0.00     0.031 C 
ATOM     53  C   UNL A   1      38.409  34.006  36.367  1.00  0.00     0.029 A 
ATOM     54  C   UNL A   1      39.478  33.034  36.155  1.00  0.00     0.049 A 
ATOM     55  H   UNL A   1      39.765  31.809  34.495  1.00  0.00     0.167 HD
ATOM     56  C   UNL A   1      40.288  29.275  31.029  1.00  0.00     0.031 A 
ATOM     57  C   UNL A   1      40.473  32.777  37.025  1.00  0.00     0.031 A 
ATOM     58  C   UNL A   1      41.441  29.005  31.851  1.00  0.00     0.049 A 
ATOM     59  C   UNL A   1      41.530  31.767  36.677  1.00  0.00     0.074 A 
ATOM     60  C   UNL A   1      42.510  28.162  31.587  1.00  0.00     0.029 A 
ATOM     61  N   UNL A   1      41.672  29.557  33.101  1.00  0.00    -0.354 N 
ATOM     62  N   UNL A   1      41.659  31.050  35.590  1.00  0.00    -0.248 NA
ATOM     63  C   UNL A   1      42.585  31.544  37.677  1.00  0.00     0.031 C 
ATOM     64  C   UNL A   1      43.360  28.166  32.700  1.00  0.00     0.029 A 
ATOM     65  C   UNL A   1      42.847  29.050  33.633  1.00  0.00     0.049 A 
ATOM     66  H   UNL A   1      41.087  30.213  33.544  1.00  0.00     0.167 HD
ATOM     67  C   UNL A   1      42.821  30.308  35.763  1.00  0.00     0.074 A 
ATOM     68  C   UNL A   1      43.366  30.673  37.053  1.00  0.00     0.031 C 
ATOM     69  C   UNL A   1      43.382  29.406  34.922  1.00  0.00     0.031 A 
BRANCH  56  70
ATOM     70  C   UNL A   1      40.153  28.508  29.741  1.00  0.00    -0.014 A 
ATOM     71  C   UNL A   1      40.677  29.011  28.539  1.00  0.00     0.009 A 
ATOM     72  C   UNL A   1      39.549  27.240  29.740  1.00  0.00     0.009 A 
ATOM     73  C   UNL A   1      40.569  28.275  27.357  1.00  0.00     0.001 A 
ATOM     74  C   UNL A   1      39.466  26.496  28.561  1.00  0.00     0.001 A 
ATOM     75  C   UNL A   1      39.966  27.018  27.370  1.00  0.00     0.000 A 
ENDBRANCH  56  70
BRANCH  57  76
ATOM     76  C   UNL A   1      40.529  33.509  38.316  1.00  0.00    -0.014 A 
ATOM     77  C   UNL A   1      39.839  33.025  39.437  1.00  0.00     0.009 A 
ATOM     78  C   UNL A   1      41.275  34.691  38.433  1.00  0.00     0.009 A 
ATOM     79  C   UNL A   1      39.879  33.722  40.646  1.00  0.00     0.001 A 
ATOM     80  C   UNL A   1      41.334  35.372  39.650  1.00  0.00     0.001 A 
ATOM     81  C   UNL A   1      40.630  34.892  40.753  1.00  0.00     0.000 A 
ENDBRANCH  57  76
BRANCH  69  82
ATOM     82  C   UNL A   1      44.668  28.765  35.363  1.00  0.00    -0.014 A 
ATOM     83  C   UNL A   1      44.671  27.557  36.080  1.00  0.00     0.009 A 
ATOM     84  C   UNL A   1      45.895  29.362  35.037  1.00  0.00     0.009 A 
ATOM     85  C   UNL A   1      45.874  26.980  36.489  1.00  0.00     0.001 A 
ATOM     86  C   UNL A   1      47.098  28.769  35.425  1.00  0.00     0.001 A 
ATOM     87  C   UNL A   1      47.087  27.583  36.157  1.00  0.00     0.000 A 
ENDBRANCH  69  82
ENDBRANCH  43  44
ENDBRANCH  35  38
ENDBRANCH  33  34
ENDBRANCH  32  33
ENDBRANCH  31  32
ENDBRANCH  30  31
ENDBRANCH   1  30
TORSDOF 19
ENDMDL
