MODEL 1
REMARK VINA RESULT:     -11.6      0.000      0.000
REMARK SMILES C[C@H]1CC[C@@](Nc2ccc(C(N)=O)nn2)(C(=O)NCCCCCCNC(=O)c2ccc(-c3c4nc(c(-c5ccccc5)c5ccc([nH]5)c(-c5ccccc5)c5nc(c(-c6ccccc6)c6ccc3[nH]6)C=C5)C=C4)cc2)CC1
REMARK SMILES IDX 21 1 20 2 19 3 18 4 16 5 17 6 5 8 1 9 2 10 77 11 3 12 76 13
REMARK SMILES IDX 4 14 6 15 7 17 8 18 15 19 9 20 14 21 10 22 11 23 12 24 13 25
REMARK SMILES IDX 22 28 23 29 24 30 25 31 26 32 27 34 28 35 29 36 75 37 30 38
REMARK SMILES IDX 74 39 31 40 32 41 33 42 68 43 34 44 73 45 67 46 69 47 35 48
REMARK SMILES IDX 72 49 66 50 65 51 36 53 58 54 43 55 57 56 44 57 47 58 56 59
REMARK SMILES IDX 70 60 45 61 46 62 55 64 71 65 48 66 37 67 38 68 42 69 39 70
REMARK SMILES IDX 41 71 40 72 59 73 60 74 64 75 61 76 63 77 62 78 49 79 50 80
REMARK SMILES IDX 54 81 51 82 53 83 52 84
REMARK H PARENT 18 7 6 16 12 26 12 27 25 33 69 52 47 63
REMARK Flexibility Score: inf
ROOT
ATOM      1  C   UNL A   1      37.286  21.801  24.604  1.00  0.00     0.002 C 
ENDROOT
BRANCH   1   2
ATOM      2  C   UNL A   1      36.617  22.580  23.465  1.00  0.00     0.021 C 
BRANCH   2   3
ATOM      3  C   UNL A   1      35.139  22.846  23.713  1.00  0.00     0.116 C 
BRANCH   3   4
ATOM      4  N   UNL A   1      34.793  22.537  25.086  1.00  0.00    -0.354 N 
ATOM      5  C   UNL A   1      33.606  22.192  25.655  1.00  0.00     0.245 C 
ATOM      6  O   UNL A   1      33.663  21.857  26.843  1.00  0.00    -0.272 OA
ATOM      7  H   UNL A   1      35.549  22.586  25.715  1.00  0.00     0.163 HD
BRANCH   5   8
ATOM      8  C   UNL A   1      32.262  22.164  24.841  1.00  0.00     0.118 C 
ATOM      9  C   UNL A   1      31.109  26.098  26.440  1.00  0.00     0.007 C 
ATOM     10  C   UNL A   1      31.005  24.806  25.629  1.00  0.00    -0.014 C 
ATOM     11  C   UNL A   1      30.938  23.583  26.552  1.00  0.00     0.006 C 
ATOM     12  C   UNL A   1      32.173  24.713  24.648  1.00  0.00     0.006 C 
ATOM     13  C   UNL A   1      31.051  22.242  25.808  1.00  0.00     0.039 C 
ATOM     14  C   UNL A   1      32.150  23.388  23.894  1.00  0.00     0.039 C 
BRANCH   8  15
ATOM     15  N   UNL A   1      32.118  20.922  24.026  1.00  0.00    -0.354 N 
ATOM     16  H   UNL A   1      31.611  20.973  23.183  1.00  0.00     0.163 HD
BRANCH  15  17
ATOM     17  C   UNL A   1      32.658  19.702  24.389  1.00  0.00     0.149 A 
ATOM     18  C   UNL A   1      33.596  19.016  23.631  1.00  0.00     0.051 A 
ATOM     19  N   UNL A   1      32.132  19.119  25.492  1.00  0.00    -0.132 NA
ATOM     20  C   UNL A   1      33.892  17.687  23.933  1.00  0.00     0.040 A 
ATOM     21  N   UNL A   1      32.400  17.802  25.795  1.00  0.00    -0.143 NA
ATOM     22  C   UNL A   1      33.246  17.103  25.004  1.00  0.00     0.150 A 
BRANCH  22  23
ATOM     23  C   UNL A   1      33.385  15.647  25.285  1.00  0.00     0.269 C 
ATOM     24  N   UNL A   1      32.223  14.938  25.430  1.00  0.00    -0.364 N 
ATOM     25  O   UNL A   1      34.480  15.096  25.351  1.00  0.00    -0.268 OA
ATOM     26  H   UNL A   1      31.355  15.398  25.373  1.00  0.00     0.160 HD
ATOM     27  H   UNL A   1      32.256  13.967  25.591  1.00  0.00     0.160 HD
ENDBRANCH  22  23
ENDBRANCH  15  17
ENDBRANCH   8  15
ENDBRANCH   5   8
ENDBRANCH   3   4
ENDBRANCH   2   3
ENDBRANCH   1   2
BRANCH   1  28
ATOM     28  C   UNL A   1      36.873  20.327  24.700  1.00  0.00     0.002 C 
BRANCH  28  29
ATOM     29  C   UNL A   1      38.021  19.354  24.978  1.00  0.00     0.021 C 
BRANCH  29  30
ATOM     30  C   UNL A   1      39.184  19.959  25.758  1.00  0.00     0.116 C 
BRANCH  30  31
ATOM     31  N   UNL A   1      40.329  19.067  25.802  1.00  0.00    -0.352 N 
ATOM     32  C   UNL A   1      41.645  19.343  26.058  1.00  0.00     0.251 C 
ATOM     33  H   UNL A   1      40.128  18.121  25.619  1.00  0.00     0.163 HD
ATOM     34  O   UNL A   1      42.499  18.484  25.855  1.00  0.00    -0.269 OA
BRANCH  32  35
ATOM     35  C   UNL A   1      42.046  20.672  26.561  1.00  0.00     0.039 A 
ATOM     36  C   UNL A   1      42.398  21.653  25.631  1.00  0.00     0.014 A 
ATOM     37  C   UNL A   1      42.119  20.947  27.931  1.00  0.00     0.014 A 
ATOM     38  C   UNL A   1      42.786  22.916  26.072  1.00  0.00     0.010 A 
ATOM     39  C   UNL A   1      42.434  22.231  28.368  1.00  0.00     0.010 A 
ATOM     40  C   UNL A   1      42.783  23.225  27.443  1.00  0.00    -0.014 A 
BRANCH  40  41
ATOM     41  C   UNL A   1      43.134  24.593  27.898  1.00  0.00     0.031 A 
ATOM     42  C   UNL A   1      44.568  25.036  27.974  1.00  0.00     0.074 A 
ATOM     43  C   UNL A   1      42.147  25.439  28.246  1.00  0.00     0.049 A 
ATOM     44  N   UNL A   1      45.049  26.219  28.268  1.00  0.00    -0.248 NA
ATOM     45  C   UNL A   1      45.598  24.020  27.708  1.00  0.00     0.031 C 
ATOM     46  C   UNL A   1      40.719  25.110  28.268  1.00  0.00     0.029 A 
ATOM     47  N   UNL A   1      42.190  26.755  28.631  1.00  0.00    -0.354 N 
ATOM     48  C   UNL A   1      46.431  26.087  28.224  1.00  0.00     0.074 A 
ATOM     49  C   UNL A   1      46.714  24.699  27.932  1.00  0.00     0.031 C 
ATOM     50  C   UNL A   1      40.020  26.209  28.595  1.00  0.00     0.029 A 
ATOM     51  C   UNL A   1      40.950  27.307  28.836  1.00  0.00     0.049 A 
ATOM     52  H   UNL A   1      43.030  27.256  28.749  1.00  0.00     0.167 HD
ATOM     53  C   UNL A   1      47.380  27.040  28.388  1.00  0.00     0.031 A 
ATOM     54  C   UNL A   1      40.597  28.564  29.165  1.00  0.00     0.031 A 
ATOM     55  C   UNL A   1      47.097  28.422  28.679  1.00  0.00     0.049 A 
ATOM     56  C   UNL A   1      41.668  29.602  29.337  1.00  0.00     0.074 A 
ATOM     57  C   UNL A   1      47.985  29.476  28.809  1.00  0.00     0.029 A 
ATOM     58  N   UNL A   1      45.830  28.940  28.891  1.00  0.00    -0.354 N 
ATOM     59  N   UNL A   1      42.967  29.481  29.206  1.00  0.00    -0.248 NA
ATOM     60  C   UNL A   1      41.219  30.957  29.684  1.00  0.00     0.031 C 
ATOM     61  C   UNL A   1      47.258  30.620  29.154  1.00  0.00     0.029 A 
ATOM     62  C   UNL A   1      45.913  30.293  29.179  1.00  0.00     0.049 A 
ATOM     63  H   UNL A   1      44.993  28.423  28.845  1.00  0.00     0.167 HD
ATOM     64  C   UNL A   1      43.489  30.747  29.437  1.00  0.00     0.074 A 
ATOM     65  C   UNL A   1      42.364  31.624  29.685  1.00  0.00     0.031 C 
ATOM     66  C   UNL A   1      44.785  31.147  29.445  1.00  0.00     0.031 A 
BRANCH  53  67
ATOM     67  C   UNL A   1      48.818  26.615  28.262  1.00  0.00    -0.014 A 
ATOM     68  C   UNL A   1      49.475  26.631  27.021  1.00  0.00     0.009 A 
ATOM     69  C   UNL A   1      49.536  26.226  29.403  1.00  0.00     0.009 A 
ATOM     70  C   UNL A   1      50.810  26.232  26.920  1.00  0.00     0.001 A 
ATOM     71  C   UNL A   1      50.879  25.856  29.304  1.00  0.00     0.001 A 
ATOM     72  C   UNL A   1      51.511  25.849  28.062  1.00  0.00     0.000 A 
ENDBRANCH  53  67
BRANCH  54  73
ATOM     73  C   UNL A   1      39.162  28.916  29.322  1.00  0.00    -0.014 A 
ATOM     74  C   UNL A   1      38.520  28.757  30.559  1.00  0.00     0.009 A 
ATOM     75  C   UNL A   1      38.426  29.408  28.234  1.00  0.00     0.009 A 
ATOM     76  C   UNL A   1      37.163  29.057  30.697  1.00  0.00     0.001 A 
ATOM     77  C   UNL A   1      37.076  29.736  28.381  1.00  0.00     0.001 A 
ATOM     78  C   UNL A   1      36.443  29.551  29.609  1.00  0.00     0.000 A 
ENDBRANCH  54  73
BRANCH  66  79
ATOM     79  C   UNL A   1      45.042  32.603  29.720  1.00  0.00    -0.014 A 
ATOM     80  C   UNL A   1      45.211  33.077  31.031  1.00  0.00     0.009 A 
ATOM     81  C   UNL A   1      45.119  33.511  28.653  1.00  0.00     0.009 A 
ATOM     82  C   UNL A   1      45.404  34.440  31.269  1.00  0.00     0.001 A 
ATOM     83  C   UNL A   1      45.344  34.867  28.893  1.00  0.00     0.001 A 
ATOM     84  C   UNL A   1      45.472  35.332  30.201  1.00  0.00     0.000 A 
ENDBRANCH  66  79
ENDBRANCH  40  41
ENDBRANCH  32  35
ENDBRANCH  30  31
ENDBRANCH  29  30
ENDBRANCH  28  29
ENDBRANCH   1  28
TORSDOF 16
ENDMDL
MODEL 2
REMARK VINA RESULT:     -11.6      1.063      1.297
REMARK SMILES C[C@H]1CC[C@@](Nc2ccc(C(N)=O)nn2)(C(=O)NCCCCCCNC(=O)c2ccc(-c3c4nc(c(-c5ccccc5)c5ccc([nH]5)c(-c5ccccc5)c5nc(c(-c6ccccc6)c6ccc3[nH]6)C=C5)C=C4)cc2)CC1
REMARK SMILES IDX 21 1 20 2 19 3 18 4 16 5 17 6 5 8 1 9 2 10 77 11 3 12 76 13
REMARK SMILES IDX 4 14 6 15 7 17 8 18 15 19 9 20 14 21 10 22 11 23 12 24 13 25
REMARK SMILES IDX 22 28 23 29 24 30 25 31 26 32 27 34 28 35 29 36 75 37 30 38
REMARK SMILES IDX 74 39 31 40 32 41 33 42 68 43 34 44 73 45 67 46 69 47 35 48
REMARK SMILES IDX 72 49 66 50 65 51 36 53 58 54 43 55 57 56 44 57 47 58 56 59
REMARK SMILES IDX 70 60 45 61 46 62 55 64 71 65 48 66 37 67 38 68 42 69 39 70
REMARK SMILES IDX 41 71 40 72 59 73 60 74 64 75 61 76 63 77 62 78 49 79 50 80
REMARK SMILES IDX 54 81 51 82 53 83 52 84
REMARK H PARENT 18 7 6 16 12 26 12 27 25 33 69 52 47 63
REMARK Flexibility Score: inf
ROOT
ATOM      1  C   UNL A   1      38.271  22.534  25.565  1.00  0.00     0.002 C 
ENDROOT
BRANCH   1   2
ATOM      2  C   UNL A   1      37.270  23.546  26.135  1.00  0.00     0.021 C 
BRANCH   2   3
ATOM      3  C   UNL A   1      35.878  23.409  25.536  1.00  0.00     0.116 C 
BRANCH   3   4
ATOM      4  N   UNL A   1      34.905  23.135  26.574  1.00  0.00    -0.354 N 
ATOM      5  C   UNL A   1      33.558  22.949  26.514  1.00  0.00     0.245 C 
ATOM      6  O   UNL A   1      33.021  22.596  27.570  1.00  0.00    -0.272 OA
ATOM      7  H   UNL A   1      35.286  23.072  27.480  1.00  0.00     0.163 HD
BRANCH   5   8
ATOM      8  C   UNL A   1      32.747  23.115  25.178  1.00  0.00     0.118 C 
ATOM      9  C   UNL A   1      31.198  27.015  26.500  1.00  0.00     0.007 C 
ATOM     10  C   UNL A   1      31.413  25.804  25.592  1.00  0.00    -0.014 C 
ATOM     11  C   UNL A   1      30.859  24.529  26.241  1.00  0.00     0.006 C 
ATOM     12  C   UNL A   1      32.896  25.667  25.251  1.00  0.00     0.006 C 
ATOM     13  C   UNL A   1      31.232  23.241  25.487  1.00  0.00     0.039 C 
ATOM     14  C   UNL A   1      33.155  24.411  24.428  1.00  0.00     0.039 C 
BRANCH   8  15
ATOM     15  N   UNL A   1      32.932  21.956  24.255  1.00  0.00    -0.354 N 
ATOM     16  H   UNL A   1      32.879  22.119  23.286  1.00  0.00     0.163 HD
BRANCH  15  17
ATOM     17  C   UNL A   1      33.173  20.665  24.688  1.00  0.00     0.149 A 
ATOM     18  C   UNL A   1      34.402  20.032  24.579  1.00  0.00     0.051 A 
ATOM     19  N   UNL A   1      32.098  19.970  25.126  1.00  0.00    -0.132 NA
ATOM     20  C   UNL A   1      34.494  18.658  24.797  1.00  0.00     0.040 A 
ATOM     21  N   UNL A   1      32.167  18.610  25.330  1.00  0.00    -0.143 NA
ATOM     22  C   UNL A   1      33.345  17.974  25.137  1.00  0.00     0.150 A 
BRANCH  22  23
ATOM     23  C   UNL A   1      33.331  16.487  25.223  1.00  0.00     0.269 C 
ATOM     24  N   UNL A   1      34.550  15.862  25.211  1.00  0.00    -0.364 N 
ATOM     25  O   UNL A   1      32.289  15.848  25.333  1.00  0.00    -0.268 OA
ATOM     26  H   UNL A   1      35.374  16.392  25.121  1.00  0.00     0.160 HD
ATOM     27  H   UNL A   1      34.601  14.882  25.291  1.00  0.00     0.160 HD
ENDBRANCH  22  23
ENDBRANCH  15  17
ENDBRANCH   8  15
ENDBRANCH   5   8
ENDBRANCH   3   4
ENDBRANCH   2   3
ENDBRANCH   1   2
BRANCH   1  28
ATOM     28  C   UNL A   1      37.647  21.445  24.683  1.00  0.00     0.002 C 
BRANCH  28  29
ATOM     29  C   UNL A   1      38.159  20.028  24.950  1.00  0.00     0.021 C 
BRANCH  29  30
ATOM     30  C   UNL A   1      39.070  19.908  26.168  1.00  0.00     0.116 C 
BRANCH  30  31
ATOM     31  N   UNL A   1      40.302  19.203  25.855  1.00  0.00    -0.352 N 
ATOM     32  C   UNL A   1      41.597  19.642  25.898  1.00  0.00     0.251 C 
ATOM     33  H   UNL A   1      40.186  18.269  25.569  1.00  0.00     0.163 HD
ATOM     34  O   UNL A   1      42.490  18.957  25.406  1.00  0.00    -0.269 OA
BRANCH  32  35
ATOM     35  C   UNL A   1      41.926  20.943  26.516  1.00  0.00     0.039 A 
ATOM     36  C   UNL A   1      42.257  22.009  25.677  1.00  0.00     0.014 A 
ATOM     37  C   UNL A   1      41.951  21.109  27.905  1.00  0.00     0.014 A 
ATOM     38  C   UNL A   1      42.577  23.248  26.228  1.00  0.00     0.010 A 
ATOM     39  C   UNL A   1      42.198  22.366  28.451  1.00  0.00     0.010 A 
ATOM     40  C   UNL A   1      42.526  23.445  27.619  1.00  0.00    -0.014 A 
BRANCH  40  41
ATOM     41  C   UNL A   1      42.804  24.786  28.190  1.00  0.00     0.031 A 
ATOM     42  C   UNL A   1      44.205  25.196  28.547  1.00  0.00     0.074 A 
ATOM     43  C   UNL A   1      41.780  25.637  28.389  1.00  0.00     0.049 A 
ATOM     44  N   UNL A   1      44.638  26.357  28.976  1.00  0.00    -0.248 NA
ATOM     45  C   UNL A   1      45.254  24.172  28.428  1.00  0.00     0.031 C 
ATOM     46  C   UNL A   1      40.368  25.335  28.136  1.00  0.00     0.029 A 
ATOM     47  N   UNL A   1      41.767  26.934  28.835  1.00  0.00    -0.354 N 
ATOM     48  C   UNL A   1      46.003  26.199  29.179  1.00  0.00     0.074 A 
ATOM     49  C   UNL A   1      46.318  24.819  28.883  1.00  0.00     0.031 C 
ATOM     50  C   UNL A   1      39.634  26.433  28.379  1.00  0.00     0.029 A 
ATOM     51  C   UNL A   1      40.517  27.502  28.833  1.00  0.00     0.049 A 
ATOM     52  H   UNL A   1      42.577  27.412  29.126  1.00  0.00     0.167 HD
ATOM     53  C   UNL A   1      46.917  27.126  29.557  1.00  0.00     0.031 A 
ATOM     54  C   UNL A   1      40.125  28.750  29.148  1.00  0.00     0.031 A 
ATOM     55  C   UNL A   1      46.602  28.499  29.852  1.00  0.00     0.049 A 
ATOM     56  C   UNL A   1      41.159  29.759  29.559  1.00  0.00     0.074 A 
ATOM     57  C   UNL A   1      47.464  29.529  30.189  1.00  0.00     0.029 A 
ATOM     58  N   UNL A   1      45.323  29.033  29.852  1.00  0.00    -0.354 N 
ATOM     59  N   UNL A   1      42.458  29.618  29.662  1.00  0.00    -0.248 NA
ATOM     60  C   UNL A   1      40.670  31.107  29.879  1.00  0.00     0.031 C 
ATOM     61  C   UNL A   1      46.699  30.672  30.446  1.00  0.00     0.029 A 
ATOM     62  C   UNL A   1      45.368  30.371  30.210  1.00  0.00     0.049 A 
ATOM     63  H   UNL A   1      44.503  28.535  29.631  1.00  0.00     0.167 HD
ATOM     64  C   UNL A   1      42.944  30.862  30.040  1.00  0.00     0.074 A 
ATOM     65  C   UNL A   1      41.803  31.751  30.118  1.00  0.00     0.031 C 
ATOM     66  C   UNL A   1      44.221  31.235  30.303  1.00  0.00     0.031 A 
BRANCH  53  67
ATOM     67  C   UNL A   1      48.348  26.678  29.676  1.00  0.00    -0.014 A 
ATOM     68  C   UNL A   1      49.244  26.810  28.602  1.00  0.00     0.009 A 
ATOM     69  C   UNL A   1      48.817  26.149  30.887  1.00  0.00     0.009 A 
ATOM     70  C   UNL A   1      50.570  26.387  28.728  1.00  0.00     0.001 A 
ATOM     71  C   UNL A   1      50.151  25.754  31.021  1.00  0.00     0.001 A 
ATOM     72  C   UNL A   1      51.022  25.865  29.939  1.00  0.00     0.000 A 
ENDBRANCH  53  67
BRANCH  54  73
ATOM     73  C   UNL A   1      38.689  29.124  29.056  1.00  0.00    -0.014 A 
ATOM     74  C   UNL A   1      38.141  29.552  27.839  1.00  0.00     0.009 A 
ATOM     75  C   UNL A   1      37.863  29.060  30.188  1.00  0.00     0.009 A 
ATOM     76  C   UNL A   1      36.800  29.935  27.761  1.00  0.00     0.001 A 
ATOM     77  C   UNL A   1      36.515  29.413  30.102  1.00  0.00     0.001 A 
ATOM     78  C   UNL A   1      35.987  29.861  28.891  1.00  0.00     0.000 A 
ENDBRANCH  54  73
BRANCH  66  79
ATOM     79  C   UNL A   1      44.441  32.673  30.685  1.00  0.00    -0.014 A 
ATOM     80  C   UNL A   1      44.420  33.081  32.029  1.00  0.00     0.009 A 
ATOM     81  C   UNL A   1      44.674  33.632  29.687  1.00  0.00     0.009 A 
ATOM     82  C   UNL A   1      44.581  34.428  32.361  1.00  0.00     0.001 A 
ATOM     83  C   UNL A   1      44.867  34.973  30.025  1.00  0.00     0.001 A 
ATOM     84  C   UNL A   1      44.806  35.371  31.359  1.00  0.00     0.000 A 
ENDBRANCH  66  79
ENDBRANCH  40  41
ENDBRANCH  32  35
ENDBRANCH  30  31
ENDBRANCH  29  30
ENDBRANCH  28  29
ENDBRANCH   1  28
TORSDOF 16
ENDMDL
MODEL 3
REMARK VINA RESULT:     -11.5      5.298     10.280
REMARK SMILES C[C@H]1CC[C@@](Nc2ccc(C(N)=O)nn2)(C(=O)NCCCCCCNC(=O)c2ccc(-c3c4nc(c(-c5ccccc5)c5ccc([nH]5)c(-c5ccccc5)c5nc(c(-c6ccccc6)c6ccc3[nH]6)C=C5)C=C4)cc2)CC1
REMARK SMILES IDX 21 1 20 2 19 3 18 4 16 5 17 6 5 8 1 9 2 10 77 11 3 12 76 13
REMARK SMILES IDX 4 14 6 15 7 17 8 18 15 19 9 20 14 21 10 22 11 23 12 24 13 25
REMARK SMILES IDX 22 28 23 29 24 30 25 31 26 32 27 34 28 35 29 36 75 37 30 38
REMARK SMILES IDX 74 39 31 40 32 41 33 42 68 43 34 44 73 45 67 46 69 47 35 48
REMARK SMILES IDX 72 49 66 50 65 51 36 53 58 54 43 55 57 56 44 57 47 58 56 59
REMARK SMILES IDX 70 60 45 61 46 62 55 64 71 65 48 66 37 67 38 68 42 69 39 70
REMARK SMILES IDX 41 71 40 72 59 73 60 74 64 75 61 76 63 77 62 78 49 79 50 80
REMARK SMILES IDX 54 81 51 82 53 83 52 84
REMARK H PARENT 18 7 6 16 12 26 12 27 25 33 69 52 47 63
REMARK Flexibility Score: inf
ROOT
ATOM      1  C   UNL A   1      34.533  29.521  27.639  1.00  0.00     0.002 C 
ENDROOT
BRANCH   1   2
ATOM      2  C   UNL A   1      33.664  28.659  26.716  1.00  0.00     0.021 C 
BRANCH   2   3
ATOM      3  C   UNL A   1      32.818  29.482  25.755  1.00  0.00     0.116 C 
BRANCH   3   4
ATOM      4  N   UNL A   1      33.285  29.310  24.395  1.00  0.00    -0.354 N 
ATOM      5  C   UNL A   1      32.832  28.517  23.385  1.00  0.00     0.245 C 
ATOM      6  O   UNL A   1      33.367  28.696  22.286  1.00  0.00    -0.272 OA
ATOM      7  H   UNL A   1      34.065  29.862  24.160  1.00  0.00     0.163 HD
BRANCH   5   8
ATOM      8  C   UNL A   1      31.665  27.484  23.589  1.00  0.00     0.118 C 
ATOM      9  C   UNL A   1      34.475  24.113  23.267  1.00  0.00     0.007 C 
ATOM     10  C   UNL A   1      33.143  24.842  23.445  1.00  0.00    -0.014 C 
ATOM     11  C   UNL A   1      32.771  25.621  22.176  1.00  0.00     0.006 C 
ATOM     12  C   UNL A   1      33.208  25.754  24.669  1.00  0.00     0.006 C 
ATOM     13  C   UNL A   1      31.558  26.550  22.355  1.00  0.00     0.039 C 
ATOM     14  C   UNL A   1      31.929  26.569  24.815  1.00  0.00     0.039 C 
BRANCH   8  15
ATOM     15  N   UNL A   1      30.342  28.152  23.774  1.00  0.00    -0.354 N 
ATOM     16  H   UNL A   1      29.688  27.731  24.377  1.00  0.00     0.163 HD
BRANCH  15  17
ATOM     17  C   UNL A   1      29.985  29.330  23.143  1.00  0.00     0.149 A 
ATOM     18  C   UNL A   1      29.723  30.515  23.814  1.00  0.00     0.051 A 
ATOM     19  N   UNL A   1      29.775  29.254  21.808  1.00  0.00    -0.132 NA
ATOM     20  C   UNL A   1      29.123  31.575  23.136  1.00  0.00     0.040 A 
ATOM     21  N   UNL A   1      29.168  30.285  21.126  1.00  0.00    -0.143 NA
ATOM     22  C   UNL A   1      28.828  31.409  21.798  1.00  0.00     0.150 A 
BRANCH  22  23
ATOM     23  C   UNL A   1      28.041  32.430  21.051  1.00  0.00     0.269 C 
ATOM     24  N   UNL A   1      27.634  32.087  19.790  1.00  0.00    -0.364 N 
ATOM     25  O   UNL A   1      27.739  33.512  21.546  1.00  0.00    -0.268 OA
ATOM     26  H   UNL A   1      27.887  31.214  19.411  1.00  0.00     0.160 HD
ATOM     27  H   UNL A   1      27.089  32.713  19.261  1.00  0.00     0.160 HD
ENDBRANCH  22  23
ENDBRANCH  15  17
ENDBRANCH   8  15
ENDBRANCH   5   8
ENDBRANCH   3   4
ENDBRANCH   2   3
ENDBRANCH   1   2
BRANCH   1  28
ATOM     28  C   UNL A   1      34.466  31.027  27.358  1.00  0.00     0.002 C 
BRANCH  28  29
ATOM     29  C   UNL A   1      33.165  31.705  27.792  1.00  0.00     0.021 C 
BRANCH  29  30
ATOM     30  C   UNL A   1      32.898  33.046  27.117  1.00  0.00     0.116 C 
BRANCH  30  31
ATOM     31  N   UNL A   1      32.571  34.083  28.080  1.00  0.00    -0.352 N 
ATOM     32  C   UNL A   1      33.222  34.450  29.227  1.00  0.00     0.251 C 
ATOM     33  H   UNL A   1      31.758  34.599  27.878  1.00  0.00     0.163 HD
ATOM     34  O   UNL A   1      32.682  35.221  30.015  1.00  0.00    -0.269 OA
BRANCH  32  35
ATOM     35  C   UNL A   1      34.564  33.912  29.529  1.00  0.00     0.039 A 
ATOM     36  C   UNL A   1      34.699  33.043  30.615  1.00  0.00     0.014 A 
ATOM     37  C   UNL A   1      35.689  34.284  28.785  1.00  0.00     0.014 A 
ATOM     38  C   UNL A   1      35.951  32.521  30.931  1.00  0.00     0.010 A 
ATOM     39  C   UNL A   1      36.926  33.704  29.056  1.00  0.00     0.010 A 
ATOM     40  C   UNL A   1      37.071  32.827  30.139  1.00  0.00    -0.014 A 
BRANCH  40  41
ATOM     41  C   UNL A   1      38.387  32.213  30.445  1.00  0.00     0.031 A 
ATOM     42  C   UNL A   1      39.328  32.855  31.425  1.00  0.00     0.074 A 
ATOM     43  C   UNL A   1      38.732  31.066  29.829  1.00  0.00     0.049 A 
ATOM     44  N   UNL A   1      40.479  32.412  31.872  1.00  0.00    -0.248 NA
ATOM     45  C   UNL A   1      38.945  34.171  31.958  1.00  0.00     0.031 C 
ATOM     46  C   UNL A   1      37.930  30.375  28.816  1.00  0.00     0.029 A 
ATOM     47  N   UNL A   1      39.840  30.270  29.975  1.00  0.00    -0.354 N 
ATOM     48  C   UNL A   1      40.952  33.393  32.733  1.00  0.00     0.074 A 
ATOM     49  C   UNL A   1      39.997  34.479  32.702  1.00  0.00     0.031 C 
ATOM     50  C   UNL A   1      38.546  29.232  28.473  1.00  0.00     0.029 A 
ATOM     51  C   UNL A   1      39.797  29.127  29.215  1.00  0.00     0.049 A 
ATOM     52  H   UNL A   1      40.592  30.495  30.569  1.00  0.00     0.167 HD
ATOM     53  C   UNL A   1      42.071  33.383  33.498  1.00  0.00     0.031 A 
ATOM     54  C   UNL A   1      40.663  28.100  29.135  1.00  0.00     0.031 A 
ATOM     55  C   UNL A   1      43.020  32.301  33.527  1.00  0.00     0.049 A 
ATOM     56  C   UNL A   1      41.892  28.110  29.997  1.00  0.00     0.074 A 
ATOM     57  C   UNL A   1      44.156  32.171  34.309  1.00  0.00     0.029 A 
ATOM     58  N   UNL A   1      42.950  31.168  32.734  1.00  0.00    -0.354 N 
ATOM     59  N   UNL A   1      42.282  29.006  30.871  1.00  0.00    -0.248 NA
ATOM     60  C   UNL A   1      42.791  26.955  29.873  1.00  0.00     0.031 C 
ATOM     61  C   UNL A   1      44.800  30.982  33.949  1.00  0.00     0.029 A 
ATOM     62  C   UNL A   1      44.035  30.344  32.986  1.00  0.00     0.049 A 
ATOM     63  H   UNL A   1      42.234  30.975  32.085  1.00  0.00     0.167 HD
ATOM     64  C   UNL A   1      43.462  28.514  31.415  1.00  0.00     0.074 A 
ATOM     65  C   UNL A   1      43.705  27.229  30.792  1.00  0.00     0.031 C 
ATOM     66  C   UNL A   1      44.273  29.078  32.343  1.00  0.00     0.031 A 
BRANCH  53  67
ATOM     67  C   UNL A   1      42.328  34.585  34.365  1.00  0.00    -0.014 A 
ATOM     68  C   UNL A   1      41.902  34.623  35.702  1.00  0.00     0.009 A 
ATOM     69  C   UNL A   1      43.036  35.681  33.849  1.00  0.00     0.009 A 
ATOM     70  C   UNL A   1      42.147  35.748  36.494  1.00  0.00     0.001 A 
ATOM     71  C   UNL A   1      43.306  36.793  34.651  1.00  0.00     0.001 A 
ATOM     72  C   UNL A   1      42.852  36.829  35.969  1.00  0.00     0.000 A 
ENDBRANCH  53  67
BRANCH  54  73
ATOM     73  C   UNL A   1      40.379  26.958  28.226  1.00  0.00    -0.014 A 
ATOM     74  C   UNL A   1      39.585  25.885  28.655  1.00  0.00     0.009 A 
ATOM     75  C   UNL A   1      40.907  26.935  26.926  1.00  0.00     0.009 A 
ATOM     76  C   UNL A   1      39.347  24.798  27.811  1.00  0.00     0.001 A 
ATOM     77  C   UNL A   1      40.643  25.862  26.073  1.00  0.00     0.001 A 
ATOM     78  C   UNL A   1      39.872  24.789  26.519  1.00  0.00     0.000 A 
ENDBRANCH  54  73
BRANCH  66  79
ATOM     79  C   UNL A   1      45.490  28.292  32.745  1.00  0.00    -0.014 A 
ATOM     80  C   UNL A   1      46.717  28.458  32.082  1.00  0.00     0.009 A 
ATOM     81  C   UNL A   1      45.409  27.374  33.804  1.00  0.00     0.009 A 
ATOM     82  C   UNL A   1      47.824  27.686  32.440  1.00  0.00     0.001 A 
ATOM     83  C   UNL A   1      46.527  26.627  34.180  1.00  0.00     0.001 A 
ATOM     84  C   UNL A   1      47.728  26.774  33.489  1.00  0.00     0.000 A 
ENDBRANCH  66  79
ENDBRANCH  40  41
ENDBRANCH  32  35
ENDBRANCH  30  31
ENDBRANCH  29  30
ENDBRANCH  28  29
ENDBRANCH   1  28
TORSDOF 16
ENDMDL
