MODEL 1
REMARK VINA RESULT:      -9.6      0.000      0.000
REMARK SMILES CC[C@](C)(NC(=O)NC[C@@H](C)[NH+](C)C)C(=O)NCCCCCCNC(=O)c1ccc(-c2c3nc(c(-c4ccccc4)c4ccc([nH]4)c(-c4ccccc4)c4nc(c(-c5ccccc5)c5ccc2[nH]5)C=C4)C=C3)cc1
REMARK SMILES IDX 19 1 18 2 17 3 15 4 16 5 3 7 4 8 2 9 1 10 5 11 6 12 7 14
REMARK SMILES IDX 8 15 9 17 10 18 11 19 12 20 13 21 14 22 20 24 21 25 22 26
REMARK SMILES IDX 23 27 24 28 25 29 26 31 27 32 28 33 74 34 29 35 73 36 30 37
REMARK SMILES IDX 31 38 32 39 67 40 33 41 72 42 66 43 68 44 34 45 71 46 65 47
REMARK SMILES IDX 64 48 35 50 57 51 42 52 56 53 43 54 46 55 55 56 69 57 44 58
REMARK SMILES IDX 45 59 54 61 70 62 47 63 36 64 37 65 41 66 38 67 40 68 39 69
REMARK SMILES IDX 58 70 59 71 63 72 60 73 62 74 61 75 48 76 49 77 53 78 50 79
REMARK SMILES IDX 52 80 51 81
REMARK H PARENT 17 6 5 13 8 16 12 23 24 30 68 49 46 60
REMARK Flexibility Score: inf
ROOT
ATOM      1  C   UNL A   1      38.176  23.427  25.792  1.00  0.00     0.021 C 
ENDROOT
BRANCH   1   2
ATOM      2  C   UNL A   1      36.658  23.582  25.634  1.00  0.00     0.116 C 
BRANCH   2   3
ATOM      3  N   UNL A   1      35.778  23.306  26.761  1.00  0.00    -0.354 N 
ATOM      4  C   UNL A   1      34.414  23.174  26.860  1.00  0.00     0.245 C 
ATOM      5  O   UNL A   1      33.986  22.436  27.755  1.00  0.00    -0.272 OA
ATOM      6  H   UNL A   1      36.252  23.191  27.617  1.00  0.00     0.163 HD
BRANCH   4   7
ATOM      7  C   UNL A   1      33.449  23.773  25.807  1.00  0.00     0.117 C 
ATOM      8  C   UNL A   1      33.698  23.278  24.368  1.00  0.00     0.045 C 
BRANCH   7   9
ATOM      9  C   UNL A   1      33.687  25.326  25.865  1.00  0.00     0.035 C 
ATOM     10  C   UNL A   1      32.804  26.178  24.953  1.00  0.00     0.007 C 
ENDBRANCH   7   9
BRANCH   7  11
ATOM     11  N   UNL A   1      32.053  23.458  26.165  1.00  0.00    -0.324 N 
ATOM     12  C   UNL A   1      31.260  22.387  26.055  1.00  0.00     0.315 C 
ATOM     13  H   UNL A   1      31.595  24.220  26.589  1.00  0.00     0.166 HD
ATOM     14  O   UNL A   1      30.056  22.575  26.264  1.00  0.00    -0.249 OA
ATOM     15  N   UNL A   1      31.634  21.134  25.791  1.00  0.00    -0.332 N 
ATOM     16  H   UNL A   1      30.863  20.522  25.828  1.00  0.00     0.165 HD
BRANCH  15  17
ATOM     17  C   UNL A   1      32.862  20.404  25.462  1.00  0.00     0.182 C 
BRANCH  17  18
ATOM     18  C   UNL A   1      32.633  19.010  24.800  1.00  0.00     0.200 C 
ATOM     19  C   UNL A   1      32.474  19.123  23.277  1.00  0.00     0.077 C 
BRANCH  18  20
ATOM     20  N   UNL A   1      33.624  18.005  25.233  1.00  0.00    -0.336 N 
ATOM     21  C   UNL A   1      33.036  16.747  25.679  1.00  0.00     0.332 C 
ATOM     22  C   UNL A   1      34.721  17.774  24.306  1.00  0.00     0.332 C 
ATOM     23  H   UNL A   1      34.043  18.452  26.049  1.00  0.00     0.347 HD
ENDBRANCH  18  20
ENDBRANCH  17  18
ENDBRANCH  15  17
ENDBRANCH   7  11
ENDBRANCH   4   7
ENDBRANCH   2   3
ENDBRANCH   1   2
BRANCH   1  24
ATOM     24  C   UNL A   1      38.790  22.036  25.936  1.00  0.00     0.002 C 
BRANCH  24  25
ATOM     25  C   UNL A   1      38.093  20.912  25.175  1.00  0.00     0.002 C 
BRANCH  25  26
ATOM     26  C   UNL A   1      38.870  19.598  25.141  1.00  0.00     0.021 C 
BRANCH  26  27
ATOM     27  C   UNL A   1      39.835  19.406  26.303  1.00  0.00     0.116 C 
BRANCH  27  28
ATOM     28  N   UNL A   1      41.148  18.938  25.886  1.00  0.00    -0.352 N 
ATOM     29  C   UNL A   1      42.326  19.655  25.860  1.00  0.00     0.251 C 
ATOM     30  H   UNL A   1      41.202  18.001  25.589  1.00  0.00     0.163 HD
ATOM     31  O   UNL A   1      43.345  19.194  25.386  1.00  0.00    -0.269 OA
BRANCH  29  32
ATOM     32  C   UNL A   1      42.299  21.034  26.393  1.00  0.00     0.039 A 
ATOM     33  C   UNL A   1      42.177  21.225  27.770  1.00  0.00     0.014 A 
ATOM     34  C   UNL A   1      42.502  22.117  25.533  1.00  0.00     0.014 A 
ATOM     35  C   UNL A   1      42.330  22.508  28.297  1.00  0.00     0.010 A 
ATOM     36  C   UNL A   1      42.723  23.380  26.067  1.00  0.00     0.010 A 
ATOM     37  C   UNL A   1      42.643  23.586  27.454  1.00  0.00    -0.014 A 
BRANCH  37  38
ATOM     38  C   UNL A   1      42.894  24.943  28.000  1.00  0.00     0.031 A 
ATOM     39  C   UNL A   1      44.282  25.333  28.424  1.00  0.00     0.074 A 
ATOM     40  C   UNL A   1      41.865  25.794  28.179  1.00  0.00     0.049 A 
ATOM     41  N   UNL A   1      44.692  26.443  28.982  1.00  0.00    -0.248 NA
ATOM     42  C   UNL A   1      45.343  24.333  28.221  1.00  0.00     0.031 C 
ATOM     43  C   UNL A   1      40.465  25.518  27.848  1.00  0.00     0.029 A 
ATOM     44  N   UNL A   1      41.840  27.067  28.692  1.00  0.00    -0.354 N 
ATOM     45  C   UNL A   1      46.049  26.268  29.212  1.00  0.00     0.074 A 
ATOM     46  C   UNL A   1      46.384  24.928  28.782  1.00  0.00     0.031 C 
ATOM     47  C   UNL A   1      39.725  26.600  28.139  1.00  0.00     0.029 A 
ATOM     48  C   UNL A   1      40.587  27.629  28.710  1.00  0.00     0.049 A 
ATOM     49  H   UNL A   1      42.645  27.533  29.016  1.00  0.00     0.167 HD
ATOM     50  C   UNL A   1      46.944  27.149  29.717  1.00  0.00     0.031 A 
ATOM     51  C   UNL A   1      40.180  28.839  29.140  1.00  0.00     0.031 A 
ATOM     52  C   UNL A   1      46.617  28.486  30.131  1.00  0.00     0.049 A 
ATOM     53  C   UNL A   1      41.193  29.798  29.701  1.00  0.00     0.074 A 
ATOM     54  C   UNL A   1      47.462  29.475  30.601  1.00  0.00     0.029 A 
ATOM     55  N   UNL A   1      45.338  29.020  30.122  1.00  0.00    -0.354 N 
ATOM     56  N   UNL A   1      42.486  29.641  29.849  1.00  0.00    -0.248 NA
ATOM     57  C   UNL A   1      40.689  31.106  30.144  1.00  0.00     0.031 C 
ATOM     58  C   UNL A   1      46.688  30.596  30.917  1.00  0.00     0.029 A 
ATOM     59  C   UNL A   1      45.368  30.320  30.598  1.00  0.00     0.049 A 
ATOM     60  H   UNL A   1      44.529  28.547  29.822  1.00  0.00     0.167 HD
ATOM     61  C   UNL A   1      42.953  30.836  30.377  1.00  0.00     0.074 A 
ATOM     62  C   UNL A   1      41.809  31.714  30.509  1.00  0.00     0.031 C 
ATOM     63  C   UNL A   1      44.219  31.179  30.721  1.00  0.00     0.031 A 
BRANCH  50  64
ATOM     64  C   UNL A   1      48.367  26.686  29.849  1.00  0.00    -0.014 A 
ATOM     65  C   UNL A   1      48.810  26.022  31.005  1.00  0.00     0.009 A 
ATOM     66  C   UNL A   1      49.271  26.893  28.797  1.00  0.00     0.009 A 
ATOM     67  C   UNL A   1      50.140  25.611  31.119  1.00  0.00     0.001 A 
ATOM     68  C   UNL A   1      50.593  26.456  28.902  1.00  0.00     0.001 A 
ATOM     69  C   UNL A   1      51.028  25.825  30.066  1.00  0.00     0.000 A 
ENDBRANCH  50  64
BRANCH  51  70
ATOM     70  C   UNL A   1      38.749  29.224  29.035  1.00  0.00    -0.014 A 
ATOM     71  C   UNL A   1      37.894  29.082  30.140  1.00  0.00     0.009 A 
ATOM     72  C   UNL A   1      38.227  29.724  27.833  1.00  0.00     0.009 A 
ATOM     73  C   UNL A   1      36.541  29.411  30.033  1.00  0.00     0.001 A 
ATOM     74  C   UNL A   1      36.879  30.077  27.738  1.00  0.00     0.001 A 
ATOM     75  C   UNL A   1      36.035  29.911  28.835  1.00  0.00     0.000 A 
ENDBRANCH  51  70
BRANCH  63  76
ATOM     76  C   UNL A   1      44.437  32.570  31.242  1.00  0.00    -0.014 A 
ATOM     77  C   UNL A   1      44.695  33.641  30.373  1.00  0.00     0.009 A 
ATOM     78  C   UNL A   1      44.338  32.818  32.619  1.00  0.00     0.009 A 
ATOM     79  C   UNL A   1      44.876  34.929  30.878  1.00  0.00     0.001 A 
ATOM     80  C   UNL A   1      44.493  34.111  33.119  1.00  0.00     0.001 A 
ATOM     81  C   UNL A   1      44.769  35.164  32.248  1.00  0.00     0.000 A 
ENDBRANCH  63  76
ENDBRANCH  37  38
ENDBRANCH  29  32
ENDBRANCH  27  28
ENDBRANCH  26  27
ENDBRANCH  25  26
ENDBRANCH  24  25
ENDBRANCH   1  24
TORSDOF 18
ENDMDL
MODEL 2
REMARK VINA RESULT:      -9.4      4.187      9.265
REMARK SMILES CC[C@](C)(NC(=O)NC[C@@H](C)[NH+](C)C)C(=O)NCCCCCCNC(=O)c1ccc(-c2c3nc(c(-c4ccccc4)c4ccc([nH]4)c(-c4ccccc4)c4nc(c(-c5ccccc5)c5ccc2[nH]5)C=C4)C=C3)cc1
REMARK SMILES IDX 19 1 18 2 17 3 15 4 16 5 3 7 4 8 2 9 1 10 5 11 6 12 7 14
REMARK SMILES IDX 8 15 9 17 10 18 11 19 12 20 13 21 14 22 20 24 21 25 22 26
REMARK SMILES IDX 23 27 24 28 25 29 26 31 27 32 28 33 74 34 29 35 73 36 30 37
REMARK SMILES IDX 31 38 32 39 67 40 33 41 72 42 66 43 68 44 34 45 71 46 65 47
REMARK SMILES IDX 64 48 35 50 57 51 42 52 56 53 43 54 46 55 55 56 69 57 44 58
REMARK SMILES IDX 45 59 54 61 70 62 47 63 36 64 37 65 41 66 38 67 40 68 39 69
REMARK SMILES IDX 58 70 59 71 63 72 60 73 62 74 61 75 48 76 49 77 53 78 50 79
REMARK SMILES IDX 52 80 51 81
REMARK H PARENT 17 6 5 13 8 16 12 23 24 30 68 49 46 60
REMARK Flexibility Score: inf
ROOT
ATOM      1  C   UNL A   1      33.977  29.154  26.507  1.00  0.00     0.021 C 
ENDROOT
BRANCH   1   2
ATOM      2  C   UNL A   1      33.864  27.625  26.449  1.00  0.00     0.116 C 
BRANCH   2   3
ATOM      3  N   UNL A   1      32.621  26.973  26.838  1.00  0.00    -0.354 N 
ATOM      4  C   UNL A   1      31.761  26.140  26.164  1.00  0.00     0.245 C 
ATOM      5  O   UNL A   1      31.121  25.329  26.841  1.00  0.00    -0.272 OA
ATOM      6  H   UNL A   1      32.342  27.167  27.763  1.00  0.00     0.163 HD
BRANCH   4   7
ATOM      7  C   UNL A   1      31.710  26.086  24.616  1.00  0.00     0.117 C 
ATOM      8  C   UNL A   1      33.016  26.527  23.925  1.00  0.00     0.045 C 
BRANCH   7   9
ATOM      9  C   UNL A   1      30.554  27.069  24.207  1.00  0.00     0.035 C 
ATOM     10  C   UNL A   1      29.198  26.428  23.908  1.00  0.00     0.007 C 
ENDBRANCH   7   9
BRANCH   7  11
ATOM     11  N   UNL A   1      31.395  24.715  24.170  1.00  0.00    -0.324 N 
ATOM     12  C   UNL A   1      32.046  23.547  24.149  1.00  0.00     0.315 C 
ATOM     13  H   UNL A   1      30.485  24.643  23.800  1.00  0.00     0.166 HD
ATOM     14  O   UNL A   1      31.531  22.647  23.477  1.00  0.00    -0.249 OA
ATOM     15  N   UNL A   1      33.163  23.238  24.810  1.00  0.00    -0.332 N 
ATOM     16  H   UNL A   1      33.400  22.292  24.673  1.00  0.00     0.165 HD
BRANCH  15  17
ATOM     17  C   UNL A   1      34.138  23.898  25.683  1.00  0.00     0.182 C 
BRANCH  17  18
ATOM     18  C   UNL A   1      34.831  22.956  26.715  1.00  0.00     0.200 C 
ATOM     19  C   UNL A   1      33.938  21.762  27.082  1.00  0.00     0.077 C 
BRANCH  18  20
ATOM     20  N   UNL A   1      36.203  22.587  26.315  1.00  0.00    -0.336 N 
ATOM     21  C   UNL A   1      36.281  21.362  25.525  1.00  0.00     0.332 C 
ATOM     22  C   UNL A   1      36.982  23.654  25.707  1.00  0.00     0.332 C 
ATOM     23  H   UNL A   1      36.648  22.398  27.213  1.00  0.00     0.347 HD
ENDBRANCH  18  20
ENDBRANCH  17  18
ENDBRANCH  15  17
ENDBRANCH   7  11
ENDBRANCH   4   7
ENDBRANCH   2   3
ENDBRANCH   1   2
BRANCH   1  24
ATOM     24  C   UNL A   1      32.909  30.023  25.846  1.00  0.00     0.002 C 
BRANCH  24  25
ATOM     25  C   UNL A   1      31.775  30.498  26.750  1.00  0.00     0.002 C 
BRANCH  25  26
ATOM     26  C   UNL A   1      31.563  32.010  26.754  1.00  0.00     0.021 C 
BRANCH  26  27
ATOM     27  C   UNL A   1      32.707  32.805  27.369  1.00  0.00     0.116 C 
BRANCH  27  28
ATOM     28  N   UNL A   1      32.356  34.187  27.655  1.00  0.00    -0.352 N 
ATOM     29  C   UNL A   1      32.959  35.037  28.558  1.00  0.00     0.251 C 
ATOM     30  H   UNL A   1      31.599  34.559  27.145  1.00  0.00     0.163 HD
ATOM     31  O   UNL A   1      32.511  36.142  28.795  1.00  0.00    -0.269 OA
BRANCH  29  32
ATOM     32  C   UNL A   1      34.158  34.542  29.266  1.00  0.00     0.039 A 
ATOM     33  C   UNL A   1      33.998  33.865  30.476  1.00  0.00     0.014 A 
ATOM     34  C   UNL A   1      35.418  34.662  28.671  1.00  0.00     0.014 A 
ATOM     35  C   UNL A   1      35.102  33.241  31.059  1.00  0.00     0.010 A 
ATOM     36  C   UNL A   1      36.498  33.982  29.218  1.00  0.00     0.010 A 
ATOM     37  C   UNL A   1      36.350  33.261  30.414  1.00  0.00    -0.014 A 
BRANCH  37  38
ATOM     38  C   UNL A   1      37.516  32.534  30.971  1.00  0.00     0.031 A 
ATOM     39  C   UNL A   1      38.183  33.035  32.221  1.00  0.00     0.074 A 
ATOM     40  C   UNL A   1      38.017  31.469  30.316  1.00  0.00     0.049 A 
ATOM     41  N   UNL A   1      39.250  32.579  32.826  1.00  0.00    -0.248 NA
ATOM     42  C   UNL A   1      37.589  34.222  32.859  1.00  0.00     0.031 C 
ATOM     43  C   UNL A   1      37.488  30.910  29.069  1.00  0.00     0.029 A 
ATOM     44  N   UNL A   1      39.093  30.668  30.607  1.00  0.00    -0.354 N 
ATOM     45  C   UNL A   1      39.464  33.431  33.901  1.00  0.00     0.074 A 
ATOM     46  C   UNL A   1      38.449  34.460  33.836  1.00  0.00     0.031 C 
ATOM     47  C   UNL A   1      38.222  29.842  28.720  1.00  0.00     0.029 A 
ATOM     48  C   UNL A   1      39.293  29.661  29.694  1.00  0.00     0.049 A 
ATOM     49  H   UNL A   1      39.666  30.802  31.396  1.00  0.00     0.167 HD
ATOM     50  C   UNL A   1      40.407  33.355  34.868  1.00  0.00     0.031 A 
ATOM     51  C   UNL A   1      40.237  28.701  29.647  1.00  0.00     0.031 A 
ATOM     52  C   UNL A   1      41.406  32.324  34.943  1.00  0.00     0.049 A 
ATOM     53  C   UNL A   1      41.277  28.640  30.731  1.00  0.00     0.074 A 
ATOM     54  C   UNL A   1      42.369  32.125  35.916  1.00  0.00     0.029 A 
ATOM     55  N   UNL A   1      41.568  31.316  34.005  1.00  0.00    -0.354 N 
ATOM     56  N   UNL A   1      41.425  29.415  31.778  1.00  0.00    -0.248 NA
ATOM     57  C   UNL A   1      42.273  27.564  30.631  1.00  0.00     0.031 C 
ATOM     58  C   UNL A   1      43.143  31.021  35.544  1.00  0.00     0.029 A 
ATOM     59  C   UNL A   1      42.629  30.504  34.365  1.00  0.00     0.049 A 
ATOM     60  H   UNL A   1      41.012  31.196  33.202  1.00  0.00     0.167 HD
ATOM     61  C   UNL A   1      42.512  28.905  32.474  1.00  0.00     0.074 A 
ATOM     62  C   UNL A   1      42.977  27.748  31.739  1.00  0.00     0.031 C 
ATOM     63  C   UNL A   1      43.076  29.355  33.623  1.00  0.00     0.031 A 
BRANCH  50  64
ATOM     64  C   UNL A   1      40.398  34.423  35.925  1.00  0.00    -0.014 A 
ATOM     65  C   UNL A   1      41.155  35.596  35.777  1.00  0.00     0.009 A 
ATOM     66  C   UNL A   1      39.606  34.266  37.072  1.00  0.00     0.009 A 
ATOM     67  C   UNL A   1      41.148  36.573  36.774  1.00  0.00     0.001 A 
ATOM     68  C   UNL A   1      39.579  35.257  38.055  1.00  0.00     0.001 A 
ATOM     69  C   UNL A   1      40.358  36.404  37.910  1.00  0.00     0.000 A 
ENDBRANCH  50  64
BRANCH  51  70
ATOM     70  C   UNL A   1      40.230  27.702  28.547  1.00  0.00    -0.014 A 
ATOM     71  C   UNL A   1      39.551  26.484  28.701  1.00  0.00     0.009 A 
ATOM     72  C   UNL A   1      40.911  27.954  27.346  1.00  0.00     0.009 A 
ATOM     73  C   UNL A   1      39.573  25.528  27.682  1.00  0.00     0.001 A 
ATOM     74  C   UNL A   1      40.908  27.007  26.319  1.00  0.00     0.001 A 
ATOM     75  C   UNL A   1      40.248  25.792  26.491  1.00  0.00     0.000 A 
ENDBRANCH  51  70
BRANCH  63  76
ATOM     76  C   UNL A   1      44.236  28.575  34.170  1.00  0.00    -0.014 A 
ATOM     77  C   UNL A   1      45.558  28.912  33.844  1.00  0.00     0.009 A 
ATOM     78  C   UNL A   1      44.001  27.516  35.061  1.00  0.00     0.009 A 
ATOM     79  C   UNL A   1      46.623  28.184  34.380  1.00  0.00     0.001 A 
ATOM     80  C   UNL A   1      45.068  26.808  35.615  1.00  0.00     0.001 A 
ATOM     81  C   UNL A   1      46.377  27.138  35.268  1.00  0.00     0.000 A 
ENDBRANCH  63  76
ENDBRANCH  37  38
ENDBRANCH  29  32
ENDBRANCH  27  28
ENDBRANCH  26  27
ENDBRANCH  25  26
ENDBRANCH  24  25
ENDBRANCH   1  24
TORSDOF 18
ENDMDL
MODEL 3
REMARK VINA RESULT:      -9.3      4.924     10.054
REMARK SMILES CC[C@](C)(NC(=O)NC[C@@H](C)[NH+](C)C)C(=O)NCCCCCCNC(=O)c1ccc(-c2c3nc(c(-c4ccccc4)c4ccc([nH]4)c(-c4ccccc4)c4nc(c(-c5ccccc5)c5ccc2[nH]5)C=C4)C=C3)cc1
REMARK SMILES IDX 19 1 18 2 17 3 15 4 16 5 3 7 4 8 2 9 1 10 5 11 6 12 7 14
REMARK SMILES IDX 8 15 9 17 10 18 11 19 12 20 13 21 14 22 20 24 21 25 22 26
REMARK SMILES IDX 23 27 24 28 25 29 26 31 27 32 28 33 74 34 29 35 73 36 30 37
REMARK SMILES IDX 31 38 32 39 67 40 33 41 72 42 66 43 68 44 34 45 71 46 65 47
REMARK SMILES IDX 64 48 35 50 57 51 42 52 56 53 43 54 46 55 55 56 69 57 44 58
REMARK SMILES IDX 45 59 54 61 70 62 47 63 36 64 37 65 41 66 38 67 40 68 39 69
REMARK SMILES IDX 58 70 59 71 63 72 60 73 62 74 61 75 48 76 49 77 53 78 50 79
REMARK SMILES IDX 52 80 51 81
REMARK H PARENT 17 6 5 13 8 16 12 23 24 30 68 49 46 60
REMARK Flexibility Score: inf
ROOT
ATOM      1  C   UNL A   1      32.292  28.589  27.481  1.00  0.00     0.021 C 
ENDROOT
BRANCH   1   2
ATOM      2  C   UNL A   1      33.131  27.535  26.746  1.00  0.00     0.116 C 
BRANCH   2   3
ATOM      3  N   UNL A   1      33.872  27.903  25.548  1.00  0.00    -0.354 N 
ATOM      4  C   UNL A   1      33.887  27.389  24.274  1.00  0.00     0.245 C 
ATOM      5  O   UNL A   1      34.159  28.172  23.357  1.00  0.00    -0.272 OA
ATOM      6  H   UNL A   1      34.479  28.669  25.675  1.00  0.00     0.163 HD
BRANCH   4   7
ATOM      7  C   UNL A   1      33.422  25.945  23.962  1.00  0.00     0.117 C 
ATOM      8  C   UNL A   1      32.082  25.558  24.619  1.00  0.00     0.045 C 
BRANCH   7   9
ATOM      9  C   UNL A   1      34.558  25.015  24.524  1.00  0.00     0.035 C 
ATOM     10  C   UNL A   1      34.185  24.145  25.725  1.00  0.00     0.007 C 
ENDBRANCH   7   9
BRANCH   7  11
ATOM     11  N   UNL A   1      33.288  25.762  22.504  1.00  0.00    -0.324 N 
ATOM     12  C   UNL A   1      32.398  26.128  21.576  1.00  0.00     0.315 C 
ATOM     13  H   UNL A   1      34.036  25.246  22.122  1.00  0.00     0.166 HD
ATOM     14  O   UNL A   1      32.507  25.585  20.471  1.00  0.00    -0.249 OA
ATOM     15  N   UNL A   1      31.439  27.047  21.701  1.00  0.00    -0.332 N 
ATOM     16  H   UNL A   1      30.961  27.172  20.849  1.00  0.00     0.165 HD
BRANCH  15  17
ATOM     17  C   UNL A   1      30.891  27.924  22.740  1.00  0.00     0.182 C 
BRANCH  17  18
ATOM     18  C   UNL A   1      29.349  28.142  22.661  1.00  0.00     0.200 C 
ATOM     19  C   UNL A   1      28.593  27.204  23.612  1.00  0.00     0.077 C 
BRANCH  18  20
ATOM     20  N   UNL A   1      28.969  29.563  22.782  1.00  0.00    -0.336 N 
ATOM     21  C   UNL A   1      29.357  30.380  21.637  1.00  0.00     0.332 C 
ATOM     22  C   UNL A   1      27.584  29.807  23.156  1.00  0.00     0.332 C 
ATOM     23  H   UNL A   1      29.527  29.870  23.578  1.00  0.00     0.347 HD
ENDBRANCH  18  20
ENDBRANCH  17  18
ENDBRANCH  15  17
ENDBRANCH   7  11
ENDBRANCH   4   7
ENDBRANCH   2   3
ENDBRANCH   1   2
BRANCH   1  24
ATOM     24  C   UNL A   1      32.555  30.075  27.244  1.00  0.00     0.002 C 
BRANCH  24  25
ATOM     25  C   UNL A   1      31.379  30.890  26.715  1.00  0.00     0.002 C 
BRANCH  25  26
ATOM     26  C   UNL A   1      31.689  32.367  26.485  1.00  0.00     0.021 C 
BRANCH  26  27
ATOM     27  C   UNL A   1      32.576  32.998  27.549  1.00  0.00     0.116 C 
BRANCH  27  28
ATOM     28  N   UNL A   1      32.280  34.403  27.783  1.00  0.00    -0.352 N 
ATOM     29  C   UNL A   1      32.929  35.266  28.641  1.00  0.00     0.251 C 
ATOM     30  H   UNL A   1      31.529  34.781  27.270  1.00  0.00     0.163 HD
ATOM     31  O   UNL A   1      32.525  36.395  28.840  1.00  0.00    -0.269 OA
BRANCH  29  32
ATOM     32  C   UNL A   1      34.121  34.757  29.351  1.00  0.00     0.039 A 
ATOM     33  C   UNL A   1      33.978  34.269  30.651  1.00  0.00     0.014 A 
ATOM     34  C   UNL A   1      35.346  34.670  28.682  1.00  0.00     0.014 A 
ATOM     35  C   UNL A   1      35.056  33.625  31.259  1.00  0.00     0.010 A 
ATOM     36  C   UNL A   1      36.393  33.967  29.263  1.00  0.00     0.010 A 
ATOM     37  C   UNL A   1      36.257  33.434  30.556  1.00  0.00    -0.014 A 
BRANCH  37  38
ATOM     38  C   UNL A   1      37.386  32.678  31.150  1.00  0.00     0.031 A 
ATOM     39  C   UNL A   1      37.966  33.111  32.467  1.00  0.00     0.074 A 
ATOM     40  C   UNL A   1      37.933  31.649  30.474  1.00  0.00     0.049 A 
ATOM     41  N   UNL A   1      38.991  32.623  33.117  1.00  0.00    -0.248 NA
ATOM     42  C   UNL A   1      37.326  34.262  33.126  1.00  0.00     0.031 C 
ATOM     43  C   UNL A   1      37.491  31.159  29.166  1.00  0.00     0.029 A 
ATOM     44  N   UNL A   1      38.990  30.834  30.793  1.00  0.00    -0.354 N 
ATOM     45  C   UNL A   1      39.130  33.417  34.248  1.00  0.00     0.074 A 
ATOM     46  C   UNL A   1      38.118  34.448  34.170  1.00  0.00     0.031 C 
ATOM     47  C   UNL A   1      38.250  30.110  28.811  1.00  0.00     0.029 A 
ATOM     48  C   UNL A   1      39.255  29.878  29.843  1.00  0.00     0.049 A 
ATOM     49  H   UNL A   1      39.509  30.925  31.624  1.00  0.00     0.167 HD
ATOM     50  C   UNL A   1      40.006  33.288  35.270  1.00  0.00     0.031 A 
ATOM     51  C   UNL A   1      40.203  28.922  29.808  1.00  0.00     0.031 A 
ATOM     52  C   UNL A   1      41.002  32.255  35.357  1.00  0.00     0.049 A 
ATOM     53  C   UNL A   1      41.168  28.802  30.955  1.00  0.00     0.074 A 
ATOM     54  C   UNL A   1      41.899  32.005  36.380  1.00  0.00     0.029 A 
ATOM     55  N   UNL A   1      41.230  31.299  34.379  1.00  0.00    -0.354 N 
ATOM     56  N   UNL A   1      41.243  29.520  32.050  1.00  0.00    -0.248 NA
ATOM     57  C   UNL A   1      42.173  27.733  30.864  1.00  0.00     0.031 C 
ATOM     58  C   UNL A   1      42.699  30.922  36.003  1.00  0.00     0.029 A 
ATOM     59  C   UNL A   1      42.268  30.468  34.766  1.00  0.00     0.049 A 
ATOM     60  H   UNL A   1      40.729  31.222  33.536  1.00  0.00     0.167 HD
ATOM     61  C   UNL A   1      42.283  28.973  32.788  1.00  0.00     0.074 A 
ATOM     62  C   UNL A   1      42.800  27.857  32.025  1.00  0.00     0.031 C 
ATOM     63  C   UNL A   1      42.767  29.361  33.994  1.00  0.00     0.031 A 
BRANCH  50  64
ATOM     64  C   UNL A   1      39.923  34.298  36.380  1.00  0.00    -0.014 A 
ATOM     65  C   UNL A   1      39.177  34.040  37.541  1.00  0.00     0.009 A 
ATOM     66  C   UNL A   1      40.618  35.512  36.274  1.00  0.00     0.009 A 
ATOM     67  C   UNL A   1      39.098  34.994  38.558  1.00  0.00     0.001 A 
ATOM     68  C   UNL A   1      40.559  36.453  37.305  1.00  0.00     0.001 A 
ATOM     69  C   UNL A   1      39.792  36.198  38.440  1.00  0.00     0.000 A 
ENDBRANCH  50  64
BRANCH  51  70
ATOM     70  C   UNL A   1      40.274  27.983  28.658  1.00  0.00    -0.014 A 
ATOM     71  C   UNL A   1      40.993  28.329  27.504  1.00  0.00     0.009 A 
ATOM     72  C   UNL A   1      39.615  26.745  28.703  1.00  0.00     0.009 A 
ATOM     73  C   UNL A   1      41.032  27.463  26.409  1.00  0.00     0.001 A 
ATOM     74  C   UNL A   1      39.678  25.870  27.616  1.00  0.00     0.001 A 
ATOM     75  C   UNL A   1      40.378  26.233  26.466  1.00  0.00     0.000 A 
ENDBRANCH  51  70
BRANCH  63  76
ATOM     76  C   UNL A   1      43.891  28.553  34.576  1.00  0.00    -0.014 A 
ATOM     77  C   UNL A   1      43.641  27.442  35.395  1.00  0.00     0.009 A 
ATOM     78  C   UNL A   1      45.218  28.883  34.260  1.00  0.00     0.009 A 
ATOM     79  C   UNL A   1      44.700  26.693  35.909  1.00  0.00     0.001 A 
ATOM     80  C   UNL A   1      46.275  28.117  34.754  1.00  0.00     0.001 A 
ATOM     81  C   UNL A   1      46.015  27.028  35.584  1.00  0.00     0.000 A 
ENDBRANCH  63  76
ENDBRANCH  37  38
ENDBRANCH  29  32
ENDBRANCH  27  28
ENDBRANCH  26  27
ENDBRANCH  25  26
ENDBRANCH  24  25
ENDBRANCH   1  24
TORSDOF 18
ENDMDL
