MODEL 1
REMARK VINA RESULT:     -10.9      0.000      0.000
REMARK SMILES COC(=O)C1=C(C)N(c2ccccc2)C(=S)N[C@@H]1c1ccc(C(=O)NCCCCCCNC(=O)c2ccc(-c3c4nc(c(-c5ccccc5)c5ccc([nH]5)c(-c5ccccc5)c5nc(c(-c6ccccc6)c6ccc3[nH]6)C=C5)C=C4)cc2)cc1
REMARK SMILES IDX 28 1 27 2 26 3 25 4 23 5 24 6 22 8 19 9 20 10 84 11 21 12
REMARK SMILES IDX 83 13 18 14 5 15 6 16 7 17 8 18 17 19 15 20 16 22 3 23 4 24
REMARK SMILES IDX 2 25 1 26 9 27 10 28 14 29 11 30 13 31 12 32 29 33 30 34
REMARK SMILES IDX 31 35 32 36 33 37 34 39 35 40 36 41 82 42 37 43 81 44 38 45
REMARK SMILES IDX 39 46 40 47 75 48 41 49 80 50 74 51 76 52 42 53 79 54 73 55
REMARK SMILES IDX 72 56 43 58 65 59 50 60 64 61 51 62 54 63 63 64 77 65 52 66
REMARK SMILES IDX 53 67 62 69 78 70 55 71 44 72 45 73 49 74 46 75 48 76 47 77
REMARK SMILES IDX 66 78 67 79 71 80 68 81 70 82 69 83 56 84 57 85 61 86 58 87
REMARK SMILES IDX 60 88 59 89
REMARK H PARENT 25 7 17 21 32 38 76 57 54 68
REMARK Flexibility Score: inf
ROOT
ATOM      1  C   UNL A   1      34.814  20.159  25.075  1.00  0.00     0.002 C 
ENDROOT
BRANCH   1   2
ATOM      2  C   UNL A   1      33.713  20.945  24.349  1.00  0.00     0.021 C 
BRANCH   2   3
ATOM      3  C   UNL A   1      32.371  20.947  25.084  1.00  0.00     0.116 C 
BRANCH   3   4
ATOM      4  N   UNL A   1      32.579  21.127  26.508  1.00  0.00    -0.352 N 
ATOM      5  C   UNL A   1      32.991  22.209  27.238  1.00  0.00     0.251 C 
ATOM      6  O   UNL A   1      33.042  22.106  28.462  1.00  0.00    -0.269 OA
ATOM      7  H   UNL A   1      32.387  20.326  27.047  1.00  0.00     0.163 HD
BRANCH   5   8
ATOM      8  C   UNL A   1      33.314  23.514  26.610  1.00  0.00     0.039 A 
ATOM      9  C   UNL A   1      33.748  26.057  25.448  1.00  0.00    -0.021 A 
ATOM     10  C   UNL A   1      32.484  25.694  25.944  1.00  0.00     0.007 A 
ATOM     11  C   UNL A   1      34.795  25.125  25.561  1.00  0.00     0.007 A 
ATOM     12  C   UNL A   1      32.274  24.445  26.527  1.00  0.00     0.014 A 
ATOM     13  C   UNL A   1      34.584  23.873  26.155  1.00  0.00     0.014 A 
BRANCH   9  14
ATOM     14  C   UNL A   1      33.995  27.394  24.750  1.00  0.00     0.151 C 
ATOM     15  C   UNL A   1      33.270  28.554  25.350  1.00  0.00     0.083 C 
ATOM     16  C   UNL A   1      32.105  29.020  24.845  1.00  0.00     0.035 C 
ATOM     17  C   UNL A   1      31.280  30.074  25.549  1.00  0.00     0.065 C 
ATOM     18  N   UNL A   1      31.597  28.438  23.652  1.00  0.00    -0.291 N 
ATOM     19  N   UNL A   1      33.635  27.278  23.359  1.00  0.00    -0.351 N 
ATOM     20  C   UNL A   1      32.419  27.623  22.841  1.00  0.00     0.178 C 
ATOM     21  H   UNL A   1      34.312  26.924  22.738  1.00  0.00     0.163 HD
ATOM     22  S   UNL A   1      32.132  27.093  21.270  1.00  0.00    -0.040 S 
BRANCH  15  23
ATOM     23  C   UNL A   1      33.838  29.025  26.631  1.00  0.00     0.337 C 
ATOM     24  O   UNL A   1      33.810  28.394  27.673  1.00  0.00    -0.246 OA
BRANCH  23  25
ATOM     25  O   UNL A   1      34.410  30.241  26.445  1.00  0.00    -0.466 OA
ATOM     26  C   UNL A   1      34.260  31.123  27.560  1.00  0.00     0.282 C 
ENDBRANCH  23  25
ENDBRANCH  15  23
BRANCH  18  27
ATOM     27  C   UNL A   1      30.223  28.611  23.265  1.00  0.00     0.048 A 
ATOM     28  C   UNL A   1      29.793  29.728  22.542  1.00  0.00     0.027 A 
ATOM     29  C   UNL A   1      29.283  27.638  23.644  1.00  0.00     0.027 A 
ATOM     30  C   UNL A   1      28.441  29.882  22.225  1.00  0.00     0.002 A 
ATOM     31  C   UNL A   1      27.935  27.788  23.316  1.00  0.00     0.002 A 
ATOM     32  C   UNL A   1      27.514  28.914  22.612  1.00  0.00     0.000 A 
ENDBRANCH  18  27
ENDBRANCH   9  14
ENDBRANCH   5   8
ENDBRANCH   3   4
ENDBRANCH   2   3
ENDBRANCH   1   2
BRANCH   1  33
ATOM     33  C   UNL A   1      36.197  20.823  25.077  1.00  0.00     0.002 C 
BRANCH  33  34
ATOM     34  C   UNL A   1      37.387  19.859  25.077  1.00  0.00     0.021 C 
BRANCH  34  35
ATOM     35  C   UNL A   1      38.697  20.457  25.583  1.00  0.00     0.116 C 
BRANCH  35  36
ATOM     36  N   UNL A   1      39.724  19.446  25.775  1.00  0.00    -0.352 N 
ATOM     37  C   UNL A   1      41.047  19.607  26.103  1.00  0.00     0.251 C 
ATOM     38  H   UNL A   1      39.429  18.515  25.653  1.00  0.00     0.163 HD
ATOM     39  O   UNL A   1      41.818  18.655  26.053  1.00  0.00    -0.269 OA
BRANCH  37  40
ATOM     40  C   UNL A   1      41.552  20.939  26.501  1.00  0.00     0.039 A 
ATOM     41  C   UNL A   1      41.681  21.232  27.862  1.00  0.00     0.014 A 
ATOM     42  C   UNL A   1      41.874  21.902  25.539  1.00  0.00     0.014 A 
ATOM     43  C   UNL A   1      42.182  22.473  28.259  1.00  0.00     0.010 A 
ATOM     44  C   UNL A   1      42.417  23.121  25.936  1.00  0.00     0.010 A 
ATOM     45  C   UNL A   1      42.576  23.418  27.299  1.00  0.00    -0.014 A 
BRANCH  45  46
ATOM     46  C   UNL A   1      43.153  24.724  27.700  1.00  0.00     0.031 A 
ATOM     47  C   UNL A   1      42.259  25.836  28.169  1.00  0.00     0.074 A 
ATOM     48  C   UNL A   1      44.479  24.932  27.578  1.00  0.00     0.049 A 
ATOM     49  N   UNL A   1      42.571  27.067  28.488  1.00  0.00    -0.248 NA
ATOM     50  C   UNL A   1      40.823  25.531  28.272  1.00  0.00     0.031 C 
ATOM     51  C   UNL A   1      45.452  23.947  27.103  1.00  0.00     0.029 A 
ATOM     52  N   UNL A   1      45.232  26.048  27.836  1.00  0.00    -0.354 N 
ATOM     53  C   UNL A   1      41.370  27.688  28.808  1.00  0.00     0.074 A 
ATOM     54  C   UNL A   1      40.322  26.708  28.616  1.00  0.00     0.031 C 
ATOM     55  C   UNL A   1      46.676  24.498  27.118  1.00  0.00     0.029 A 
ATOM     56  C   UNL A   1      46.570  25.882  27.573  1.00  0.00     0.049 A 
ATOM     57  H   UNL A   1      44.851  26.890  28.175  1.00  0.00     0.167 HD
ATOM     58  C   UNL A   1      41.159  28.956  29.234  1.00  0.00     0.031 A 
ATOM     59  C   UNL A   1      47.595  26.746  27.684  1.00  0.00     0.031 A 
ATOM     60  C   UNL A   1      42.199  29.926  29.447  1.00  0.00     0.049 A 
ATOM     61  C   UNL A   1      47.337  28.142  28.172  1.00  0.00     0.074 A 
ATOM     62  C   UNL A   1      42.087  31.219  29.930  1.00  0.00     0.029 A 
ATOM     63  N   UNL A   1      43.544  29.708  29.195  1.00  0.00    -0.354 N 
ATOM     64  N   UNL A   1      46.202  28.698  28.516  1.00  0.00    -0.248 NA
ATOM     65  C   UNL A   1      48.506  29.026  28.294  1.00  0.00     0.031 C 
ATOM     66  C   UNL A   1      43.362  31.794  29.942  1.00  0.00     0.029 A 
ATOM     67  C   UNL A   1      44.271  30.846  29.499  1.00  0.00     0.049 A 
ATOM     68  H   UNL A   1      43.925  28.868  28.850  1.00  0.00     0.167 HD
ATOM     69  C   UNL A   1      46.521  29.988  28.918  1.00  0.00     0.074 A 
ATOM     70  C   UNL A   1      47.957  30.129  28.784  1.00  0.00     0.031 C 
ATOM     71  C   UNL A   1      45.697  30.968  29.361  1.00  0.00     0.031 A 
BRANCH  58  72
ATOM     72  C   UNL A   1      39.739  29.367  29.492  1.00  0.00    -0.014 A 
ATOM     73  C   UNL A   1      38.917  29.825  28.450  1.00  0.00     0.009 A 
ATOM     74  C   UNL A   1      39.207  29.268  30.787  1.00  0.00     0.009 A 
ATOM     75  C   UNL A   1      37.598  30.204  28.706  1.00  0.00     0.001 A 
ATOM     76  C   UNL A   1      37.881  29.626  31.035  1.00  0.00     0.001 A 
ATOM     77  C   UNL A   1      37.080  30.101  29.997  1.00  0.00     0.000 A 
ENDBRANCH  58  72
BRANCH  59  78
ATOM     78  C   UNL A   1      48.971  26.309  27.341  1.00  0.00    -0.014 A 
ATOM     79  C   UNL A   1      49.792  25.725  28.318  1.00  0.00     0.009 A 
ATOM     80  C   UNL A   1      49.470  26.470  26.039  1.00  0.00     0.009 A 
ATOM     81  C   UNL A   1      51.094  25.330  28.004  1.00  0.00     0.001 A 
ATOM     82  C   UNL A   1      50.765  26.055  25.723  1.00  0.00     0.001 A 
ATOM     83  C   UNL A   1      51.577  25.493  26.706  1.00  0.00     0.000 A 
ENDBRANCH  59  78
BRANCH  71  84
ATOM     84  C   UNL A   1      46.334  32.266  29.762  1.00  0.00    -0.014 A 
ATOM     85  C   UNL A   1      46.571  33.278  28.818  1.00  0.00     0.009 A 
ATOM     86  C   UNL A   1      46.665  32.493  31.106  1.00  0.00     0.009 A 
ATOM     87  C   UNL A   1      47.154  34.483  29.212  1.00  0.00     0.001 A 
ATOM     88  C   UNL A   1      47.229  33.706  31.499  1.00  0.00     0.001 A 
ATOM     89  C   UNL A   1      47.479  34.698  30.551  1.00  0.00     0.000 A 
ENDBRANCH  71  84
ENDBRANCH  45  46
ENDBRANCH  37  40
ENDBRANCH  35  36
ENDBRANCH  34  35
ENDBRANCH  33  34
ENDBRANCH   1  33
TORSDOF 17
ENDMDL
MODEL 2
REMARK VINA RESULT:     -10.9      0.693      5.677
REMARK SMILES COC(=O)C1=C(C)N(c2ccccc2)C(=S)N[C@@H]1c1ccc(C(=O)NCCCCCCNC(=O)c2ccc(-c3c4nc(c(-c5ccccc5)c5ccc([nH]5)c(-c5ccccc5)c5nc(c(-c6ccccc6)c6ccc3[nH]6)C=C5)C=C4)cc2)cc1
REMARK SMILES IDX 28 1 27 2 26 3 25 4 23 5 24 6 22 8 19 9 20 10 84 11 21 12
REMARK SMILES IDX 83 13 18 14 5 15 6 16 7 17 8 18 17 19 15 20 16 22 3 23 4 24
REMARK SMILES IDX 2 25 1 26 9 27 10 28 14 29 11 30 13 31 12 32 29 33 30 34
REMARK SMILES IDX 31 35 32 36 33 37 34 39 35 40 36 41 82 42 37 43 81 44 38 45
REMARK SMILES IDX 39 46 40 47 75 48 41 49 80 50 74 51 76 52 42 53 79 54 73 55
REMARK SMILES IDX 72 56 43 58 65 59 50 60 64 61 51 62 54 63 63 64 77 65 52 66
REMARK SMILES IDX 53 67 62 69 78 70 55 71 44 72 45 73 49 74 46 75 48 76 47 77
REMARK SMILES IDX 66 78 67 79 71 80 68 81 70 82 69 83 56 84 57 85 61 86 58 87
REMARK SMILES IDX 60 88 59 89
REMARK H PARENT 25 7 17 21 32 38 76 57 54 68
REMARK Flexibility Score: inf
ROOT
ATOM      1  C   UNL A   1      34.912  20.107  24.877  1.00  0.00     0.002 C 
ENDROOT
BRANCH   1   2
ATOM      2  C   UNL A   1      33.795  21.072  24.454  1.00  0.00     0.021 C 
BRANCH   2   3
ATOM      3  C   UNL A   1      32.485  20.870  25.216  1.00  0.00     0.116 C 
BRANCH   3   4
ATOM      4  N   UNL A   1      32.685  21.111  26.632  1.00  0.00    -0.352 N 
ATOM      5  C   UNL A   1      33.056  22.234  27.321  1.00  0.00     0.251 C 
ATOM      6  O   UNL A   1      33.110  22.178  28.548  1.00  0.00    -0.269 OA
ATOM      7  H   UNL A   1      32.524  20.323  27.201  1.00  0.00     0.163 HD
BRANCH   5   8
ATOM      8  C   UNL A   1      33.329  23.526  26.645  1.00  0.00     0.039 A 
ATOM      9  C   UNL A   1      33.668  26.041  25.393  1.00  0.00    -0.021 A 
ATOM     10  C   UNL A   1      32.426  25.662  25.932  1.00  0.00     0.007 A 
ATOM     11  C   UNL A   1      34.741  25.140  25.508  1.00  0.00     0.007 A 
ATOM     12  C   UNL A   1      32.263  24.427  26.559  1.00  0.00     0.014 A 
ATOM     13  C   UNL A   1      34.578  23.902  26.146  1.00  0.00     0.014 A 
BRANCH   9  14
ATOM     14  C   UNL A   1      33.863  27.361  24.648  1.00  0.00     0.151 C 
ATOM     15  C   UNL A   1      33.170  28.533  25.263  1.00  0.00     0.083 C 
ATOM     16  C   UNL A   1      31.973  28.981  24.822  1.00  0.00     0.035 C 
ATOM     17  C   UNL A   1      31.189  30.050  25.551  1.00  0.00     0.065 C 
ATOM     18  N   UNL A   1      31.393  28.368  23.680  1.00  0.00    -0.291 N 
ATOM     19  N   UNL A   1      33.415  27.209  23.286  1.00  0.00    -0.351 N 
ATOM     20  C   UNL A   1      32.167  27.536  22.838  1.00  0.00     0.178 C 
ATOM     21  H   UNL A   1      34.053  26.842  22.632  1.00  0.00     0.163 HD
ATOM     22  S   UNL A   1      31.782  26.965  21.303  1.00  0.00    -0.040 S 
BRANCH  15  23
ATOM     23  C   UNL A   1      33.817  29.038  26.493  1.00  0.00     0.337 C 
ATOM     24  O   UNL A   1      34.034  28.365  27.486  1.00  0.00    -0.246 OA
BRANCH  23  25
ATOM     25  O   UNL A   1      34.146  30.343  26.321  1.00  0.00    -0.466 OA
ATOM     26  C   UNL A   1      34.015  31.129  27.507  1.00  0.00     0.282 C 
ENDBRANCH  23  25
ENDBRANCH  15  23
BRANCH  18  27
ATOM     27  C   UNL A   1      29.996  28.525  23.377  1.00  0.00     0.048 A 
ATOM     28  C   UNL A   1      29.042  27.585  23.781  1.00  0.00     0.027 A 
ATOM     29  C   UNL A   1      29.584  29.643  22.633  1.00  0.00     0.027 A 
ATOM     30  C   UNL A   1      27.700  27.751  23.427  1.00  0.00     0.002 A 
ATOM     31  C   UNL A   1      28.241  29.811  22.291  1.00  0.00     0.002 A 
ATOM     32  C   UNL A   1      27.302  28.860  22.683  1.00  0.00     0.000 A 
ENDBRANCH  18  27
ENDBRANCH   9  14
ENDBRANCH   5   8
ENDBRANCH   3   4
ENDBRANCH   2   3
ENDBRANCH   1   2
BRANCH   1  33
ATOM     33  C   UNL A   1      36.333  20.681  24.804  1.00  0.00     0.002 C 
BRANCH  33  34
ATOM     34  C   UNL A   1      37.459  19.679  25.077  1.00  0.00     0.021 C 
BRANCH  34  35
ATOM     35  C   UNL A   1      38.730  20.286  25.666  1.00  0.00     0.116 C 
BRANCH  35  36
ATOM     36  N   UNL A   1      39.801  19.311  25.784  1.00  0.00    -0.352 N 
ATOM     37  C   UNL A   1      41.126  19.512  26.081  1.00  0.00     0.251 C 
ATOM     38  H   UNL A   1      39.539  18.375  25.629  1.00  0.00     0.163 HD
ATOM     39  O   UNL A   1      41.932  18.594  25.967  1.00  0.00    -0.269 OA
BRANCH  37  40
ATOM     40  C   UNL A   1      41.589  20.844  26.522  1.00  0.00     0.039 A 
ATOM     41  C   UNL A   1      42.013  21.765  25.559  1.00  0.00     0.014 A 
ATOM     42  C   UNL A   1      41.630  21.177  27.880  1.00  0.00     0.014 A 
ATOM     43  C   UNL A   1      42.428  23.038  25.952  1.00  0.00     0.010 A 
ATOM     44  C   UNL A   1      42.000  22.463  28.267  1.00  0.00     0.010 A 
ATOM     45  C   UNL A   1      42.403  23.405  27.307  1.00  0.00    -0.014 A 
BRANCH  45  46
ATOM     46  C   UNL A   1      42.796  24.768  27.740  1.00  0.00     0.031 A 
ATOM     47  C   UNL A   1      44.247  25.148  27.819  1.00  0.00     0.074 A 
ATOM     48  C   UNL A   1      41.848  25.643  28.127  1.00  0.00     0.049 A 
ATOM     49  N   UNL A   1      44.786  26.262  28.247  1.00  0.00    -0.248 NA
ATOM     50  C   UNL A   1      45.221  24.136  27.382  1.00  0.00     0.031 C 
ATOM     51  C   UNL A   1      40.407  25.387  28.130  1.00  0.00     0.029 A 
ATOM     52  N   UNL A   1      41.961  26.924  28.603  1.00  0.00    -0.354 N 
ATOM     53  C   UNL A   1      46.159  26.077  28.150  1.00  0.00     0.074 A 
ATOM     54  C   UNL A   1      46.372  24.734  27.652  1.00  0.00     0.031 C 
ATOM     55  C   UNL A   1      39.768  26.483  28.572  1.00  0.00     0.029 A 
ATOM     56  C   UNL A   1      40.755  27.505  28.911  1.00  0.00     0.049 A 
ATOM     57  H   UNL A   1      42.824  27.385  28.715  1.00  0.00     0.167 HD
ATOM     58  C   UNL A   1      47.154  26.949  28.438  1.00  0.00     0.031 A 
ATOM     59  C   UNL A   1      40.474  28.722  29.412  1.00  0.00     0.031 A 
ATOM     60  C   UNL A   1      46.948  28.291  28.912  1.00  0.00     0.049 A 
ATOM     61  C   UNL A   1      41.595  29.676  29.710  1.00  0.00     0.074 A 
ATOM     62  C   UNL A   1      47.894  29.267  29.179  1.00  0.00     0.029 A 
ATOM     63  N   UNL A   1      45.709  28.849  29.185  1.00  0.00    -0.354 N 
ATOM     64  N   UNL A   1      42.885  29.502  29.567  1.00  0.00    -0.248 NA
ATOM     65  C   UNL A   1      41.216  30.997  30.231  1.00  0.00     0.031 C 
ATOM     66  C   UNL A   1      47.228  30.406  29.642  1.00  0.00     0.029 A 
ATOM     67  C   UNL A   1      45.865  30.150  29.629  1.00  0.00     0.049 A 
ATOM     68  H   UNL A   1      44.846  28.387  29.078  1.00  0.00     0.167 HD
ATOM     69  C   UNL A   1      43.472  30.698  29.957  1.00  0.00     0.074 A 
ATOM     70  C   UNL A   1      42.396  31.593  30.334  1.00  0.00     0.031 C 
ATOM     71  C   UNL A   1      44.786  31.026  29.997  1.00  0.00     0.031 A 
BRANCH  58  72
ATOM     72  C   UNL A   1      48.564  26.470  28.253  1.00  0.00    -0.014 A 
ATOM     73  C   UNL A   1      49.276  25.890  29.315  1.00  0.00     0.009 A 
ATOM     74  C   UNL A   1      49.177  26.570  26.995  1.00  0.00     0.009 A 
ATOM     75  C   UNL A   1      50.588  25.448  29.127  1.00  0.00     0.001 A 
ATOM     76  C   UNL A   1      50.480  26.107  26.805  1.00  0.00     0.001 A 
ATOM     77  C   UNL A   1      51.187  25.554  27.872  1.00  0.00     0.000 A 
ENDBRANCH  58  72
BRANCH  59  78
ATOM     78  C   UNL A   1      39.064  29.117  29.648  1.00  0.00    -0.014 A 
ATOM     79  C   UNL A   1      38.307  29.688  28.614  1.00  0.00     0.009 A 
ATOM     80  C   UNL A   1      38.468  28.925  30.904  1.00  0.00     0.009 A 
ATOM     81  C   UNL A   1      36.985  30.079  28.839  1.00  0.00     0.001 A 
ATOM     82  C   UNL A   1      37.140  29.297  31.120  1.00  0.00     0.001 A 
ATOM     83  C   UNL A   1      36.403  29.881  30.090  1.00  0.00     0.000 A 
ENDBRANCH  59  78
BRANCH  71  84
ATOM     84  C   UNL A   1      45.128  32.420  30.435  1.00  0.00    -0.014 A 
ATOM     85  C   UNL A   1      45.255  33.461  29.503  1.00  0.00     0.009 A 
ATOM     86  C   UNL A   1      45.289  32.699  31.801  1.00  0.00     0.009 A 
ATOM     87  C   UNL A   1      45.563  34.753  29.931  1.00  0.00     0.001 A 
ATOM     88  C   UNL A   1      45.577  33.996  32.226  1.00  0.00     0.001 A 
ATOM     89  C   UNL A   1      45.720  35.020  31.291  1.00  0.00     0.000 A 
ENDBRANCH  71  84
ENDBRANCH  45  46
ENDBRANCH  37  40
ENDBRANCH  35  36
ENDBRANCH  34  35
ENDBRANCH  33  34
ENDBRANCH   1  33
TORSDOF 17
ENDMDL
MODEL 3
REMARK VINA RESULT:     -10.7      4.593      7.047
REMARK SMILES COC(=O)C1=C(C)N(c2ccccc2)C(=S)N[C@@H]1c1ccc(C(=O)NCCCCCCNC(=O)c2ccc(-c3c4nc(c(-c5ccccc5)c5ccc([nH]5)c(-c5ccccc5)c5nc(c(-c6ccccc6)c6ccc3[nH]6)C=C5)C=C4)cc2)cc1
REMARK SMILES IDX 28 1 27 2 26 3 25 4 23 5 24 6 22 8 19 9 20 10 84 11 21 12
REMARK SMILES IDX 83 13 18 14 5 15 6 16 7 17 8 18 17 19 15 20 16 22 3 23 4 24
REMARK SMILES IDX 2 25 1 26 9 27 10 28 14 29 11 30 13 31 12 32 29 33 30 34
REMARK SMILES IDX 31 35 32 36 33 37 34 39 35 40 36 41 82 42 37 43 81 44 38 45
REMARK SMILES IDX 39 46 40 47 75 48 41 49 80 50 74 51 76 52 42 53 79 54 73 55
REMARK SMILES IDX 72 56 43 58 65 59 50 60 64 61 51 62 54 63 63 64 77 65 52 66
REMARK SMILES IDX 53 67 62 69 78 70 55 71 44 72 45 73 49 74 46 75 48 76 47 77
REMARK SMILES IDX 66 78 67 79 71 80 68 81 70 82 69 83 56 84 57 85 61 86 58 87
REMARK SMILES IDX 60 88 59 89
REMARK H PARENT 25 7 17 21 32 38 76 57 54 68
REMARK Flexibility Score: inf
ROOT
ATOM      1  C   UNL A   1      38.587  21.266  25.756  1.00  0.00     0.002 C 
ENDROOT
BRANCH   1   2
ATOM      2  C   UNL A   1      37.781  22.472  25.253  1.00  0.00     0.021 C 
BRANCH   2   3
ATOM      3  C   UNL A   1      36.675  22.105  24.263  1.00  0.00     0.116 C 
BRANCH   3   4
ATOM      4  N   UNL A   1      35.776  21.131  24.853  1.00  0.00    -0.352 N 
ATOM      5  C   UNL A   1      34.469  21.224  25.252  1.00  0.00     0.251 C 
ATOM      6  O   UNL A   1      33.918  20.215  25.689  1.00  0.00    -0.269 OA
ATOM      7  H   UNL A   1      36.178  20.244  24.990  1.00  0.00     0.163 HD
BRANCH   5   8
ATOM      8  C   UNL A   1      33.683  22.474  25.113  1.00  0.00     0.039 A 
ATOM      9  C   UNL A   1      32.045  24.755  24.770  1.00  0.00    -0.021 A 
ATOM     10  C   UNL A   1      31.625  23.489  24.327  1.00  0.00     0.007 A 
ATOM     11  C   UNL A   1      33.296  24.853  25.403  1.00  0.00     0.007 A 
ATOM     12  C   UNL A   1      32.429  22.363  24.507  1.00  0.00     0.014 A 
ATOM     13  C   UNL A   1      34.099  23.719  25.591  1.00  0.00     0.014 A 
BRANCH   9  14
ATOM     14  C   UNL A   1      31.214  26.016  24.534  1.00  0.00     0.151 C 
ATOM     15  C   UNL A   1      31.885  27.061  23.704  1.00  0.00     0.083 C 
ATOM     16  C   UNL A   1      32.518  28.124  24.249  1.00  0.00     0.035 C 
ATOM     17  C   UNL A   1      33.347  29.084  23.425  1.00  0.00     0.065 C 
ATOM     18  N   UNL A   1      32.470  28.298  25.658  1.00  0.00    -0.291 N 
ATOM     19  N   UNL A   1      30.847  26.587  25.807  1.00  0.00    -0.351 N 
ATOM     20  C   UNL A   1      31.541  27.577  26.442  1.00  0.00     0.178 C 
ATOM     21  H   UNL A   1      30.040  26.239  26.249  1.00  0.00     0.163 HD
ATOM     22  S   UNL A   1      31.108  27.841  28.046  1.00  0.00    -0.040 S 
BRANCH  15  23
ATOM     23  C   UNL A   1      31.949  26.736  22.262  1.00  0.00     0.337 C 
ATOM     24  O   UNL A   1      31.100  27.047  21.446  1.00  0.00    -0.246 OA
BRANCH  23  25
ATOM     25  O   UNL A   1      33.104  26.072  22.006  1.00  0.00    -0.466 OA
ATOM     26  C   UNL A   1      32.940  24.952  21.134  1.00  0.00     0.282 C 
ENDBRANCH  23  25
ENDBRANCH  15  23
BRANCH  18  27
ATOM     27  C   UNL A   1      33.399  29.163  26.335  1.00  0.00     0.048 A 
ATOM     28  C   UNL A   1      34.670  28.726  26.721  1.00  0.00     0.027 A 
ATOM     29  C   UNL A   1      33.005  30.477  26.637  1.00  0.00     0.027 A 
ATOM     30  C   UNL A   1      35.525  29.583  27.417  1.00  0.00     0.002 A 
ATOM     31  C   UNL A   1      33.866  31.336  27.323  1.00  0.00     0.002 A 
ATOM     32  C   UNL A   1      35.124  30.885  27.719  1.00  0.00     0.000 A 
ENDBRANCH  18  27
ENDBRANCH   9  14
ENDBRANCH   5   8
ENDBRANCH   3   4
ENDBRANCH   2   3
ENDBRANCH   1   2
BRANCH   1  33
ATOM     33  C   UNL A   1      40.099  21.495  25.875  1.00  0.00     0.002 C 
BRANCH  33  34
ATOM     34  C   UNL A   1      40.621  21.700  27.300  1.00  0.00     0.021 C 
BRANCH  34  35
ATOM     35  C   UNL A   1      41.088  23.119  27.614  1.00  0.00     0.116 C 
BRANCH  35  36
ATOM     36  N   UNL A   1      41.283  23.913  26.413  1.00  0.00    -0.352 N 
ATOM     37  C   UNL A   1      41.187  25.272  26.249  1.00  0.00     0.251 C 
ATOM     38  H   UNL A   1      41.516  23.404  25.603  1.00  0.00     0.163 HD
ATOM     39  O   UNL A   1      41.210  25.764  25.125  1.00  0.00    -0.269 OA
BRANCH  37  40
ATOM     40  C   UNL A   1      41.036  26.150  27.429  1.00  0.00     0.039 A 
ATOM     41  C   UNL A   1      41.978  27.160  27.642  1.00  0.00     0.014 A 
ATOM     42  C   UNL A   1      39.986  25.963  28.334  1.00  0.00     0.014 A 
ATOM     43  C   UNL A   1      41.840  28.018  28.735  1.00  0.00     0.010 A 
ATOM     44  C   UNL A   1      39.823  26.848  29.397  1.00  0.00     0.010 A 
ATOM     45  C   UNL A   1      40.748  27.883  29.608  1.00  0.00    -0.014 A 
BRANCH  45  46
ATOM     46  C   UNL A   1      40.558  28.812  30.747  1.00  0.00     0.031 A 
ATOM     47  C   UNL A   1      39.509  29.886  30.682  1.00  0.00     0.074 A 
ATOM     48  C   UNL A   1      41.374  28.732  31.816  1.00  0.00     0.049 A 
ATOM     49  N   UNL A   1      39.246  30.836  31.544  1.00  0.00    -0.248 NA
ATOM     50  C   UNL A   1      38.660  29.909  29.481  1.00  0.00     0.031 C 
ATOM     51  C   UNL A   1      42.453  27.758  31.988  1.00  0.00     0.029 A 
ATOM     52  N   UNL A   1      41.427  29.494  32.955  1.00  0.00    -0.354 N 
ATOM     53  C   UNL A   1      38.218  31.581  30.981  1.00  0.00     0.074 A 
ATOM     54  C   UNL A   1      37.925  30.992  29.691  1.00  0.00     0.031 C 
ATOM     55  C   UNL A   1      43.051  27.971  33.171  1.00  0.00     0.029 A 
ATOM     56  C   UNL A   1      42.419  29.114  33.825  1.00  0.00     0.049 A 
ATOM     57  H   UNL A   1      40.813  30.242  33.133  1.00  0.00     0.167 HD
ATOM     58  C   UNL A   1      37.568  32.652  31.495  1.00  0.00     0.031 A 
ATOM     59  C   UNL A   1      42.782  29.629  35.014  1.00  0.00     0.031 A 
ATOM     60  C   UNL A   1      37.840  33.227  32.785  1.00  0.00     0.049 A 
ATOM     61  C   UNL A   1      42.036  30.808  35.569  1.00  0.00     0.074 A 
ATOM     62  C   UNL A   1      37.195  34.279  33.413  1.00  0.00     0.029 A 
ATOM     63  N   UNL A   1      38.835  32.795  33.646  1.00  0.00    -0.354 N 
ATOM     64  N   UNL A   1      41.034  31.470  35.045  1.00  0.00    -0.248 NA
ATOM     65  C   UNL A   1      42.467  31.303  36.884  1.00  0.00     0.031 C 
ATOM     66  C   UNL A   1      37.822  34.503  34.644  1.00  0.00     0.029 A 
ATOM     67  C   UNL A   1      38.833  33.566  34.795  1.00  0.00     0.049 A 
ATOM     68  H   UNL A   1      39.453  32.049  33.467  1.00  0.00     0.167 HD
ATOM     69  C   UNL A   1      40.699  32.445  35.975  1.00  0.00     0.074 A 
ATOM     70  C   UNL A   1      41.598  32.281  37.099  1.00  0.00     0.031 C 
ATOM     71  C   UNL A   1      39.731  33.389  35.903  1.00  0.00     0.031 A 
BRANCH  58  72
ATOM     72  C   UNL A   1      36.496  33.276  30.650  1.00  0.00    -0.014 A 
ATOM     73  C   UNL A   1      36.819  33.990  29.484  1.00  0.00     0.009 A 
ATOM     74  C   UNL A   1      35.148  33.124  31.005  1.00  0.00     0.009 A 
ATOM     75  C   UNL A   1      35.810  34.565  28.708  1.00  0.00     0.001 A 
ATOM     76  C   UNL A   1      34.142  33.681  30.215  1.00  0.00     0.001 A 
ATOM     77  C   UNL A   1      34.473  34.407  29.072  1.00  0.00     0.000 A 
ENDBRANCH  58  72
BRANCH  59  78
ATOM     78  C   UNL A   1      43.901  29.018  35.774  1.00  0.00    -0.014 A 
ATOM     79  C   UNL A   1      45.213  29.479  35.594  1.00  0.00     0.009 A 
ATOM     80  C   UNL A   1      43.662  27.975  36.682  1.00  0.00     0.009 A 
ATOM     81  C   UNL A   1      46.270  28.893  36.294  1.00  0.00     0.001 A 
ATOM     82  C   UNL A   1      44.719  27.405  37.395  1.00  0.00     0.001 A 
ATOM     83  C   UNL A   1      46.021  27.859  37.195  1.00  0.00     0.000 A 
ENDBRANCH  59  78
BRANCH  71  84
ATOM     84  C   UNL A   1      39.576  34.298  37.087  1.00  0.00    -0.014 A 
ATOM     85  C   UNL A   1      38.853  33.894  38.220  1.00  0.00     0.009 A 
ATOM     86  C   UNL A   1      40.193  35.558  37.082  1.00  0.00     0.009 A 
ATOM     87  C   UNL A   1      38.729  34.749  39.316  1.00  0.00     0.001 A 
ATOM     88  C   UNL A   1      40.083  36.402  38.187  1.00  0.00     0.001 A 
ATOM     89  C   UNL A   1      39.347  36.000  39.300  1.00  0.00     0.000 A 
ENDBRANCH  71  84
ENDBRANCH  45  46
ENDBRANCH  37  40
ENDBRANCH  35  36
ENDBRANCH  34  35
ENDBRANCH  33  34
ENDBRANCH   1  33
TORSDOF 17
ENDMDL
