MODEL 1
REMARK VINA RESULT:     -10.4      0.000      0.000
REMARK SMILES CC(C)Cc1cc(C(=O)N[C@@H](Cc2ccco2)C(=O)NCCCCCCNC(=O)c2ccc(-c3c4nc(c(-c5ccccc5)c5ccc([nH]5)c(-c5ccccc5)c5nc(c(-c6ccccc6)c6ccc3[nH]6)C=C5)C=C4)cc2)on1
REMARK SMILES IDX 22 1 21 2 20 3 18 4 19 5 11 7 10 8 8 9 9 10 7 12 5 13 6 14
REMARK SMILES IDX 79 15 78 16 4 17 2 18 1 19 3 20 12 21 13 22 14 23 17 24
REMARK SMILES IDX 15 25 16 26 23 27 24 28 25 29 26 30 27 31 28 32 29 34 30 35
REMARK SMILES IDX 31 36 77 37 32 38 76 39 33 40 34 41 35 42 70 43 36 44 75 45
REMARK SMILES IDX 69 46 71 47 37 48 74 49 68 50 67 51 38 53 60 54 45 55 59 56
REMARK SMILES IDX 46 57 49 58 58 59 72 60 47 61 48 62 57 64 73 65 50 66 39 67
REMARK SMILES IDX 40 68 44 69 41 70 43 71 42 72 61 73 62 74 66 75 63 76 65 77
REMARK SMILES IDX 64 78 51 79 52 80 56 81 53 82 55 83 54 84
REMARK H PARENT 20 6 10 11 27 33 71 52 49 63
REMARK Flexibility Score: inf
ROOT
ATOM      1  C   UNL A   1      33.653  25.510  22.779  1.00  0.00     0.021 C 
ENDROOT
BRANCH   1   2
ATOM      2  C   UNL A   1      32.348  25.270  22.039  1.00  0.00     0.116 C 
BRANCH   2   3
ATOM      3  N   UNL A   1      31.766  26.465  21.483  1.00  0.00    -0.354 N 
ATOM      4  C   UNL A   1      31.025  27.424  22.098  1.00  0.00     0.243 C 
ATOM      5  O   UNL A   1      30.993  28.534  21.551  1.00  0.00    -0.273 OA
ATOM      6  H   UNL A   1      31.928  26.607  20.522  1.00  0.00     0.163 HD
BRANCH   4   7
ATOM      7  C   UNL A   1      30.344  27.237  23.473  1.00  0.00     0.179 C 
BRANCH   7   8
ATOM      8  N   UNL A   1      31.064  27.734  24.655  1.00  0.00    -0.337 N 
ATOM      9  C   UNL A   1      31.583  27.060  25.743  1.00  0.00     0.290 C 
ATOM     10  O   UNL A   1      32.335  27.701  26.472  1.00  0.00    -0.266 OA
ATOM     11  H   UNL A   1      31.199  28.709  24.673  1.00  0.00     0.164 HD
BRANCH   9  12
ATOM     12  C   UNL A   1      31.247  25.674  25.971  1.00  0.00     0.224 A 
ATOM     13  C   UNL A   1      30.959  23.493  25.945  1.00  0.00     0.085 A 
ATOM     14  C   UNL A   1      30.721  24.664  25.197  1.00  0.00     0.083 A 
ATOM     15  N   UNL A   1      31.337  23.784  27.193  1.00  0.00    -0.084 NA
ATOM     16  O   UNL A   1      31.500  25.162  27.214  1.00  0.00    -0.351 OA
BRANCH  13  17
ATOM     17  C   UNL A   1      30.978  22.092  25.431  1.00  0.00     0.063 C 
BRANCH  17  18
ATOM     18  C   UNL A   1      32.370  21.734  24.854  1.00  0.00    -0.011 C 
ATOM     19  C   UNL A   1      33.079  20.661  25.688  1.00  0.00     0.008 C 
ATOM     20  C   UNL A   1      32.256  21.275  23.402  1.00  0.00     0.008 C 
ENDBRANCH  17  18
ENDBRANCH  13  17
ENDBRANCH   9  12
ENDBRANCH   7   8
BRANCH   7  21
ATOM     21  C   UNL A   1      28.849  27.584  23.493  1.00  0.00     0.110 C 
BRANCH  21  22
ATOM     22  C   UNL A   1      28.505  29.025  23.398  1.00  0.00     0.106 A 
ATOM     23  C   UNL A   1      27.358  29.691  23.016  1.00  0.00     0.045 A 
ATOM     24  O   UNL A   1      29.459  29.921  23.779  1.00  0.00    -0.469 OA
ATOM     25  C   UNL A   1      27.633  31.073  23.157  1.00  0.00     0.042 A 
ATOM     26  C   UNL A   1      28.921  31.161  23.631  1.00  0.00     0.195 A 
ENDBRANCH  21  22
ENDBRANCH   7  21
ENDBRANCH   4   7
ENDBRANCH   2   3
ENDBRANCH   1   2
BRANCH   1  27
ATOM     27  C   UNL A   1      34.147  24.321  23.608  1.00  0.00     0.002 C 
BRANCH  27  28
ATOM     28  C   UNL A   1      34.653  24.646  25.019  1.00  0.00     0.002 C 
BRANCH  28  29
ATOM     29  C   UNL A   1      35.686  23.678  25.601  1.00  0.00     0.021 C 
BRANCH  29  30
ATOM     30  C   UNL A   1      37.080  23.779  25.001  1.00  0.00     0.116 C 
BRANCH  30  31
ATOM     31  N   UNL A   1      37.959  22.715  25.450  1.00  0.00    -0.352 N 
ATOM     32  C   UNL A   1      39.102  22.792  26.204  1.00  0.00     0.251 C 
ATOM     33  H   UNL A   1      37.696  21.808  25.174  1.00  0.00     0.163 HD
ATOM     34  O   UNL A   1      39.807  21.800  26.354  1.00  0.00    -0.269 OA
BRANCH  32  35
ATOM     35  C   UNL A   1      39.495  24.077  26.821  1.00  0.00     0.039 A 
ATOM     36  C   UNL A   1      40.234  24.987  26.061  1.00  0.00     0.014 A 
ATOM     37  C   UNL A   1      39.163  24.376  28.145  1.00  0.00     0.014 A 
ATOM     38  C   UNL A   1      40.607  26.212  26.616  1.00  0.00     0.010 A 
ATOM     39  C   UNL A   1      39.464  25.629  28.670  1.00  0.00     0.010 A 
ATOM     40  C   UNL A   1      40.206  26.551  27.919  1.00  0.00    -0.014 A 
BRANCH  40  41
ATOM     41  C   UNL A   1      40.595  27.848  28.527  1.00  0.00     0.031 A 
ATOM     42  C   UNL A   1      42.012  28.063  28.993  1.00  0.00     0.074 A 
ATOM     43  C   UNL A   1      39.671  28.813  28.703  1.00  0.00     0.049 A 
ATOM     44  N   UNL A   1      42.536  29.102  29.592  1.00  0.00    -0.248 NA
ATOM     45  C   UNL A   1      42.958  26.955  28.780  1.00  0.00     0.031 C 
ATOM     46  C   UNL A   1      38.260  28.718  28.323  1.00  0.00     0.029 A 
ATOM     47  N   UNL A   1      39.782  30.066  29.252  1.00  0.00    -0.354 N 
ATOM     48  C   UNL A   1      43.859  28.762  29.846  1.00  0.00     0.074 A 
ATOM     49  C   UNL A   1      44.047  27.407  29.383  1.00  0.00     0.031 C 
ATOM     50  C   UNL A   1      37.646  29.875  28.621  1.00  0.00     0.029 A 
ATOM     51  C   UNL A   1      38.606  30.775  29.251  1.00  0.00     0.049 A 
ATOM     52  H   UNL A   1      40.626  30.423  29.613  1.00  0.00     0.167 HD
ATOM     53  C   UNL A   1      44.838  29.520  30.397  1.00  0.00     0.031 A 
ATOM     54  C   UNL A   1      38.331  32.011  29.711  1.00  0.00     0.031 A 
ATOM     55  C   UNL A   1      44.657  30.877  30.836  1.00  0.00     0.049 A 
ATOM     56  C   UNL A   1      39.436  32.823  30.331  1.00  0.00     0.074 A 
ATOM     57  C   UNL A   1      45.601  31.748  31.352  1.00  0.00     0.029 A 
ATOM     58  N   UNL A   1      43.451  31.559  30.811  1.00  0.00    -0.354 N 
ATOM     59  N   UNL A   1      40.699  32.512  30.499  1.00  0.00    -0.248 NA
ATOM     60  C   UNL A   1      39.077  34.166  30.812  1.00  0.00     0.031 C 
ATOM     61  C   UNL A   1      44.953  32.939  31.691  1.00  0.00     0.029 A 
ATOM     62  C   UNL A   1      43.621  32.833  31.324  1.00  0.00     0.049 A 
ATOM     63  H   UNL A   1      42.600  31.192  30.477  1.00  0.00     0.167 HD
ATOM     64  C   UNL A   1      41.292  33.635  31.064  1.00  0.00     0.074 A 
ATOM     65  C   UNL A   1      40.254  34.636  31.199  1.00  0.00     0.031 C 
ATOM     66  C   UNL A   1      42.581  33.822  31.436  1.00  0.00     0.031 A 
BRANCH  53  67
ATOM     67  C   UNL A   1      46.196  28.895  30.563  1.00  0.00    -0.014 A 
ATOM     68  C   UNL A   1      46.535  28.181  31.723  1.00  0.00     0.009 A 
ATOM     69  C   UNL A   1      47.131  28.978  29.520  1.00  0.00     0.009 A 
ATOM     70  C   UNL A   1      47.795  27.589  31.847  1.00  0.00     0.001 A 
ATOM     71  C   UNL A   1      48.378  28.360  29.634  1.00  0.00     0.001 A 
ATOM     72  C   UNL A   1      48.712  27.674  30.801  1.00  0.00     0.000 A 
ENDBRANCH  53  67
BRANCH  54  73
ATOM     73  C   UNL A   1      36.958  32.572  29.594  1.00  0.00    -0.014 A 
ATOM     74  C   UNL A   1      36.585  33.314  28.463  1.00  0.00     0.009 A 
ATOM     75  C   UNL A   1      36.026  32.404  30.631  1.00  0.00     0.009 A 
ATOM     76  C   UNL A   1      35.324  33.910  28.390  1.00  0.00     0.001 A 
ATOM     77  C   UNL A   1      34.754  32.973  30.540  1.00  0.00     0.001 A 
ATOM     78  C   UNL A   1      34.410  33.738  29.428  1.00  0.00     0.000 A 
ENDBRANCH  54  73
BRANCH  66  79
ATOM     79  C   UNL A   1      42.957  35.178  31.965  1.00  0.00    -0.014 A 
ATOM     80  C   UNL A   1      42.783  35.516  33.315  1.00  0.00     0.009 A 
ATOM     81  C   UNL A   1      43.537  36.118  31.098  1.00  0.00     0.009 A 
ATOM     82  C   UNL A   1      43.143  36.784  33.776  1.00  0.00     0.001 A 
ATOM     83  C   UNL A   1      43.929  37.371  31.569  1.00  0.00     0.001 A 
ATOM     84  C   UNL A   1      43.720  37.707  32.905  1.00  0.00     0.000 A 
ENDBRANCH  66  79
ENDBRANCH  40  41
ENDBRANCH  32  35
ENDBRANCH  30  31
ENDBRANCH  29  30
ENDBRANCH  28  29
ENDBRANCH  27  28
ENDBRANCH   1  27
TORSDOF 19
ENDMDL
MODEL 2
REMARK VINA RESULT:     -10.4      3.093      7.531
REMARK SMILES CC(C)Cc1cc(C(=O)N[C@@H](Cc2ccco2)C(=O)NCCCCCCNC(=O)c2ccc(-c3c4nc(c(-c5ccccc5)c5ccc([nH]5)c(-c5ccccc5)c5nc(c(-c6ccccc6)c6ccc3[nH]6)C=C5)C=C4)cc2)on1
REMARK SMILES IDX 22 1 21 2 20 3 18 4 19 5 11 7 10 8 8 9 9 10 7 12 5 13 6 14
REMARK SMILES IDX 79 15 78 16 4 17 2 18 1 19 3 20 12 21 13 22 14 23 17 24
REMARK SMILES IDX 15 25 16 26 23 27 24 28 25 29 26 30 27 31 28 32 29 34 30 35
REMARK SMILES IDX 31 36 77 37 32 38 76 39 33 40 34 41 35 42 70 43 36 44 75 45
REMARK SMILES IDX 69 46 71 47 37 48 74 49 68 50 67 51 38 53 60 54 45 55 59 56
REMARK SMILES IDX 46 57 49 58 58 59 72 60 47 61 48 62 57 64 73 65 50 66 39 67
REMARK SMILES IDX 40 68 44 69 41 70 43 71 42 72 61 73 62 74 66 75 63 76 65 77
REMARK SMILES IDX 64 78 51 79 52 80 56 81 53 82 55 83 54 84
REMARK H PARENT 20 6 10 11 27 33 71 52 49 63
REMARK Flexibility Score: inf
ROOT
ATOM      1  C   UNL A   1      33.524  29.352  26.712  1.00  0.00     0.021 C 
ENDROOT
BRANCH   1   2
ATOM      2  C   UNL A   1      33.552  28.051  25.929  1.00  0.00     0.116 C 
BRANCH   2   3
ATOM      3  N   UNL A   1      32.273  27.390  25.853  1.00  0.00    -0.354 N 
ATOM      4  C   UNL A   1      31.369  27.386  24.840  1.00  0.00     0.243 C 
ATOM      5  O   UNL A   1      30.567  26.443  24.816  1.00  0.00    -0.273 OA
ATOM      6  H   UNL A   1      32.020  26.867  26.648  1.00  0.00     0.163 HD
BRANCH   4   7
ATOM      7  C   UNL A   1      31.373  28.405  23.676  1.00  0.00     0.179 C 
BRANCH   7   8
ATOM      8  N   UNL A   1      32.635  28.588  22.946  1.00  0.00    -0.337 N 
ATOM      9  C   UNL A   1      33.457  27.669  22.323  1.00  0.00     0.290 C 
ATOM     10  O   UNL A   1      34.332  28.127  21.593  1.00  0.00    -0.266 OA
ATOM     11  H   UNL A   1      32.947  29.520  22.891  1.00  0.00     0.164 HD
BRANCH   9  12
ATOM     12  C   UNL A   1      33.259  26.254  22.532  1.00  0.00     0.224 A 
ATOM     13  C   UNL A   1      32.982  24.202  23.278  1.00  0.00     0.085 A 
ATOM     14  C   UNL A   1      33.878  25.291  23.297  1.00  0.00     0.083 A 
ATOM     15  N   UNL A   1      32.034  24.373  22.352  1.00  0.00    -0.084 NA
ATOM     16  O   UNL A   1      32.221  25.660  21.868  1.00  0.00    -0.351 OA
BRANCH  13  17
ATOM     17  C   UNL A   1      32.932  23.067  24.246  1.00  0.00     0.063 C 
BRANCH  17  18
ATOM     18  C   UNL A   1      32.019  23.408  25.450  1.00  0.00    -0.011 C 
ATOM     19  C   UNL A   1      31.028  22.279  25.756  1.00  0.00     0.008 C 
ATOM     20  C   UNL A   1      32.850  23.723  26.691  1.00  0.00     0.008 C 
ENDBRANCH  17  18
ENDBRANCH  13  17
ENDBRANCH   9  12
ENDBRANCH   7   8
BRANCH   7  21
ATOM     21  C   UNL A   1      30.152  28.317  22.751  1.00  0.00     0.110 C 
BRANCH  21  22
ATOM     22  C   UNL A   1      29.388  29.574  22.548  1.00  0.00     0.106 A 
ATOM     23  C   UNL A   1      28.794  30.461  23.422  1.00  0.00     0.045 A 
ATOM     24  O   UNL A   1      29.235  30.011  21.266  1.00  0.00    -0.469 OA
ATOM     25  C   UNL A   1      28.230  31.489  22.628  1.00  0.00     0.042 A 
ATOM     26  C   UNL A   1      28.533  31.174  21.324  1.00  0.00     0.195 A 
ENDBRANCH  21  22
ENDBRANCH   7  21
ENDBRANCH   4   7
ENDBRANCH   2   3
ENDBRANCH   1   2
BRANCH   1  27
ATOM     27  C   UNL A   1      32.124  29.835  27.102  1.00  0.00     0.002 C 
BRANCH  27  28
ATOM     28  C   UNL A   1      31.477  30.856  26.158  1.00  0.00     0.002 C 
BRANCH  28  29
ATOM     29  C   UNL A   1      31.363  32.286  26.693  1.00  0.00     0.021 C 
BRANCH  29  30
ATOM     30  C   UNL A   1      32.685  32.956  27.039  1.00  0.00     0.116 C 
BRANCH  30  31
ATOM     31  N   UNL A   1      32.505  34.226  27.717  1.00  0.00    -0.352 N 
ATOM     32  C   UNL A   1      33.163  34.730  28.810  1.00  0.00     0.251 C 
ATOM     33  H   UNL A   1      31.810  34.810  27.337  1.00  0.00     0.163 HD
ATOM     34  O   UNL A   1      32.766  35.759  29.346  1.00  0.00    -0.269 OA
BRANCH  32  35
ATOM     35  C   UNL A   1      34.341  34.021  29.354  1.00  0.00     0.039 A 
ATOM     36  C   UNL A   1      34.137  33.010  30.296  1.00  0.00     0.014 A 
ATOM     37  C   UNL A   1      35.637  34.363  28.961  1.00  0.00     0.014 A 
ATOM     38  C   UNL A   1      35.232  32.317  30.816  1.00  0.00     0.010 A 
ATOM     39  C   UNL A   1      36.720  33.618  29.417  1.00  0.00     0.010 A 
ATOM     40  C   UNL A   1      36.532  32.602  30.365  1.00  0.00    -0.014 A 
BRANCH  40  41
ATOM     41  C   UNL A   1      37.708  31.878  30.907  1.00  0.00     0.031 A 
ATOM     42  C   UNL A   1      38.239  32.228  32.273  1.00  0.00     0.074 A 
ATOM     43  C   UNL A   1      38.326  30.942  30.160  1.00  0.00     0.049 A 
ATOM     44  N   UNL A   1      39.281  31.748  32.902  1.00  0.00    -0.248 NA
ATOM     45  C   UNL A   1      37.519  33.272  33.020  1.00  0.00     0.031 C 
ATOM     46  C   UNL A   1      37.928  30.533  28.812  1.00  0.00     0.029 A 
ATOM     47  N   UNL A   1      39.425  30.167  30.431  1.00  0.00    -0.354 N 
ATOM     48  C   UNL A   1      39.353  32.447  34.101  1.00  0.00     0.074 A 
ATOM     49  C   UNL A   1      38.281  33.416  34.093  1.00  0.00     0.031 C 
ATOM     50  C   UNL A   1      38.751  29.560  28.387  1.00  0.00     0.029 A 
ATOM     51  C   UNL A   1      39.758  29.307  29.412  1.00  0.00     0.049 A 
ATOM     52  H   UNL A   1      39.927  30.220  31.276  1.00  0.00     0.167 HD
ATOM     53  C   UNL A   1      40.221  32.282  35.128  1.00  0.00     0.031 A 
ATOM     54  C   UNL A   1      40.766  28.419  29.314  1.00  0.00     0.031 A 
ATOM     55  C   UNL A   1      41.272  31.300  35.146  1.00  0.00     0.049 A 
ATOM     56  C   UNL A   1      41.723  28.268  30.466  1.00  0.00     0.074 A 
ATOM     57  C   UNL A   1      42.165  31.014  36.164  1.00  0.00     0.029 A 
ATOM     58  N   UNL A   1      41.571  30.446  34.096  1.00  0.00    -0.354 N 
ATOM     59  N   UNL A   1      41.733  28.888  31.621  1.00  0.00    -0.248 NA
ATOM     60  C   UNL A   1      42.801  27.281  30.302  1.00  0.00     0.031 C 
ATOM     61  C   UNL A   1      43.040  30.025  35.708  1.00  0.00     0.029 A 
ATOM     62  C   UNL A   1      42.650  29.649  34.433  1.00  0.00     0.049 A 
ATOM     63  H   UNL A   1      41.087  30.412  33.239  1.00  0.00     0.167 HD
ATOM     64  C   UNL A   1      42.788  28.335  32.337  1.00  0.00     0.074 A 
ATOM     65  C   UNL A   1      43.387  27.324  31.490  1.00  0.00     0.031 C 
ATOM     66  C   UNL A   1      43.223  28.636  33.585  1.00  0.00     0.031 A 
BRANCH  53  67
ATOM     67  C   UNL A   1      40.074  33.188  36.319  1.00  0.00    -0.014 A 
ATOM     68  C   UNL A   1      40.761  34.410  36.397  1.00  0.00     0.009 A 
ATOM     69  C   UNL A   1      39.196  32.837  37.356  1.00  0.00     0.009 A 
ATOM     70  C   UNL A   1      40.594  35.247  37.503  1.00  0.00     0.001 A 
ATOM     71  C   UNL A   1      39.007  33.689  38.445  1.00  0.00     0.001 A 
ATOM     72  C   UNL A   1      39.713  34.889  38.522  1.00  0.00     0.000 A 
ENDBRANCH  53  67
BRANCH  54  73
ATOM     73  C   UNL A   1      40.923  27.588  28.090  1.00  0.00    -0.014 A 
ATOM     74  C   UNL A   1      41.669  28.060  26.999  1.00  0.00     0.009 A 
ATOM     75  C   UNL A   1      40.295  26.337  27.990  1.00  0.00     0.009 A 
ATOM     76  C   UNL A   1      41.749  27.317  25.819  1.00  0.00     0.001 A 
ATOM     77  C   UNL A   1      40.406  25.580  26.821  1.00  0.00     0.001 A 
ATOM     78  C   UNL A   1      41.119  26.077  25.732  1.00  0.00     0.000 A 
ENDBRANCH  54  73
BRANCH  66  79
ATOM     79  C   UNL A   1      44.359  27.821  34.135  1.00  0.00    -0.014 A 
ATOM     80  C   UNL A   1      44.141  26.600  34.789  1.00  0.00     0.009 A 
ATOM     81  C   UNL A   1      45.678  28.269  33.955  1.00  0.00     0.009 A 
ATOM     82  C   UNL A   1      45.218  25.865  35.288  1.00  0.00     0.001 A 
ATOM     83  C   UNL A   1      46.754  27.516  34.422  1.00  0.00     0.001 A 
ATOM     84  C   UNL A   1      46.522  26.320  35.100  1.00  0.00     0.000 A 
ENDBRANCH  66  79
ENDBRANCH  40  41
ENDBRANCH  32  35
ENDBRANCH  30  31
ENDBRANCH  29  30
ENDBRANCH  28  29
ENDBRANCH  27  28
ENDBRANCH   1  27
TORSDOF 19
ENDMDL
MODEL 3
REMARK VINA RESULT:     -10.4      1.181      1.728
REMARK SMILES CC(C)Cc1cc(C(=O)N[C@@H](Cc2ccco2)C(=O)NCCCCCCNC(=O)c2ccc(-c3c4nc(c(-c5ccccc5)c5ccc([nH]5)c(-c5ccccc5)c5nc(c(-c6ccccc6)c6ccc3[nH]6)C=C5)C=C4)cc2)on1
REMARK SMILES IDX 22 1 21 2 20 3 18 4 19 5 11 7 10 8 8 9 9 10 7 12 5 13 6 14
REMARK SMILES IDX 79 15 78 16 4 17 2 18 1 19 3 20 12 21 13 22 14 23 17 24
REMARK SMILES IDX 15 25 16 26 23 27 24 28 25 29 26 30 27 31 28 32 29 34 30 35
REMARK SMILES IDX 31 36 77 37 32 38 76 39 33 40 34 41 35 42 70 43 36 44 75 45
REMARK SMILES IDX 69 46 71 47 37 48 74 49 68 50 67 51 38 53 60 54 45 55 59 56
REMARK SMILES IDX 46 57 49 58 58 59 72 60 47 61 48 62 57 64 73 65 50 66 39 67
REMARK SMILES IDX 40 68 44 69 41 70 43 71 42 72 61 73 62 74 66 75 63 76 65 77
REMARK SMILES IDX 64 78 51 79 52 80 56 81 53 82 55 83 54 84
REMARK H PARENT 20 6 10 11 27 33 71 52 49 63
REMARK Flexibility Score: inf
ROOT
ATOM      1  C   UNL A   1      33.201  23.852  21.809  1.00  0.00     0.021 C 
ENDROOT
BRANCH   1   2
ATOM      2  C   UNL A   1      32.473  25.168  22.023  1.00  0.00     0.116 C 
BRANCH   2   3
ATOM      3  N   UNL A   1      33.186  26.317  21.524  1.00  0.00    -0.354 N 
ATOM      4  C   UNL A   1      33.332  27.545  22.084  1.00  0.00     0.243 C 
ATOM      5  O   UNL A   1      34.302  28.215  21.707  1.00  0.00    -0.273 OA
ATOM      6  H   UNL A   1      33.631  26.193  20.655  1.00  0.00     0.163 HD
BRANCH   4   7
ATOM      7  C   UNL A   1      32.443  28.082  23.231  1.00  0.00     0.179 C 
BRANCH   7   8
ATOM      8  N   UNL A   1      33.104  28.401  24.504  1.00  0.00    -0.337 N 
ATOM      9  C   UNL A   1      33.221  27.667  25.668  1.00  0.00     0.290 C 
ATOM     10  O   UNL A   1      34.024  28.085  26.497  1.00  0.00    -0.266 OA
ATOM     11  H   UNL A   1      33.536  29.285  24.531  1.00  0.00     0.164 HD
BRANCH   9  12
ATOM     12  C   UNL A   1      32.436  26.470  25.857  1.00  0.00     0.224 A 
ATOM     13  C   UNL A   1      31.597  24.497  26.353  1.00  0.00     0.085 A 
ATOM     14  C   UNL A   1      32.658  25.124  25.669  1.00  0.00     0.083 A 
ATOM     15  N   UNL A   1      30.650  25.377  26.687  1.00  0.00    -0.084 NA
ATOM     16  O   UNL A   1      31.171  26.620  26.356  1.00  0.00    -0.351 OA
BRANCH  13  17
ATOM     17  C   UNL A   1      31.551  23.083  26.829  1.00  0.00     0.063 C 
BRANCH  17  18
ATOM     18  C   UNL A   1      32.925  22.393  26.643  1.00  0.00    -0.011 C 
ATOM     19  C   UNL A   1      33.650  22.189  27.978  1.00  0.00     0.008 C 
ATOM     20  C   UNL A   1      32.769  21.054  25.925  1.00  0.00     0.008 C 
ENDBRANCH  17  18
ENDBRANCH  13  17
ENDBRANCH   9  12
ENDBRANCH   7   8
BRANCH   7  21
ATOM     21  C   UNL A   1      31.426  29.147  22.800  1.00  0.00     0.110 C 
BRANCH  21  22
ATOM     22  C   UNL A   1      29.993  28.781  22.928  1.00  0.00     0.106 A 
ATOM     23  C   UNL A   1      28.831  29.371  22.473  1.00  0.00     0.045 A 
ATOM     24  O   UNL A   1      29.701  27.624  23.587  1.00  0.00    -0.469 OA
ATOM     25  C   UNL A   1      27.768  28.536  22.894  1.00  0.00     0.042 A 
ATOM     26  C   UNL A   1      28.349  27.483  23.561  1.00  0.00     0.195 A 
ENDBRANCH  21  22
ENDBRANCH   7  21
ENDBRANCH   4   7
ENDBRANCH   2   3
ENDBRANCH   1   2
BRANCH   1  27
ATOM     27  C   UNL A   1      33.781  23.226  23.081  1.00  0.00     0.002 C 
BRANCH  27  28
ATOM     28  C   UNL A   1      35.257  23.526  23.367  1.00  0.00     0.002 C 
BRANCH  28  29
ATOM     29  C   UNL A   1      35.774  23.098  24.743  1.00  0.00     0.021 C 
BRANCH  29  30
ATOM     30  C   UNL A   1      37.090  23.733  25.167  1.00  0.00     0.116 C 
BRANCH  30  31
ATOM     31  N   UNL A   1      38.140  22.752  25.374  1.00  0.00    -0.352 N 
ATOM     32  C   UNL A   1      39.349  22.893  26.007  1.00  0.00     0.251 C 
ATOM     33  H   UNL A   1      37.958  21.858  25.006  1.00  0.00     0.163 HD
ATOM     34  O   UNL A   1      40.182  21.995  25.945  1.00  0.00    -0.269 OA
BRANCH  32  35
ATOM     35  C   UNL A   1      39.654  24.135  26.748  1.00  0.00     0.039 A 
ATOM     36  C   UNL A   1      40.425  25.117  26.120  1.00  0.00     0.014 A 
ATOM     37  C   UNL A   1      39.210  24.324  28.059  1.00  0.00     0.014 A 
ATOM     38  C   UNL A   1      40.717  26.304  26.795  1.00  0.00     0.010 A 
ATOM     39  C   UNL A   1      39.432  25.539  28.699  1.00  0.00     0.010 A 
ATOM     40  C   UNL A   1      40.205  26.533  28.082  1.00  0.00    -0.014 A 
BRANCH  40  41
ATOM     41  C   UNL A   1      40.507  27.787  28.816  1.00  0.00     0.031 A 
ATOM     42  C   UNL A   1      41.831  27.946  29.517  1.00  0.00     0.074 A 
ATOM     43  C   UNL A   1      39.580  28.763  28.891  1.00  0.00     0.049 A 
ATOM     44  N   UNL A   1      42.263  28.940  30.249  1.00  0.00    -0.248 NA
ATOM     45  C   UNL A   1      42.783  26.829  29.401  1.00  0.00     0.031 C 
ATOM     46  C   UNL A   1      38.249  28.719  28.281  1.00  0.00     0.029 A 
ATOM     47  N   UNL A   1      39.617  29.983  29.518  1.00  0.00    -0.354 N 
ATOM     48  C   UNL A   1      43.523  28.558  30.697  1.00  0.00     0.074 A 
ATOM     49  C   UNL A   1      43.765  27.224  30.197  1.00  0.00     0.031 C 
ATOM     50  C   UNL A   1      37.611  29.873  28.537  1.00  0.00     0.029 A 
ATOM     51  C   UNL A   1      38.467  30.718  29.363  1.00  0.00     0.049 A 
ATOM     52  H   UNL A   1      40.395  30.302  30.031  1.00  0.00     0.167 HD
ATOM     53  C   UNL A   1      44.408  29.264  31.441  1.00  0.00     0.031 A 
ATOM     54  C   UNL A   1      38.137  31.934  29.839  1.00  0.00     0.031 A 
ATOM     55  C   UNL A   1      44.176  30.600  31.918  1.00  0.00     0.049 A 
ATOM     56  C   UNL A   1      39.137  32.688  30.674  1.00  0.00     0.074 A 
ATOM     57  C   UNL A   1      45.035  31.422  32.627  1.00  0.00     0.029 A 
ATOM     58  N   UNL A   1      43.001  31.310  31.733  1.00  0.00    -0.354 N 
ATOM     59  N   UNL A   1      40.350  32.341  31.029  1.00  0.00    -0.248 NA
ATOM     60  C   UNL A   1      38.723  34.012  31.163  1.00  0.00     0.031 C 
ATOM     61  C   UNL A   1      44.357  32.609  32.920  1.00  0.00     0.029 A 
ATOM     62  C   UNL A   1      43.102  32.552  32.336  1.00  0.00     0.049 A 
ATOM     63  H   UNL A   1      42.211  30.981  31.246  1.00  0.00     0.167 HD
ATOM     64  C   UNL A   1      40.858  33.419  31.743  1.00  0.00     0.074 A 
ATOM     65  C   UNL A   1      39.826  34.435  31.762  1.00  0.00     0.031 C 
ATOM     66  C   UNL A   1      42.072  33.557  32.331  1.00  0.00     0.031 A 
BRANCH  53  67
ATOM     67  C   UNL A   1      45.711  28.600  31.792  1.00  0.00    -0.014 A 
ATOM     68  C   UNL A   1      46.842  28.731  30.970  1.00  0.00     0.009 A 
ATOM     69  C   UNL A   1      45.823  27.875  32.988  1.00  0.00     0.009 A 
ATOM     70  C   UNL A   1      48.050  28.125  31.326  1.00  0.00     0.001 A 
ATOM     71  C   UNL A   1      47.038  27.296  33.356  1.00  0.00     0.001 A 
ATOM     72  C   UNL A   1      48.148  27.414  32.521  1.00  0.00     0.000 A 
ENDBRANCH  53  67
BRANCH  54  73
ATOM     73  C   UNL A   1      36.810  32.531  29.531  1.00  0.00    -0.014 A 
ATOM     74  C   UNL A   1      35.730  32.361  30.412  1.00  0.00     0.009 A 
ATOM     75  C   UNL A   1      36.604  33.240  28.337  1.00  0.00     0.009 A 
ATOM     76  C   UNL A   1      34.464  32.851  30.084  1.00  0.00     0.001 A 
ATOM     77  C   UNL A   1      35.344  33.758  28.028  1.00  0.00     0.001 A 
ATOM     78  C   UNL A   1      34.273  33.550  28.894  1.00  0.00     0.000 A 
ENDBRANCH  54  73
BRANCH  66  79
ATOM     79  C   UNL A   1      42.375  34.875  32.987  1.00  0.00    -0.014 A 
ATOM     80  C   UNL A   1      43.153  35.853  32.351  1.00  0.00     0.009 A 
ATOM     81  C   UNL A   1      41.831  35.155  34.251  1.00  0.00     0.009 A 
ATOM     82  C   UNL A   1      43.416  37.068  32.986  1.00  0.00     0.001 A 
ATOM     83  C   UNL A   1      42.065  36.383  34.868  1.00  0.00     0.001 A 
ATOM     84  C   UNL A   1      42.868  37.334  34.241  1.00  0.00     0.000 A 
ENDBRANCH  66  79
ENDBRANCH  40  41
ENDBRANCH  32  35
ENDBRANCH  30  31
ENDBRANCH  29  30
ENDBRANCH  28  29
ENDBRANCH  27  28
ENDBRANCH   1  27
TORSDOF 19
ENDMDL
