MODEL 1
REMARK VINA RESULT:     -11.4      0.000      0.000
REMARK SMILES CC[C@H]1CC[C@](C[C@@H]2CCCc3ccccc32)(C(=O)NCCCCCCNC(=O)c2ccc(-c3c4nc(c(-c5ccccc5)c5ccc([nH]5)c(-c5ccccc5)c5nc(c(-c6ccccc6)c6ccc3[nH]6)C=C5)C=C4)cc2)C1
REMARK SMILES IDX 23 1 22 2 21 3 20 4 18 5 19 6 6 8 3 9 4 10 78 11 5 12 2 13
REMARK SMILES IDX 1 14 7 15 8 16 9 17 17 18 10 19 12 20 16 21 11 22 13 23
REMARK SMILES IDX 15 24 14 25 24 26 25 27 26 28 27 29 28 30 29 32 30 33 31 34
REMARK SMILES IDX 77 35 32 36 76 37 33 38 34 39 35 40 70 41 36 42 75 43 69 44
REMARK SMILES IDX 71 45 37 46 74 47 68 48 67 49 38 51 60 52 45 53 59 54 46 55
REMARK SMILES IDX 49 56 58 57 72 58 47 59 48 60 57 62 73 63 50 64 39 65 40 66
REMARK SMILES IDX 44 67 41 68 43 69 42 70 61 71 62 72 66 73 63 74 65 75 64 76
REMARK SMILES IDX 51 77 52 78 56 79 53 80 55 81 54 82
REMARK H PARENT 20 7 27 31 71 50 49 61
REMARK Flexibility Score: inf
ROOT
ATOM      1  C   UNL A   1      31.440  28.972  25.036  1.00  0.00     0.002 C 
ENDROOT
BRANCH   1   2
ATOM      2  C   UNL A   1      31.532  28.629  23.547  1.00  0.00     0.021 C 
BRANCH   2   3
ATOM      3  C   UNL A   1      31.326  27.160  23.193  1.00  0.00     0.116 C 
BRANCH   3   4
ATOM      4  N   UNL A   1      32.108  26.712  22.052  1.00  0.00    -0.356 N 
ATOM      5  C   UNL A   1      32.760  25.525  21.839  1.00  0.00     0.226 C 
ATOM      6  O   UNL A   1      33.232  25.359  20.711  1.00  0.00    -0.274 OA
ATOM      7  H   UNL A   1      32.179  27.364  21.317  1.00  0.00     0.163 HD
BRANCH   5   8
ATOM      8  C   UNL A   1      32.995  24.508  23.008  1.00  0.00     0.050 C 
ATOM      9  C   UNL A   1      35.223  24.581  24.230  1.00  0.00    -0.010 C 
ATOM     10  C   UNL A   1      35.248  23.427  23.233  1.00  0.00     0.005 C 
ATOM     11  C   UNL A   1      33.807  25.190  24.154  1.00  0.00     0.020 C 
ATOM     12  C   UNL A   1      33.916  23.388  22.501  1.00  0.00     0.017 C 
BRANCH   9  13
ATOM     13  C   UNL A   1      35.773  24.102  25.598  1.00  0.00     0.000 C 
ATOM     14  C   UNL A   1      37.072  23.309  25.603  1.00  0.00     0.004 C 
ENDBRANCH   9  13
BRANCH   8  15
ATOM     15  C   UNL A   1      31.517  24.163  23.469  1.00  0.00     0.025 C 
BRANCH  15  16
ATOM     16  C   UNL A   1      31.043  23.175  24.581  1.00  0.00     0.020 C 
ATOM     17  C   UNL A   1      30.519  23.786  25.882  1.00  0.00     0.009 C 
ATOM     18  C   UNL A   1      31.980  22.021  24.864  1.00  0.00    -0.042 A 
ATOM     19  C   UNL A   1      31.646  24.150  26.817  1.00  0.00     0.005 C 
ATOM     20  C   UNL A   1      32.791  22.013  26.012  1.00  0.00    -0.045 A 
ATOM     21  C   UNL A   1      32.017  20.919  23.995  1.00  0.00     0.004 A 
ATOM     22  C   UNL A   1      32.626  23.024  27.115  1.00  0.00     0.036 C 
ATOM     23  C   UNL A   1      33.725  20.981  26.190  1.00  0.00     0.004 A 
ATOM     24  C   UNL A   1      32.899  19.862  24.223  1.00  0.00     0.000 A 
ATOM     25  C   UNL A   1      33.780  19.913  25.298  1.00  0.00     0.000 A 
ENDBRANCH  15  16
ENDBRANCH   8  15
ENDBRANCH   5   8
ENDBRANCH   3   4
ENDBRANCH   2   3
ENDBRANCH   1   2
BRANCH   1  26
ATOM     26  C   UNL A   1      31.502  27.793  26.012  1.00  0.00     0.002 C 
BRANCH  26  27
ATOM     27  C   UNL A   1      32.248  28.039  27.325  1.00  0.00     0.021 C 
BRANCH  27  28
ATOM     28  C   UNL A   1      33.608  28.714  27.196  1.00  0.00     0.116 C 
BRANCH  28  29
ATOM     29  N   UNL A   1      33.596  30.099  27.631  1.00  0.00    -0.352 N 
ATOM     30  C   UNL A   1      34.569  30.824  28.275  1.00  0.00     0.251 C 
ATOM     31  H   UNL A   1      32.766  30.591  27.435  1.00  0.00     0.163 HD
ATOM     32  O   UNL A   1      34.325  31.950  28.685  1.00  0.00    -0.269 OA
BRANCH  30  33
ATOM     33  C   UNL A   1      35.908  30.234  28.501  1.00  0.00     0.039 A 
ATOM     34  C   UNL A   1      36.841  30.277  27.461  1.00  0.00     0.014 A 
ATOM     35  C   UNL A   1      36.243  29.631  29.717  1.00  0.00     0.014 A 
ATOM     36  C   UNL A   1      38.129  29.772  27.662  1.00  0.00     0.010 A 
ATOM     37  C   UNL A   1      37.547  29.193  29.938  1.00  0.00     0.010 A 
ATOM     38  C   UNL A   1      38.503  29.257  28.913  1.00  0.00    -0.014 A 
BRANCH  38  39
ATOM     39  C   UNL A   1      39.890  28.789  29.166  1.00  0.00     0.031 A 
ATOM     40  C   UNL A   1      40.899  29.709  29.801  1.00  0.00     0.074 A 
ATOM     41  C   UNL A   1      40.262  27.556  28.768  1.00  0.00     0.049 A 
ATOM     42  N   UNL A   1      42.167  29.497  30.051  1.00  0.00    -0.248 NA
ATOM     43  C   UNL A   1      40.430  31.051  30.187  1.00  0.00     0.031 C 
ATOM     44  C   UNL A   1      39.393  26.580  28.105  1.00  0.00     0.029 A 
ATOM     45  N   UNL A   1      41.473  26.913  28.855  1.00  0.00    -0.354 N 
ATOM     46  C   UNL A   1      42.649  30.680  30.596  1.00  0.00     0.074 A 
ATOM     47  C   UNL A   1      41.550  31.621  30.610  1.00  0.00     0.031 C 
ATOM     48  C   UNL A   1      40.092  25.458  27.867  1.00  0.00     0.029 A 
ATOM     49  C   UNL A   1      41.466  25.647  28.319  1.00  0.00     0.049 A 
ATOM     50  H   UNL A   1      42.270  27.320  29.264  1.00  0.00     0.167 HD
ATOM     51  C   UNL A   1      43.892  30.955  31.056  1.00  0.00     0.031 A 
ATOM     52  C   UNL A   1      42.457  24.743  28.194  1.00  0.00     0.031 A 
ATOM     53  C   UNL A   1      44.979  30.012  31.070  1.00  0.00     0.049 A 
ATOM     54  C   UNL A   1      43.829  25.083  28.711  1.00  0.00     0.074 A 
ATOM     55  C   UNL A   1      46.250  30.175  31.593  1.00  0.00     0.029 A 
ATOM     56  N   UNL A   1      44.926  28.737  30.532  1.00  0.00    -0.354 N 
ATOM     57  N   UNL A   1      44.242  26.175  29.308  1.00  0.00    -0.248 NA
ATOM     58  C   UNL A   1      44.872  24.060  28.544  1.00  0.00     0.031 C 
ATOM     59  C   UNL A   1      46.986  29.019  31.316  1.00  0.00     0.029 A 
ATOM     60  C   UNL A   1      46.154  28.115  30.679  1.00  0.00     0.049 A 
ATOM     61  H   UNL A   1      44.134  28.333  30.109  1.00  0.00     0.167 HD
ATOM     62  C   UNL A   1      45.577  25.954  29.620  1.00  0.00     0.074 A 
ATOM     63  C   UNL A   1      45.901  24.620  29.162  1.00  0.00     0.031 C 
ATOM     64  C   UNL A   1      46.458  26.782  30.230  1.00  0.00     0.031 A 
BRANCH  51  65
ATOM     65  C   UNL A   1      44.161  32.338  31.582  1.00  0.00    -0.014 A 
ATOM     66  C   UNL A   1      44.530  33.387  30.726  1.00  0.00     0.009 A 
ATOM     67  C   UNL A   1      43.960  32.612  32.945  1.00  0.00     0.009 A 
ATOM     68  C   UNL A   1      44.711  34.678  31.228  1.00  0.00     0.001 A 
ATOM     69  C   UNL A   1      44.114  33.908  33.439  1.00  0.00     0.001 A 
ATOM     70  C   UNL A   1      44.495  34.938  32.582  1.00  0.00     0.000 A 
ENDBRANCH  51  65
BRANCH  52  71
ATOM     71  C   UNL A   1      42.206  23.427  27.547  1.00  0.00    -0.014 A 
ATOM     72  C   UNL A   1      41.675  22.357  28.285  1.00  0.00     0.009 A 
ATOM     73  C   UNL A   1      42.545  23.217  26.202  1.00  0.00     0.009 A 
ATOM     74  C   UNL A   1      41.532  21.096  27.703  1.00  0.00     0.001 A 
ATOM     75  C   UNL A   1      42.368  21.965  25.612  1.00  0.00     0.001 A 
ATOM     76  C   UNL A   1      41.877  20.901  26.366  1.00  0.00     0.000 A 
ENDBRANCH  52  71
BRANCH  64  77
ATOM     77  C   UNL A   1      47.843  26.254  30.482  1.00  0.00    -0.014 A 
ATOM     78  C   UNL A   1      48.207  25.716  31.725  1.00  0.00     0.009 A 
ATOM     79  C   UNL A   1      48.785  26.261  29.440  1.00  0.00     0.009 A 
ATOM     80  C   UNL A   1      49.499  25.227  31.931  1.00  0.00     0.001 A 
ATOM     81  C   UNL A   1      50.065  25.741  29.640  1.00  0.00     0.001 A 
ATOM     82  C   UNL A   1      50.423  25.236  30.887  1.00  0.00     0.000 A 
ENDBRANCH  64  77
ENDBRANCH  38  39
ENDBRANCH  30  33
ENDBRANCH  28  29
ENDBRANCH  27  28
ENDBRANCH  26  27
ENDBRANCH   1  26
TORSDOF 16
ENDMDL
MODEL 2
REMARK VINA RESULT:     -11.4      2.237      7.638
REMARK SMILES CC[C@H]1CC[C@](C[C@@H]2CCCc3ccccc32)(C(=O)NCCCCCCNC(=O)c2ccc(-c3c4nc(c(-c5ccccc5)c5ccc([nH]5)c(-c5ccccc5)c5nc(c(-c6ccccc6)c6ccc3[nH]6)C=C5)C=C4)cc2)C1
REMARK SMILES IDX 23 1 22 2 21 3 20 4 18 5 19 6 6 8 3 9 4 10 78 11 5 12 2 13
REMARK SMILES IDX 1 14 7 15 8 16 9 17 17 18 10 19 12 20 16 21 11 22 13 23
REMARK SMILES IDX 15 24 14 25 24 26 25 27 26 28 27 29 28 30 29 32 30 33 31 34
REMARK SMILES IDX 77 35 32 36 76 37 33 38 34 39 35 40 70 41 36 42 75 43 69 44
REMARK SMILES IDX 71 45 37 46 74 47 68 48 67 49 38 51 60 52 45 53 59 54 46 55
REMARK SMILES IDX 49 56 58 57 72 58 47 59 48 60 57 62 73 63 50 64 39 65 40 66
REMARK SMILES IDX 44 67 41 68 43 69 42 70 61 71 62 72 66 73 63 74 65 75 64 76
REMARK SMILES IDX 51 77 52 78 56 79 53 80 55 81 54 82
REMARK H PARENT 20 7 27 31 71 50 49 61
REMARK Flexibility Score: inf
ROOT
ATOM      1  C   UNL A   1      36.435  22.067  24.769  1.00  0.00     0.002 C 
ENDROOT
BRANCH   1   2
ATOM      2  C   UNL A   1      35.459  22.985  25.509  1.00  0.00     0.021 C 
BRANCH   2   3
ATOM      3  C   UNL A   1      33.985  22.799  25.165  1.00  0.00     0.116 C 
BRANCH   3   4
ATOM      4  N   UNL A   1      33.089  22.975  26.296  1.00  0.00    -0.356 N 
ATOM      5  C   UNL A   1      32.124  23.925  26.520  1.00  0.00     0.226 C 
ATOM      6  O   UNL A   1      31.409  23.750  27.510  1.00  0.00    -0.274 OA
ATOM      7  H   UNL A   1      33.189  22.307  27.013  1.00  0.00     0.163 HD
BRANCH   5   8
ATOM      8  C   UNL A   1      32.036  25.214  25.635  1.00  0.00     0.050 C 
ATOM      9  C   UNL A   1      33.299  27.283  26.402  1.00  0.00    -0.010 C 
ATOM     10  C   UNL A   1      31.827  27.443  26.768  1.00  0.00     0.005 C 
ATOM     11  C   UNL A   1      33.412  25.952  25.628  1.00  0.00     0.020 C 
ATOM     12  C   UNL A   1      31.075  26.203  26.311  1.00  0.00     0.017 C 
BRANCH   9  13
ATOM     13  C   UNL A   1      33.822  28.589  25.752  1.00  0.00     0.000 C 
ATOM     14  C   UNL A   1      33.127  29.893  26.118  1.00  0.00     0.004 C 
ENDBRANCH   9  13
BRANCH   8  15
ATOM     15  C   UNL A   1      31.684  24.629  24.203  1.00  0.00     0.025 C 
BRANCH  15  16
ATOM     16  C   UNL A   1      31.468  25.392  22.859  1.00  0.00     0.020 C 
ATOM     17  C   UNL A   1      32.599  25.331  21.831  1.00  0.00     0.009 C 
ATOM     18  C   UNL A   1      30.934  26.801  22.992  1.00  0.00    -0.042 A 
ATOM     19  C   UNL A   1      33.674  26.349  22.128  1.00  0.00     0.005 C 
ATOM     20  C   UNL A   1      31.775  27.913  22.819  1.00  0.00    -0.045 A 
ATOM     21  C   UNL A   1      29.570  27.012  23.253  1.00  0.00     0.004 A 
ATOM     22  C   UNL A   1      33.178  27.779  22.290  1.00  0.00     0.036 C 
ATOM     23  C   UNL A   1      31.274  29.202  23.055  1.00  0.00     0.004 A 
ATOM     24  C   UNL A   1      29.067  28.304  23.411  1.00  0.00     0.000 A 
ATOM     25  C   UNL A   1      29.927  29.395  23.353  1.00  0.00     0.000 A 
ENDBRANCH  15  16
ENDBRANCH   8  15
ENDBRANCH   5   8
ENDBRANCH   3   4
ENDBRANCH   2   3
ENDBRANCH   1   2
BRANCH   1  26
ATOM     26  C   UNL A   1      36.254  20.563  24.989  1.00  0.00     0.002 C 
BRANCH  26  27
ATOM     27  C   UNL A   1      37.523  19.710  24.920  1.00  0.00     0.021 C 
BRANCH  27  28
ATOM     28  C   UNL A   1      38.735  20.269  25.654  1.00  0.00     0.116 C 
BRANCH  28  29
ATOM     29  N   UNL A   1      39.853  19.343  25.688  1.00  0.00    -0.352 N 
ATOM     30  C   UNL A   1      41.164  19.562  26.038  1.00  0.00     0.251 C 
ATOM     31  H   UNL A   1      39.640  18.421  25.419  1.00  0.00     0.163 HD
ATOM     32  O   UNL A   1      41.999  18.685  25.874  1.00  0.00    -0.269 OA
BRANCH  30  33
ATOM     33  C   UNL A   1      41.575  20.874  26.590  1.00  0.00     0.039 A 
ATOM     34  C   UNL A   1      42.082  21.838  25.714  1.00  0.00     0.014 A 
ATOM     35  C   UNL A   1      41.476  21.153  27.956  1.00  0.00     0.014 A 
ATOM     36  C   UNL A   1      42.432  23.101  26.198  1.00  0.00     0.010 A 
ATOM     37  C   UNL A   1      41.758  22.434  28.425  1.00  0.00     0.010 A 
ATOM     38  C   UNL A   1      42.241  23.422  27.552  1.00  0.00    -0.014 A 
BRANCH  38  39
ATOM     39  C   UNL A   1      42.533  24.784  28.066  1.00  0.00     0.031 A 
ATOM     40  C   UNL A   1      43.923  25.144  28.518  1.00  0.00     0.074 A 
ATOM     41  C   UNL A   1      41.533  25.681  28.186  1.00  0.00     0.049 A 
ATOM     42  N   UNL A   1      44.356  26.262  29.045  1.00  0.00    -0.248 NA
ATOM     43  C   UNL A   1      44.960  24.107  28.383  1.00  0.00     0.031 C 
ATOM     44  C   UNL A   1      40.134  25.447  27.821  1.00  0.00     0.029 A 
ATOM     45  N   UNL A   1      41.539  26.972  28.656  1.00  0.00    -0.354 N 
ATOM     46  C   UNL A   1      45.701  26.054  29.325  1.00  0.00     0.074 A 
ATOM     47  C   UNL A   1      46.008  24.693  28.945  1.00  0.00     0.031 C 
ATOM     48  C   UNL A   1      39.423  26.561  28.061  1.00  0.00     0.029 A 
ATOM     49  C   UNL A   1      40.304  27.573  28.634  1.00  0.00     0.049 A 
ATOM     50  H   UNL A   1      42.352  27.423  28.979  1.00  0.00     0.167 HD
ATOM     51  C   UNL A   1      46.603  26.923  29.840  1.00  0.00     0.031 A 
ATOM     52  C   UNL A   1      39.918  28.799  29.040  1.00  0.00     0.031 A 
ATOM     53  C   UNL A   1      46.306  28.286  30.192  1.00  0.00     0.049 A 
ATOM     54  C   UNL A   1      40.945  29.738  29.614  1.00  0.00     0.074 A 
ATOM     55  C   UNL A   1      47.175  29.265  30.642  1.00  0.00     0.029 A 
ATOM     56  N   UNL A   1      45.047  28.860  30.139  1.00  0.00    -0.354 N 
ATOM     57  N   UNL A   1      42.232  29.554  29.784  1.00  0.00    -0.248 NA
ATOM     58  C   UNL A   1      40.466  31.060  30.044  1.00  0.00     0.031 C 
ATOM     59  C   UNL A   1      46.430  30.414  30.921  1.00  0.00     0.029 A 
ATOM     60  C   UNL A   1      45.109  30.170  30.583  1.00  0.00     0.049 A 
ATOM     61  H   UNL A   1      44.230  28.405  29.832  1.00  0.00     0.167 HD
ATOM     62  C   UNL A   1      42.719  30.746  30.304  1.00  0.00     0.074 A 
ATOM     63  C   UNL A   1      41.594  31.651  30.405  1.00  0.00     0.031 C 
ATOM     64  C   UNL A   1      43.984  31.063  30.667  1.00  0.00     0.031 A 
BRANCH  51  65
ATOM     65  C   UNL A   1      48.006  26.432  30.067  1.00  0.00    -0.014 A 
ATOM     66  C   UNL A   1      48.383  25.828  31.276  1.00  0.00     0.009 A 
ATOM     67  C   UNL A   1      48.941  26.502  29.022  1.00  0.00     0.009 A 
ATOM     68  C   UNL A   1      49.674  25.322  31.441  1.00  0.00     0.001 A 
ATOM     69  C   UNL A   1      50.222  25.970  29.179  1.00  0.00     0.001 A 
ATOM     70  C   UNL A   1      50.589  25.386  30.390  1.00  0.00     0.000 A 
ENDBRANCH  51  65
BRANCH  52  71
ATOM     71  C   UNL A   1      38.496  29.220  28.932  1.00  0.00    -0.014 A 
ATOM     72  C   UNL A   1      37.990  29.730  27.726  1.00  0.00     0.009 A 
ATOM     73  C   UNL A   1      37.648  29.165  30.050  1.00  0.00     0.009 A 
ATOM     74  C   UNL A   1      36.683  30.218  27.654  1.00  0.00     0.001 A 
ATOM     75  C   UNL A   1      36.331  29.620  29.966  1.00  0.00     0.001 A 
ATOM     76  C   UNL A   1      35.855  30.160  28.773  1.00  0.00     0.000 A 
ENDBRANCH  52  71
BRANCH  64  77
ATOM     77  C   UNL A   1      44.232  32.461  31.162  1.00  0.00    -0.014 A 
ATOM     78  C   UNL A   1      44.489  33.518  30.275  1.00  0.00     0.009 A 
ATOM     79  C   UNL A   1      44.167  32.729  32.539  1.00  0.00     0.009 A 
ATOM     80  C   UNL A   1      44.710  34.808  30.760  1.00  0.00     0.001 A 
ATOM     81  C   UNL A   1      44.357  34.025  33.019  1.00  0.00     0.001 A 
ATOM     82  C   UNL A   1      44.639  35.061  32.130  1.00  0.00     0.000 A 
ENDBRANCH  64  77
ENDBRANCH  38  39
ENDBRANCH  30  33
ENDBRANCH  28  29
ENDBRANCH  27  28
ENDBRANCH  26  27
ENDBRANCH   1  26
TORSDOF 16
ENDMDL
MODEL 3
REMARK VINA RESULT:     -11.4      2.219      3.457
REMARK SMILES CC[C@H]1CC[C@](C[C@@H]2CCCc3ccccc32)(C(=O)NCCCCCCNC(=O)c2ccc(-c3c4nc(c(-c5ccccc5)c5ccc([nH]5)c(-c5ccccc5)c5nc(c(-c6ccccc6)c6ccc3[nH]6)C=C5)C=C4)cc2)C1
REMARK SMILES IDX 23 1 22 2 21 3 20 4 18 5 19 6 6 8 3 9 4 10 78 11 5 12 2 13
REMARK SMILES IDX 1 14 7 15 8 16 9 17 17 18 10 19 12 20 16 21 11 22 13 23
REMARK SMILES IDX 15 24 14 25 24 26 25 27 26 28 27 29 28 30 29 32 30 33 31 34
REMARK SMILES IDX 77 35 32 36 76 37 33 38 34 39 35 40 70 41 36 42 75 43 69 44
REMARK SMILES IDX 71 45 37 46 74 47 68 48 67 49 38 51 60 52 45 53 59 54 46 55
REMARK SMILES IDX 49 56 58 57 72 58 47 59 48 60 57 62 73 63 50 64 39 65 40 66
REMARK SMILES IDX 44 67 41 68 43 69 42 70 61 71 62 72 66 73 63 74 65 75 64 76
REMARK SMILES IDX 51 77 52 78 56 79 53 80 55 81 54 82
REMARK H PARENT 20 7 27 31 71 50 49 61
REMARK Flexibility Score: inf
ROOT
ATOM      1  C   UNL A   1      31.793  29.065  26.395  1.00  0.00     0.002 C 
ENDROOT
BRANCH   1   2
ATOM      2  C   UNL A   1      31.813  27.755  25.602  1.00  0.00     0.021 C 
BRANCH   2   3
ATOM      3  C   UNL A   1      33.189  27.131  25.391  1.00  0.00     0.116 C 
BRANCH   3   4
ATOM      4  N   UNL A   1      33.539  26.934  23.994  1.00  0.00    -0.356 N 
ATOM      5  C   UNL A   1      33.765  25.775  23.294  1.00  0.00     0.226 C 
ATOM      6  O   UNL A   1      33.907  25.896  22.075  1.00  0.00    -0.274 OA
ATOM      7  H   UNL A   1      33.627  27.761  23.467  1.00  0.00     0.163 HD
BRANCH   5   8
ATOM      8  C   UNL A   1      33.955  24.407  24.033  1.00  0.00     0.050 C 
ATOM      9  C   UNL A   1      36.320  23.682  24.620  1.00  0.00    -0.010 C 
ATOM     10  C   UNL A   1      35.874  22.934  23.368  1.00  0.00     0.005 C 
ATOM     11  C   UNL A   1      35.108  24.521  25.079  1.00  0.00     0.020 C 
ATOM     12  C   UNL A   1      34.461  23.372  23.017  1.00  0.00     0.017 C 
BRANCH   9  13
ATOM     13  C   UNL A   1      36.980  22.691  25.613  1.00  0.00     0.000 C 
ATOM     14  C   UNL A   1      37.445  21.347  25.073  1.00  0.00     0.004 C 
ENDBRANCH   9  13
BRANCH   8  15
ATOM     15  C   UNL A   1      32.549  24.195  24.738  1.00  0.00     0.025 C 
BRANCH  15  16
ATOM     16  C   UNL A   1      32.048  22.978  25.577  1.00  0.00     0.020 C 
ATOM     17  C   UNL A   1      32.089  23.115  27.100  1.00  0.00     0.009 C 
ATOM     18  C   UNL A   1      32.577  21.629  25.141  1.00  0.00    -0.042 A 
ATOM     19  C   UNL A   1      33.462  22.808  27.648  1.00  0.00     0.005 C 
ATOM     20  C   UNL A   1      33.585  20.977  25.870  1.00  0.00    -0.045 A 
ATOM     21  C   UNL A   1      32.029  20.992  24.016  1.00  0.00     0.004 A 
ATOM     22  C   UNL A   1      34.041  21.467  27.218  1.00  0.00     0.036 C 
ATOM     23  C   UNL A   1      34.127  19.779  25.380  1.00  0.00     0.004 A 
ATOM     24  C   UNL A   1      32.526  19.763  23.581  1.00  0.00     0.000 A 
ATOM     25  C   UNL A   1      33.602  19.178  24.239  1.00  0.00     0.000 A 
ENDBRANCH  15  16
ENDBRANCH   8  15
ENDBRANCH   5   8
ENDBRANCH   3   4
ENDBRANCH   2   3
ENDBRANCH   1   2
BRANCH   1  26
ATOM     26  C   UNL A   1      31.499  30.338  25.598  1.00  0.00     0.002 C 
BRANCH  26  27
ATOM     27  C   UNL A   1      31.294  31.616  26.414  1.00  0.00     0.021 C 
BRANCH  27  28
ATOM     28  C   UNL A   1      32.562  32.271  26.946  1.00  0.00     0.116 C 
BRANCH  28  29
ATOM     29  N   UNL A   1      32.332  33.604  27.476  1.00  0.00    -0.352 N 
ATOM     30  C   UNL A   1      33.069  34.327  28.382  1.00  0.00     0.251 C 
ATOM     31  H   UNL A   1      31.526  34.055  27.136  1.00  0.00     0.163 HD
ATOM     32  O   UNL A   1      32.643  35.388  28.814  1.00  0.00    -0.269 OA
BRANCH  30  33
ATOM     33  C   UNL A   1      34.372  33.809  28.860  1.00  0.00     0.039 A 
ATOM     34  C   UNL A   1      34.402  33.064  30.042  1.00  0.00     0.014 A 
ATOM     35  C   UNL A   1      35.557  34.063  28.163  1.00  0.00     0.014 A 
ATOM     36  C   UNL A   1      35.609  32.521  30.491  1.00  0.00     0.010 A 
ATOM     37  C   UNL A   1      36.745  33.463  28.573  1.00  0.00     0.010 A 
ATOM     38  C   UNL A   1      36.785  32.687  29.742  1.00  0.00    -0.014 A 
BRANCH  38  39
ATOM     39  C   UNL A   1      38.059  32.050  30.164  1.00  0.00     0.031 A 
ATOM     40  C   UNL A   1      38.983  32.758  31.119  1.00  0.00     0.074 A 
ATOM     41  C   UNL A   1      38.417  30.861  29.639  1.00  0.00     0.049 A 
ATOM     42  N   UNL A   1      40.159  32.386  31.558  1.00  0.00    -0.248 NA
ATOM     43  C   UNL A   1      38.540  34.066  31.632  1.00  0.00     0.031 C 
ATOM     44  C   UNL A   1      37.631  30.088  28.674  1.00  0.00     0.029 A 
ATOM     45  N   UNL A   1      39.539  30.095  29.839  1.00  0.00    -0.354 N 
ATOM     46  C   UNL A   1      40.604  33.419  32.373  1.00  0.00     0.074 A 
ATOM     47  C   UNL A   1      39.591  34.451  32.343  1.00  0.00     0.031 C 
ATOM     48  C   UNL A   1      38.285  28.951  28.383  1.00  0.00     0.029 A 
ATOM     49  C   UNL A   1      39.552  28.932  29.106  1.00  0.00     0.049 A 
ATOM     50  H   UNL A   1      40.266  30.354  30.450  1.00  0.00     0.167 HD
ATOM     51  C   UNL A   1      41.748  33.496  33.094  1.00  0.00     0.031 A 
ATOM     52  C   UNL A   1      40.484  27.963  29.016  1.00  0.00     0.031 A 
ATOM     53  C   UNL A   1      42.743  32.458  33.149  1.00  0.00     0.049 A 
ATOM     54  C   UNL A   1      41.747  28.083  29.826  1.00  0.00     0.074 A 
ATOM     55  C   UNL A   1      43.893  32.412  33.917  1.00  0.00     0.029 A 
ATOM     56  N   UNL A   1      42.710  31.291  32.405  1.00  0.00    -0.354 N 
ATOM     57  N   UNL A   1      42.107  29.024  30.663  1.00  0.00    -0.248 NA
ATOM     58  C   UNL A   1      42.729  26.998  29.684  1.00  0.00     0.031 C 
ATOM     59  C   UNL A   1      44.589  31.244  33.591  1.00  0.00     0.029 A 
ATOM     60  C   UNL A   1      43.839  30.534  32.669  1.00  0.00     0.049 A 
ATOM     61  H   UNL A   1      41.992  31.037  31.782  1.00  0.00     0.167 HD
ATOM     62  C   UNL A   1      43.336  28.627  31.174  1.00  0.00     0.074 A 
ATOM     63  C   UNL A   1      43.651  27.352  30.566  1.00  0.00     0.031 C 
ATOM     64  C   UNL A   1      44.134  29.261  32.065  1.00  0.00     0.031 A 
BRANCH  51  65
ATOM     65  C   UNL A   1      42.001  34.750  33.885  1.00  0.00    -0.014 A 
ATOM     66  C   UNL A   1      41.623  34.854  35.232  1.00  0.00     0.009 A 
ATOM     67  C   UNL A   1      42.705  35.811  33.292  1.00  0.00     0.009 A 
ATOM     68  C   UNL A   1      41.926  36.005  35.964  1.00  0.00     0.001 A 
ATOM     69  C   UNL A   1      43.031  36.947  34.034  1.00  0.00     0.001 A 
ATOM     70  C   UNL A   1      42.637  37.046  35.367  1.00  0.00     0.000 A 
ENDBRANCH  51  65
BRANCH  52  71
ATOM     71  C   UNL A   1      40.276  26.792  28.122  1.00  0.00    -0.014 A 
ATOM     72  C   UNL A   1      39.564  25.668  28.571  1.00  0.00     0.009 A 
ATOM     73  C   UNL A   1      40.832  26.770  26.834  1.00  0.00     0.009 A 
ATOM     74  C   UNL A   1      39.455  24.531  27.767  1.00  0.00     0.001 A 
ATOM     75  C   UNL A   1      40.691  25.645  26.019  1.00  0.00     0.001 A 
ATOM     76  C   UNL A   1      40.017  24.521  26.491  1.00  0.00     0.000 A 
ENDBRANCH  52  71
BRANCH  64  77
ATOM     77  C   UNL A   1      45.402  28.566  32.476  1.00  0.00    -0.014 A 
ATOM     78  C   UNL A   1      45.431  27.672  33.556  1.00  0.00     0.009 A 
ATOM     79  C   UNL A   1      46.578  28.783  31.739  1.00  0.00     0.009 A 
ATOM     80  C   UNL A   1      46.621  27.035  33.914  1.00  0.00     0.001 A 
ATOM     81  C   UNL A   1      47.759  28.119  32.078  1.00  0.00     0.001 A 
ATOM     82  C   UNL A   1      47.781  27.256  33.171  1.00  0.00     0.000 A 
ENDBRANCH  64  77
ENDBRANCH  38  39
ENDBRANCH  30  33
ENDBRANCH  28  29
ENDBRANCH  27  28
ENDBRANCH  26  27
ENDBRANCH   1  26
TORSDOF 16
ENDMDL
