MODEL 1
REMARK VINA RESULT:     -12.7      0.000      0.000
REMARK SMILES Cc1ccc(-c2nc(C)cc(N3CCCC[C@H]3C(=O)NCCCCCCNC(=O)c3ccc(-c4c5nc(c(-c6ccccc6)c6ccc([nH]6)c(-c6ccccc6)c6nc(c(-c7ccccc7)c7ccc4[nH]7)C=C6)C=C5)cc3)n2)cc1
REMARK SMILES IDX 23 1 22 2 21 3 20 4 18 5 19 6 17 8 12 9 13 10 14 11 16 12
REMARK SMILES IDX 15 13 11 14 6 15 7 16 78 17 8 18 9 19 10 20 5 21 1 22 2 23
REMARK SMILES IDX 3 24 80 25 4 26 79 27 24 28 25 29 26 30 27 31 28 32 29 34
REMARK SMILES IDX 30 35 31 36 77 37 32 38 76 39 33 40 34 41 35 42 70 43 36 44
REMARK SMILES IDX 75 45 69 46 71 47 37 48 74 49 68 50 67 51 38 53 60 54 45 55
REMARK SMILES IDX 59 56 46 57 49 58 58 59 72 60 47 61 48 62 57 64 73 65 50 66
REMARK SMILES IDX 39 67 40 68 44 69 41 70 43 71 42 72 61 73 62 74 66 75 63 76
REMARK SMILES IDX 65 77 64 78 51 79 52 80 56 81 53 82 55 83 54 84
REMARK H PARENT 20 7 27 33 71 52 49 63
REMARK Flexibility Score: inf
ROOT
ATOM      1  C   UNL A   1      31.147  29.345  24.835  1.00  0.00     0.002 C 
ENDROOT
BRANCH   1   2
ATOM      2  C   UNL A   1      31.841  29.045  23.501  1.00  0.00     0.021 C 
BRANCH   2   3
ATOM      3  C   UNL A   1      31.132  28.043  22.587  1.00  0.00     0.116 C 
BRANCH   3   4
ATOM      4  N   UNL A   1      32.054  27.268  21.786  1.00  0.00    -0.354 N 
ATOM      5  C   UNL A   1      32.383  25.955  21.715  1.00  0.00     0.242 C 
ATOM      6  O   UNL A   1      33.085  25.669  20.728  1.00  0.00    -0.273 OA
ATOM      7  H   UNL A   1      32.557  27.821  21.146  1.00  0.00     0.163 HD
BRANCH   5   8
ATOM      8  C   UNL A   1      31.973  24.817  22.704  1.00  0.00     0.173 C 
ATOM      9  N   UNL A   1      32.937  24.809  23.829  1.00  0.00    -0.344 N 
ATOM     10  C   UNL A   1      32.740  25.778  24.900  1.00  0.00     0.119 C 
ATOM     11  C   UNL A   1      31.340  25.662  25.493  1.00  0.00     0.022 C 
ATOM     12  C   UNL A   1      30.567  24.689  23.299  1.00  0.00     0.035 C 
ATOM     13  C   UNL A   1      30.278  25.715  24.399  1.00  0.00     0.004 C 
BRANCH   9  14
ATOM     14  C   UNL A   1      33.542  23.603  24.146  1.00  0.00     0.133 A 
ATOM     15  C   UNL A   1      35.374  22.404  24.817  1.00  0.00     0.161 A 
ATOM     16  N   UNL A   1      34.768  21.213  24.664  1.00  0.00    -0.233 NA
ATOM     17  N   UNL A   1      34.815  23.602  24.568  1.00  0.00    -0.211 NA
ATOM     18  C   UNL A   1      33.487  21.243  24.254  1.00  0.00     0.043 A 
ATOM     19  C   UNL A   1      32.809  19.923  24.063  1.00  0.00     0.067 C 
ATOM     20  C   UNL A   1      32.828  22.428  23.994  1.00  0.00     0.070 A 
BRANCH  15  21
ATOM     21  C   UNL A   1      36.750  22.395  25.316  1.00  0.00     0.019 A 
ATOM     22  C   UNL A   1      40.806  22.334  26.833  1.00  0.00     0.044 C 
ATOM     23  C   UNL A   1      39.399  22.363  26.316  1.00  0.00    -0.051 A 
ATOM     24  C   UNL A   1      38.861  21.232  25.691  1.00  0.00     0.004 A 
ATOM     25  C   UNL A   1      38.612  23.514  26.430  1.00  0.00     0.004 A 
ATOM     26  C   UNL A   1      37.549  21.247  25.207  1.00  0.00     0.012 A 
ATOM     27  C   UNL A   1      37.306  23.530  25.929  1.00  0.00     0.012 A 
ENDBRANCH  15  21
ENDBRANCH   9  14
ENDBRANCH   5   8
ENDBRANCH   3   4
ENDBRANCH   2   3
ENDBRANCH   1   2
BRANCH   1  28
ATOM     28  C   UNL A   1      31.874  30.288  25.811  1.00  0.00     0.002 C 
BRANCH  28  29
ATOM     29  C   UNL A   1      32.433  29.658  27.090  1.00  0.00     0.021 C 
BRANCH  29  30
ATOM     30  C   UNL A   1      33.939  29.797  27.256  1.00  0.00     0.116 C 
BRANCH  30  31
ATOM     31  N   UNL A   1      34.348  30.893  28.130  1.00  0.00    -0.352 N 
ATOM     32  C   UNL A   1      35.526  31.033  28.849  1.00  0.00     0.251 C 
ATOM     33  H   UNL A   1      33.702  31.630  28.219  1.00  0.00     0.163 HD
ATOM     34  O   UNL A   1      35.729  32.018  29.533  1.00  0.00    -0.269 OA
BRANCH  32  35
ATOM     35  C   UNL A   1      36.591  30.017  28.662  1.00  0.00     0.039 A 
ATOM     36  C   UNL A   1      36.865  29.159  29.731  1.00  0.00     0.014 A 
ATOM     37  C   UNL A   1      37.446  30.079  27.565  1.00  0.00     0.014 A 
ATOM     38  C   UNL A   1      38.122  28.570  29.821  1.00  0.00     0.010 A 
ATOM     39  C   UNL A   1      38.725  29.574  27.694  1.00  0.00     0.010 A 
ATOM     40  C   UNL A   1      39.081  28.882  28.854  1.00  0.00    -0.014 A 
BRANCH  40  41
ATOM     41  C   UNL A   1      40.496  28.588  29.025  1.00  0.00     0.031 A 
ATOM     42  C   UNL A   1      41.062  27.363  28.435  1.00  0.00     0.074 A 
ATOM     43  C   UNL A   1      41.290  29.417  29.738  1.00  0.00     0.049 A 
ATOM     44  N   UNL A   1      42.014  26.675  28.970  1.00  0.00    -0.248 NA
ATOM     45  C   UNL A   1      40.550  26.792  27.196  1.00  0.00     0.031 C 
ATOM     46  C   UNL A   1      42.741  29.341  29.879  1.00  0.00     0.029 A 
ATOM     47  N   UNL A   1      40.908  30.365  30.687  1.00  0.00    -0.354 N 
ATOM     48  C   UNL A   1      42.435  25.772  28.023  1.00  0.00     0.074 A 
ATOM     49  C   UNL A   1      41.437  25.817  26.978  1.00  0.00     0.031 C 
ATOM     50  C   UNL A   1      43.087  29.929  31.036  1.00  0.00     0.029 A 
ATOM     51  C   UNL A   1      41.860  30.300  31.719  1.00  0.00     0.049 A 
ATOM     52  H   UNL A   1      40.126  30.962  30.643  1.00  0.00     0.167 HD
ATOM     53  C   UNL A   1      43.665  25.196  28.131  1.00  0.00     0.031 A 
ATOM     54  C   UNL A   1      41.547  30.017  33.017  1.00  0.00     0.031 A 
ATOM     55  C   UNL A   1      44.371  25.631  29.332  1.00  0.00     0.049 A 
ATOM     56  C   UNL A   1      42.264  28.789  33.536  1.00  0.00     0.074 A 
ATOM     57  C   UNL A   1      45.337  26.601  29.548  1.00  0.00     0.029 A 
ATOM     58  N   UNL A   1      43.886  25.268  30.582  1.00  0.00    -0.354 N 
ATOM     59  N   UNL A   1      42.871  27.931  32.766  1.00  0.00    -0.248 NA
ATOM     60  C   UNL A   1      42.306  28.393  34.944  1.00  0.00     0.031 C 
ATOM     61  C   UNL A   1      45.373  26.880  30.938  1.00  0.00     0.029 A 
ATOM     62  C   UNL A   1      44.454  26.057  31.564  1.00  0.00     0.049 A 
ATOM     63  H   UNL A   1      43.231  24.552  30.745  1.00  0.00     0.167 HD
ATOM     64  C   UNL A   1      43.386  26.911  33.522  1.00  0.00     0.074 A 
ATOM     65  C   UNL A   1      43.006  27.244  34.882  1.00  0.00     0.031 C 
ATOM     66  C   UNL A   1      44.077  25.879  32.958  1.00  0.00     0.031 A 
BRANCH  53  67
ATOM     67  C   UNL A   1      44.332  24.503  26.971  1.00  0.00    -0.014 A 
ATOM     68  C   UNL A   1      44.500  23.108  26.996  1.00  0.00     0.009 A 
ATOM     69  C   UNL A   1      44.863  25.176  25.857  1.00  0.00     0.009 A 
ATOM     70  C   UNL A   1      45.250  22.435  26.022  1.00  0.00     0.001 A 
ATOM     71  C   UNL A   1      45.651  24.516  24.904  1.00  0.00     0.001 A 
ATOM     72  C   UNL A   1      45.855  23.146  24.994  1.00  0.00     0.000 A 
ENDBRANCH  53  67
BRANCH  54  73
ATOM     73  C   UNL A   1      40.174  30.440  33.404  1.00  0.00    -0.014 A 
ATOM     74  C   UNL A   1      39.886  31.821  33.362  1.00  0.00     0.009 A 
ATOM     75  C   UNL A   1      39.109  29.530  33.365  1.00  0.00     0.009 A 
ATOM     76  C   UNL A   1      38.585  32.272  33.131  1.00  0.00     0.001 A 
ATOM     77  C   UNL A   1      37.804  29.991  33.151  1.00  0.00     0.001 A 
ATOM     78  C   UNL A   1      37.550  31.353  32.987  1.00  0.00     0.000 A 
ENDBRANCH  54  73
BRANCH  66  79
ATOM     79  C   UNL A   1      44.543  24.631  33.660  1.00  0.00    -0.014 A 
ATOM     80  C   UNL A   1      43.722  23.534  33.943  1.00  0.00     0.009 A 
ATOM     81  C   UNL A   1      45.922  24.485  33.933  1.00  0.00     0.009 A 
ATOM     82  C   UNL A   1      44.249  22.362  34.507  1.00  0.00     0.001 A 
ATOM     83  C   UNL A   1      46.457  23.306  34.456  1.00  0.00     0.001 A 
ATOM     84  C   UNL A   1      45.615  22.246  34.753  1.00  0.00     0.000 A 
ENDBRANCH  66  79
ENDBRANCH  40  41
ENDBRANCH  32  35
ENDBRANCH  30  31
ENDBRANCH  29  30
ENDBRANCH  28  29
ENDBRANCH   1  28
TORSDOF 15
ENDMDL
MODEL 2
REMARK VINA RESULT:     -12.7      3.335      8.988
REMARK SMILES Cc1ccc(-c2nc(C)cc(N3CCCC[C@H]3C(=O)NCCCCCCNC(=O)c3ccc(-c4c5nc(c(-c6ccccc6)c6ccc([nH]6)c(-c6ccccc6)c6nc(c(-c7ccccc7)c7ccc4[nH]7)C=C6)C=C5)cc3)n2)cc1
REMARK SMILES IDX 23 1 22 2 21 3 20 4 18 5 19 6 17 8 12 9 13 10 14 11 16 12
REMARK SMILES IDX 15 13 11 14 6 15 7 16 78 17 8 18 9 19 10 20 5 21 1 22 2 23
REMARK SMILES IDX 3 24 80 25 4 26 79 27 24 28 25 29 26 30 27 31 28 32 29 34
REMARK SMILES IDX 30 35 31 36 77 37 32 38 76 39 33 40 34 41 35 42 70 43 36 44
REMARK SMILES IDX 75 45 69 46 71 47 37 48 74 49 68 50 67 51 38 53 60 54 45 55
REMARK SMILES IDX 59 56 46 57 49 58 58 59 72 60 47 61 48 62 57 64 73 65 50 66
REMARK SMILES IDX 39 67 40 68 44 69 41 70 43 71 42 72 61 73 62 74 66 75 63 76
REMARK SMILES IDX 65 77 64 78 51 79 52 80 56 81 53 82 55 83 54 84
REMARK H PARENT 20 7 27 33 71 52 49 63
REMARK Flexibility Score: inf
ROOT
ATOM      1  C   UNL A   1      39.167  22.869  26.346  1.00  0.00     0.002 C 
ENDROOT
BRANCH   1   2
ATOM      2  C   UNL A   1      37.853  22.123  26.084  1.00  0.00     0.021 C 
BRANCH   2   3
ATOM      3  C   UNL A   1      37.750  21.398  24.740  1.00  0.00     0.116 C 
BRANCH   3   4
ATOM      4  N   UNL A   1      36.896  22.085  23.798  1.00  0.00    -0.354 N 
ATOM      5  C   UNL A   1      35.596  22.469  23.795  1.00  0.00     0.242 C 
ATOM      6  O   UNL A   1      35.303  23.234  22.858  1.00  0.00    -0.273 OA
ATOM      7  H   UNL A   1      37.366  22.331  22.969  1.00  0.00     0.163 HD
BRANCH   5   8
ATOM      8  C   UNL A   1      34.484  22.069  24.816  1.00  0.00     0.173 C 
ATOM      9  N   UNL A   1      33.178  22.521  24.284  1.00  0.00    -0.344 N 
ATOM     10  C   UNL A   1      32.525  21.687  23.282  1.00  0.00     0.119 C 
ATOM     11  C   UNL A   1      32.344  20.261  23.791  1.00  0.00     0.022 C 
ATOM     12  C   UNL A   1      34.299  20.639  25.338  1.00  0.00     0.035 C 
ATOM     13  C   UNL A   1      33.662  19.697  24.313  1.00  0.00     0.004 C 
BRANCH   9  14
ATOM     14  C   UNL A   1      32.376  23.285  25.118  1.00  0.00     0.133 A 
ATOM     15  C   UNL A   1      31.944  25.238  26.235  1.00  0.00     0.161 A 
ATOM     16  N   UNL A   1      30.852  24.753  26.851  1.00  0.00    -0.233 NA
ATOM     17  N   UNL A   1      32.728  24.552  25.383  1.00  0.00    -0.211 NA
ATOM     18  C   UNL A   1      30.512  23.485  26.556  1.00  0.00     0.043 A 
ATOM     19  C   UNL A   1      29.308  22.931  27.251  1.00  0.00     0.067 C 
ATOM     20  C   UNL A   1      31.247  22.715  25.678  1.00  0.00     0.070 A 
BRANCH  15  21
ATOM     21  C   UNL A   1      32.298  26.633  26.499  1.00  0.00     0.019 A 
ATOM     22  C   UNL A   1      33.376  30.746  27.322  1.00  0.00     0.044 C 
ATOM     23  C   UNL A   1      32.995  29.322  27.045  1.00  0.00    -0.051 A 
ATOM     24  C   UNL A   1      33.931  28.445  26.484  1.00  0.00     0.004 A 
ATOM     25  C   UNL A   1      31.706  28.854  27.322  1.00  0.00     0.004 A 
ATOM     26  C   UNL A   1      33.587  27.115  26.225  1.00  0.00     0.012 A 
ATOM     27  C   UNL A   1      31.362  27.526  27.045  1.00  0.00     0.012 A 
ENDBRANCH  15  21
ENDBRANCH   9  14
ENDBRANCH   5   8
ENDBRANCH   3   4
ENDBRANCH   2   3
ENDBRANCH   1   2
BRANCH   1  28
ATOM     28  C   UNL A   1      40.296  22.085  27.039  1.00  0.00     0.002 C 
BRANCH  28  29
ATOM     29  C   UNL A   1      40.849  20.869  26.292  1.00  0.00     0.021 C 
BRANCH  29  30
ATOM     30  C   UNL A   1      42.273  20.489  26.671  1.00  0.00     0.116 C 
BRANCH  30  31
ATOM     31  N   UNL A   1      43.070  19.965  25.566  1.00  0.00    -0.352 N 
ATOM     32  C   UNL A   1      44.006  20.624  24.783  1.00  0.00     0.251 C 
ATOM     33  H   UNL A   1      42.922  19.016  25.348  1.00  0.00     0.163 HD
ATOM     34  O   UNL A   1      44.602  20.045  23.896  1.00  0.00    -0.269 OA
BRANCH  32  35
ATOM     35  C   UNL A   1      44.362  22.020  25.139  1.00  0.00     0.039 A 
ATOM     36  C   UNL A   1      45.306  22.211  26.152  1.00  0.00     0.014 A 
ATOM     37  C   UNL A   1      43.609  23.089  24.661  1.00  0.00     0.014 A 
ATOM     38  C   UNL A   1      45.302  23.407  26.864  1.00  0.00     0.010 A 
ATOM     39  C   UNL A   1      43.536  24.239  25.421  1.00  0.00     0.010 A 
ATOM     40  C   UNL A   1      44.332  24.365  26.561  1.00  0.00    -0.014 A 
BRANCH  40  41
ATOM     41  C   UNL A   1      44.035  25.488  27.438  1.00  0.00     0.031 A 
ATOM     42  C   UNL A   1      42.727  26.157  27.349  1.00  0.00     0.074 A 
ATOM     43  C   UNL A   1      44.958  25.937  28.318  1.00  0.00     0.049 A 
ATOM     44  N   UNL A   1      42.544  27.421  27.539  1.00  0.00    -0.248 NA
ATOM     45  C   UNL A   1      41.513  25.438  26.982  1.00  0.00     0.031 C 
ATOM     46  C   UNL A   1      44.767  26.946  29.356  1.00  0.00     0.029 A 
ATOM     47  N   UNL A   1      46.338  25.738  28.291  1.00  0.00    -0.354 N 
ATOM     48  C   UNL A   1      41.187  27.621  27.623  1.00  0.00     0.074 A 
ATOM     49  C   UNL A   1      40.588  26.383  27.175  1.00  0.00     0.031 C 
ATOM     50  C   UNL A   1      45.958  27.508  29.626  1.00  0.00     0.029 A 
ATOM     51  C   UNL A   1      46.922  26.950  28.694  1.00  0.00     0.049 A 
ATOM     52  H   UNL A   1      46.810  24.911  28.039  1.00  0.00     0.167 HD
ATOM     53  C   UNL A   1      40.700  28.747  28.214  1.00  0.00     0.031 A 
ATOM     54  C   UNL A   1      47.794  27.662  27.921  1.00  0.00     0.031 A 
ATOM     55  C   UNL A   1      41.766  29.636  28.663  1.00  0.00     0.049 A 
ATOM     56  C   UNL A   1      47.306  29.064  27.630  1.00  0.00     0.074 A 
ATOM     57  C   UNL A   1      42.365  29.827  29.897  1.00  0.00     0.029 A 
ATOM     58  N   UNL A   1      42.582  30.258  27.726  1.00  0.00    -0.354 N 
ATOM     59  N   UNL A   1      46.079  29.456  27.831  1.00  0.00    -0.248 NA
ATOM     60  C   UNL A   1      48.130  30.116  27.036  1.00  0.00     0.031 C 
ATOM     61  C   UNL A   1      43.596  30.500  29.688  1.00  0.00     0.029 A 
ATOM     62  C   UNL A   1      43.724  30.744  28.332  1.00  0.00     0.049 A 
ATOM     63  H   UNL A   1      42.375  30.339  26.767  1.00  0.00     0.167 HD
ATOM     64  C   UNL A   1      45.936  30.758  27.433  1.00  0.00     0.074 A 
ATOM     65  C   UNL A   1      47.249  31.131  26.941  1.00  0.00     0.031 C 
ATOM     66  C   UNL A   1      44.745  31.415  27.542  1.00  0.00     0.031 A 
BRANCH  53  67
ATOM     67  C   UNL A   1      39.267  28.861  28.667  1.00  0.00    -0.014 A 
ATOM     68  C   UNL A   1      38.307  29.424  27.808  1.00  0.00     0.009 A 
ATOM     69  C   UNL A   1      38.817  28.483  29.943  1.00  0.00     0.009 A 
ATOM     70  C   UNL A   1      37.001  29.697  28.235  1.00  0.00     0.001 A 
ATOM     71  C   UNL A   1      37.525  28.793  30.392  1.00  0.00     0.001 A 
ATOM     72  C   UNL A   1      36.621  29.412  29.540  1.00  0.00     0.000 A 
ENDBRANCH  53  67
BRANCH  54  73
ATOM     73  C   UNL A   1      48.590  26.816  26.991  1.00  0.00    -0.014 A 
ATOM     74  C   UNL A   1      48.262  26.877  25.620  1.00  0.00     0.009 A 
ATOM     75  C   UNL A   1      49.860  26.351  27.359  1.00  0.00     0.009 A 
ATOM     76  C   UNL A   1      49.229  26.628  24.644  1.00  0.00     0.001 A 
ATOM     77  C   UNL A   1      50.819  26.087  26.373  1.00  0.00     0.001 A 
ATOM     78  C   UNL A   1      50.519  26.271  25.022  1.00  0.00     0.000 A 
ENDBRANCH  54  73
BRANCH  66  79
ATOM     79  C   UNL A   1      44.428  32.781  26.992  1.00  0.00    -0.014 A 
ATOM     80  C   UNL A   1      44.199  33.051  25.639  1.00  0.00     0.009 A 
ATOM     81  C   UNL A   1      44.208  33.840  27.902  1.00  0.00     0.009 A 
ATOM     82  C   UNL A   1      43.806  34.328  25.213  1.00  0.00     0.001 A 
ATOM     83  C   UNL A   1      43.776  35.101  27.486  1.00  0.00     0.001 A 
ATOM     84  C   UNL A   1      43.586  35.347  26.135  1.00  0.00     0.000 A 
ENDBRANCH  66  79
ENDBRANCH  40  41
ENDBRANCH  32  35
ENDBRANCH  30  31
ENDBRANCH  29  30
ENDBRANCH  28  29
ENDBRANCH   1  28
TORSDOF 15
ENDMDL
MODEL 3
REMARK VINA RESULT:     -12.5      2.623      4.249
REMARK SMILES Cc1ccc(-c2nc(C)cc(N3CCCC[C@H]3C(=O)NCCCCCCNC(=O)c3ccc(-c4c5nc(c(-c6ccccc6)c6ccc([nH]6)c(-c6ccccc6)c6nc(c(-c7ccccc7)c7ccc4[nH]7)C=C6)C=C5)cc3)n2)cc1
REMARK SMILES IDX 23 1 22 2 21 3 20 4 18 5 19 6 17 8 12 9 13 10 14 11 16 12
REMARK SMILES IDX 15 13 11 14 6 15 7 16 78 17 8 18 9 19 10 20 5 21 1 22 2 23
REMARK SMILES IDX 3 24 80 25 4 26 79 27 24 28 25 29 26 30 27 31 28 32 29 34
REMARK SMILES IDX 30 35 31 36 77 37 32 38 76 39 33 40 34 41 35 42 70 43 36 44
REMARK SMILES IDX 75 45 69 46 71 47 37 48 74 49 68 50 67 51 38 53 60 54 45 55
REMARK SMILES IDX 59 56 46 57 49 58 58 59 72 60 47 61 48 62 57 64 73 65 50 66
REMARK SMILES IDX 39 67 40 68 44 69 41 70 43 71 42 72 61 73 62 74 66 75 63 76
REMARK SMILES IDX 65 77 64 78 51 79 52 80 56 81 53 82 55 83 54 84
REMARK H PARENT 20 7 27 33 71 52 49 63
REMARK Flexibility Score: inf
ROOT
ATOM      1  C   UNL A   1      34.586  29.271  27.604  1.00  0.00     0.002 C 
ENDROOT
BRANCH   1   2
ATOM      2  C   UNL A   1      33.600  28.512  26.707  1.00  0.00     0.021 C 
BRANCH   2   3
ATOM      3  C   UNL A   1      33.462  29.033  25.274  1.00  0.00     0.116 C 
BRANCH   3   4
ATOM      4  N   UNL A   1      32.287  29.855  25.090  1.00  0.00    -0.354 N 
ATOM      5  C   UNL A   1      31.150  29.743  24.360  1.00  0.00     0.242 C 
ATOM      6  O   UNL A   1      30.284  30.589  24.651  1.00  0.00    -0.273 OA
ATOM      7  H   UNL A   1      32.320  30.687  25.615  1.00  0.00     0.163 HD
BRANCH   5   8
ATOM      8  C   UNL A   1      30.834  28.693  23.247  1.00  0.00     0.173 C 
ATOM      9  N   UNL A   1      31.070  27.341  23.802  1.00  0.00    -0.344 N 
ATOM     10  C   UNL A   1      30.021  26.750  24.624  1.00  0.00     0.119 C 
ATOM     11  C   UNL A   1      28.694  26.713  23.876  1.00  0.00     0.022 C 
ATOM     12  C   UNL A   1      29.504  28.654  22.485  1.00  0.00     0.035 C 
ATOM     13  C   UNL A   1      28.347  28.088  23.312  1.00  0.00     0.004 C 
BRANCH   9  14
ATOM     14  C   UNL A   1      31.891  26.487  23.082  1.00  0.00     0.133 A 
ATOM     15  C   UNL A   1      33.652  25.026  22.978  1.00  0.00     0.161 A 
ATOM     16  N   UNL A   1      33.581  24.888  21.642  1.00  0.00    -0.233 NA
ATOM     17  N   UNL A   1      32.850  25.805  23.726  1.00  0.00    -0.211 NA
ATOM     18  C   UNL A   1      32.600  25.571  21.023  1.00  0.00     0.043 A 
ATOM     19  C   UNL A   1      32.523  25.438  19.534  1.00  0.00     0.067 C 
ATOM     20  C   UNL A   1      31.720  26.378  21.714  1.00  0.00     0.070 A 
BRANCH  15  21
ATOM     21  C   UNL A   1      34.676  24.248  23.677  1.00  0.00     0.019 A 
ATOM     22  C   UNL A   1      37.736  21.989  25.748  1.00  0.00     0.044 C 
ATOM     23  C   UNL A   1      36.682  22.771  25.022  1.00  0.00    -0.051 A 
ATOM     24  C   UNL A   1      35.900  23.701  25.715  1.00  0.00     0.004 A 
ATOM     25  C   UNL A   1      36.451  22.572  23.656  1.00  0.00     0.004 A 
ATOM     26  C   UNL A   1      34.916  24.437  25.046  1.00  0.00     0.012 A 
ATOM     27  C   UNL A   1      35.455  23.298  22.995  1.00  0.00     0.012 A 
ENDBRANCH  15  21
ENDBRANCH   9  14
ENDBRANCH   5   8
ENDBRANCH   3   4
ENDBRANCH   2   3
ENDBRANCH   1   2
BRANCH   1  28
ATOM     28  C   UNL A   1      34.748  30.781  27.353  1.00  0.00     0.002 C 
BRANCH  28  29
ATOM     29  C   UNL A   1      33.673  31.697  27.944  1.00  0.00     0.021 C 
BRANCH  29  30
ATOM     30  C   UNL A   1      34.097  33.151  28.096  1.00  0.00     0.116 C 
BRANCH  30  31
ATOM     31  N   UNL A   1      33.430  33.861  29.183  1.00  0.00    -0.352 N 
ATOM     32  C   UNL A   1      33.968  34.324  30.375  1.00  0.00     0.251 C 
ATOM     33  H   UNL A   1      32.469  34.034  29.052  1.00  0.00     0.163 HD
ATOM     34  O   UNL A   1      33.280  34.912  31.186  1.00  0.00    -0.269 OA
BRANCH  32  35
ATOM     35  C   UNL A   1      35.433  34.203  30.580  1.00  0.00     0.039 A 
ATOM     36  C   UNL A   1      36.267  34.534  29.508  1.00  0.00     0.014 A 
ATOM     37  C   UNL A   1      35.941  33.553  31.701  1.00  0.00     0.014 A 
ATOM     38  C   UNL A   1      37.542  33.978  29.447  1.00  0.00     0.010 A 
ATOM     39  C   UNL A   1      37.166  32.924  31.601  1.00  0.00     0.010 A 
ATOM     40  C   UNL A   1      37.932  33.081  30.444  1.00  0.00    -0.014 A 
BRANCH  40  41
ATOM     41  C   UNL A   1      39.090  32.210  30.309  1.00  0.00     0.031 A 
ATOM     42  C   UNL A   1      38.907  30.818  29.862  1.00  0.00     0.074 A 
ATOM     43  C   UNL A   1      40.328  32.658  30.612  1.00  0.00     0.049 A 
ATOM     44  N   UNL A   1      39.625  29.826  30.270  1.00  0.00    -0.248 NA
ATOM     45  C   UNL A   1      37.847  30.435  28.938  1.00  0.00     0.031 C 
ATOM     46  C   UNL A   1      41.594  31.965  30.394  1.00  0.00     0.029 A 
ATOM     47  N   UNL A   1      40.673  33.749  31.409  1.00  0.00    -0.354 N 
ATOM     48  C   UNL A   1      39.332  28.759  29.455  1.00  0.00     0.074 A 
ATOM     49  C   UNL A   1      38.158  29.156  28.710  1.00  0.00     0.031 C 
ATOM     50  C   UNL A   1      42.491  32.430  31.280  1.00  0.00     0.029 A 
ATOM     51  C   UNL A   1      41.795  33.355  32.158  1.00  0.00     0.049 A 
ATOM     52  H   UNL A   1      40.222  34.623  31.441  1.00  0.00     0.167 HD
ATOM     53  C   UNL A   1      40.199  27.712  29.367  1.00  0.00     0.031 A 
ATOM     54  C   UNL A   1      41.825  33.340  33.522  1.00  0.00     0.031 A 
ATOM     55  C   UNL A   1      41.359  27.885  30.234  1.00  0.00     0.049 A 
ATOM     56  C   UNL A   1      42.122  31.967  34.087  1.00  0.00     0.074 A 
ATOM     57  C   UNL A   1      42.644  28.346  29.994  1.00  0.00     0.029 A 
ATOM     58  N   UNL A   1      41.194  27.872  31.613  1.00  0.00    -0.354 N 
ATOM     59  N   UNL A   1      42.062  30.872  33.382  1.00  0.00    -0.248 NA
ATOM     60  C   UNL A   1      42.447  31.705  35.488  1.00  0.00     0.031 C 
ATOM     61  C   UNL A   1      43.226  28.689  31.241  1.00  0.00     0.029 A 
ATOM     62  C   UNL A   1      42.306  28.406  32.235  1.00  0.00     0.049 A 
ATOM     63  H   UNL A   1      40.397  27.531  32.080  1.00  0.00     0.167 HD
ATOM     64  C   UNL A   1      42.342  29.793  34.178  1.00  0.00     0.074 A 
ATOM     65  C   UNL A   1      42.576  30.365  35.491  1.00  0.00     0.031 C 
ATOM     66  C   UNL A   1      42.352  28.522  33.685  1.00  0.00     0.031 A 
BRANCH  53  67
ATOM     67  C   UNL A   1      40.133  26.708  28.245  1.00  0.00    -0.014 A 
ATOM     68  C   UNL A   1      39.359  25.544  28.395  1.00  0.00     0.009 A 
ATOM     69  C   UNL A   1      40.853  26.826  27.044  1.00  0.00     0.009 A 
ATOM     70  C   UNL A   1      39.388  24.508  27.453  1.00  0.00     0.001 A 
ATOM     71  C   UNL A   1      40.922  25.776  26.118  1.00  0.00     0.001 A 
ATOM     72  C   UNL A   1      40.198  24.611  26.330  1.00  0.00     0.000 A 
ENDBRANCH  53  67
BRANCH  54  73
ATOM     73  C   UNL A   1      40.930  34.352  34.147  1.00  0.00    -0.014 A 
ATOM     74  C   UNL A   1      39.693  33.899  34.652  1.00  0.00     0.009 A 
ATOM     75  C   UNL A   1      41.447  35.565  34.623  1.00  0.00     0.009 A 
ATOM     76  C   UNL A   1      39.071  34.560  35.713  1.00  0.00     0.001 A 
ATOM     77  C   UNL A   1      40.807  36.232  35.675  1.00  0.00     0.001 A 
ATOM     78  C   UNL A   1      39.650  35.705  36.251  1.00  0.00     0.000 A 
ENDBRANCH  54  73
BRANCH  66  79
ATOM     79  C   UNL A   1      42.482  27.255  34.489  1.00  0.00    -0.014 A 
ATOM     80  C   UNL A   1      41.400  26.476  34.912  1.00  0.00     0.009 A 
ATOM     81  C   UNL A   1      43.775  26.733  34.720  1.00  0.00     0.009 A 
ATOM     82  C   UNL A   1      41.601  25.253  35.568  1.00  0.00     0.001 A 
ATOM     83  C   UNL A   1      43.979  25.496  35.336  1.00  0.00     0.001 A 
ATOM     84  C   UNL A   1      42.888  24.760  35.771  1.00  0.00     0.000 A 
ENDBRANCH  66  79
ENDBRANCH  40  41
ENDBRANCH  32  35
ENDBRANCH  30  31
ENDBRANCH  29  30
ENDBRANCH  28  29
ENDBRANCH   1  28
TORSDOF 15
ENDMDL
