MODEL 1
REMARK VINA RESULT:     -10.9      0.000      0.000
REMARK SMILES COc1ccc(S(=O)(=O)N[C@@H](CO)C(=O)NCCCCCCNC(=O)c2ccc(-c3c4nc(c(-c5ccccc5)c5ccc([nH]5)c(-c5ccccc5)c5nc(c(-c6ccccc6)c6ccc3[nH]6)C=C5)C=C4)cc2)cc1C
REMARK SMILES IDX 18 1 17 2 16 3 14 4 15 5 11 7 10 8 7 10 8 11 9 12 6 13 3 14
REMARK SMILES IDX 4 15 75 16 5 17 74 18 76 19 2 20 1 21 12 22 13 23 19 25
REMARK SMILES IDX 20 26 21 27 22 28 23 29 24 30 25 32 26 33 27 34 73 35 28 36
REMARK SMILES IDX 72 37 29 38 30 39 31 40 66 41 32 42 71 43 65 44 67 45 33 46
REMARK SMILES IDX 70 47 64 48 63 49 34 51 56 52 41 53 55 54 42 55 45 56 54 57
REMARK SMILES IDX 68 58 43 59 44 60 53 62 69 63 46 64 35 65 36 66 40 67 37 68
REMARK SMILES IDX 39 69 38 70 57 71 58 72 62 73 59 74 61 75 60 76 47 77 48 78
REMARK SMILES IDX 52 79 49 80 51 81 50 82
REMARK H PARENT 16 6 10 9 13 24 23 31 67 50 45 61
REMARK Flexibility Score: inf
ROOT
ATOM      1  C   UNL A   1      32.564  28.237  26.827  1.00  0.00     0.021 C 
ENDROOT
BRANCH   1   2
ATOM      2  C   UNL A   1      31.764  28.523  25.560  1.00  0.00     0.116 C 
BRANCH   2   3
ATOM      3  N   UNL A   1      30.934  27.402  25.163  1.00  0.00    -0.355 N 
ATOM      4  C   UNL A   1      30.690  26.918  23.910  1.00  0.00     0.240 C 
ATOM      5  O   UNL A   1      30.060  25.862  23.814  1.00  0.00    -0.273 OA
ATOM      6  H   UNL A   1      30.487  26.924  25.898  1.00  0.00     0.163 HD
BRANCH   4   7
ATOM      7  C   UNL A   1      31.121  27.686  22.654  1.00  0.00     0.184 C 
BRANCH   7   8
ATOM      8  N   UNL A   1      31.486  26.706  21.608  1.00  0.00    -0.196 NA
ATOM      9  H   UNL A   1      30.920  25.880  21.799  1.00  0.00     0.142 HD
BRANCH   8  10
ATOM     10  S   UNL A   1      33.022  26.145  21.345  1.00  0.00     0.241 S 
ATOM     11  O   UNL A   1      33.918  27.229  21.681  1.00  0.00    -0.207 OA
ATOM     12  O   UNL A   1      33.004  25.546  20.030  1.00  0.00    -0.207 OA
BRANCH  10  13
ATOM     13  C   UNL A   1      33.254  24.840  22.519  1.00  0.00     0.083 A 
ATOM     14  C   UNL A   1      33.790  22.699  24.217  1.00  0.00     0.121 A 
ATOM     15  C   UNL A   1      32.936  22.533  23.120  1.00  0.00     0.048 A 
ATOM     16  C   UNL A   1      34.412  23.934  24.454  1.00  0.00    -0.008 A 
ATOM     17  C   UNL A   1      32.679  23.597  22.256  1.00  0.00     0.025 A 
ATOM     18  C   UNL A   1      34.070  25.021  23.640  1.00  0.00     0.029 A 
ATOM     19  C   UNL A   1      35.458  24.133  25.511  1.00  0.00     0.048 C 
BRANCH  14  20
ATOM     20  O   UNL A   1      34.044  21.576  24.955  1.00  0.00    -0.496 OA
ATOM     21  C   UNL A   1      33.074  20.550  24.745  1.00  0.00     0.278 C 
ENDBRANCH  14  20
ENDBRANCH  10  13
ENDBRANCH   8  10
ENDBRANCH   7   8
BRANCH   7  22
ATOM     22  C   UNL A   1      30.100  28.756  22.253  1.00  0.00     0.186 C 
BRANCH  22  23
ATOM     23  O   UNL A   1      30.679  29.940  21.714  1.00  0.00    -0.394 OA
ATOM     24  H   UNL A   1      30.533  30.679  22.325  1.00  0.00     0.210 HD
ENDBRANCH  22  23
ENDBRANCH   7  22
ENDBRANCH   4   7
ENDBRANCH   2   3
ENDBRANCH   1   2
BRANCH   1  25
ATOM     25  C   UNL A   1      34.081  28.135  26.642  1.00  0.00     0.002 C 
BRANCH  25  26
ATOM     26  C   UNL A   1      34.909  29.355  27.072  1.00  0.00     0.002 C 
BRANCH  26  27
ATOM     27  C   UNL A   1      34.126  30.590  27.516  1.00  0.00     0.021 C 
BRANCH  27  28
ATOM     28  C   UNL A   1      34.838  31.449  28.544  1.00  0.00     0.116 C 
BRANCH  28  29
ATOM     29  N   UNL A   1      34.116  32.651  28.925  1.00  0.00    -0.352 N 
ATOM     30  C   UNL A   1      34.387  33.571  29.919  1.00  0.00     0.251 C 
ATOM     31  H   UNL A   1      33.309  32.839  28.393  1.00  0.00     0.163 HD
ATOM     32  O   UNL A   1      33.558  34.443  30.168  1.00  0.00    -0.269 OA
BRANCH  30  33
ATOM     33  C   UNL A   1      35.737  33.641  30.544  1.00  0.00     0.039 A 
ATOM     34  C   UNL A   1      36.767  34.161  29.748  1.00  0.00     0.014 A 
ATOM     35  C   UNL A   1      36.050  32.914  31.685  1.00  0.00     0.014 A 
ATOM     36  C   UNL A   1      38.055  33.667  29.895  1.00  0.00     0.010 A 
ATOM     37  C   UNL A   1      37.277  32.311  31.752  1.00  0.00     0.010 A 
ATOM     38  C   UNL A   1      38.248  32.639  30.809  1.00  0.00    -0.014 A 
BRANCH  38  39
ATOM     39  C   UNL A   1      39.438  31.825  30.884  1.00  0.00     0.031 A 
ATOM     40  C   UNL A   1      39.447  30.563  30.141  1.00  0.00     0.074 A 
ATOM     41  C   UNL A   1      40.526  32.326  31.505  1.00  0.00     0.049 A 
ATOM     42  N   UNL A   1      40.180  29.556  30.448  1.00  0.00    -0.248 NA
ATOM     43  C   UNL A   1      38.572  30.319  28.997  1.00  0.00     0.031 C 
ATOM     44  C   UNL A   1      41.899  31.839  31.475  1.00  0.00     0.029 A 
ATOM     45  N   UNL A   1      40.540  33.314  32.483  1.00  0.00    -0.354 N 
ATOM     46  C   UNL A   1      40.128  28.690  29.381  1.00  0.00     0.074 A 
ATOM     47  C   UNL A   1      39.033  29.145  28.561  1.00  0.00     0.031 C 
ATOM     48  C   UNL A   1      42.557  32.326  32.543  1.00  0.00     0.029 A 
ATOM     49  C   UNL A   1      41.583  33.022  33.372  1.00  0.00     0.049 A 
ATOM     50  H   UNL A   1      39.926  34.081  32.540  1.00  0.00     0.167 HD
ATOM     51  C   UNL A   1      41.138  27.797  29.217  1.00  0.00     0.031 A 
ATOM     52  C   UNL A   1      41.285  32.689  34.666  1.00  0.00     0.031 A 
ATOM     53  C   UNL A   1      42.109  27.909  30.301  1.00  0.00     0.049 A 
ATOM     54  C   UNL A   1      41.609  31.241  34.976  1.00  0.00     0.074 A 
ATOM     55  C   UNL A   1      43.317  28.581  30.405  1.00  0.00     0.029 A 
ATOM     56  N   UNL A   1      41.701  27.629  31.601  1.00  0.00    -0.354 N 
ATOM     57  N   UNL A   1      41.735  30.307  34.070  1.00  0.00    -0.248 NA
ATOM     58  C   UNL A   1      41.851  30.738  36.325  1.00  0.00     0.031 C 
ATOM     59  C   UNL A   1      43.595  28.767  31.786  1.00  0.00     0.029 A 
ATOM     60  C   UNL A   1      42.576  28.181  32.516  1.00  0.00     0.049 A 
ATOM     61  H   UNL A   1      40.899  27.108  31.835  1.00  0.00     0.167 HD
ATOM     62  C   UNL A   1      42.105  29.128  34.666  1.00  0.00     0.074 A 
ATOM     63  C   UNL A   1      42.154  29.449  36.081  1.00  0.00     0.031 C 
ATOM     64  C   UNL A   1      42.356  27.993  33.944  1.00  0.00     0.031 A 
BRANCH  51  65
ATOM     65  C   UNL A   1      41.393  27.079  27.922  1.00  0.00    -0.014 A 
ATOM     66  C   UNL A   1      42.066  27.751  26.886  1.00  0.00     0.009 A 
ATOM     67  C   UNL A   1      40.973  25.766  27.645  1.00  0.00     0.009 A 
ATOM     68  C   UNL A   1      42.250  27.175  25.624  1.00  0.00     0.001 A 
ATOM     69  C   UNL A   1      41.124  25.196  26.373  1.00  0.00     0.001 A 
ATOM     70  C   UNL A   1      41.760  25.902  25.361  1.00  0.00     0.000 A 
ENDBRANCH  51  65
BRANCH  52  71
ATOM     71  C   UNL A   1      40.118  33.466  35.191  1.00  0.00    -0.014 A 
ATOM     72  C   UNL A   1      38.861  32.820  35.188  1.00  0.00     0.009 A 
ATOM     73  C   UNL A   1      40.307  34.544  36.068  1.00  0.00     0.009 A 
ATOM     74  C   UNL A   1      37.894  33.121  36.153  1.00  0.00     0.001 A 
ATOM     75  C   UNL A   1      39.320  34.859  37.015  1.00  0.00     0.001 A 
ATOM     76  C   UNL A   1      38.143  34.114  37.094  1.00  0.00     0.000 A 
ENDBRANCH  52  71
BRANCH  64  77
ATOM     77  C   UNL A   1      42.494  26.586  34.488  1.00  0.00    -0.014 A 
ATOM     78  C   UNL A   1      41.521  25.923  35.242  1.00  0.00     0.009 A 
ATOM     79  C   UNL A   1      43.623  25.817  34.110  1.00  0.00     0.009 A 
ATOM     80  C   UNL A   1      41.684  24.583  35.627  1.00  0.00     0.001 A 
ATOM     81  C   UNL A   1      43.760  24.467  34.436  1.00  0.00     0.001 A 
ATOM     82  C   UNL A   1      42.792  23.852  35.212  1.00  0.00     0.000 A 
ENDBRANCH  64  77
ENDBRANCH  38  39
ENDBRANCH  30  33
ENDBRANCH  28  29
ENDBRANCH  27  28
ENDBRANCH  26  27
ENDBRANCH  25  26
ENDBRANCH   1  25
TORSDOF 19
ENDMDL
MODEL 2
REMARK VINA RESULT:     -10.9      1.868      3.080
REMARK SMILES COc1ccc(S(=O)(=O)N[C@@H](CO)C(=O)NCCCCCCNC(=O)c2ccc(-c3c4nc(c(-c5ccccc5)c5ccc([nH]5)c(-c5ccccc5)c5nc(c(-c6ccccc6)c6ccc3[nH]6)C=C5)C=C4)cc2)cc1C
REMARK SMILES IDX 18 1 17 2 16 3 14 4 15 5 11 7 10 8 7 10 8 11 9 12 6 13 3 14
REMARK SMILES IDX 4 15 75 16 5 17 74 18 76 19 2 20 1 21 12 22 13 23 19 25
REMARK SMILES IDX 20 26 21 27 22 28 23 29 24 30 25 32 26 33 27 34 73 35 28 36
REMARK SMILES IDX 72 37 29 38 30 39 31 40 66 41 32 42 71 43 65 44 67 45 33 46
REMARK SMILES IDX 70 47 64 48 63 49 34 51 56 52 41 53 55 54 42 55 45 56 54 57
REMARK SMILES IDX 68 58 43 59 44 60 53 62 69 63 46 64 35 65 36 66 40 67 37 68
REMARK SMILES IDX 39 69 38 70 57 71 58 72 62 73 59 74 61 75 60 76 47 77 48 78
REMARK SMILES IDX 52 79 49 80 51 81 50 82
REMARK H PARENT 16 6 10 9 13 24 23 31 67 50 45 61
REMARK Flexibility Score: inf
ROOT
ATOM      1  C   UNL A   1      33.963  33.533  28.216  1.00  0.00     0.021 C 
ENDROOT
BRANCH   1   2
ATOM      2  C   UNL A   1      33.291  32.203  27.886  1.00  0.00     0.116 C 
BRANCH   2   3
ATOM      3  N   UNL A   1      34.204  31.082  27.983  1.00  0.00    -0.355 N 
ATOM      4  C   UNL A   1      34.312  29.991  27.169  1.00  0.00     0.240 C 
ATOM      5  O   UNL A   1      35.258  29.222  27.359  1.00  0.00    -0.273 OA
ATOM      6  H   UNL A   1      34.834  31.111  28.739  1.00  0.00     0.163 HD
BRANCH   4   7
ATOM      7  C   UNL A   1      33.261  29.684  26.095  1.00  0.00     0.184 C 
BRANCH   7   8
ATOM      8  N   UNL A   1      33.944  29.078  24.931  1.00  0.00    -0.196 NA
ATOM      9  H   UNL A   1      34.547  29.810  24.557  1.00  0.00     0.142 HD
BRANCH   8  10
ATOM     10  S   UNL A   1      33.165  28.429  23.621  1.00  0.00     0.241 S 
ATOM     11  O   UNL A   1      34.033  28.637  22.484  1.00  0.00    -0.207 OA
ATOM     12  O   UNL A   1      31.819  28.951  23.662  1.00  0.00    -0.207 OA
BRANCH  10  13
ATOM     13  C   UNL A   1      33.069  26.691  23.944  1.00  0.00     0.083 A 
ATOM     14  C   UNL A   1      32.804  24.013  24.659  1.00  0.00     0.121 A 
ATOM     15  C   UNL A   1      33.852  24.781  25.180  1.00  0.00     0.048 A 
ATOM     16  C   UNL A   1      31.858  24.589  23.800  1.00  0.00    -0.008 A 
ATOM     17  C   UNL A   1      33.977  26.128  24.840  1.00  0.00     0.025 A 
ATOM     18  C   UNL A   1      32.050  25.913  23.385  1.00  0.00     0.029 A 
ATOM     19  C   UNL A   1      30.626  23.867  23.337  1.00  0.00     0.048 C 
BRANCH  14  20
ATOM     20  O   UNL A   1      32.717  22.727  25.118  1.00  0.00    -0.496 OA
ATOM     21  C   UNL A   1      33.471  21.809  24.325  1.00  0.00     0.278 C 
ENDBRANCH  14  20
ENDBRANCH  10  13
ENDBRANCH   8  10
ENDBRANCH   7   8
BRANCH   7  22
ATOM     22  C   UNL A   1      32.068  28.906  26.660  1.00  0.00     0.186 C 
BRANCH  22  23
ATOM     23  O   UNL A   1      32.304  28.328  27.941  1.00  0.00    -0.394 OA
ATOM     24  H   UNL A   1      32.940  28.875  28.429  1.00  0.00     0.210 HD
ENDBRANCH  22  23
ENDBRANCH   7  22
ENDBRANCH   4   7
ENDBRANCH   2   3
ENDBRANCH   1   2
BRANCH   1  25
ATOM     25  C   UNL A   1      33.014  34.688  28.551  1.00  0.00     0.002 C 
BRANCH  25  26
ATOM     26  C   UNL A   1      33.665  36.043  28.862  1.00  0.00     0.002 C 
BRANCH  26  27
ATOM     27  C   UNL A   1      33.157  36.778  30.102  1.00  0.00     0.021 C 
BRANCH  27  28
ATOM     28  C   UNL A   1      32.800  35.875  31.266  1.00  0.00     0.116 C 
BRANCH  28  29
ATOM     29  N   UNL A   1      33.631  36.056  32.444  1.00  0.00    -0.352 N 
ATOM     30  C   UNL A   1      34.569  35.211  33.005  1.00  0.00     0.251 C 
ATOM     31  H   UNL A   1      33.508  36.912  32.913  1.00  0.00     0.163 HD
ATOM     32  O   UNL A   1      35.057  35.501  34.095  1.00  0.00    -0.269 OA
BRANCH  30  33
ATOM     33  C   UNL A   1      35.135  34.075  32.227  1.00  0.00     0.039 A 
ATOM     34  C   UNL A   1      35.116  32.820  32.853  1.00  0.00     0.014 A 
ATOM     35  C   UNL A   1      35.956  34.282  31.128  1.00  0.00     0.014 A 
ATOM     36  C   UNL A   1      36.143  31.922  32.605  1.00  0.00     0.010 A 
ATOM     37  C   UNL A   1      37.051  33.475  30.976  1.00  0.00     0.010 A 
ATOM     38  C   UNL A   1      37.172  32.337  31.769  1.00  0.00    -0.014 A 
BRANCH  38  39
ATOM     39  C   UNL A   1      38.438  31.657  31.633  1.00  0.00     0.031 A 
ATOM     40  C   UNL A   1      38.463  30.413  30.860  1.00  0.00     0.074 A 
ATOM     41  C   UNL A   1      39.552  32.264  32.093  1.00  0.00     0.049 A 
ATOM     42  N   UNL A   1      39.336  29.487  31.018  1.00  0.00    -0.248 NA
ATOM     43  C   UNL A   1      37.448  30.092  29.859  1.00  0.00     0.031 C 
ATOM     44  C   UNL A   1      40.946  31.930  31.834  1.00  0.00     0.029 A 
ATOM     45  N   UNL A   1      39.615  33.234  33.086  1.00  0.00    -0.354 N 
ATOM     46  C   UNL A   1      39.208  28.636  29.946  1.00  0.00     0.074 A 
ATOM     47  C   UNL A   1      37.955  28.981  29.321  1.00  0.00     0.031 C 
ATOM     48  C   UNL A   1      41.709  32.470  32.802  1.00  0.00     0.029 A 
ATOM     49  C   UNL A   1      40.811  33.046  33.794  1.00  0.00     0.049 A 
ATOM     50  H   UNL A   1      38.941  33.930  33.262  1.00  0.00     0.167 HD
ATOM     51  C   UNL A   1      40.267  27.861  29.600  1.00  0.00     0.031 A 
ATOM     52  C   UNL A   1      40.757  32.664  35.107  1.00  0.00     0.031 A 
ATOM     53  C   UNL A   1      41.380  28.063  30.523  1.00  0.00     0.049 A 
ATOM     54  C   UNL A   1      41.277  31.256  35.318  1.00  0.00     0.074 A 
ATOM     55  C   UNL A   1      42.512  28.860  30.458  1.00  0.00     0.029 A 
ATOM     56  N   UNL A   1      41.214  27.722  31.861  1.00  0.00    -0.354 N 
ATOM     57  N   UNL A   1      41.356  30.353  34.376  1.00  0.00    -0.248 NA
ATOM     58  C   UNL A   1      41.780  30.764  36.597  1.00  0.00     0.031 C 
ATOM     59  C   UNL A   1      42.984  29.057  31.784  1.00  0.00     0.029 A 
ATOM     60  C   UNL A   1      42.159  28.353  32.645  1.00  0.00     0.049 A 
ATOM     61  H   UNL A   1      40.518  27.114  32.200  1.00  0.00     0.167 HD
ATOM     62  C   UNL A   1      41.937  29.214  34.871  1.00  0.00     0.074 A 
ATOM     63  C   UNL A   1      42.175  29.519  36.270  1.00  0.00     0.031 C 
ATOM     64  C   UNL A   1      42.189  28.123  34.084  1.00  0.00     0.031 A 
BRANCH  51  65
ATOM     65  C   UNL A   1      40.389  27.192  28.260  1.00  0.00    -0.014 A 
ATOM     66  C   UNL A   1      39.828  25.914  28.077  1.00  0.00     0.009 A 
ATOM     67  C   UNL A   1      41.065  27.740  27.156  1.00  0.00     0.009 A 
ATOM     68  C   UNL A   1      39.990  25.196  26.887  1.00  0.00     0.001 A 
ATOM     69  C   UNL A   1      41.259  27.013  25.973  1.00  0.00     0.001 A 
ATOM     70  C   UNL A   1      40.725  25.738  25.840  1.00  0.00     0.000 A 
ENDBRANCH  51  65
BRANCH  52  71
ATOM     71  C   UNL A   1      39.613  33.302  35.831  1.00  0.00    -0.014 A 
ATOM     72  C   UNL A   1      38.517  32.473  36.160  1.00  0.00     0.009 A 
ATOM     73  C   UNL A   1      39.793  34.483  36.564  1.00  0.00     0.009 A 
ATOM     74  C   UNL A   1      37.742  32.722  37.298  1.00  0.00     0.001 A 
ATOM     75  C   UNL A   1      38.994  34.741  37.689  1.00  0.00     0.001 A 
ATOM     76  C   UNL A   1      38.009  33.835  38.086  1.00  0.00     0.000 A 
ENDBRANCH  52  71
BRANCH  64  77
ATOM     77  C   UNL A   1      42.558  26.732  34.557  1.00  0.00    -0.014 A 
ATOM     78  C   UNL A   1      41.713  25.883  35.277  1.00  0.00     0.009 A 
ATOM     79  C   UNL A   1      43.794  26.176  34.140  1.00  0.00     0.009 A 
ATOM     80  C   UNL A   1      42.094  24.570  35.595  1.00  0.00     0.001 A 
ATOM     81  C   UNL A   1      44.150  24.852  34.398  1.00  0.00     0.001 A 
ATOM     82  C   UNL A   1      43.303  24.050  35.142  1.00  0.00     0.000 A 
ENDBRANCH  64  77
ENDBRANCH  38  39
ENDBRANCH  30  33
ENDBRANCH  28  29
ENDBRANCH  27  28
ENDBRANCH  26  27
ENDBRANCH  25  26
ENDBRANCH   1  25
TORSDOF 19
ENDMDL
MODEL 3
REMARK VINA RESULT:     -10.3      1.397      2.120
REMARK SMILES COc1ccc(S(=O)(=O)N[C@@H](CO)C(=O)NCCCCCCNC(=O)c2ccc(-c3c4nc(c(-c5ccccc5)c5ccc([nH]5)c(-c5ccccc5)c5nc(c(-c6ccccc6)c6ccc3[nH]6)C=C5)C=C4)cc2)cc1C
REMARK SMILES IDX 18 1 17 2 16 3 14 4 15 5 11 7 10 8 7 10 8 11 9 12 6 13 3 14
REMARK SMILES IDX 4 15 75 16 5 17 74 18 76 19 2 20 1 21 12 22 13 23 19 25
REMARK SMILES IDX 20 26 21 27 22 28 23 29 24 30 25 32 26 33 27 34 73 35 28 36
REMARK SMILES IDX 72 37 29 38 30 39 31 40 66 41 32 42 71 43 65 44 67 45 33 46
REMARK SMILES IDX 70 47 64 48 63 49 34 51 56 52 41 53 55 54 42 55 45 56 54 57
REMARK SMILES IDX 68 58 43 59 44 60 53 62 69 63 46 64 35 65 36 66 40 67 37 68
REMARK SMILES IDX 39 69 38 70 57 71 58 72 62 73 59 74 61 75 60 76 47 77 48 78
REMARK SMILES IDX 52 79 49 80 51 81 50 82
REMARK H PARENT 16 6 10 9 13 24 23 31 67 50 45 61
REMARK Flexibility Score: inf
ROOT
ATOM      1  C   UNL A   1      31.556  29.249  25.524  1.00  0.00     0.021 C 
ENDROOT
BRANCH   1   2
ATOM      2  C   UNL A   1      31.263  29.305  24.027  1.00  0.00     0.116 C 
BRANCH   2   3
ATOM      3  N   UNL A   1      30.003  28.676  23.685  1.00  0.00    -0.355 N 
ATOM      4  C   UNL A   1      29.671  27.352  23.708  1.00  0.00     0.240 C 
ATOM      5  O   UNL A   1      28.492  27.050  23.509  1.00  0.00    -0.273 OA
ATOM      6  H   UNL A   1      29.287  29.288  23.397  1.00  0.00     0.163 HD
BRANCH   4   7
ATOM      7  C   UNL A   1      30.732  26.262  23.907  1.00  0.00     0.184 C 
BRANCH   7   8
ATOM      8  N   UNL A   1      30.148  25.187  24.737  1.00  0.00    -0.196 NA
ATOM      9  H   UNL A   1      29.186  25.471  24.915  1.00  0.00     0.142 HD
BRANCH   8  10
ATOM     10  S   UNL A   1      30.749  24.704  26.203  1.00  0.00     0.241 S 
ATOM     11  O   UNL A   1      29.637  24.146  26.939  1.00  0.00    -0.207 OA
ATOM     12  O   UNL A   1      31.515  25.822  26.705  1.00  0.00    -0.207 OA
BRANCH  10  13
ATOM     13  C   UNL A   1      31.892  23.402  25.838  1.00  0.00     0.083 A 
ATOM     14  C   UNL A   1      33.545  21.206  25.392  1.00  0.00     0.121 A 
ATOM     15  C   UNL A   1      33.646  21.935  26.583  1.00  0.00     0.048 A 
ATOM     16  C   UNL A   1      32.588  21.550  24.427  1.00  0.00    -0.008 A 
ATOM     17  C   UNL A   1      32.807  23.024  26.819  1.00  0.00     0.025 A 
ATOM     18  C   UNL A   1      31.821  22.704  24.628  1.00  0.00     0.029 A 
ATOM     19  C   UNL A   1      32.320  20.717  23.207  1.00  0.00     0.048 C 
BRANCH  14  20
ATOM     20  O   UNL A   1      34.352  20.106  25.292  1.00  0.00    -0.496 OA
ATOM     21  C   UNL A   1      35.707  20.445  24.996  1.00  0.00     0.278 C 
ENDBRANCH  14  20
ENDBRANCH  10  13
ENDBRANCH   8  10
ENDBRANCH   7   8
BRANCH   7  22
ATOM     22  C   UNL A   1      31.367  25.825  22.582  1.00  0.00     0.186 C 
BRANCH  22  23
ATOM     23  O   UNL A   1      31.193  26.758  21.519  1.00  0.00    -0.394 OA
ATOM     24  H   UNL A   1      30.616  26.371  20.841  1.00  0.00     0.210 HD
ENDBRANCH  22  23
ENDBRANCH   7  22
ENDBRANCH   4   7
ENDBRANCH   2   3
ENDBRANCH   1   2
BRANCH   1  25
ATOM     25  C   UNL A   1      32.148  30.525  26.130  1.00  0.00     0.002 C 
BRANCH  25  26
ATOM     26  C   UNL A   1      32.887  30.371  27.467  1.00  0.00     0.002 C 
BRANCH  26  27
ATOM     27  C   UNL A   1      34.407  30.233  27.397  1.00  0.00     0.021 C 
BRANCH  27  28
ATOM     28  C   UNL A   1      35.172  31.476  27.811  1.00  0.00     0.116 C 
BRANCH  28  29
ATOM     29  N   UNL A   1      34.337  32.559  28.300  1.00  0.00    -0.352 N 
ATOM     30  C   UNL A   1      34.452  33.318  29.449  1.00  0.00     0.251 C 
ATOM     31  H   UNL A   1      33.572  32.788  27.725  1.00  0.00     0.163 HD
ATOM     32  O   UNL A   1      33.546  34.093  29.746  1.00  0.00    -0.269 OA
BRANCH  30  33
ATOM     33  C   UNL A   1      35.730  33.356  30.212  1.00  0.00     0.039 A 
ATOM     34  C   UNL A   1      36.804  34.017  29.598  1.00  0.00     0.014 A 
ATOM     35  C   UNL A   1      35.969  32.497  31.275  1.00  0.00     0.014 A 
ATOM     36  C   UNL A   1      38.095  33.557  29.811  1.00  0.00     0.010 A 
ATOM     37  C   UNL A   1      37.214  31.938  31.389  1.00  0.00     0.010 A 
ATOM     38  C   UNL A   1      38.252  32.425  30.600  1.00  0.00    -0.014 A 
BRANCH  38  39
ATOM     39  C   UNL A   1      39.470  31.656  30.690  1.00  0.00     0.031 A 
ATOM     40  C   UNL A   1      39.540  30.401  29.939  1.00  0.00     0.074 A 
ATOM     41  C   UNL A   1      40.527  32.190  31.336  1.00  0.00     0.049 A 
ATOM     42  N   UNL A   1      40.303  29.419  30.251  1.00  0.00    -0.248 NA
ATOM     43  C   UNL A   1      38.695  30.135  28.776  1.00  0.00     0.031 C 
ATOM     44  C   UNL A   1      41.918  31.755  31.327  1.00  0.00     0.029 A 
ATOM     45  N   UNL A   1      40.487  33.170  32.321  1.00  0.00    -0.354 N 
ATOM     46  C   UNL A   1      40.303  28.561  29.176  1.00  0.00     0.074 A 
ATOM     47  C   UNL A   1      39.207  28.982  28.340  1.00  0.00     0.031 C 
ATOM     48  C   UNL A   1      42.537  32.256  32.411  1.00  0.00     0.029 A 
ATOM     49  C   UNL A   1      41.524  32.909  33.228  1.00  0.00     0.049 A 
ATOM     50  H   UNL A   1      39.844  33.914  32.373  1.00  0.00     0.167 HD
ATOM     51  C   UNL A   1      41.348  27.708  29.024  1.00  0.00     0.031 A 
ATOM     52  C   UNL A   1      41.215  32.554  34.513  1.00  0.00     0.031 A 
ATOM     53  C   UNL A   1      42.294  27.846  30.127  1.00  0.00     0.049 A 
ATOM     54  C   UNL A   1      41.587  31.116  34.817  1.00  0.00     0.074 A 
ATOM     55  C   UNL A   1      43.474  28.561  30.258  1.00  0.00     0.029 A 
ATOM     56  N   UNL A   1      41.874  27.539  31.416  1.00  0.00    -0.354 N 
ATOM     57  N   UNL A   1      41.763  30.195  33.907  1.00  0.00    -0.248 NA
ATOM     58  C   UNL A   1      41.822  30.611  36.167  1.00  0.00     0.031 C 
ATOM     59  C   UNL A   1      43.721  28.745  31.645  1.00  0.00     0.029 A 
ATOM     60  C   UNL A   1      42.710  28.116  32.351  1.00  0.00     0.049 A 
ATOM     61  H   UNL A   1      41.087  26.988  31.631  1.00  0.00     0.167 HD
ATOM     62  C   UNL A   1      42.166  29.027  34.500  1.00  0.00     0.074 A 
ATOM     63  C   UNL A   1      42.177  29.337  35.918  1.00  0.00     0.031 C 
ATOM     64  C   UNL A   1      42.471  27.908  33.774  1.00  0.00     0.031 A 
BRANCH  51  65
ATOM     65  C   UNL A   1      41.653  27.010  27.728  1.00  0.00    -0.014 A 
ATOM     66  C   UNL A   1      41.708  25.604  27.703  1.00  0.00     0.009 A 
ATOM     67  C   UNL A   1      41.928  27.667  26.516  1.00  0.00     0.009 A 
ATOM     68  C   UNL A   1      42.082  24.897  26.554  1.00  0.00     0.001 A 
ATOM     69  C   UNL A   1      42.335  26.967  25.372  1.00  0.00     0.001 A 
ATOM     70  C   UNL A   1      42.416  25.581  25.393  1.00  0.00     0.000 A 
ENDBRANCH  51  65
BRANCH  52  71
ATOM     71  C   UNL A   1      40.010  33.283  35.023  1.00  0.00    -0.014 A 
ATOM     72  C   UNL A   1      38.864  32.508  35.313  1.00  0.00     0.009 A 
ATOM     73  C   UNL A   1      40.134  34.538  35.636  1.00  0.00     0.009 A 
ATOM     74  C   UNL A   1      37.971  32.893  36.318  1.00  0.00     0.001 A 
ATOM     75  C   UNL A   1      39.217  34.930  36.623  1.00  0.00     0.001 A 
ATOM     76  C   UNL A   1      38.172  34.087  37.002  1.00  0.00     0.000 A 
ENDBRANCH  52  71
BRANCH  64  77
ATOM     77  C   UNL A   1      42.652  26.502  34.310  1.00  0.00    -0.014 A 
ATOM     78  C   UNL A   1      41.714  25.818  35.088  1.00  0.00     0.009 A 
ATOM     79  C   UNL A   1      43.785  25.755  33.898  1.00  0.00     0.009 A 
ATOM     80  C   UNL A   1      41.912  24.481  35.464  1.00  0.00     0.001 A 
ATOM     81  C   UNL A   1      43.956  24.408  34.215  1.00  0.00     0.001 A 
ATOM     82  C   UNL A   1      43.023  23.772  35.015  1.00  0.00     0.000 A 
ENDBRANCH  64  77
ENDBRANCH  38  39
ENDBRANCH  30  33
ENDBRANCH  28  29
ENDBRANCH  27  28
ENDBRANCH  26  27
ENDBRANCH  25  26
ENDBRANCH   1  25
TORSDOF 19
ENDMDL
