MODEL 1
REMARK VINA RESULT:     -10.1      0.000      0.000
REMARK SMILES CCCC[C@@H](C(=O)NCCCCCCNC(=O)c1ccc(-c2c3nc(c(-c4ccccc4)c4ccc([nH]4)c(-c4ccccc4)c4nc(c(-c5ccccc5)c5ccc2[nH]5)C=C4)C=C3)cc1)[C@H](O)c1ccc(Br)cc1F
REMARK SMILES IDX 11 1 10 2 9 3 8 4 6 5 7 6 5 8 4 9 3 10 2 11 1 12 66 13 68 14
REMARK SMILES IDX 69 15 74 16 70 17 73 18 75 19 71 20 72 21 67 22 12 24 13 25
REMARK SMILES IDX 14 26 15 27 16 28 17 30 18 31 19 32 65 33 20 34 64 35 21 36
REMARK SMILES IDX 22 37 23 38 58 39 24 40 63 41 57 42 59 43 25 44 62 45 56 46
REMARK SMILES IDX 55 47 26 49 48 50 33 51 47 52 34 53 37 54 46 55 60 56 35 57
REMARK SMILES IDX 36 58 45 60 61 61 38 62 27 63 28 64 32 65 29 66 31 67 30 68
REMARK SMILES IDX 49 69 50 70 54 71 51 72 53 73 52 74 39 75 40 76 44 77 41 78
REMARK SMILES IDX 43 79 42 80
REMARK H PARENT 8 7 67 23 15 29 59 48 37 59
REMARK Flexibility Score: inf
ROOT
ATOM      1  C   UNL A   1      34.207  21.078  26.149  1.00  0.00     0.002 C 
ENDROOT
BRANCH   1   2
ATOM      2  C   UNL A   1      33.536  21.129  24.778  1.00  0.00     0.021 C 
BRANCH   2   3
ATOM      3  C   UNL A   1      32.012  21.305  24.833  1.00  0.00     0.116 C 
BRANCH   3   4
ATOM      4  N   UNL A   1      31.639  21.945  26.077  1.00  0.00    -0.356 N 
ATOM      5  C   UNL A   1      31.572  23.266  26.412  1.00  0.00     0.226 C 
ATOM      6  O   UNL A   1      31.585  23.532  27.617  1.00  0.00    -0.275 OA
ATOM      7  H   UNL A   1      31.394  21.325  26.801  1.00  0.00     0.163 HD
BRANCH   5   8
ATOM      8  C   UNL A   1      31.537  24.367  25.338  1.00  0.00     0.112 C 
BRANCH   8   9
ATOM      9  C   UNL A   1      32.992  24.797  25.014  1.00  0.00     0.016 C 
BRANCH   9  10
ATOM     10  C   UNL A   1      33.451  24.796  23.552  1.00  0.00     0.001 C 
BRANCH  10  11
ATOM     11  C   UNL A   1      33.313  26.114  22.788  1.00  0.00    -0.003 C 
ATOM     12  C   UNL A   1      32.339  26.036  21.626  1.00  0.00     0.004 C 
ENDBRANCH  10  11
ENDBRANCH   9  10
ENDBRANCH   8   9
BRANCH   8  13
ATOM     13  C   UNL A   1      30.695  25.554  25.931  1.00  0.00     0.160 C 
BRANCH  13  14
ATOM     14  C   UNL A   1      30.417  26.718  24.976  1.00  0.00     0.017 A 
ATOM     15  C   UNL A   1      29.429  26.602  23.980  1.00  0.00     0.010 A 
ATOM     16  C   UNL A   1      31.134  27.926  25.015  1.00  0.00     0.130 A 
ATOM     17  C   UNL A   1      29.107  27.674  23.140  1.00  0.00     0.016 A 
ATOM     18  C   UNL A   1      30.859  28.982  24.146  1.00  0.00     0.055 A 
ATOM     19  F   UNL A   1      32.147  28.095  25.875  1.00  0.00    -0.207 F 
ATOM     20  C   UNL A   1      29.826  28.861  23.228  1.00  0.00     0.020 A 
ATOM     21  Br  UNL A   1      29.405  30.304  22.084  1.00  0.00    -0.051 Br
ENDBRANCH  13  14
BRANCH  13  22
ATOM     22  O   UNL A   1      29.450  25.029  26.407  1.00  0.00    -0.387 OA
ATOM     23  H   UNL A   1      29.051  25.657  27.028  1.00  0.00     0.211 HD
ENDBRANCH  13  22
ENDBRANCH   8  13
ENDBRANCH   5   8
ENDBRANCH   3   4
ENDBRANCH   2   3
ENDBRANCH   1   2
BRANCH   1  24
ATOM     24  C   UNL A   1      35.331  22.101  26.339  1.00  0.00     0.002 C 
BRANCH  24  25
ATOM     25  C   UNL A   1      35.966  22.628  25.047  1.00  0.00     0.021 C 
BRANCH  25  26
ATOM     26  C   UNL A   1      37.246  23.438  25.241  1.00  0.00     0.116 C 
BRANCH  26  27
ATOM     27  N   UNL A   1      38.377  22.593  25.593  1.00  0.00    -0.352 N 
ATOM     28  C   UNL A   1      39.567  22.923  26.192  1.00  0.00     0.251 C 
ATOM     29  H   UNL A   1      38.273  21.640  25.367  1.00  0.00     0.163 HD
ATOM     30  O   UNL A   1      40.501  22.129  26.195  1.00  0.00    -0.269 OA
BRANCH  28  31
ATOM     31  C   UNL A   1      39.728  24.248  26.825  1.00  0.00     0.039 A 
ATOM     32  C   UNL A   1      39.196  24.461  28.099  1.00  0.00     0.014 A 
ATOM     33  C   UNL A   1      40.394  25.279  26.156  1.00  0.00     0.014 A 
ATOM     34  C   UNL A   1      39.401  25.686  28.736  1.00  0.00     0.010 A 
ATOM     35  C   UNL A   1      40.652  26.476  26.817  1.00  0.00     0.010 A 
ATOM     36  C   UNL A   1      40.166  26.687  28.117  1.00  0.00    -0.014 A 
BRANCH  36  37
ATOM     37  C   UNL A   1      40.509  27.947  28.823  1.00  0.00     0.031 A 
ATOM     38  C   UNL A   1      41.827  28.086  29.532  1.00  0.00     0.074 A 
ATOM     39  C   UNL A   1      39.593  28.932  28.897  1.00  0.00     0.049 A 
ATOM     40  N   UNL A   1      42.261  29.073  30.276  1.00  0.00    -0.248 NA
ATOM     41  C   UNL A   1      42.771  26.965  29.406  1.00  0.00     0.031 C 
ATOM     42  C   UNL A   1      38.267  28.904  28.279  1.00  0.00     0.029 A 
ATOM     43  N   UNL A   1      39.636  30.146  29.537  1.00  0.00    -0.354 N 
ATOM     44  C   UNL A   1      43.520  28.684  30.718  1.00  0.00     0.074 A 
ATOM     45  C   UNL A   1      43.761  27.357  30.196  1.00  0.00     0.031 C 
ATOM     46  C   UNL A   1      37.629  30.053  28.553  1.00  0.00     0.029 A 
ATOM     47  C   UNL A   1      38.481  30.877  29.405  1.00  0.00     0.049 A 
ATOM     48  H   UNL A   1      40.419  30.462  30.042  1.00  0.00     0.167 HD
ATOM     49  C   UNL A   1      44.401  29.378  31.478  1.00  0.00     0.031 A 
ATOM     50  C   UNL A   1      38.135  32.070  29.925  1.00  0.00     0.031 A 
ATOM     51  C   UNL A   1      44.158  30.698  31.998  1.00  0.00     0.049 A 
ATOM     52  C   UNL A   1      39.114  32.798  30.802  1.00  0.00     0.074 A 
ATOM     53  C   UNL A   1      45.011  31.505  32.730  1.00  0.00     0.029 A 
ATOM     54  N   UNL A   1      42.972  31.400  31.848  1.00  0.00    -0.354 N 
ATOM     55  N   UNL A   1      40.328  32.449  31.153  1.00  0.00    -0.248 NA
ATOM     56  C   UNL A   1      38.675  34.088  31.353  1.00  0.00     0.031 C 
ATOM     57  C   UNL A   1      44.320  32.671  33.075  1.00  0.00     0.029 A 
ATOM     58  C   UNL A   1      43.058  32.616  32.506  1.00  0.00     0.049 A 
ATOM     59  H   UNL A   1      42.186  31.082  31.348  1.00  0.00     0.167 HD
ATOM     60  C   UNL A   1      40.805  33.484  31.945  1.00  0.00     0.074 A 
ATOM     61  C   UNL A   1      39.758  34.482  32.009  1.00  0.00     0.031 C 
ATOM     62  C   UNL A   1      42.005  33.596  32.565  1.00  0.00     0.031 A 
BRANCH  49  63
ATOM     63  C   UNL A   1      45.708  28.712  31.809  1.00  0.00    -0.014 A 
ATOM     64  C   UNL A   1      46.812  28.806  30.947  1.00  0.00     0.009 A 
ATOM     65  C   UNL A   1      45.851  28.018  33.021  1.00  0.00     0.009 A 
ATOM     66  C   UNL A   1      48.021  28.187  31.274  1.00  0.00     0.001 A 
ATOM     67  C   UNL A   1      47.070  27.426  33.360  1.00  0.00     0.001 A 
ATOM     68  C   UNL A   1      48.150  27.503  32.482  1.00  0.00     0.000 A 
ENDBRANCH  49  63
BRANCH  50  69
ATOM     69  C   UNL A   1      36.797  32.649  29.635  1.00  0.00    -0.014 A 
ATOM     70  C   UNL A   1      35.730  32.459  30.526  1.00  0.00     0.009 A 
ATOM     71  C   UNL A   1      36.578  33.393  28.464  1.00  0.00     0.009 A 
ATOM     72  C   UNL A   1      34.466  32.979  30.238  1.00  0.00     0.001 A 
ATOM     73  C   UNL A   1      35.321  33.938  28.194  1.00  0.00     0.001 A 
ATOM     74  C   UNL A   1      34.264  33.724  29.077  1.00  0.00     0.000 A 
ENDBRANCH  50  69
BRANCH  62  75
ATOM     75  C   UNL A   1      42.259  34.852  33.349  1.00  0.00    -0.014 A 
ATOM     76  C   UNL A   1      41.874  34.962  34.694  1.00  0.00     0.009 A 
ATOM     77  C   UNL A   1      42.941  35.922  32.747  1.00  0.00     0.009 A 
ATOM     78  C   UNL A   1      42.144  36.128  35.413  1.00  0.00     0.001 A 
ATOM     79  C   UNL A   1      43.235  37.075  33.477  1.00  0.00     0.001 A 
ATOM     80  C   UNL A   1      42.830  37.180  34.806  1.00  0.00     0.000 A 
ENDBRANCH  62  75
ENDBRANCH  36  37
ENDBRANCH  28  31
ENDBRANCH  26  27
ENDBRANCH  25  26
ENDBRANCH  24  25
ENDBRANCH   1  24
TORSDOF 19
ENDMDL
MODEL 2
REMARK VINA RESULT:     -10.0      2.135      3.337
REMARK SMILES CCCC[C@@H](C(=O)NCCCCCCNC(=O)c1ccc(-c2c3nc(c(-c4ccccc4)c4ccc([nH]4)c(-c4ccccc4)c4nc(c(-c5ccccc5)c5ccc2[nH]5)C=C4)C=C3)cc1)[C@H](O)c1ccc(Br)cc1F
REMARK SMILES IDX 11 1 10 2 9 3 8 4 6 5 7 6 5 8 4 9 3 10 2 11 1 12 66 13 68 14
REMARK SMILES IDX 69 15 74 16 70 17 73 18 75 19 71 20 72 21 67 22 12 24 13 25
REMARK SMILES IDX 14 26 15 27 16 28 17 30 18 31 19 32 65 33 20 34 64 35 21 36
REMARK SMILES IDX 22 37 23 38 58 39 24 40 63 41 57 42 59 43 25 44 62 45 56 46
REMARK SMILES IDX 55 47 26 49 48 50 33 51 47 52 34 53 37 54 46 55 60 56 35 57
REMARK SMILES IDX 36 58 45 60 61 61 38 62 27 63 28 64 32 65 29 66 31 67 30 68
REMARK SMILES IDX 49 69 50 70 54 71 51 72 53 73 52 74 39 75 40 76 44 77 41 78
REMARK SMILES IDX 43 79 42 80
REMARK H PARENT 8 7 67 23 15 29 59 48 37 59
REMARK Flexibility Score: inf
ROOT
ATOM      1  C   UNL A   1      34.780  20.931  25.663  1.00  0.00     0.002 C 
ENDROOT
BRANCH   1   2
ATOM      2  C   UNL A   1      33.614  20.320  24.887  1.00  0.00     0.021 C 
BRANCH   2   3
ATOM      3  C   UNL A   1      32.445  21.285  24.650  1.00  0.00     0.116 C 
BRANCH   3   4
ATOM      4  N   UNL A   1      31.937  21.758  25.921  1.00  0.00    -0.356 N 
ATOM      5  C   UNL A   1      31.907  23.014  26.454  1.00  0.00     0.226 C 
ATOM      6  O   UNL A   1      31.762  23.093  27.677  1.00  0.00    -0.275 OA
ATOM      7  H   UNL A   1      31.551  21.059  26.496  1.00  0.00     0.163 HD
BRANCH   5   8
ATOM      8  C   UNL A   1      32.098  24.264  25.577  1.00  0.00     0.112 C 
BRANCH   8   9
ATOM      9  C   UNL A   1      33.569  24.739  25.695  1.00  0.00     0.016 C 
BRANCH   9  10
ATOM     10  C   UNL A   1      34.514  24.512  24.510  1.00  0.00     0.001 C 
BRANCH  10  11
ATOM     11  C   UNL A   1      33.940  24.775  23.116  1.00  0.00    -0.003 C 
ATOM     12  C   UNL A   1      33.590  26.233  22.876  1.00  0.00     0.004 C 
ENDBRANCH  10  11
ENDBRANCH   9  10
ENDBRANCH   8   9
BRANCH   8  13
ATOM     13  C   UNL A   1      31.090  25.348  26.105  1.00  0.00     0.160 C 
BRANCH  13  14
ATOM     14  C   UNL A   1      30.758  26.482  25.132  1.00  0.00     0.017 A 
ATOM     15  C   UNL A   1      31.162  27.801  25.411  1.00  0.00     0.010 A 
ATOM     16  C   UNL A   1      30.023  26.285  23.951  1.00  0.00     0.130 A 
ATOM     17  C   UNL A   1      30.931  28.844  24.506  1.00  0.00     0.016 A 
ATOM     18  C   UNL A   1      29.739  27.327  23.069  1.00  0.00     0.055 A 
ATOM     19  F   UNL A   1      29.526  25.079  23.645  1.00  0.00    -0.207 F 
ATOM     20  C   UNL A   1      30.220  28.601  23.338  1.00  0.00     0.020 A 
ATOM     21  Br  UNL A   1      29.893  30.010  22.123  1.00  0.00    -0.051 Br
ENDBRANCH  13  14
BRANCH  13  22
ATOM     22  O   UNL A   1      29.878  24.687  26.487  1.00  0.00    -0.387 OA
ATOM     23  H   UNL A   1      29.122  25.136  26.079  1.00  0.00     0.211 HD
ENDBRANCH  13  22
ENDBRANCH   8  13
ENDBRANCH   5   8
ENDBRANCH   3   4
ENDBRANCH   2   3
ENDBRANCH   1   2
BRANCH   1  24
ATOM     24  C   UNL A   1      36.026  21.204  24.815  1.00  0.00     0.002 C 
BRANCH  24  25
ATOM     25  C   UNL A   1      37.147  20.167  24.940  1.00  0.00     0.021 C 
BRANCH  25  26
ATOM     26  C   UNL A   1      38.486  20.719  25.424  1.00  0.00     0.116 C 
BRANCH  26  27
ATOM     27  N   UNL A   1      39.470  19.665  25.620  1.00  0.00    -0.352 N 
ATOM     28  C   UNL A   1      40.785  19.752  26.003  1.00  0.00     0.251 C 
ATOM     29  H   UNL A   1      39.143  18.751  25.453  1.00  0.00     0.163 HD
ATOM     30  O   UNL A   1      41.530  18.786  25.886  1.00  0.00    -0.269 OA
BRANCH  28  31
ATOM     31  C   UNL A   1      41.309  21.022  26.548  1.00  0.00     0.039 A 
ATOM     32  C   UNL A   1      41.929  21.927  25.683  1.00  0.00     0.014 A 
ATOM     33  C   UNL A   1      41.194  21.312  27.910  1.00  0.00     0.014 A 
ATOM     34  C   UNL A   1      42.366  23.159  26.172  1.00  0.00     0.010 A 
ATOM     35  C   UNL A   1      41.572  22.565  28.382  1.00  0.00     0.010 A 
ATOM     36  C   UNL A   1      42.152  23.505  27.516  1.00  0.00    -0.014 A 
BRANCH  36  37
ATOM     37  C   UNL A   1      42.487  24.856  28.030  1.00  0.00     0.031 A 
ATOM     38  C   UNL A   1      43.884  25.172  28.487  1.00  0.00     0.074 A 
ATOM     39  C   UNL A   1      41.508  25.772  28.164  1.00  0.00     0.049 A 
ATOM     40  N   UNL A   1      44.339  26.264  29.048  1.00  0.00    -0.248 NA
ATOM     41  C   UNL A   1      44.894  24.117  28.310  1.00  0.00     0.031 C 
ATOM     42  C   UNL A   1      40.108  25.576  27.787  1.00  0.00     0.029 A 
ATOM     43  N   UNL A   1      41.541  27.048  28.668  1.00  0.00    -0.354 N 
ATOM     44  C   UNL A   1      45.684  26.022  29.304  1.00  0.00     0.074 A 
ATOM     45  C   UNL A   1      45.959  24.667  28.877  1.00  0.00     0.031 C 
ATOM     46  C   UNL A   1      39.419  26.697  28.054  1.00  0.00     0.029 A 
ATOM     47  C   UNL A   1      40.317  27.672  28.665  1.00  0.00     0.049 A 
ATOM     48  H   UNL A   1      42.363  27.477  28.999  1.00  0.00     0.167 HD
ATOM     49  C   UNL A   1      46.608  26.859  29.833  1.00  0.00     0.031 A 
ATOM     50  C   UNL A   1      39.951  28.885  29.120  1.00  0.00     0.031 A 
ATOM     51  C   UNL A   1      46.332  28.206  30.257  1.00  0.00     0.049 A 
ATOM     52  C   UNL A   1      40.988  29.777  29.743  1.00  0.00     0.074 A 
ATOM     53  C   UNL A   1      47.214  29.151  30.752  1.00  0.00     0.029 A 
ATOM     54  N   UNL A   1      45.077  28.796  30.245  1.00  0.00    -0.354 N 
ATOM     55  N   UNL A   1      42.269  29.561  29.913  1.00  0.00    -0.248 NA
ATOM     56  C   UNL A   1      40.526  31.083  30.235  1.00  0.00     0.031 C 
ATOM     57  C   UNL A   1      46.482  30.292  31.097  1.00  0.00     0.029 A 
ATOM     58  C   UNL A   1      45.155  30.080  30.759  1.00  0.00     0.049 A 
ATOM     59  H   UNL A   1      44.253  28.367  29.919  1.00  0.00     0.167 HD
ATOM     60  C   UNL A   1      42.771  30.709  30.510  1.00  0.00     0.074 A 
ATOM     61  C   UNL A   1      41.661  31.627  30.655  1.00  0.00     0.031 C 
ATOM     62  C   UNL A   1      44.040  30.979  30.903  1.00  0.00     0.031 A 
BRANCH  49  63
ATOM     63  C   UNL A   1      48.007  26.333  29.997  1.00  0.00    -0.014 A 
ATOM     64  C   UNL A   1      48.956  26.451  28.969  1.00  0.00     0.009 A 
ATOM     65  C   UNL A   1      48.396  25.752  31.215  1.00  0.00     0.009 A 
ATOM     66  C   UNL A   1      50.254  25.965  29.143  1.00  0.00     0.001 A 
ATOM     67  C   UNL A   1      49.702  25.293  31.397  1.00  0.00     0.001 A 
ATOM     68  C   UNL A   1      50.626  25.391  30.359  1.00  0.00     0.000 A 
ENDBRANCH  49  63
BRANCH  50  69
ATOM     69  C   UNL A   1      38.536  29.327  29.008  1.00  0.00    -0.014 A 
ATOM     70  C   UNL A   1      37.664  29.206  30.100  1.00  0.00     0.009 A 
ATOM     71  C   UNL A   1      38.049  29.869  27.808  1.00  0.00     0.009 A 
ATOM     72  C   UNL A   1      36.327  29.594  29.985  1.00  0.00     0.001 A 
ATOM     73  C   UNL A   1      36.720  30.286  27.706  1.00  0.00     0.001 A 
ATOM     74  C   UNL A   1      35.858  30.140  28.791  1.00  0.00     0.000 A 
ENDBRANCH  50  69
BRANCH  62  75
ATOM     75  C   UNL A   1      44.301  32.329  31.508  1.00  0.00    -0.014 A 
ATOM     76  C   UNL A   1      44.624  33.436  30.707  1.00  0.00     0.009 A 
ATOM     77  C   UNL A   1      44.168  32.508  32.894  1.00  0.00     0.009 A 
ATOM     78  C   UNL A   1      44.836  34.688  31.286  1.00  0.00     0.001 A 
ATOM     79  C   UNL A   1      44.351  33.768  33.467  1.00  0.00     0.001 A 
ATOM     80  C   UNL A   1      44.693  34.855  32.664  1.00  0.00     0.000 A 
ENDBRANCH  62  75
ENDBRANCH  36  37
ENDBRANCH  28  31
ENDBRANCH  26  27
ENDBRANCH  25  26
ENDBRANCH  24  25
ENDBRANCH   1  24
TORSDOF 19
ENDMDL
MODEL 3
REMARK VINA RESULT:      -9.9      3.153      7.708
REMARK SMILES CCCC[C@@H](C(=O)NCCCCCCNC(=O)c1ccc(-c2c3nc(c(-c4ccccc4)c4ccc([nH]4)c(-c4ccccc4)c4nc(c(-c5ccccc5)c5ccc2[nH]5)C=C4)C=C3)cc1)[C@H](O)c1ccc(Br)cc1F
REMARK SMILES IDX 11 1 10 2 9 3 8 4 6 5 7 6 5 8 4 9 3 10 2 11 1 12 66 13 68 14
REMARK SMILES IDX 69 15 74 16 70 17 73 18 75 19 71 20 72 21 67 22 12 24 13 25
REMARK SMILES IDX 14 26 15 27 16 28 17 30 18 31 19 32 65 33 20 34 64 35 21 36
REMARK SMILES IDX 22 37 23 38 58 39 24 40 63 41 57 42 59 43 25 44 62 45 56 46
REMARK SMILES IDX 55 47 26 49 48 50 33 51 47 52 34 53 37 54 46 55 60 56 35 57
REMARK SMILES IDX 36 58 45 60 61 61 38 62 27 63 28 64 32 65 29 66 31 67 30 68
REMARK SMILES IDX 49 69 50 70 54 71 51 72 53 73 52 74 39 75 40 76 44 77 41 78
REMARK SMILES IDX 43 79 42 80
REMARK H PARENT 8 7 67 23 15 29 59 48 37 59
REMARK Flexibility Score: inf
ROOT
ATOM      1  C   UNL A   1      31.247  29.196  24.860  1.00  0.00     0.002 C 
ENDROOT
BRANCH   1   2
ATOM      2  C   UNL A   1      31.514  28.838  23.399  1.00  0.00     0.021 C 
BRANCH   2   3
ATOM      3  C   UNL A   1      30.996  27.452  22.989  1.00  0.00     0.116 C 
BRANCH   3   4
ATOM      4  N   UNL A   1      31.776  26.948  21.878  1.00  0.00    -0.356 N 
ATOM      5  C   UNL A   1      32.774  26.018  21.844  1.00  0.00     0.226 C 
ATOM      6  O   UNL A   1      33.512  26.036  20.855  1.00  0.00    -0.275 OA
ATOM      7  H   UNL A   1      31.550  27.340  21.005  1.00  0.00     0.163 HD
BRANCH   5   8
ATOM      8  C   UNL A   1      32.997  25.034  23.006  1.00  0.00     0.112 C 
BRANCH   8   9
ATOM      9  C   UNL A   1      33.909  25.708  24.064  1.00  0.00     0.016 C 
BRANCH   9  10
ATOM     10  C   UNL A   1      33.866  25.195  25.507  1.00  0.00     0.001 C 
BRANCH  10  11
ATOM     11  C   UNL A   1      32.526  24.640  25.998  1.00  0.00    -0.003 C 
ATOM     12  C   UNL A   1      32.669  23.400  26.862  1.00  0.00     0.004 C 
ENDBRANCH  10  11
ENDBRANCH   9  10
ENDBRANCH   8   9
BRANCH   8  13
ATOM     13  C   UNL A   1      33.663  23.750  22.393  1.00  0.00     0.160 C 
BRANCH  13  14
ATOM     14  C   UNL A   1      33.487  22.458  23.196  1.00  0.00     0.017 A 
ATOM     15  C   UNL A   1      32.286  21.728  23.116  1.00  0.00     0.010 A 
ATOM     16  C   UNL A   1      34.475  21.955  24.060  1.00  0.00     0.130 A 
ATOM     17  C   UNL A   1      32.126  20.509  23.785  1.00  0.00     0.016 A 
ATOM     18  C   UNL A   1      34.303  20.770  24.775  1.00  0.00     0.055 A 
ATOM     19  F   UNL A   1      35.616  22.627  24.262  1.00  0.00    -0.207 F 
ATOM     20  C   UNL A   1      33.137  20.036  24.612  1.00  0.00     0.020 A 
ATOM     21  Br  UNL A   1      32.916  18.399  25.529  1.00  0.00    -0.051 Br
ENDBRANCH  13  14
BRANCH  13  22
ATOM     22  O   UNL A   1      33.140  23.558  21.073  1.00  0.00    -0.387 OA
ATOM     23  H   UNL A   1      32.242  23.195  21.131  1.00  0.00     0.211 HD
ENDBRANCH  13  22
ENDBRANCH   8  13
ENDBRANCH   5   8
ENDBRANCH   3   4
ENDBRANCH   2   3
ENDBRANCH   1   2
BRANCH   1  24
ATOM     24  C   UNL A   1      31.445  28.035  25.839  1.00  0.00     0.002 C 
BRANCH  24  25
ATOM     25  C   UNL A   1      32.477  28.276  26.947  1.00  0.00     0.021 C 
BRANCH  25  26
ATOM     26  C   UNL A   1      33.708  29.073  26.519  1.00  0.00     0.116 C 
BRANCH  26  27
ATOM     27  N   UNL A   1      33.691  30.427  27.050  1.00  0.00    -0.352 N 
ATOM     28  C   UNL A   1      34.547  31.033  27.936  1.00  0.00     0.251 C 
ATOM     29  H   UNL A   1      32.954  30.995  26.726  1.00  0.00     0.163 HD
ATOM     30  O   UNL A   1      34.245  32.101  28.457  1.00  0.00    -0.269 OA
BRANCH  28  31
ATOM     31  C   UNL A   1      35.832  30.388  28.274  1.00  0.00     0.039 A 
ATOM     32  C   UNL A   1      36.875  30.425  27.345  1.00  0.00     0.014 A 
ATOM     33  C   UNL A   1      36.001  29.741  29.501  1.00  0.00     0.014 A 
ATOM     34  C   UNL A   1      38.115  29.879  27.679  1.00  0.00     0.010 A 
ATOM     35  C   UNL A   1      37.256  29.254  29.856  1.00  0.00     0.010 A 
ATOM     36  C   UNL A   1      38.327  29.328  28.953  1.00  0.00    -0.014 A 
BRANCH  36  37
ATOM     37  C   UNL A   1      39.670  28.861  29.380  1.00  0.00     0.031 A 
ATOM     38  C   UNL A   1      40.198  27.534  28.912  1.00  0.00     0.074 A 
ATOM     39  C   UNL A   1      40.375  29.598  30.261  1.00  0.00     0.049 A 
ATOM     40  N   UNL A   1      41.305  26.923  29.252  1.00  0.00    -0.248 NA
ATOM     41  C   UNL A   1      39.367  26.790  27.954  1.00  0.00     0.031 C 
ATOM     42  C   UNL A   1      39.956  30.887  30.814  1.00  0.00     0.029 A 
ATOM     43  N   UNL A   1      41.589  29.360  30.855  1.00  0.00    -0.354 N 
ATOM     44  C   UNL A   1      41.295  25.716  28.562  1.00  0.00     0.074 A 
ATOM     45  C   UNL A   1      40.054  25.664  27.820  1.00  0.00     0.031 C 
ATOM     46  C   UNL A   1      40.905  31.335  31.652  1.00  0.00     0.029 A 
ATOM     47  C   UNL A   1      41.974  30.345  31.732  1.00  0.00     0.049 A 
ATOM     48  H   UNL A   1      42.133  28.560  30.671  1.00  0.00     0.167 HD
ATOM     49  C   UNL A   1      42.241  24.748  28.539  1.00  0.00     0.031 A 
ATOM     50  C   UNL A   1      43.057  30.436  32.527  1.00  0.00     0.031 A 
ATOM     51  C   UNL A   1      43.475  24.802  29.279  1.00  0.00     0.049 A 
ATOM     52  C   UNL A   1      44.070  29.325  32.515  1.00  0.00     0.074 A 
ATOM     53  C   UNL A   1      44.521  23.896  29.276  1.00  0.00     0.029 A 
ATOM     54  N   UNL A   1      43.822  25.814  30.161  1.00  0.00    -0.354 N 
ATOM     55  N   UNL A   1      44.080  28.224  31.804  1.00  0.00    -0.248 NA
ATOM     56  C   UNL A   1      45.223  29.473  33.415  1.00  0.00     0.031 C 
ATOM     57  C   UNL A   1      45.475  24.329  30.203  1.00  0.00     0.029 A 
ATOM     58  C   UNL A   1      45.051  25.535  30.737  1.00  0.00     0.049 A 
ATOM     59  H   UNL A   1      43.276  26.611  30.351  1.00  0.00     0.167 HD
ATOM     60  C   UNL A   1      45.248  27.560  32.153  1.00  0.00     0.074 A 
ATOM     61  C   UNL A   1      45.930  28.389  33.124  1.00  0.00     0.031 C 
ATOM     62  C   UNL A   1      45.713  26.367  31.707  1.00  0.00     0.031 A 
BRANCH  49  63
ATOM     63  C   UNL A   1      41.971  23.534  27.694  1.00  0.00    -0.014 A 
ATOM     64  C   UNL A   1      42.470  23.431  26.385  1.00  0.00     0.009 A 
ATOM     65  C   UNL A   1      41.245  22.458  28.229  1.00  0.00     0.009 A 
ATOM     66  C   UNL A   1      42.216  22.292  25.618  1.00  0.00     0.001 A 
ATOM     67  C   UNL A   1      41.018  21.307  27.471  1.00  0.00     0.001 A 
ATOM     68  C   UNL A   1      41.494  21.230  26.163  1.00  0.00     0.000 A 
ENDBRANCH  49  63
BRANCH  50  69
ATOM     69  C   UNL A   1      43.238  31.620  33.407  1.00  0.00    -0.014 A 
ATOM     70  C   UNL A   1      42.722  31.623  34.711  1.00  0.00     0.009 A 
ATOM     71  C   UNL A   1      43.924  32.755  32.946  1.00  0.00     0.009 A 
ATOM     72  C   UNL A   1      42.867  32.747  35.528  1.00  0.00     0.001 A 
ATOM     73  C   UNL A   1      44.095  33.866  33.775  1.00  0.00     0.001 A 
ATOM     74  C   UNL A   1      43.559  33.865  35.061  1.00  0.00     0.000 A 
ENDBRANCH  50  69
BRANCH  62  75
ATOM     75  C   UNL A   1      47.033  25.898  32.249  1.00  0.00    -0.014 A 
ATOM     76  C   UNL A   1      48.240  26.222  31.610  1.00  0.00     0.009 A 
ATOM     77  C   UNL A   1      47.073  25.166  33.447  1.00  0.00     0.009 A 
ATOM     78  C   UNL A   1      49.458  25.799  32.144  1.00  0.00     0.001 A 
ATOM     79  C   UNL A   1      48.294  24.770  33.995  1.00  0.00     0.001 A 
ATOM     80  C   UNL A   1      49.485  25.080  33.340  1.00  0.00     0.000 A 
ENDBRANCH  62  75
ENDBRANCH  36  37
ENDBRANCH  28  31
ENDBRANCH  26  27
ENDBRANCH  25  26
ENDBRANCH  24  25
ENDBRANCH   1  24
TORSDOF 19
ENDMDL
