MODEL 1
REMARK VINA RESULT:     -10.1      0.000      0.000
REMARK SMILES O=C(CCSc1ccccc1F)N[C@H](CO)C(=O)NCCCCCCNC(=O)c1ccc(-c2c3nc(c(-c4ccccc4)c4ccc([nH]4)c(-c4ccccc4)c4nc(c(-c5ccccc5)c5ccc2[nH]5)C=C4)C=C3)cc1
REMARK SMILES IDX 21 1 20 2 19 3 17 4 18 5 14 7 13 8 1 9 2 10 3 12 4 13 5 14
REMARK SMILES IDX 6 15 7 16 11 17 8 18 10 19 12 20 9 21 15 22 16 23 22 25
REMARK SMILES IDX 23 26 24 27 25 28 26 29 27 30 28 32 29 33 30 34 76 35 31 36
REMARK SMILES IDX 75 37 32 38 33 39 34 40 69 41 35 42 74 43 68 44 70 45 36 46
REMARK SMILES IDX 73 47 67 48 66 49 37 51 59 52 44 53 58 54 45 55 48 56 57 57
REMARK SMILES IDX 71 58 46 59 47 60 56 62 72 63 49 64 38 65 39 66 43 67 40 68
REMARK SMILES IDX 42 69 41 70 60 71 61 72 65 73 62 74 64 75 63 76 50 77 51 78
REMARK SMILES IDX 55 79 52 80 54 81 53 82
REMARK H PARENT 19 6 13 11 16 24 26 31 70 50 48 61
REMARK Flexibility Score: inf
ROOT
ATOM      1  C   UNL A   1      33.459  28.894  26.637  1.00  0.00     0.021 C 
ENDROOT
BRANCH   1   2
ATOM      2  C   UNL A   1      33.013  28.715  25.177  1.00  0.00     0.116 C 
BRANCH   2   3
ATOM      3  N   UNL A   1      33.814  27.522  24.369  1.00  0.00    -0.354 N 
ATOM      4  C   UNL A   1      33.619  26.085  23.045  1.00  0.00     0.244 C 
ATOM      5  O   UNL A   1      34.533  25.390  22.488  1.00  0.00    -0.273 OA
ATOM      6  H   UNL A   1      34.754  27.534  24.666  1.00  0.00     0.163 HD
BRANCH   4   7
ATOM      7  C   UNL A   1      32.141  25.494  22.171  1.00  0.00     0.197 C 
BRANCH   7   8
ATOM      8  N   UNL A   1      31.509  24.282  22.760  1.00  0.00    -0.342 N 
ATOM      9  O   UNL A   1      32.915  22.648  21.977  1.00  0.00    -0.275 OA
ATOM     10  C   UNL A   1      32.088  23.038  22.797  1.00  0.00     0.221 C 
ATOM     11  H   UNL A   1      30.611  24.379  23.152  1.00  0.00     0.164 HD
BRANCH  10  12
ATOM     12  C   UNL A   1      31.753  22.231  24.031  1.00  0.00     0.111 C 
BRANCH  12  13
ATOM     13  C   UNL A   1      31.311  23.118  25.198  1.00  0.00     0.085 C 
BRANCH  13  14
ATOM     14  S   UNL A   1      32.365  23.022  26.684  1.00  0.00    -0.123 SA
BRANCH  14  15
ATOM     15  C   UNL A   1      34.008  22.764  26.023  1.00  0.00     0.043 A 
ATOM     16  C   UNL A   1      35.215  24.108  25.666  1.00  0.00     0.018 A 
ATOM     17  C   UNL A   1      34.481  21.033  25.702  1.00  0.00     0.136 A 
ATOM     18  C   UNL A   1      36.895  23.671  25.036  1.00  0.00     0.001 A 
ATOM     19  C   UNL A   1      36.136  20.598  25.061  1.00  0.00     0.040 A 
ATOM     20  F   UNL A   1      33.594  20.047  25.913  1.00  0.00    -0.206 F 
ATOM     21  C   UNL A   1      37.335  21.927  24.751  1.00  0.00     0.003 A 
ENDBRANCH  14  15
ENDBRANCH  13  14
ENDBRANCH  12  13
ENDBRANCH  10  12
ENDBRANCH   7   8
BRANCH   7  22
ATOM     22  C   UNL A   1      31.969  25.714  20.643  1.00  0.00     0.191 C 
BRANCH  22  23
ATOM     23  O   UNL A   1      32.946  24.997  19.885  1.00  0.00    -0.394 OA
ATOM     24  H   UNL A   1      33.157  24.163  20.335  1.00  0.00     0.210 HD
ENDBRANCH  22  23
ENDBRANCH   7  22
ENDBRANCH   4   7
ENDBRANCH   2   3
ENDBRANCH   1   2
BRANCH   1  25
ATOM     25  C   UNL A   1      32.973  30.188  27.277  1.00  0.00     0.002 C 
BRANCH  25  26
ATOM     26  C   UNL A   1      31.655  30.719  26.713  1.00  0.00     0.002 C 
BRANCH  26  27
ATOM     27  C   UNL A   1      31.465  32.231  26.869  1.00  0.00     0.021 C 
BRANCH  27  28
ATOM     28  C   UNL A   1      32.776  33.001  26.960  1.00  0.00     0.116 C 
BRANCH  28  29
ATOM     29  N   UNL A   1      32.602  34.217  27.735  1.00  0.00    -0.352 N 
ATOM     30  C   UNL A   1      33.196  34.561  28.919  1.00  0.00     0.251 C 
ATOM     31  H   UNL A   1      31.977  34.878  27.361  1.00  0.00     0.163 HD
ATOM     32  O   UNL A   1      32.686  35.402  29.650  1.00  0.00    -0.269 OA
BRANCH  30  33
ATOM     33  C   UNL A   1      34.464  33.912  29.292  1.00  0.00     0.039 A 
ATOM     34  C   UNL A   1      35.634  34.268  28.623  1.00  0.00     0.014 A 
ATOM     35  C   UNL A   1      34.485  32.934  30.294  1.00  0.00     0.014 A 
ATOM     36  C   UNL A   1      36.835  33.659  28.980  1.00  0.00     0.010 A 
ATOM     37  C   UNL A   1      35.695  32.400  30.713  1.00  0.00     0.010 A 
ATOM     38  C   UNL A   1      36.879  32.742  30.045  1.00  0.00    -0.014 A 
BRANCH  38  39
ATOM     39  C   UNL A   1      38.158  32.118  30.454  1.00  0.00     0.031 A 
ATOM     40  C   UNL A   1      39.026  32.782  31.487  1.00  0.00     0.074 A 
ATOM     41  C   UNL A   1      38.544  30.963  29.878  1.00  0.00     0.049 A 
ATOM     42  N   UNL A   1      40.180  32.393  31.965  1.00  0.00    -0.248 NA
ATOM     43  C   UNL A   1      38.547  34.060  32.043  1.00  0.00     0.031 C 
ATOM     44  C   UNL A   1      37.799  30.241  28.843  1.00  0.00     0.029 A 
ATOM     45  N   UNL A   1      39.654  30.187  30.089  1.00  0.00    -0.354 N 
ATOM     46  C   UNL A   1      40.557  33.369  32.879  1.00  0.00     0.074 A 
ATOM     47  C   UNL A   1      39.552  34.405  32.834  1.00  0.00     0.031 C 
ATOM     48  C   UNL A   1      38.452  29.106  28.543  1.00  0.00     0.029 A 
ATOM     49  C   UNL A   1      39.683  29.047  29.322  1.00  0.00     0.049 A 
ATOM     50  H   UNL A   1      40.363  30.424  30.729  1.00  0.00     0.167 HD
ATOM     51  C   UNL A   1      41.628  33.386  33.707  1.00  0.00     0.031 A 
ATOM     52  C   UNL A   1      40.605  28.070  29.250  1.00  0.00     0.031 A 
ATOM     53  C   UNL A   1      42.634  32.358  33.742  1.00  0.00     0.049 A 
ATOM     54  C   UNL A   1      41.823  28.156  30.132  1.00  0.00     0.074 A 
ATOM     55  C   UNL A   1      43.752  32.274  34.554  1.00  0.00     0.029 A 
ATOM     56  N   UNL A   1      42.644  31.237  32.927  1.00  0.00    -0.354 N 
ATOM     57  N   UNL A   1      42.133  29.055  31.033  1.00  0.00    -0.248 NA
ATOM     58  C   UNL A   1      42.811  27.078  29.991  1.00  0.00     0.031 C 
ATOM     59  C   UNL A   1      44.471  31.132  34.187  1.00  0.00     0.029 A 
ATOM     60  C   UNL A   1      43.761  30.466  33.202  1.00  0.00     0.049 A 
ATOM     61  H   UNL A   1      41.960  31.020  32.254  1.00  0.00     0.167 HD
ATOM     62  C   UNL A   1      43.330  28.630  31.595  1.00  0.00     0.074 A 
ATOM     63  C   UNL A   1      43.673  27.380  30.950  1.00  0.00     0.031 C 
ATOM     64  C   UNL A   1      44.081  29.219  32.556  1.00  0.00     0.031 A 
BRANCH  51  65
ATOM     65  C   UNL A   1      41.761  34.550  34.650  1.00  0.00    -0.014 A 
ATOM     66  C   UNL A   1      41.231  34.492  35.951  1.00  0.00     0.009 A 
ATOM     67  C   UNL A   1      42.466  35.697  34.258  1.00  0.00     0.009 A 
ATOM     68  C   UNL A   1      41.378  35.569  36.826  1.00  0.00     0.001 A 
ATOM     69  C   UNL A   1      42.642  36.761  35.147  1.00  0.00     0.001 A 
ATOM     70  C   UNL A   1      42.089  36.699  36.426  1.00  0.00     0.000 A 
ENDBRANCH  51  65
BRANCH  52  71
ATOM     71  C   UNL A   1      40.432  26.930  28.311  1.00  0.00    -0.014 A 
ATOM     72  C   UNL A   1      40.968  26.981  27.013  1.00  0.00     0.009 A 
ATOM     73  C   UNL A   1      39.675  25.807  28.683  1.00  0.00     0.009 A 
ATOM     74  C   UNL A   1      40.701  25.963  26.095  1.00  0.00     0.001 A 
ATOM     75  C   UNL A   1      39.446  24.771  27.776  1.00  0.00     0.001 A 
ATOM     76  C   UNL A   1      39.942  24.859  26.478  1.00  0.00     0.000 A 
ENDBRANCH  52  71
BRANCH  64  77
ATOM     77  C   UNL A   1      45.317  28.488  33.008  1.00  0.00    -0.014 A 
ATOM     78  C   UNL A   1      45.276  27.538  34.041  1.00  0.00     0.009 A 
ATOM     79  C   UNL A   1      46.541  28.739  32.366  1.00  0.00     0.009 A 
ATOM     80  C   UNL A   1      46.443  26.892  34.454  1.00  0.00     0.001 A 
ATOM     81  C   UNL A   1      47.697  28.062  32.753  1.00  0.00     0.001 A 
ATOM     82  C   UNL A   1      47.650  27.151  33.806  1.00  0.00     0.000 A 
ENDBRANCH  64  77
ENDBRANCH  38  39
ENDBRANCH  30  33
ENDBRANCH  28  29
ENDBRANCH  27  28
ENDBRANCH  26  27
ENDBRANCH  25  26
ENDBRANCH   1  25
TORSDOF 20
ENDMDL
MODEL 2
REMARK VINA RESULT:      -9.8      0.282      5.930
REMARK SMILES O=C(CCSc1ccccc1F)N[C@H](CO)C(=O)NCCCCCCNC(=O)c1ccc(-c2c3nc(c(-c4ccccc4)c4ccc([nH]4)c(-c4ccccc4)c4nc(c(-c5ccccc5)c5ccc2[nH]5)C=C4)C=C3)cc1
REMARK SMILES IDX 21 1 20 2 19 3 17 4 18 5 14 7 13 8 1 9 2 10 3 12 4 13 5 14
REMARK SMILES IDX 6 15 7 16 11 17 8 18 10 19 12 20 9 21 15 22 16 23 22 25
REMARK SMILES IDX 23 26 24 27 25 28 26 29 27 30 28 32 29 33 30 34 76 35 31 36
REMARK SMILES IDX 75 37 32 38 33 39 34 40 69 41 35 42 74 43 68 44 70 45 36 46
REMARK SMILES IDX 73 47 67 48 66 49 37 51 59 52 44 53 58 54 45 55 48 56 57 57
REMARK SMILES IDX 71 58 46 59 47 60 56 62 72 63 49 64 38 65 39 66 43 67 40 68
REMARK SMILES IDX 42 69 41 70 60 71 61 72 65 73 62 74 64 75 63 76 50 77 51 78
REMARK SMILES IDX 55 79 52 80 54 81 53 82
REMARK H PARENT 19 6 13 11 16 24 26 31 70 50 48 61
REMARK Flexibility Score: inf
ROOT
ATOM      1  C   UNL A   1      33.371  28.879  26.614  1.00  0.00     0.021 C 
ENDROOT
BRANCH   1   2
ATOM      2  C   UNL A   1      32.925  28.732  25.150  1.00  0.00     0.116 C 
BRANCH   2   3
ATOM      3  N   UNL A   1      33.736  27.566  24.313  1.00  0.00    -0.354 N 
ATOM      4  C   UNL A   1      33.544  26.132  22.985  1.00  0.00     0.244 C 
ATOM      5  O   UNL A   1      34.462  25.466  22.398  1.00  0.00    -0.273 OA
ATOM      6  H   UNL A   1      34.683  27.603  24.583  1.00  0.00     0.163 HD
BRANCH   4   7
ATOM      7  C   UNL A   1      32.060  25.506  22.148  1.00  0.00     0.197 C 
BRANCH   7   8
ATOM      8  N   UNL A   1      31.499  24.252  22.725  1.00  0.00    -0.342 N 
ATOM      9  O   UNL A   1      32.989  22.710  21.913  1.00  0.00    -0.275 OA
ATOM     10  C   UNL A   1      32.147  23.042  22.742  1.00  0.00     0.221 C 
ATOM     11  H   UNL A   1      30.599  24.294  23.122  1.00  0.00     0.164 HD
BRANCH  10  12
ATOM     12  C   UNL A   1      31.864  22.202  23.967  1.00  0.00     0.111 C 
BRANCH  12  13
ATOM     13  C   UNL A   1      31.325  23.040  25.129  1.00  0.00     0.085 C 
BRANCH  13  14
ATOM     14  S   UNL A   1      32.391  23.085  26.609  1.00  0.00    -0.123 SA
BRANCH  14  15
ATOM     15  C   UNL A   1      34.033  22.798  25.957  1.00  0.00     0.043 A 
ATOM     16  C   UNL A   1      35.244  24.125  25.549  1.00  0.00     0.018 A 
ATOM     17  C   UNL A   1      34.501  21.055  25.702  1.00  0.00     0.136 A 
ATOM     18  C   UNL A   1      36.922  23.660  24.935  1.00  0.00     0.001 A 
ATOM     19  C   UNL A   1      36.155  20.592  25.077  1.00  0.00     0.040 A 
ATOM     20  F   UNL A   1      33.613  20.080  25.951  1.00  0.00    -0.206 F 
ATOM     21  C   UNL A   1      37.357  21.905  24.716  1.00  0.00     0.003 A 
ENDBRANCH  14  15
ENDBRANCH  13  14
ENDBRANCH  12  13
ENDBRANCH  10  12
ENDBRANCH   7   8
BRANCH   7  22
ATOM     22  C   UNL A   1      31.822  25.760  20.635  1.00  0.00     0.191 C 
BRANCH  22  23
ATOM     23  O   UNL A   1      33.027  25.647  19.876  1.00  0.00    -0.394 OA
ATOM     24  H   UNL A   1      32.829  25.252  19.011  1.00  0.00     0.210 HD
ENDBRANCH  22  23
ENDBRANCH   7  22
ENDBRANCH   4   7
ENDBRANCH   2   3
ENDBRANCH   1   2
BRANCH   1  25
ATOM     25  C   UNL A   1      32.945  30.192  27.260  1.00  0.00     0.002 C 
BRANCH  25  26
ATOM     26  C   UNL A   1      31.667  30.799  26.682  1.00  0.00     0.002 C 
BRANCH  26  27
ATOM     27  C   UNL A   1      31.545  32.314  26.872  1.00  0.00     0.021 C 
BRANCH  27  28
ATOM     28  C   UNL A   1      32.880  33.002  27.123  1.00  0.00     0.116 C 
BRANCH  28  29
ATOM     29  N   UNL A   1      32.687  34.235  27.868  1.00  0.00    -0.352 N 
ATOM     30  C   UNL A   1      33.256  34.607  29.055  1.00  0.00     0.251 C 
ATOM     31  H   UNL A   1      32.067  34.885  27.467  1.00  0.00     0.163 HD
ATOM     32  O   UNL A   1      32.729  35.462  29.758  1.00  0.00    -0.269 OA
BRANCH  30  33
ATOM     33  C   UNL A   1      34.519  33.971  29.468  1.00  0.00     0.039 A 
ATOM     34  C   UNL A   1      35.699  34.313  28.810  1.00  0.00     0.014 A 
ATOM     35  C   UNL A   1      34.524  33.020  30.494  1.00  0.00     0.014 A 
ATOM     36  C   UNL A   1      36.895  33.717  29.204  1.00  0.00     0.010 A 
ATOM     37  C   UNL A   1      35.728  32.500  30.948  1.00  0.00     0.010 A 
ATOM     38  C   UNL A   1      36.922  32.828  30.293  1.00  0.00    -0.014 A 
BRANCH  38  39
ATOM     39  C   UNL A   1      38.196  32.218  30.740  1.00  0.00     0.031 A 
ATOM     40  C   UNL A   1      38.663  30.920  30.140  1.00  0.00     0.074 A 
ATOM     41  C   UNL A   1      38.918  32.826  31.701  1.00  0.00     0.049 A 
ATOM     42  N   UNL A   1      39.743  30.232  30.409  1.00  0.00    -0.248 NA
ATOM     43  C   UNL A   1      37.798  30.304  29.118  1.00  0.00     0.031 C 
ATOM     44  C   UNL A   1      38.550  34.072  32.378  1.00  0.00     0.029 A 
ATOM     45  N   UNL A   1      40.118  32.483  32.268  1.00  0.00    -0.354 N 
ATOM     46  C   UNL A   1      39.690  29.113  29.587  1.00  0.00     0.074 A 
ATOM     47  C   UNL A   1      38.438  29.172  28.868  1.00  0.00     0.031 C 
ATOM     48  C   UNL A   1      39.526  34.411  33.236  1.00  0.00     0.029 A 
ATOM     49  C   UNL A   1      40.559  33.382  33.209  1.00  0.00     0.049 A 
ATOM     50  H   UNL A   1      40.616  31.669  32.025  1.00  0.00     0.167 HD
ATOM     51  C   UNL A   1      40.616  28.139  29.421  1.00  0.00     0.031 A 
ATOM     52  C   UNL A   1      41.669  33.371  33.969  1.00  0.00     0.031 A 
ATOM     53  C   UNL A   1      41.856  28.076  30.147  1.00  0.00     0.049 A 
ATOM     54  C   UNL A   1      42.644  32.234  33.813  1.00  0.00     0.074 A 
ATOM     55  C   UNL A   1      42.868  27.138  30.044  1.00  0.00     0.029 A 
ATOM     56  N   UNL A   1      42.251  28.988  31.114  1.00  0.00    -0.354 N 
ATOM     57  N   UNL A   1      42.606  31.216  32.989  1.00  0.00    -0.248 NA
ATOM     58  C   UNL A   1      43.823  32.256  34.689  1.00  0.00     0.031 C 
ATOM     59  C   UNL A   1      43.848  27.448  30.991  1.00  0.00     0.029 A 
ATOM     60  C   UNL A   1      43.483  28.622  31.630  1.00  0.00     0.049 A 
ATOM     61  H   UNL A   1      41.734  29.778  31.391  1.00  0.00     0.167 HD
ATOM     62  C   UNL A   1      43.775  30.501  33.219  1.00  0.00     0.074 A 
ATOM     63  C   UNL A   1      44.509  31.217  34.240  1.00  0.00     0.031 C 
ATOM     64  C   UNL A   1      44.204  29.353  32.639  1.00  0.00     0.031 A 
BRANCH  51  65
ATOM     65  C   UNL A   1      40.323  27.066  28.408  1.00  0.00    -0.014 A 
ATOM     66  C   UNL A   1      40.837  27.146  27.102  1.00  0.00     0.009 A 
ATOM     67  C   UNL A   1      39.573  25.939  28.772  1.00  0.00     0.009 A 
ATOM     68  C   UNL A   1      40.579  26.135  26.175  1.00  0.00     0.001 A 
ATOM     69  C   UNL A   1      39.344  24.912  27.853  1.00  0.00     0.001 A 
ATOM     70  C   UNL A   1      39.839  25.016  26.553  1.00  0.00     0.000 A 
ENDBRANCH  51  65
BRANCH  52  71
ATOM     71  C   UNL A   1      41.926  34.457  34.954  1.00  0.00    -0.014 A 
ATOM     72  C   UNL A   1      41.436  34.365  36.267  1.00  0.00     0.009 A 
ATOM     73  C   UNL A   1      42.609  35.621  34.569  1.00  0.00     0.009 A 
ATOM     74  C   UNL A   1      41.574  35.436  37.152  1.00  0.00     0.001 A 
ATOM     75  C   UNL A   1      42.783  36.673  35.469  1.00  0.00     0.001 A 
ATOM     76  C   UNL A   1      42.248  36.588  36.753  1.00  0.00     0.000 A 
ENDBRANCH  52  71
BRANCH  64  77
ATOM     77  C   UNL A   1      45.554  28.835  33.056  1.00  0.00    -0.014 A 
ATOM     78  C   UNL A   1      46.728  29.218  32.391  1.00  0.00     0.009 A 
ATOM     79  C   UNL A   1      45.650  27.966  34.156  1.00  0.00     0.009 A 
ATOM     80  C   UNL A   1      47.965  28.704  32.786  1.00  0.00     0.001 A 
ATOM     81  C   UNL A   1      46.891  27.485  34.574  1.00  0.00     0.001 A 
ATOM     82  C   UNL A   1      48.045  27.842  33.880  1.00  0.00     0.000 A 
ENDBRANCH  64  77
ENDBRANCH  38  39
ENDBRANCH  30  33
ENDBRANCH  28  29
ENDBRANCH  27  28
ENDBRANCH  26  27
ENDBRANCH  25  26
ENDBRANCH   1  25
TORSDOF 20
ENDMDL
MODEL 3
REMARK VINA RESULT:      -9.6      2.939      4.780
REMARK SMILES O=C(CCSc1ccccc1F)N[C@H](CO)C(=O)NCCCCCCNC(=O)c1ccc(-c2c3nc(c(-c4ccccc4)c4ccc([nH]4)c(-c4ccccc4)c4nc(c(-c5ccccc5)c5ccc2[nH]5)C=C4)C=C3)cc1
REMARK SMILES IDX 21 1 20 2 19 3 17 4 18 5 14 7 13 8 1 9 2 10 3 12 4 13 5 14
REMARK SMILES IDX 6 15 7 16 11 17 8 18 10 19 12 20 9 21 15 22 16 23 22 25
REMARK SMILES IDX 23 26 24 27 25 28 26 29 27 30 28 32 29 33 30 34 76 35 31 36
REMARK SMILES IDX 75 37 32 38 33 39 34 40 69 41 35 42 74 43 68 44 70 45 36 46
REMARK SMILES IDX 73 47 67 48 66 49 37 51 59 52 44 53 58 54 45 55 48 56 57 57
REMARK SMILES IDX 71 58 46 59 47 60 56 62 72 63 49 64 38 65 39 66 43 67 40 68
REMARK SMILES IDX 42 69 41 70 60 71 61 72 65 73 62 74 64 75 63 76 50 77 51 78
REMARK SMILES IDX 55 79 52 80 54 81 53 82
REMARK H PARENT 19 6 13 11 16 24 26 31 70 50 48 61
REMARK Flexibility Score: inf
ROOT
ATOM      1  C   UNL A   1      35.031  24.626  25.590  1.00  0.00     0.021 C 
ENDROOT
BRANCH   1   2
ATOM      2  C   UNL A   1      35.028  23.765  24.316  1.00  0.00     0.116 C 
BRANCH   2   3
ATOM      3  N   UNL A   1      35.468  22.196  24.563  1.00  0.00    -0.354 N 
ATOM      4  C   UNL A   1      34.790  20.363  24.759  1.00  0.00     0.244 C 
ATOM      5  O   UNL A   1      35.452  19.272  24.793  1.00  0.00    -0.273 OA
ATOM      6  H   UNL A   1      36.449  22.166  24.645  1.00  0.00     0.163 HD
BRANCH   4   7
ATOM      7  C   UNL A   1      33.084  19.744  24.778  1.00  0.00     0.197 C 
BRANCH   7   8
ATOM      8  N   UNL A   1      32.040  20.792  24.951  1.00  0.00    -0.342 N 
ATOM      9  O   UNL A   1      32.782  21.815  26.866  1.00  0.00    -0.275 OA
ATOM     10  C   UNL A   1      32.130  21.847  25.825  1.00  0.00     0.221 C 
ATOM     11  H   UNL A   1      31.228  20.725  24.400  1.00  0.00     0.164 HD
BRANCH  10  12
ATOM     12  C   UNL A   1      31.493  23.125  25.328  1.00  0.00     0.111 C 
BRANCH  12  13
ATOM     13  C   UNL A   1      31.507  23.219  23.799  1.00  0.00     0.085 C 
BRANCH  13  14
ATOM     14  S   UNL A   1      30.329  24.416  23.088  1.00  0.00    -0.123 SA
BRANCH  14  15
ATOM     15  C   UNL A   1      31.296  25.913  22.919  1.00  0.00     0.043 A 
ATOM     16  C   UNL A   1      32.974  25.995  22.163  1.00  0.00     0.018 A 
ATOM     17  C   UNL A   1      30.524  27.441  23.546  1.00  0.00     0.136 A 
ATOM     18  C   UNL A   1      33.818  27.630  22.013  1.00  0.00     0.001 A 
ATOM     19  C   UNL A   1      31.365  29.058  23.416  1.00  0.00     0.040 A 
ATOM     20  F   UNL A   1      29.323  27.388  24.141  1.00  0.00    -0.206 F 
ATOM     21  C   UNL A   1      33.003  29.137  22.631  1.00  0.00     0.003 A 
ENDBRANCH  14  15
ENDBRANCH  13  14
ENDBRANCH  12  13
ENDBRANCH  10  12
ENDBRANCH   7   8
BRANCH   7  22
ATOM     22  C   UNL A   1      32.751  18.318  25.296  1.00  0.00     0.191 C 
BRANCH  22  23
ATOM     23  O   UNL A   1      32.902  18.214  26.713  1.00  0.00    -0.394 OA
ATOM     24  H   UNL A   1      33.761  17.811  26.918  1.00  0.00     0.210 HD
ENDBRANCH  22  23
ENDBRANCH   7  22
ENDBRANCH   4   7
ENDBRANCH   2   3
ENDBRANCH   1   2
BRANCH   1  25
ATOM     25  C   UNL A   1      33.816  25.535  25.724  1.00  0.00     0.002 C 
BRANCH  25  26
ATOM     26  C   UNL A   1      34.121  27.027  25.592  1.00  0.00     0.002 C 
BRANCH  26  27
ATOM     27  C   UNL A   1      33.083  27.945  26.244  1.00  0.00     0.021 C 
BRANCH  27  28
ATOM     28  C   UNL A   1      33.526  28.500  27.591  1.00  0.00     0.116 C 
BRANCH  28  29
ATOM     29  N   UNL A   1      33.545  29.952  27.564  1.00  0.00    -0.352 N 
ATOM     30  C   UNL A   1      34.476  30.799  28.100  1.00  0.00     0.251 C 
ATOM     31  H   UNL A   1      32.791  30.382  27.100  1.00  0.00     0.163 HD
ATOM     32  O   UNL A   1      34.187  31.964  28.351  1.00  0.00    -0.269 OA
BRANCH  30  33
ATOM     33  C   UNL A   1      35.833  30.290  28.358  1.00  0.00     0.039 A 
ATOM     34  C   UNL A   1      36.773  30.306  27.329  1.00  0.00     0.014 A 
ATOM     35  C   UNL A   1      36.164  29.778  29.618  1.00  0.00     0.014 A 
ATOM     36  C   UNL A   1      38.060  29.831  27.574  1.00  0.00     0.010 A 
ATOM     37  C   UNL A   1      37.471  29.395  29.887  1.00  0.00     0.010 A 
ATOM     38  C   UNL A   1      38.425  29.398  28.861  1.00  0.00    -0.014 A 
BRANCH  38  39
ATOM     39  C   UNL A   1      39.801  28.925  29.138  1.00  0.00     0.031 A 
ATOM     40  C   UNL A   1      40.784  29.828  29.831  1.00  0.00     0.074 A 
ATOM     41  C   UNL A   1      40.167  27.690  28.746  1.00  0.00     0.049 A 
ATOM     42  N   UNL A   1      42.032  29.594  30.151  1.00  0.00    -0.248 NA
ATOM     43  C   UNL A   1      40.314  31.176  30.198  1.00  0.00     0.031 C 
ATOM     44  C   UNL A   1      39.309  26.735  28.038  1.00  0.00     0.029 A 
ATOM     45  N   UNL A   1      41.353  27.020  28.896  1.00  0.00    -0.354 N 
ATOM     46  C   UNL A   1      42.488  30.756  30.760  1.00  0.00     0.074 A 
ATOM     47  C   UNL A   1      41.413  31.720  30.697  1.00  0.00     0.031 C 
ATOM     48  C   UNL A   1      39.983  25.588  27.857  1.00  0.00     0.029 A 
ATOM     49  C   UNL A   1      41.334  25.745  28.384  1.00  0.00     0.049 A 
ATOM     50  H   UNL A   1      42.144  27.415  29.328  1.00  0.00     0.167 HD
ATOM     51  C   UNL A   1      43.684  30.991  31.349  1.00  0.00     0.031 A 
ATOM     52  C   UNL A   1      42.302  24.811  28.339  1.00  0.00     0.031 A 
ATOM     53  C   UNL A   1      44.756  30.034  31.401  1.00  0.00     0.049 A 
ATOM     54  C   UNL A   1      43.646  25.129  28.937  1.00  0.00     0.074 A 
ATOM     55  C   UNL A   1      46.004  30.168  31.985  1.00  0.00     0.029 A 
ATOM     56  N   UNL A   1      44.709  28.766  30.843  1.00  0.00    -0.354 N 
ATOM     57  N   UNL A   1      44.040  26.212  29.562  1.00  0.00    -0.248 NA
ATOM     58  C   UNL A   1      44.674  24.086  28.834  1.00  0.00     0.031 C 
ATOM     59  C   UNL A   1      46.732  29.003  31.728  1.00  0.00     0.029 A 
ATOM     60  C   UNL A   1      45.913  28.114  31.051  1.00  0.00     0.049 A 
ATOM     61  H   UNL A   1      43.935  28.384  30.370  1.00  0.00     0.167 HD
ATOM     62  C   UNL A   1      45.348  25.963  29.961  1.00  0.00     0.074 A 
ATOM     63  C   UNL A   1      45.667  24.618  29.530  1.00  0.00     0.031 C 
ATOM     64  C   UNL A   1      46.209  26.772  30.623  1.00  0.00     0.031 A 
BRANCH  51  65
ATOM     65  C   UNL A   1      43.891  32.334  31.994  1.00  0.00    -0.014 A 
ATOM     66  C   UNL A   1      44.501  33.387  31.290  1.00  0.00     0.009 A 
ATOM     67  C   UNL A   1      43.428  32.570  33.296  1.00  0.00     0.009 A 
ATOM     68  C   UNL A   1      44.669  34.637  31.889  1.00  0.00     0.001 A 
ATOM     69  C   UNL A   1      43.566  33.831  33.881  1.00  0.00     0.001 A 
ATOM     70  C   UNL A   1      44.195  34.860  33.180  1.00  0.00     0.000 A 
ENDBRANCH  51  65
BRANCH  52  71
ATOM     71  C   UNL A   1      42.053  23.490  27.700  1.00  0.00    -0.014 A 
ATOM     72  C   UNL A   1      42.374  23.274  26.349  1.00  0.00     0.009 A 
ATOM     73  C   UNL A   1      41.436  22.455  28.420  1.00  0.00     0.009 A 
ATOM     74  C   UNL A   1      42.029  22.076  25.721  1.00  0.00     0.001 A 
ATOM     75  C   UNL A   1      41.131  21.242  27.800  1.00  0.00     0.001 A 
ATOM     76  C   UNL A   1      41.410  21.061  26.447  1.00  0.00     0.000 A 
ENDBRANCH  52  71
BRANCH  64  77
ATOM     77  C   UNL A   1      47.558  26.202  30.972  1.00  0.00    -0.014 A 
ATOM     78  C   UNL A   1      47.828  25.670  32.242  1.00  0.00     0.009 A 
ATOM     79  C   UNL A   1      48.569  26.176  29.996  1.00  0.00     0.009 A 
ATOM     80  C   UNL A   1      49.096  25.168  32.543  1.00  0.00     0.001 A 
ATOM     81  C   UNL A   1      49.822  25.637  30.287  1.00  0.00     0.001 A 
ATOM     82  C   UNL A   1      50.089  25.148  31.564  1.00  0.00     0.000 A 
ENDBRANCH  64  77
ENDBRANCH  38  39
ENDBRANCH  30  33
ENDBRANCH  28  29
ENDBRANCH  27  28
ENDBRANCH  26  27
ENDBRANCH  25  26
ENDBRANCH   1  25
TORSDOF 20
ENDMDL
