MODEL 1
REMARK VINA RESULT:     -10.8      0.000      0.000
REMARK SMILES C[C@@H]1C[N@@H+](Cc2cccc(C(=O)NCCCCCCNC(=O)c3ccc(-c4c5nc(c(-c6ccccc6)c6ccc([nH]6)c(-c6ccccc6)c6nc(c(-c7ccccc7)c7ccc4[nH]7)C=C6)C=C5)cc3)c2)CCN1C(=O)OC(C)(C)C
REMARK SMILES IDX 15 1 14 2 13 3 11 4 12 5 10 7 6 8 7 9 71 10 8 11 9 12 5 13
REMARK SMILES IDX 4 14 1 15 2 16 3 17 74 18 73 19 72 20 75 22 76 23 77 24
REMARK SMILES IDX 78 25 79 26 80 27 81 28 16 29 17 30 18 31 19 32 20 33 21 34
REMARK SMILES IDX 22 36 23 37 24 38 70 39 25 40 69 41 26 42 27 43 28 44 63 45
REMARK SMILES IDX 29 46 68 47 62 48 64 49 30 50 67 51 61 52 60 53 31 55 53 56
REMARK SMILES IDX 38 57 52 58 39 59 42 60 51 61 65 62 40 63 41 64 50 66 66 67
REMARK SMILES IDX 43 68 32 69 33 70 37 71 34 72 36 73 35 74 54 75 55 76 59 77
REMARK SMILES IDX 56 78 58 79 57 80 44 81 45 82 49 83 46 84 48 85 47 86
REMARK H PARENT 13 6 4 21 20 35 64 54 42 65
REMARK Flexibility Score: inf
ROOT
ATOM      1  C   UNL A   1      39.276  21.278  25.975  1.00  0.00     0.021 C 
ENDROOT
BRANCH   1   2
ATOM      2  C   UNL A   1      38.238  22.396  25.892  1.00  0.00     0.116 C 
BRANCH   2   3
ATOM      3  N   UNL A   1      37.802  22.605  24.530  1.00  0.00    -0.352 N 
ATOM      4  C   UNL A   1      36.562  22.705  23.952  1.00  0.00     0.251 C 
ATOM      5  O   UNL A   1      36.529  22.947  22.744  1.00  0.00    -0.269 OA
ATOM      6  H   UNL A   1      38.544  22.691  23.889  1.00  0.00     0.163 HD
BRANCH   4   7
ATOM      7  C   UNL A   1      35.273  22.621  24.707  1.00  0.00     0.040 A 
ATOM      8  C   UNL A   1      33.367  23.586  25.901  1.00  0.00     0.007 A 
ATOM      9  C   UNL A   1      32.703  22.356  25.822  1.00  0.00     0.009 A 
ATOM     10  C   UNL A   1      34.698  23.663  25.440  1.00  0.00     0.023 A 
ATOM     11  C   UNL A   1      33.323  21.259  25.226  1.00  0.00     0.001 A 
ATOM     12  C   UNL A   1      34.582  21.403  24.638  1.00  0.00     0.014 A 
BRANCH   8  13
ATOM     13  C   UNL A   1      32.639  24.822  26.410  1.00  0.00     0.299 C 
BRANCH  13  14
ATOM     14  N   UNL A   1      32.385  25.907  25.428  1.00  0.00    -0.328 N 
ATOM     15  C   UNL A   1      32.536  28.967  24.605  1.00  0.00     0.037 C 
ATOM     16  C   UNL A   1      31.278  28.148  24.913  1.00  0.00     0.140 C 
ATOM     17  C   UNL A   1      31.571  27.025  25.967  1.00  0.00     0.287 C 
ATOM     18  N   UNL A   1      30.732  27.551  23.679  1.00  0.00    -0.294 N 
ATOM     19  C   UNL A   1      31.544  26.478  23.115  1.00  0.00     0.185 C 
ATOM     20  C   UNL A   1      31.768  25.407  24.186  1.00  0.00     0.284 C 
ATOM     21  H   UNL A   1      33.313  26.274  25.215  1.00  0.00     0.348 HD
BRANCH  18  22
ATOM     22  C   UNL A   1      29.458  27.758  23.177  1.00  0.00     0.410 C 
ATOM     23  O   UNL A   1      28.499  27.070  23.500  1.00  0.00    -0.224 OA
BRANCH  22  24
ATOM     24  O   UNL A   1      29.389  28.794  22.297  1.00  0.00    -0.444 OA
BRANCH  24  25
ATOM     25  C   UNL A   1      28.559  29.952  22.597  1.00  0.00     0.106 C 
ATOM     26  C   UNL A   1      27.178  29.533  23.120  1.00  0.00     0.056 C 
ATOM     27  C   UNL A   1      29.258  30.924  23.556  1.00  0.00     0.056 C 
ATOM     28  C   UNL A   1      28.363  30.668  21.250  1.00  0.00     0.056 C 
ENDBRANCH  24  25
ENDBRANCH  22  24
ENDBRANCH  18  22
ENDBRANCH  13  14
ENDBRANCH   8  13
ENDBRANCH   4   7
ENDBRANCH   2   3
ENDBRANCH   1   2
BRANCH   1  29
ATOM     29  C   UNL A   1      40.665  21.800  26.353  1.00  0.00     0.002 C 
BRANCH  29  30
ATOM     30  C   UNL A   1      41.599  20.737  26.947  1.00  0.00     0.002 C 
BRANCH  30  31
ATOM     31  C   UNL A   1      41.794  19.490  26.082  1.00  0.00     0.021 C 
BRANCH  31  32
ATOM     32  C   UNL A   1      43.144  18.808  26.269  1.00  0.00     0.116 C 
BRANCH  32  33
ATOM     33  N   UNL A   1      43.865  18.687  25.010  1.00  0.00    -0.352 N 
ATOM     34  C   UNL A   1      44.409  19.665  24.219  1.00  0.00     0.251 C 
ATOM     35  H   UNL A   1      43.978  17.768  24.678  1.00  0.00     0.163 HD
ATOM     36  O   UNL A   1      44.765  19.408  23.073  1.00  0.00    -0.269 OA
BRANCH  34  37
ATOM     37  C   UNL A   1      44.562  21.034  24.750  1.00  0.00     0.039 A 
ATOM     38  C   UNL A   1      45.174  21.215  25.992  1.00  0.00     0.014 A 
ATOM     39  C   UNL A   1      44.086  22.132  24.030  1.00  0.00     0.014 A 
ATOM     40  C   UNL A   1      45.355  22.506  26.488  1.00  0.00     0.010 A 
ATOM     41  C   UNL A   1      44.339  23.421  24.488  1.00  0.00     0.010 A 
ATOM     42  C   UNL A   1      44.968  23.620  25.725  1.00  0.00    -0.014 A 
BRANCH  42  43
ATOM     43  C   UNL A   1      45.212  25.001  26.207  1.00  0.00     0.031 A 
ATOM     44  C   UNL A   1      44.082  25.819  26.768  1.00  0.00     0.074 A 
ATOM     45  C   UNL A   1      46.441  25.539  26.085  1.00  0.00     0.049 A 
ATOM     46  N   UNL A   1      44.092  27.058  27.194  1.00  0.00    -0.248 NA
ATOM     47  C   UNL A   1      42.762  25.171  26.837  1.00  0.00     0.031 C 
ATOM     48  C   UNL A   1      47.613  24.860  25.525  1.00  0.00     0.029 A 
ATOM     49  N   UNL A   1      46.910  26.783  26.424  1.00  0.00    -0.354 N 
ATOM     50  C   UNL A   1      42.784  27.338  27.567  1.00  0.00     0.074 A 
ATOM     51  C   UNL A   1      41.996  26.163  27.266  1.00  0.00     0.031 C 
ATOM     52  C   UNL A   1      48.670  25.685  25.589  1.00  0.00     0.029 A 
ATOM     53  C   UNL A   1      48.244  26.963  26.149  1.00  0.00     0.049 A 
ATOM     54  H   UNL A   1      46.344  27.481  26.827  1.00  0.00     0.167 HD
ATOM     55  C   UNL A   1      42.285  28.464  28.130  1.00  0.00     0.031 A 
ATOM     56  C   UNL A   1      49.034  28.039  26.321  1.00  0.00     0.031 A 
ATOM     57  C   UNL A   1      43.071  29.631  28.429  1.00  0.00     0.049 A 
ATOM     58  C   UNL A   1      48.449  29.289  26.917  1.00  0.00     0.074 A 
ATOM     59  C   UNL A   1      42.671  30.805  29.044  1.00  0.00     0.029 A 
ATOM     60  N   UNL A   1      44.417  29.775  28.129  1.00  0.00    -0.354 N 
ATOM     61  N   UNL A   1      47.225  29.514  27.330  1.00  0.00    -0.248 NA
ATOM     62  C   UNL A   1      49.360  30.430  27.081  1.00  0.00     0.031 C 
ATOM     63  C   UNL A   1      43.758  31.683  29.059  1.00  0.00     0.029 A 
ATOM     64  C   UNL A   1      44.855  31.030  28.517  1.00  0.00     0.049 A 
ATOM     65  H   UNL A   1      44.978  29.088  27.702  1.00  0.00     0.167 HD
ATOM     66  C   UNL A   1      47.227  30.809  27.831  1.00  0.00     0.074 A 
ATOM     67  C   UNL A   1      48.578  31.312  27.687  1.00  0.00     0.031 C 
ATOM     68  C   UNL A   1      46.202  31.518  28.366  1.00  0.00     0.031 A 
BRANCH  55  69
ATOM     69  C   UNL A   1      40.814  28.490  28.445  1.00  0.00    -0.014 A 
ATOM     70  C   UNL A   1      40.302  27.870  29.597  1.00  0.00     0.009 A 
ATOM     71  C   UNL A   1      39.930  29.177  27.598  1.00  0.00     0.009 A 
ATOM     72  C   UNL A   1      38.934  27.902  29.871  1.00  0.00     0.001 A 
ATOM     73  C   UNL A   1      38.567  29.236  27.892  1.00  0.00     0.001 A 
ATOM     74  C   UNL A   1      38.069  28.590  29.022  1.00  0.00     0.000 A 
ENDBRANCH  55  69
BRANCH  56  75
ATOM     75  C   UNL A   1      50.469  27.982  25.931  1.00  0.00    -0.014 A 
ATOM     76  C   UNL A   1      50.858  28.215  24.603  1.00  0.00     0.009 A 
ATOM     77  C   UNL A   1      51.456  27.684  26.884  1.00  0.00     0.009 A 
ATOM     78  C   UNL A   1      52.201  28.119  24.232  1.00  0.00     0.001 A 
ATOM     79  C   UNL A   1      52.802  27.622  26.516  1.00  0.00     0.001 A 
ATOM     80  C   UNL A   1      53.172  27.827  25.188  1.00  0.00     0.000 A 
ENDBRANCH  56  75
BRANCH  68  81
ATOM     81  C   UNL A   1      46.511  32.900  28.870  1.00  0.00    -0.014 A 
ATOM     82  C   UNL A   1      46.900  33.128  30.200  1.00  0.00     0.009 A 
ATOM     83  C   UNL A   1      46.451  33.989  27.985  1.00  0.00     0.009 A 
ATOM     84  C   UNL A   1      47.184  34.421  30.640  1.00  0.00     0.001 A 
ATOM     85  C   UNL A   1      46.769  35.276  28.420  1.00  0.00     0.001 A 
ATOM     86  C   UNL A   1      47.125  35.492  29.749  1.00  0.00     0.000 A 
ENDBRANCH  68  81
ENDBRANCH  42  43
ENDBRANCH  34  37
ENDBRANCH  32  33
ENDBRANCH  31  32
ENDBRANCH  30  31
ENDBRANCH  29  30
ENDBRANCH   1  29
TORSDOF 18
ENDMDL
MODEL 2
REMARK VINA RESULT:     -10.7      6.315     11.749
REMARK SMILES C[C@@H]1C[N@@H+](Cc2cccc(C(=O)NCCCCCCNC(=O)c3ccc(-c4c5nc(c(-c6ccccc6)c6ccc([nH]6)c(-c6ccccc6)c6nc(c(-c7ccccc7)c7ccc4[nH]7)C=C6)C=C5)cc3)c2)CCN1C(=O)OC(C)(C)C
REMARK SMILES IDX 15 1 14 2 13 3 11 4 12 5 10 7 6 8 7 9 71 10 8 11 9 12 5 13
REMARK SMILES IDX 4 14 1 15 2 16 3 17 74 18 73 19 72 20 75 22 76 23 77 24
REMARK SMILES IDX 78 25 79 26 80 27 81 28 16 29 17 30 18 31 19 32 20 33 21 34
REMARK SMILES IDX 22 36 23 37 24 38 70 39 25 40 69 41 26 42 27 43 28 44 63 45
REMARK SMILES IDX 29 46 68 47 62 48 64 49 30 50 67 51 61 52 60 53 31 55 53 56
REMARK SMILES IDX 38 57 52 58 39 59 42 60 51 61 65 62 40 63 41 64 50 66 66 67
REMARK SMILES IDX 43 68 32 69 33 70 37 71 34 72 36 73 35 74 54 75 55 76 59 77
REMARK SMILES IDX 56 78 58 79 57 80 44 81 45 82 49 83 46 84 48 85 47 86
REMARK H PARENT 13 6 4 21 20 35 64 54 42 65
REMARK Flexibility Score: inf
ROOT
ATOM      1  C   UNL A   1      35.119  31.508  28.412  1.00  0.00     0.021 C 
ENDROOT
BRANCH   1   2
ATOM      2  C   UNL A   1      34.221  30.949  27.310  1.00  0.00     0.116 C 
BRANCH   2   3
ATOM      3  N   UNL A   1      32.962  31.656  27.253  1.00  0.00    -0.352 N 
ATOM      4  C   UNL A   1      31.781  31.410  26.597  1.00  0.00     0.251 C 
ATOM      5  O   UNL A   1      30.855  32.194  26.806  1.00  0.00    -0.269 OA
ATOM      6  H   UNL A   1      32.948  32.479  27.792  1.00  0.00     0.163 HD
BRANCH   4   7
ATOM      7  C   UNL A   1      31.537  30.219  25.724  1.00  0.00     0.040 A 
ATOM      8  C   UNL A   1      31.548  27.821  25.237  1.00  0.00     0.007 A 
ATOM      9  C   UNL A   1      30.731  28.050  24.123  1.00  0.00     0.009 A 
ATOM     10  C   UNL A   1      32.034  28.933  25.955  1.00  0.00     0.023 A 
ATOM     11  C   UNL A   1      30.348  29.347  23.787  1.00  0.00     0.001 A 
ATOM     12  C   UNL A   1      30.716  30.417  24.605  1.00  0.00     0.014 A 
BRANCH   8  13
ATOM     13  C   UNL A   1      31.842  26.400  25.697  1.00  0.00     0.299 C 
BRANCH  13  14
ATOM     14  N   UNL A   1      32.216  25.416  24.650  1.00  0.00    -0.328 N 
ATOM     15  C   UNL A   1      31.644  22.727  23.068  1.00  0.00     0.037 C 
ATOM     16  C   UNL A   1      32.787  23.002  24.050  1.00  0.00     0.140 C 
ATOM     17  C   UNL A   1      32.358  24.028  25.155  1.00  0.00     0.287 C 
ATOM     18  N   UNL A   1      33.977  23.503  23.333  1.00  0.00    -0.294 N 
ATOM     19  C   UNL A   1      33.837  24.852  22.796  1.00  0.00     0.185 C 
ATOM     20  C   UNL A   1      33.443  25.803  23.930  1.00  0.00     0.284 C 
ATOM     21  H   UNL A   1      31.430  25.431  23.999  1.00  0.00     0.348 HD
BRANCH  18  22
ATOM     22  C   UNL A   1      35.231  22.914  23.340  1.00  0.00     0.410 C 
ATOM     23  O   UNL A   1      36.116  23.234  22.558  1.00  0.00    -0.224 OA
BRANCH  22  24
ATOM     24  O   UNL A   1      35.369  21.955  24.295  1.00  0.00    -0.444 OA
BRANCH  24  25
ATOM     25  C   UNL A   1      36.057  22.261  25.543  1.00  0.00     0.106 C 
ATOM     26  C   UNL A   1      37.411  21.545  25.626  1.00  0.00     0.056 C 
ATOM     27  C   UNL A   1      36.200  23.773  25.761  1.00  0.00     0.056 C 
ATOM     28  C   UNL A   1      35.149  21.702  26.651  1.00  0.00     0.056 C 
ENDBRANCH  24  25
ENDBRANCH  22  24
ENDBRANCH  18  22
ENDBRANCH  13  14
ENDBRANCH   8  13
ENDBRANCH   4   7
ENDBRANCH   2   3
ENDBRANCH   1   2
BRANCH   1  29
ATOM     29  C   UNL A   1      34.367  32.453  29.352  1.00  0.00     0.002 C 
BRANCH  29  30
ATOM     30  C   UNL A   1      34.534  33.942  29.016  1.00  0.00     0.002 C 
BRANCH  30  31
ATOM     31  C   UNL A   1      33.243  34.763  29.054  1.00  0.00     0.021 C 
BRANCH  31  32
ATOM     32  C   UNL A   1      33.401  36.142  29.685  1.00  0.00     0.116 C 
BRANCH  32  33
ATOM     33  N   UNL A   1      32.530  36.308  30.839  1.00  0.00    -0.352 N 
ATOM     34  C   UNL A   1      32.598  35.719  32.075  1.00  0.00     0.251 C 
ATOM     35  H   UNL A   1      31.783  36.936  30.715  1.00  0.00     0.163 HD
ATOM     36  O   UNL A   1      31.645  35.784  32.845  1.00  0.00    -0.269 OA
BRANCH  34  37
ATOM     37  C   UNL A   1      33.823  34.998  32.475  1.00  0.00     0.039 A 
ATOM     38  C   UNL A   1      33.719  33.673  32.904  1.00  0.00     0.014 A 
ATOM     39  C   UNL A   1      35.065  35.636  32.442  1.00  0.00     0.014 A 
ATOM     40  C   UNL A   1      34.874  32.972  33.251  1.00  0.00     0.010 A 
ATOM     41  C   UNL A   1      36.221  34.911  32.711  1.00  0.00     0.010 A 
ATOM     42  C   UNL A   1      36.136  33.575  33.126  1.00  0.00    -0.014 A 
BRANCH  42  43
ATOM     43  C   UNL A   1      37.379  32.823  33.428  1.00  0.00     0.031 A 
ATOM     44  C   UNL A   1      38.126  33.077  34.708  1.00  0.00     0.074 A 
ATOM     45  C   UNL A   1      37.864  31.953  32.522  1.00  0.00     0.049 A 
ATOM     46  N   UNL A   1      39.252  32.553  35.124  1.00  0.00    -0.248 NA
ATOM     47  C   UNL A   1      37.547  34.066  35.632  1.00  0.00     0.031 C 
ATOM     48  C   UNL A   1      37.250  31.645  31.228  1.00  0.00     0.029 A 
ATOM     49  N   UNL A   1      38.989  31.168  32.550  1.00  0.00    -0.354 N 
ATOM     50  C   UNL A   1      39.520  33.158  36.345  1.00  0.00     0.074 A 
ATOM     51  C   UNL A   1      38.472  34.126  36.578  1.00  0.00     0.031 C 
ATOM     52  C   UNL A   1      37.989  30.714  30.602  1.00  0.00     0.029 A 
ATOM     53  C   UNL A   1      39.150  30.395  31.426  1.00  0.00     0.049 A 
ATOM     54  H   UNL A   1      39.621  31.159  33.305  1.00  0.00     0.167 HD
ATOM     55  C   UNL A   1      40.536  32.914  37.207  1.00  0.00     0.031 A 
ATOM     56  C   UNL A   1      40.127  29.532  31.092  1.00  0.00     0.031 A 
ATOM     57  C   UNL A   1      41.577  31.949  36.974  1.00  0.00     0.049 A 
ATOM     58  C   UNL A   1      41.261  29.303  32.052  1.00  0.00     0.074 A 
ATOM     59  C   UNL A   1      42.623  31.592  37.806  1.00  0.00     0.029 A 
ATOM     60  N   UNL A   1      41.707  31.191  35.820  1.00  0.00    -0.354 N 
ATOM     61  N   UNL A   1      41.464  29.831  33.235  1.00  0.00    -0.248 NA
ATOM     62  C   UNL A   1      42.297  28.349  31.633  1.00  0.00     0.031 C 
ATOM     63  C   UNL A   1      43.423  30.665  37.131  1.00  0.00     0.029 A 
ATOM     64  C   UNL A   1      42.834  30.391  35.905  1.00  0.00     0.049 A 
ATOM     65  H   UNL A   1      41.090  31.218  35.053  1.00  0.00     0.167 HD
ATOM     66  C   UNL A   1      42.630  29.251  33.714  1.00  0.00     0.074 A 
ATOM     67  C   UNL A   1      43.081  28.318  32.701  1.00  0.00     0.031 C 
ATOM     68  C   UNL A   1      43.271  29.469  34.889  1.00  0.00     0.031 A 
BRANCH  55  69
ATOM     69  C   UNL A   1      40.576  33.718  38.479  1.00  0.00    -0.014 A 
ATOM     70  C   UNL A   1      41.177  34.986  38.523  1.00  0.00     0.009 A 
ATOM     71  C   UNL A   1      39.970  33.216  39.641  1.00  0.00     0.009 A 
ATOM     72  C   UNL A   1      41.207  35.715  39.714  1.00  0.00     0.001 A 
ATOM     73  C   UNL A   1      39.972  33.962  40.821  1.00  0.00     0.001 A 
ATOM     74  C   UNL A   1      40.599  35.205  40.859  1.00  0.00     0.000 A 
ENDBRANCH  55  69
BRANCH  56  75
ATOM     75  C   UNL A   1      40.074  28.810  29.792  1.00  0.00    -0.014 A 
ATOM     76  C   UNL A   1      39.438  27.563  29.693  1.00  0.00     0.009 A 
ATOM     77  C   UNL A   1      40.667  29.361  28.645  1.00  0.00     0.009 A 
ATOM     78  C   UNL A   1      39.427  26.868  28.482  1.00  0.00     0.001 A 
ATOM     79  C   UNL A   1      40.625  28.679  27.427  1.00  0.00     0.001 A 
ATOM     80  C   UNL A   1      40.015  27.428  27.349  1.00  0.00     0.000 A 
ENDBRANCH  56  75
BRANCH  68  81
ATOM     81  C   UNL A   1      44.507  28.656  35.160  1.00  0.00    -0.014 A 
ATOM     82  C   UNL A   1      44.429  27.338  35.637  1.00  0.00     0.009 A 
ATOM     83  C   UNL A   1      45.770  29.208  34.893  1.00  0.00     0.009 A 
ATOM     84  C   UNL A   1      45.592  26.605  35.877  1.00  0.00     0.001 A 
ATOM     85  C   UNL A   1      46.930  28.460  35.101  1.00  0.00     0.001 A 
ATOM     86  C   UNL A   1      46.840  27.164  35.603  1.00  0.00     0.000 A 
ENDBRANCH  68  81
ENDBRANCH  42  43
ENDBRANCH  34  37
ENDBRANCH  32  33
ENDBRANCH  31  32
ENDBRANCH  30  31
ENDBRANCH  29  30
ENDBRANCH   1  29
TORSDOF 18
ENDMDL
MODEL 3
REMARK VINA RESULT:     -10.7      0.324      5.717
REMARK SMILES C[C@@H]1C[N@@H+](Cc2cccc(C(=O)NCCCCCCNC(=O)c3ccc(-c4c5nc(c(-c6ccccc6)c6ccc([nH]6)c(-c6ccccc6)c6nc(c(-c7ccccc7)c7ccc4[nH]7)C=C6)C=C5)cc3)c2)CCN1C(=O)OC(C)(C)C
REMARK SMILES IDX 15 1 14 2 13 3 11 4 12 5 10 7 6 8 7 9 71 10 8 11 9 12 5 13
REMARK SMILES IDX 4 14 1 15 2 16 3 17 74 18 73 19 72 20 75 22 76 23 77 24
REMARK SMILES IDX 78 25 79 26 80 27 81 28 16 29 17 30 18 31 19 32 20 33 21 34
REMARK SMILES IDX 22 36 23 37 24 38 70 39 25 40 69 41 26 42 27 43 28 44 63 45
REMARK SMILES IDX 29 46 68 47 62 48 64 49 30 50 67 51 61 52 60 53 31 55 53 56
REMARK SMILES IDX 38 57 52 58 39 59 42 60 51 61 65 62 40 63 41 64 50 66 66 67
REMARK SMILES IDX 43 68 32 69 33 70 37 71 34 72 36 73 35 74 54 75 55 76 59 77
REMARK SMILES IDX 56 78 58 79 57 80 44 81 45 82 49 83 46 84 48 85 47 86
REMARK H PARENT 13 6 4 21 20 35 64 54 42 65
REMARK Flexibility Score: inf
ROOT
ATOM      1  C   UNL A   1      39.208  21.353  25.876  1.00  0.00     0.021 C 
ENDROOT
BRANCH   1   2
ATOM      2  C   UNL A   1      38.159  22.456  25.737  1.00  0.00     0.116 C 
BRANCH   2   3
ATOM      3  N   UNL A   1      37.723  22.592  24.366  1.00  0.00    -0.352 N 
ATOM      4  C   UNL A   1      36.485  22.731  23.790  1.00  0.00     0.251 C 
ATOM      5  O   UNL A   1      36.454  22.885  22.568  1.00  0.00    -0.269 OA
ATOM      6  H   UNL A   1      38.461  22.582  23.715  1.00  0.00     0.163 HD
BRANCH   4   7
ATOM      7  C   UNL A   1      35.202  22.788  24.558  1.00  0.00     0.040 A 
ATOM      8  C   UNL A   1      33.472  23.940  25.852  1.00  0.00     0.007 A 
ATOM      9  C   UNL A   1      32.627  22.835  25.692  1.00  0.00     0.009 A 
ATOM     10  C   UNL A   1      34.797  23.847  25.376  1.00  0.00     0.023 A 
ATOM     11  C   UNL A   1      33.068  21.705  25.006  1.00  0.00     0.001 A 
ATOM     12  C   UNL A   1      34.331  21.699  24.410  1.00  0.00     0.014 A 
BRANCH   8  13
ATOM     13  C   UNL A   1      32.946  25.231  26.463  1.00  0.00     0.299 C 
BRANCH  13  14
ATOM     14  N   UNL A   1      32.598  26.327  25.525  1.00  0.00    -0.328 N 
ATOM     15  C   UNL A   1      32.358  29.424  24.877  1.00  0.00     0.037 C 
ATOM     16  C   UNL A   1      31.215  28.420  25.056  1.00  0.00     0.140 C 
ATOM     17  C   UNL A   1      31.602  27.286  26.066  1.00  0.00     0.287 C 
ATOM     18  N   UNL A   1      30.834  27.830  23.757  1.00  0.00    -0.294 N 
ATOM     19  C   UNL A   1      31.823  26.918  23.194  1.00  0.00     0.185 C 
ATOM     20  C   UNL A   1      32.135  25.824  24.220  1.00  0.00     0.284 C 
ATOM     21  H   UNL A   1      33.475  26.833  25.395  1.00  0.00     0.348 HD
BRANCH  18  22
ATOM     22  C   UNL A   1      29.576  27.889  23.182  1.00  0.00     0.410 C 
ATOM     23  O   UNL A   1      28.660  27.149  23.517  1.00  0.00    -0.224 OA
BRANCH  22  24
ATOM     24  O   UNL A   1      29.470  28.842  22.217  1.00  0.00    -0.444 OA
BRANCH  24  25
ATOM     25  C   UNL A   1      28.635  30.015  22.438  1.00  0.00     0.106 C 
ATOM     26  C   UNL A   1      27.165  29.626  22.649  1.00  0.00     0.056 C 
ATOM     27  C   UNL A   1      29.163  30.884  23.587  1.00  0.00     0.056 C 
ATOM     28  C   UNL A   1      28.733  30.831  21.138  1.00  0.00     0.056 C 
ENDBRANCH  24  25
ENDBRANCH  22  24
ENDBRANCH  18  22
ENDBRANCH  13  14
ENDBRANCH   8  13
ENDBRANCH   4   7
ENDBRANCH   2   3
ENDBRANCH   1   2
BRANCH   1  29
ATOM     29  C   UNL A   1      40.432  21.812  26.673  1.00  0.00     0.002 C 
BRANCH  29  30
ATOM     30  C   UNL A   1      41.315  20.667  27.188  1.00  0.00     0.002 C 
BRANCH  30  31
ATOM     31  C   UNL A   1      41.734  19.645  26.129  1.00  0.00     0.021 C 
BRANCH  31  32
ATOM     32  C   UNL A   1      43.112  19.037  26.362  1.00  0.00     0.116 C 
BRANCH  32  33
ATOM     33  N   UNL A   1      43.809  18.791  25.108  1.00  0.00    -0.352 N 
ATOM     34  C   UNL A   1      44.404  19.681  24.252  1.00  0.00     0.251 C 
ATOM     35  H   UNL A   1      43.863  17.848  24.835  1.00  0.00     0.163 HD
ATOM     36  O   UNL A   1      44.730  19.331  23.122  1.00  0.00    -0.269 OA
BRANCH  34  37
ATOM     37  C   UNL A   1      44.646  21.070  24.692  1.00  0.00     0.039 A 
ATOM     38  C   UNL A   1      44.060  22.118  23.980  1.00  0.00     0.014 A 
ATOM     39  C   UNL A   1      45.462  21.333  25.795  1.00  0.00     0.014 A 
ATOM     40  C   UNL A   1      44.252  23.432  24.408  1.00  0.00     0.010 A 
ATOM     41  C   UNL A   1      45.587  22.635  26.266  1.00  0.00     0.010 A 
ATOM     42  C   UNL A   1      44.991  23.698  25.573  1.00  0.00    -0.014 A 
BRANCH  42  43
ATOM     43  C   UNL A   1      45.151  25.083  26.080  1.00  0.00     0.031 A 
ATOM     44  C   UNL A   1      46.496  25.753  26.039  1.00  0.00     0.074 A 
ATOM     45  C   UNL A   1      44.096  25.714  26.629  1.00  0.00     0.049 A 
ATOM     46  N   UNL A   1      46.841  26.939  26.477  1.00  0.00    -0.248 NA
ATOM     47  C   UNL A   1      47.606  24.985  25.453  1.00  0.00     0.031 C 
ATOM     48  C   UNL A   1      42.747  25.157  26.759  1.00  0.00     0.029 A 
ATOM     49  N   UNL A   1      43.993  26.965  27.184  1.00  0.00    -0.354 N 
ATOM     50  C   UNL A   1      48.204  27.049  26.232  1.00  0.00     0.074 A 
ATOM     51  C   UNL A   1      48.635  25.793  25.659  1.00  0.00     0.031 C 
ATOM     52  C   UNL A   1      41.946  26.075  27.325  1.00  0.00     0.029 A 
ATOM     53  C   UNL A   1      42.732  27.262  27.641  1.00  0.00     0.049 A 
ATOM     54  H   UNL A   1      44.751  27.590  27.248  1.00  0.00     0.167 HD
ATOM     55  C   UNL A   1      49.020  28.109  26.444  1.00  0.00     0.031 A 
ATOM     56  C   UNL A   1      42.262  28.366  28.253  1.00  0.00     0.031 A 
ATOM     57  C   UNL A   1      48.589  29.358  27.013  1.00  0.00     0.049 A 
ATOM     58  C   UNL A   1      43.197  29.515  28.507  1.00  0.00     0.074 A 
ATOM     59  C   UNL A   1      49.327  30.509  27.223  1.00  0.00     0.029 A 
ATOM     60  N   UNL A   1      47.305  29.616  27.468  1.00  0.00    -0.354 N 
ATOM     61  N   UNL A   1      44.468  29.632  28.205  1.00  0.00    -0.248 NA
ATOM     62  C   UNL A   1      42.627  30.693  29.177  1.00  0.00     0.031 C 
ATOM     63  C   UNL A   1      48.507  31.443  27.864  1.00  0.00     0.029 A 
ATOM     64  C   UNL A   1      47.238  30.898  27.988  1.00  0.00     0.049 A 
ATOM     65  H   UNL A   1      46.552  28.982  27.429  1.00  0.00     0.167 HD
ATOM     66  C   UNL A   1      44.840  30.903  28.619  1.00  0.00     0.074 A 
ATOM     67  C   UNL A   1      43.658  31.526  29.176  1.00  0.00     0.031 C 
ATOM     68  C   UNL A   1      46.054  31.504  28.542  1.00  0.00     0.031 A 
BRANCH  55  69
ATOM     69  C   UNL A   1      50.469  27.954  26.069  1.00  0.00    -0.014 A 
ATOM     70  C   UNL A   1      51.419  27.495  26.997  1.00  0.00     0.009 A 
ATOM     71  C   UNL A   1      50.886  28.236  24.759  1.00  0.00     0.009 A 
ATOM     72  C   UNL A   1      52.760  27.362  26.631  1.00  0.00     0.001 A 
ATOM     73  C   UNL A   1      52.221  28.069  24.387  1.00  0.00     0.001 A 
ATOM     74  C   UNL A   1      53.158  27.642  25.326  1.00  0.00     0.000 A 
ENDBRANCH  55  69
BRANCH  56  75
ATOM     75  C   UNL A   1      40.834  28.442  28.662  1.00  0.00    -0.014 A 
ATOM     76  C   UNL A   1      39.875  29.004  27.805  1.00  0.00     0.009 A 
ATOM     77  C   UNL A   1      40.424  27.962  29.916  1.00  0.00     0.009 A 
ATOM     78  C   UNL A   1      38.542  29.114  28.209  1.00  0.00     0.001 A 
ATOM     79  C   UNL A   1      39.084  28.042  30.303  1.00  0.00     0.001 A 
ATOM     80  C   UNL A   1      38.147  28.629  29.455  1.00  0.00     0.000 A 
ENDBRANCH  56  75
BRANCH  68  81
ATOM     81  C   UNL A   1      46.154  32.920  29.038  1.00  0.00    -0.014 A 
ATOM     82  C   UNL A   1      45.891  34.013  28.197  1.00  0.00     0.009 A 
ATOM     83  C   UNL A   1      46.478  33.159  30.383  1.00  0.00     0.009 A 
ATOM     84  C   UNL A   1      45.988  35.317  28.685  1.00  0.00     0.001 A 
ATOM     85  C   UNL A   1      46.540  34.464  30.876  1.00  0.00     0.001 A 
ATOM     86  C   UNL A   1      46.306  35.541  30.024  1.00  0.00     0.000 A 
ENDBRANCH  68  81
ENDBRANCH  42  43
ENDBRANCH  34  37
ENDBRANCH  32  33
ENDBRANCH  31  32
ENDBRANCH  30  31
ENDBRANCH  29  30
ENDBRANCH   1  29
TORSDOF 18
ENDMDL
