MODEL 1
REMARK VINA RESULT:      -8.7      0.000      0.000
REMARK SMILES Cc1ccc(C(=O)N2CCC(CC(=O)NCCCCCCNC(=O)c3ccc(-c4c5nc(c(-c6ccccc6)c6ccc([nH]6)c(-c6ccccc6)c6nc(c(-c7ccccc7)c7ccc4[nH]7)C=C6)C=C5)cc3)CC2)cn1
REMARK SMILES IDX 18 1 17 2 16 3 15 4 13 5 14 6 12 8 11 9 6 10 7 11 8 12 9 13
REMARK SMILES IDX 74 14 10 15 73 16 5 17 1 18 2 19 3 20 76 21 4 22 75 23 19 24
REMARK SMILES IDX 20 25 21 26 22 27 23 28 24 30 25 31 26 32 72 33 27 34 71 35
REMARK SMILES IDX 28 36 29 37 30 38 65 39 31 40 70 41 64 42 66 43 32 44 69 45
REMARK SMILES IDX 63 46 62 47 33 49 55 50 40 51 54 52 41 53 44 54 53 55 67 56
REMARK SMILES IDX 42 57 43 58 52 60 68 61 45 62 34 63 35 64 39 65 36 66 38 67
REMARK SMILES IDX 37 68 56 69 57 70 61 71 58 72 60 73 59 74 46 75 47 76 51 77
REMARK SMILES IDX 48 78 50 79 49 80
REMARK H PARENT 15 7 22 29 66 48 44 59
REMARK Flexibility Score: inf
ROOT
ATOM      1  C   UNL A   1      37.855  33.093  30.075  1.00  0.00     0.002 C 
ENDROOT
BRANCH   1   2
ATOM      2  C   UNL A   1      38.729  34.113  30.801  1.00  0.00     0.021 C 
BRANCH   2   3
ATOM      3  C   UNL A   1      38.130  34.675  32.097  1.00  0.00     0.116 C 
BRANCH   3   4
ATOM      4  N   UNL A   1      36.918  33.958  32.463  1.00  0.00    -0.356 N 
ATOM      5  C   UNL A   1      36.711  32.965  33.375  1.00  0.00     0.220 C 
ATOM      6  O   UNL A   1      35.598  32.436  33.418  1.00  0.00    -0.275 OA
ATOM      7  H   UNL A   1      36.113  34.237  31.971  1.00  0.00     0.163 HD
BRANCH   5   8
ATOM      8  C   UNL A   1      37.818  32.514  34.316  1.00  0.00     0.103 C 
BRANCH   8   9
ATOM      9  C   UNL A   1      38.892  31.628  33.651  1.00  0.00     0.002 C 
ATOM     10  C   UNL A   1      41.208  28.548  34.863  1.00  0.00     0.255 C 
ATOM     11  O   UNL A   1      40.878  28.630  36.042  1.00  0.00    -0.269 OA
ATOM     12  N   UNL A   1      40.776  29.429  33.891  1.00  0.00    -0.339 N 
ATOM     13  C   UNL A   1      41.288  30.777  33.903  1.00  0.00     0.120 C 
ATOM     14  C   UNL A   1      39.541  29.204  33.162  1.00  0.00     0.120 C 
ATOM     15  C   UNL A   1      40.231  31.747  34.381  1.00  0.00     0.026 C 
ATOM     16  C   UNL A   1      38.432  30.156  33.616  1.00  0.00     0.026 C 
BRANCH  10  17
ATOM     17  C   UNL A   1      42.223  27.567  34.404  1.00  0.00     0.058 A 
ATOM     18  C   UNL A   1      45.001  24.779  32.797  1.00  0.00     0.066 C 
ATOM     19  C   UNL A   1      44.031  25.754  33.392  1.00  0.00     0.037 A 
ATOM     20  C   UNL A   1      43.383  25.461  34.586  1.00  0.00     0.024 A 
ATOM     21  N   UNL A   1      43.813  26.903  32.706  1.00  0.00    -0.261 NA
ATOM     22  C   UNL A   1      42.471  26.379  35.096  1.00  0.00     0.017 A 
ATOM     23  C   UNL A   1      42.915  27.782  33.224  1.00  0.00     0.125 A 
ENDBRANCH  10  17
ENDBRANCH   8   9
ENDBRANCH   5   8
ENDBRANCH   3   4
ENDBRANCH   2   3
ENDBRANCH   1   2
BRANCH   1  24
ATOM     24  C   UNL A   1      37.301  33.563  28.730  1.00  0.00     0.002 C 
BRANCH  24  25
ATOM     25  C   UNL A   1      35.774  33.638  28.635  1.00  0.00     0.021 C 
BRANCH  25  26
ATOM     26  C   UNL A   1      35.019  32.724  29.598  1.00  0.00     0.116 C 
BRANCH  26  27
ATOM     27  N   UNL A   1      34.243  31.715  28.894  1.00  0.00    -0.352 N 
ATOM     28  C   UNL A   1      34.664  30.569  28.263  1.00  0.00     0.251 C 
ATOM     29  H   UNL A   1      33.272  31.877  28.865  1.00  0.00     0.163 HD
ATOM     30  O   UNL A   1      33.907  29.955  27.528  1.00  0.00    -0.269 OA
BRANCH  28  31
ATOM     31  C   UNL A   1      36.045  30.082  28.476  1.00  0.00     0.039 A 
ATOM     32  C   UNL A   1      36.961  30.165  27.424  1.00  0.00     0.014 A 
ATOM     33  C   UNL A   1      36.422  29.515  29.696  1.00  0.00     0.014 A 
ATOM     34  C   UNL A   1      38.272  29.721  27.613  1.00  0.00     0.010 A 
ATOM     35  C   UNL A   1      37.746  29.139  29.904  1.00  0.00     0.010 A 
ATOM     36  C   UNL A   1      38.680  29.225  28.861  1.00  0.00    -0.014 A 
BRANCH  36  37
ATOM     37  C   UNL A   1      40.072  28.761  29.088  1.00  0.00     0.031 A 
ATOM     38  C   UNL A   1      41.081  29.689  29.708  1.00  0.00     0.074 A 
ATOM     39  C   UNL A   1      40.441  27.527  28.694  1.00  0.00     0.049 A 
ATOM     40  N   UNL A   1      42.355  29.493  29.935  1.00  0.00    -0.248 NA
ATOM     41  C   UNL A   1      40.599  31.023  30.106  1.00  0.00     0.031 C 
ATOM     42  C   UNL A   1      39.566  26.541  28.057  1.00  0.00     0.029 A 
ATOM     43  N   UNL A   1      41.656  26.893  28.769  1.00  0.00    -0.354 N 
ATOM     44  C   UNL A   1      42.827  30.678  30.486  1.00  0.00     0.074 A 
ATOM     45  C   UNL A   1      41.718  31.605  30.511  1.00  0.00     0.031 C 
ATOM     46  C   UNL A   1      40.266  25.418  27.825  1.00  0.00     0.029 A 
ATOM     47  C   UNL A   1      41.645  25.619  28.257  1.00  0.00     0.049 A 
ATOM     48  H   UNL A   1      42.460  27.312  29.154  1.00  0.00     0.167 HD
ATOM     49  C   UNL A   1      44.067  30.964  30.949  1.00  0.00     0.031 A 
ATOM     50  C   UNL A   1      42.637  24.715  28.144  1.00  0.00     0.031 A 
ATOM     51  C   UNL A   1      45.169  30.040  30.933  1.00  0.00     0.049 A 
ATOM     52  C   UNL A   1      44.011  25.069  28.642  1.00  0.00     0.074 A 
ATOM     53  C   UNL A   1      46.453  30.222  31.414  1.00  0.00     0.029 A 
ATOM     54  N   UNL A   1      45.115  28.759  30.406  1.00  0.00    -0.354 N 
ATOM     55  N   UNL A   1      44.427  26.174  29.211  1.00  0.00    -0.248 NA
ATOM     56  C   UNL A   1      45.053  24.042  28.490  1.00  0.00     0.031 C 
ATOM     57  C   UNL A   1      47.190  29.066  31.139  1.00  0.00     0.029 A 
ATOM     58  C   UNL A   1      46.348  28.144  30.537  1.00  0.00     0.049 A 
ATOM     59  H   UNL A   1      44.318  28.349  29.999  1.00  0.00     0.167 HD
ATOM     60  C   UNL A   1      45.764  25.962  29.519  1.00  0.00     0.074 A 
ATOM     61  C   UNL A   1      46.086  24.618  29.086  1.00  0.00     0.031 C 
ATOM     62  C   UNL A   1      46.647  26.803  30.110  1.00  0.00     0.031 A 
BRANCH  49  63
ATOM     63  C   UNL A   1      44.294  32.338  31.517  1.00  0.00    -0.014 A 
ATOM     64  C   UNL A   1      44.155  32.586  32.892  1.00  0.00     0.009 A 
ATOM     65  C   UNL A   1      44.689  33.388  30.675  1.00  0.00     0.009 A 
ATOM     66  C   UNL A   1      44.372  33.867  33.406  1.00  0.00     0.001 A 
ATOM     67  C   UNL A   1      44.934  34.661  31.196  1.00  0.00     0.001 A 
ATOM     68  C   UNL A   1      44.766  34.901  32.559  1.00  0.00     0.000 A 
ENDBRANCH  49  63
BRANCH  50  69
ATOM     69  C   UNL A   1      42.372  23.379  27.549  1.00  0.00    -0.014 A 
ATOM     70  C   UNL A   1      42.654  23.135  26.196  1.00  0.00     0.009 A 
ATOM     71  C   UNL A   1      41.810  22.349  28.320  1.00  0.00     0.009 A 
ATOM     72  C   UNL A   1      42.346  21.900  25.618  1.00  0.00     0.001 A 
ATOM     73  C   UNL A   1      41.534  21.106  27.748  1.00  0.00     0.001 A 
ATOM     74  C   UNL A   1      41.789  20.887  26.395  1.00  0.00     0.000 A 
ENDBRANCH  50  69
BRANCH  62  75
ATOM     75  C   UNL A   1      48.031  26.276  30.371  1.00  0.00    -0.014 A 
ATOM     76  C   UNL A   1      48.387  25.736  31.616  1.00  0.00     0.009 A 
ATOM     77  C   UNL A   1      48.980  26.286  29.336  1.00  0.00     0.009 A 
ATOM     78  C   UNL A   1      49.678  25.248  31.830  1.00  0.00     0.001 A 
ATOM     79  C   UNL A   1      50.259  25.770  29.544  1.00  0.00     0.001 A 
ATOM     80  C   UNL A   1      50.610  25.260  30.792  1.00  0.00     0.000 A 
ENDBRANCH  62  75
ENDBRANCH  36  37
ENDBRANCH  28  31
ENDBRANCH  26  27
ENDBRANCH  25  26
ENDBRANCH  24  25
ENDBRANCH   1  24
TORSDOF 15
ENDMDL
MODEL 2
REMARK VINA RESULT:      -8.7      4.729      7.953
REMARK SMILES Cc1ccc(C(=O)N2CCC(CC(=O)NCCCCCCNC(=O)c3ccc(-c4c5nc(c(-c6ccccc6)c6ccc([nH]6)c(-c6ccccc6)c6nc(c(-c7ccccc7)c7ccc4[nH]7)C=C6)C=C5)cc3)CC2)cn1
REMARK SMILES IDX 18 1 17 2 16 3 15 4 13 5 14 6 12 8 11 9 6 10 7 11 8 12 9 13
REMARK SMILES IDX 74 14 10 15 73 16 5 17 1 18 2 19 3 20 76 21 4 22 75 23 19 24
REMARK SMILES IDX 20 25 21 26 22 27 23 28 24 30 25 31 26 32 72 33 27 34 71 35
REMARK SMILES IDX 28 36 29 37 30 38 65 39 31 40 70 41 64 42 66 43 32 44 69 45
REMARK SMILES IDX 63 46 62 47 33 49 55 50 40 51 54 52 41 53 44 54 53 55 67 56
REMARK SMILES IDX 42 57 43 58 52 60 68 61 45 62 34 63 35 64 39 65 36 66 38 67
REMARK SMILES IDX 37 68 56 69 57 70 61 71 58 72 60 73 59 74 46 75 47 76 51 77
REMARK SMILES IDX 48 78 50 79 49 80
REMARK H PARENT 15 7 22 29 66 48 44 59
REMARK Flexibility Score: inf
ROOT
ATOM      1  C   UNL A   1      31.806  29.325  25.101  1.00  0.00     0.002 C 
ENDROOT
BRANCH   1   2
ATOM      2  C   UNL A   1      31.455  28.993  23.652  1.00  0.00     0.021 C 
BRANCH   2   3
ATOM      3  C   UNL A   1      30.990  27.552  23.411  1.00  0.00     0.116 C 
BRANCH   3   4
ATOM      4  N   UNL A   1      31.834  26.891  22.428  1.00  0.00    -0.356 N 
ATOM      5  C   UNL A   1      33.103  26.400  22.528  1.00  0.00     0.220 C 
ATOM      6  O   UNL A   1      33.648  25.981  21.504  1.00  0.00    -0.275 OA
ATOM      7  H   UNL A   1      31.421  26.779  21.542  1.00  0.00     0.163 HD
BRANCH   5   8
ATOM      8  C   UNL A   1      33.833  26.366  23.862  1.00  0.00     0.103 C 
BRANCH   8   9
ATOM      9  C   UNL A   1      33.832  24.985  24.549  1.00  0.00     0.002 C 
ATOM     10  C   UNL A   1      32.614  21.276  23.506  1.00  0.00     0.255 C 
ATOM     11  O   UNL A   1      32.079  21.635  22.461  1.00  0.00    -0.269 OA
ATOM     12  N   UNL A   1      33.192  22.154  24.402  1.00  0.00    -0.339 N 
ATOM     13  C   UNL A   1      32.334  23.013  25.180  1.00  0.00     0.120 C 
ATOM     14  C   UNL A   1      34.582  22.555  24.278  1.00  0.00     0.120 C 
ATOM     15  C   UNL A   1      32.409  24.439  24.680  1.00  0.00     0.026 C 
ATOM     16  C   UNL A   1      34.714  23.991  23.765  1.00  0.00     0.026 C 
BRANCH  10  17
ATOM     17  C   UNL A   1      32.560  19.866  23.965  1.00  0.00     0.058 A 
ATOM     18  C   UNL A   1      32.647  15.895  25.480  1.00  0.00     0.066 C 
ATOM     19  C   UNL A   1      32.598  17.285  24.923  1.00  0.00     0.037 A 
ATOM     20  C   UNL A   1      32.546  17.491  23.550  1.00  0.00     0.024 A 
ATOM     21  N   UNL A   1      32.624  18.308  25.814  1.00  0.00    -0.261 NA
ATOM     22  C   UNL A   1      32.526  18.795  23.068  1.00  0.00     0.017 A 
ATOM     23  C   UNL A   1      32.607  19.573  25.318  1.00  0.00     0.125 A 
ENDBRANCH  10  17
ENDBRANCH   8   9
ENDBRANCH   5   8
ENDBRANCH   3   4
ENDBRANCH   2   3
ENDBRANCH   1   2
BRANCH   1  24
ATOM     24  C   UNL A   1      31.448  28.238  26.114  1.00  0.00     0.002 C 
BRANCH  24  25
ATOM     25  C   UNL A   1      32.495  27.979  27.202  1.00  0.00     0.021 C 
BRANCH  25  26
ATOM     26  C   UNL A   1      33.811  28.734  27.028  1.00  0.00     0.116 C 
BRANCH  26  27
ATOM     27  N   UNL A   1      33.724  30.099  27.521  1.00  0.00    -0.352 N 
ATOM     28  C   UNL A   1      34.610  30.809  28.297  1.00  0.00     0.251 C 
ATOM     29  H   UNL A   1      32.910  30.588  27.261  1.00  0.00     0.163 HD
ATOM     30  O   UNL A   1      34.275  31.865  28.808  1.00  0.00    -0.269 OA
BRANCH  28  31
ATOM     31  C   UNL A   1      35.976  30.283  28.513  1.00  0.00     0.039 A 
ATOM     32  C   UNL A   1      36.934  30.457  27.511  1.00  0.00     0.014 A 
ATOM     33  C   UNL A   1      36.297  29.592  29.684  1.00  0.00     0.014 A 
ATOM     34  C   UNL A   1      38.231  29.976  27.706  1.00  0.00     0.010 A 
ATOM     35  C   UNL A   1      37.608  29.178  29.906  1.00  0.00     0.010 A 
ATOM     36  C   UNL A   1      38.584  29.353  28.913  1.00  0.00    -0.014 A 
BRANCH  36  37
ATOM     37  C   UNL A   1      39.960  28.849  29.147  1.00  0.00     0.031 A 
ATOM     38  C   UNL A   1      40.991  29.745  29.777  1.00  0.00     0.074 A 
ATOM     39  C   UNL A   1      40.297  27.606  28.750  1.00  0.00     0.049 A 
ATOM     40  N   UNL A   1      42.258  29.511  30.011  1.00  0.00    -0.248 NA
ATOM     41  C   UNL A   1      40.546  31.090  30.178  1.00  0.00     0.031 C 
ATOM     42  C   UNL A   1      39.398  26.648  28.103  1.00  0.00     0.029 A 
ATOM     43  N   UNL A   1      41.492  26.937  28.830  1.00  0.00    -0.354 N 
ATOM     44  C   UNL A   1      42.761  30.680  30.570  1.00  0.00     0.074 A 
ATOM     45  C   UNL A   1      41.678  31.638  30.592  1.00  0.00     0.031 C 
ATOM     46  C   UNL A   1      40.066  25.506  27.870  1.00  0.00     0.029 A 
ATOM     47  C   UNL A   1      41.447  25.666  28.312  1.00  0.00     0.049 A 
ATOM     48  H   UNL A   1      42.305  27.331  29.221  1.00  0.00     0.167 HD
ATOM     49  C   UNL A   1      44.005  30.928  31.042  1.00  0.00     0.031 A 
ATOM     50  C   UNL A   1      42.414  24.735  28.201  1.00  0.00     0.031 A 
ATOM     51  C   UNL A   1      45.081  29.973  31.028  1.00  0.00     0.049 A 
ATOM     52  C   UNL A   1      43.795  25.046  28.709  1.00  0.00     0.074 A 
ATOM     53  C   UNL A   1      46.366  30.116  31.519  1.00  0.00     0.029 A 
ATOM     54  N   UNL A   1      44.993  28.697  30.496  1.00  0.00    -0.354 N 
ATOM     55  N   UNL A   1      44.238  26.137  29.286  1.00  0.00    -0.248 NA
ATOM     56  C   UNL A   1      44.808  23.991  28.559  1.00  0.00     0.031 C 
ATOM     57  C   UNL A   1      47.071  28.940  31.242  1.00  0.00     0.029 A 
ATOM     58  C   UNL A   1      46.207  28.046  30.632  1.00  0.00     0.049 A 
ATOM     59  H   UNL A   1      44.187  28.311  30.082  1.00  0.00     0.167 HD
ATOM     60  C   UNL A   1      45.567  25.885  29.601  1.00  0.00     0.074 A 
ATOM     61  C   UNL A   1      45.854  24.535  29.163  1.00  0.00     0.031 C 
ATOM     62  C   UNL A   1      46.470  26.698  30.201  1.00  0.00     0.031 A 
BRANCH  49  63
ATOM     63  C   UNL A   1      44.268  32.293  31.617  1.00  0.00    -0.014 A 
ATOM     64  C   UNL A   1      44.197  32.522  33.001  1.00  0.00     0.009 A 
ATOM     65  C   UNL A   1      44.628  33.353  30.772  1.00  0.00     0.009 A 
ATOM     66  C   UNL A   1      44.446  33.794  33.521  1.00  0.00     0.001 A 
ATOM     67  C   UNL A   1      44.907  34.616  31.298  1.00  0.00     0.001 A 
ATOM     68  C   UNL A   1      44.806  34.838  32.671  1.00  0.00     0.000 A 
ENDBRANCH  49  63
BRANCH  50  69
ATOM     69  C   UNL A   1      42.114  23.409  27.598  1.00  0.00    -0.014 A 
ATOM     70  C   UNL A   1      42.383  23.168  26.242  1.00  0.00     0.009 A 
ATOM     71  C   UNL A   1      41.533  22.387  28.365  1.00  0.00     0.009 A 
ATOM     72  C   UNL A   1      42.043  21.945  25.658  1.00  0.00     0.001 A 
ATOM     73  C   UNL A   1      41.225  21.155  27.787  1.00  0.00     0.001 A 
ATOM     74  C   UNL A   1      41.468  20.939  26.431  1.00  0.00     0.000 A 
ENDBRANCH  50  69
BRANCH  62  75
ATOM     75  C   UNL A   1      47.837  26.131  30.468  1.00  0.00    -0.014 A 
ATOM     76  C   UNL A   1      48.810  26.057  29.460  1.00  0.00     0.009 A 
ATOM     77  C   UNL A   1      48.164  25.700  31.764  1.00  0.00     0.009 A 
ATOM     78  C   UNL A   1      50.073  25.530  29.737  1.00  0.00     0.001 A 
ATOM     79  C   UNL A   1      49.437  25.203  32.045  1.00  0.00     0.001 A 
ATOM     80  C   UNL A   1      50.387  25.109  31.030  1.00  0.00     0.000 A 
ENDBRANCH  62  75
ENDBRANCH  36  37
ENDBRANCH  28  31
ENDBRANCH  26  27
ENDBRANCH  25  26
ENDBRANCH  24  25
ENDBRANCH   1  24
TORSDOF 15
ENDMDL
MODEL 3
REMARK VINA RESULT:      -8.6      3.485      9.561
REMARK SMILES Cc1ccc(C(=O)N2CCC(CC(=O)NCCCCCCNC(=O)c3ccc(-c4c5nc(c(-c6ccccc6)c6ccc([nH]6)c(-c6ccccc6)c6nc(c(-c7ccccc7)c7ccc4[nH]7)C=C6)C=C5)cc3)CC2)cn1
REMARK SMILES IDX 18 1 17 2 16 3 15 4 13 5 14 6 12 8 11 9 6 10 7 11 8 12 9 13
REMARK SMILES IDX 74 14 10 15 73 16 5 17 1 18 2 19 3 20 76 21 4 22 75 23 19 24
REMARK SMILES IDX 20 25 21 26 22 27 23 28 24 30 25 31 26 32 72 33 27 34 71 35
REMARK SMILES IDX 28 36 29 37 30 38 65 39 31 40 70 41 64 42 66 43 32 44 69 45
REMARK SMILES IDX 63 46 62 47 33 49 55 50 40 51 54 52 41 53 44 54 53 55 67 56
REMARK SMILES IDX 42 57 43 58 52 60 68 61 45 62 34 63 35 64 39 65 36 66 38 67
REMARK SMILES IDX 37 68 56 69 57 70 61 71 58 72 60 73 59 74 46 75 47 76 51 77
REMARK SMILES IDX 48 78 50 79 49 80
REMARK H PARENT 15 7 22 29 66 48 44 59
REMARK Flexibility Score: inf
ROOT
ATOM      1  C   UNL A   1      43.589  24.483  26.928  1.00  0.00     0.002 C 
ENDROOT
BRANCH   1   2
ATOM      2  C   UNL A   1      43.964  25.589  25.944  1.00  0.00     0.021 C 
BRANCH   2   3
ATOM      3  C   UNL A   1      45.357  25.454  25.316  1.00  0.00     0.116 C 
BRANCH   3   4
ATOM      4  N   UNL A   1      45.773  26.706  24.702  1.00  0.00    -0.356 N 
ATOM      5  C   UNL A   1      46.254  27.855  25.258  1.00  0.00     0.220 C 
ATOM      6  O   UNL A   1      46.430  28.829  24.522  1.00  0.00    -0.275 OA
ATOM      7  H   UNL A   1      45.695  26.727  23.721  1.00  0.00     0.163 HD
BRANCH   5   8
ATOM      8  C   UNL A   1      46.567  27.942  26.745  1.00  0.00     0.103 C 
BRANCH   8   9
ATOM      9  C   UNL A   1      45.882  29.120  27.467  1.00  0.00     0.002 C 
ATOM     10  C   UNL A   1      44.475  32.735  26.339  1.00  0.00     0.255 C 
ATOM     11  O   UNL A   1      44.918  32.664  25.196  1.00  0.00    -0.269 OA
ATOM     12  N   UNL A   1      44.698  31.768  27.299  1.00  0.00    -0.339 N 
ATOM     13  C   UNL A   1      46.021  31.641  27.859  1.00  0.00     0.120 C 
ATOM     14  C   UNL A   1      43.815  30.625  27.440  1.00  0.00     0.120 C 
ATOM     15  C   UNL A   1      46.708  30.401  27.332  1.00  0.00     0.026 C 
ATOM     16  C   UNL A   1      44.460  29.341  26.911  1.00  0.00     0.026 C 
BRANCH  10  17
ATOM     17  C   UNL A   1      43.773  33.948  26.829  1.00  0.00     0.058 A 
ATOM     18  C   UNL A   1      41.965  37.597  28.050  1.00  0.00     0.066 C 
ATOM     19  C   UNL A   1      42.587  36.296  27.642  1.00  0.00     0.037 A 
ATOM     20  C   UNL A   1      42.929  35.349  28.600  1.00  0.00     0.024 A 
ATOM     21  N   UNL A   1      42.810  36.107  26.318  1.00  0.00    -0.261 NA
ATOM     22  C   UNL A   1      43.527  34.163  28.187  1.00  0.00     0.017 A 
ATOM     23  C   UNL A   1      43.398  34.942  25.940  1.00  0.00     0.125 A 
ENDBRANCH  10  17
ENDBRANCH   8   9
ENDBRANCH   5   8
ENDBRANCH   3   4
ENDBRANCH   2   3
ENDBRANCH   1   2
BRANCH   1  24
ATOM     24  C   UNL A   1      43.775  23.061  26.398  1.00  0.00     0.002 C 
BRANCH  24  25
ATOM     25  C   UNL A   1      42.559  22.459  25.687  1.00  0.00     0.021 C 
BRANCH  25  26
ATOM     26  C   UNL A   1      41.454  21.950  26.610  1.00  0.00     0.116 C 
BRANCH  26  27
ATOM     27  N   UNL A   1      40.143  22.037  25.988  1.00  0.00    -0.352 N 
ATOM     28  C   UNL A   1      39.163  22.991  26.138  1.00  0.00     0.251 C 
ATOM     29  H   UNL A   1      39.923  21.304  25.368  1.00  0.00     0.163 HD
ATOM     30  O   UNL A   1      38.036  22.789  25.717  1.00  0.00    -0.269 OA
BRANCH  28  31
ATOM     31  C   UNL A   1      39.482  24.266  26.817  1.00  0.00     0.039 A 
ATOM     32  C   UNL A   1      39.111  24.431  28.154  1.00  0.00     0.014 A 
ATOM     33  C   UNL A   1      40.112  25.304  26.127  1.00  0.00     0.014 A 
ATOM     34  C   UNL A   1      39.415  25.624  28.813  1.00  0.00     0.010 A 
ATOM     35  C   UNL A   1      40.477  26.464  26.805  1.00  0.00     0.010 A 
ATOM     36  C   UNL A   1      40.120  26.641  28.150  1.00  0.00    -0.014 A 
BRANCH  36  37
ATOM     37  C   UNL A   1      40.467  27.911  28.836  1.00  0.00     0.031 A 
ATOM     38  C   UNL A   1      41.817  28.072  29.480  1.00  0.00     0.074 A 
ATOM     39  C   UNL A   1      39.556  28.899  28.921  1.00  0.00     0.049 A 
ATOM     40  N   UNL A   1      42.288  29.078  30.174  1.00  0.00    -0.248 NA
ATOM     41  C   UNL A   1      42.755  26.945  29.346  1.00  0.00     0.031 C 
ATOM     42  C   UNL A   1      38.202  28.857  28.362  1.00  0.00     0.029 A 
ATOM     43  N   UNL A   1      39.629  30.133  29.518  1.00  0.00    -0.354 N 
ATOM     44  C   UNL A   1      43.565  28.699  30.570  1.00  0.00     0.074 A 
ATOM     45  C   UNL A   1      43.776  27.353  30.085  1.00  0.00     0.031 C 
ATOM     46  C   UNL A   1      37.585  30.023  28.619  1.00  0.00     0.029 A 
ATOM     47  C   UNL A   1      38.481  30.875  29.394  1.00  0.00     0.049 A 
ATOM     48  H   UNL A   1      40.431  30.456  29.990  1.00  0.00     0.167 HD
ATOM     49  C   UNL A   1      44.488  29.413  31.256  1.00  0.00     0.031 A 
ATOM     50  C   UNL A   1      38.181  32.103  29.858  1.00  0.00     0.031 A 
ATOM     51  C   UNL A   1      44.282  30.755  31.732  1.00  0.00     0.049 A 
ATOM     52  C   UNL A   1      39.215  32.863  30.642  1.00  0.00     0.074 A 
ATOM     53  C   UNL A   1      45.169  31.577  32.402  1.00  0.00     0.029 A 
ATOM     54  N   UNL A   1      43.104  31.470  31.584  1.00  0.00    -0.354 N 
ATOM     55  N   UNL A   1      40.438  32.512  30.958  1.00  0.00    -0.248 NA
ATOM     56  C   UNL A   1      38.829  34.198  31.123  1.00  0.00     0.031 C 
ATOM     57  C   UNL A   1      44.513  32.775  32.701  1.00  0.00     0.029 A 
ATOM     58  C   UNL A   1      43.236  32.719  32.165  1.00  0.00     0.049 A 
ATOM     59  H   UNL A   1      42.293  31.139  31.133  1.00  0.00     0.167 HD
ATOM     60  C   UNL A   1      40.978  33.594  31.641  1.00  0.00     0.074 A 
ATOM     61  C   UNL A   1      39.955  34.618  31.681  1.00  0.00     0.031 C 
ATOM     62  C   UNL A   1      42.211  33.730  32.185  1.00  0.00     0.031 A 
BRANCH  49  63
ATOM     63  C   UNL A   1      45.810  28.752  31.532  1.00  0.00    -0.014 A 
ATOM     64  C   UNL A   1      46.911  28.950  30.683  1.00  0.00     0.009 A 
ATOM     65  C   UNL A   1      45.970  27.953  32.674  1.00  0.00     0.009 A 
ATOM     66  C   UNL A   1      48.134  28.331  30.953  1.00  0.00     0.001 A 
ATOM     67  C   UNL A   1      47.202  27.360  32.958  1.00  0.00     0.001 A 
ATOM     68  C   UNL A   1      48.280  27.542  32.092  1.00  0.00     0.000 A 
ENDBRANCH  49  63
BRANCH  50  69
ATOM     69  C   UNL A   1      36.849  32.704  29.585  1.00  0.00    -0.014 A 
ATOM     70  C   UNL A   1      35.810  32.586  30.522  1.00  0.00     0.009 A 
ATOM     71  C   UNL A   1      36.599  33.375  28.378  1.00  0.00     0.009 A 
ATOM     72  C   UNL A   1      34.540  33.095  30.240  1.00  0.00     0.001 A 
ATOM     73  C   UNL A   1      35.337  33.911  28.113  1.00  0.00     0.001 A 
ATOM     74  C   UNL A   1      34.305  33.759  29.038  1.00  0.00     0.000 A 
ENDBRANCH  50  69
BRANCH  62  75
ATOM     75  C   UNL A   1      42.541  35.051  32.822  1.00  0.00    -0.014 A 
ATOM     76  C   UNL A   1      42.143  35.352  34.134  1.00  0.00     0.009 A 
ATOM     77  C   UNL A   1      43.299  35.992  32.107  1.00  0.00     0.009 A 
ATOM     78  C   UNL A   1      42.468  36.585  34.703  1.00  0.00     0.001 A 
ATOM     79  C   UNL A   1      43.648  37.210  32.690  1.00  0.00     0.001 A 
ATOM     80  C   UNL A   1      43.225  37.510  33.983  1.00  0.00     0.000 A 
ENDBRANCH  62  75
ENDBRANCH  36  37
ENDBRANCH  28  31
ENDBRANCH  26  27
ENDBRANCH  25  26
ENDBRANCH  24  25
ENDBRANCH   1  24
TORSDOF 15
ENDMDL
