MODEL 1
REMARK VINA RESULT:     -11.8      0.000      0.000
REMARK SMILES O=C(NCCCCCCNC(=O)[C@@H]1c2[nH]cnc2CCN1C(=O)CCCc1c[nH]c2ccccc12)c1ccc(-c2c3nc(c(-c4ccccc4)c4ccc([nH]4)c(-c4ccccc4)c4nc(c(-c5ccccc5)c5ccc2[nH]5)C=C4)C=C3)cc1
REMARK SMILES IDX 8 1 7 2 6 3 5 4 4 5 3 6 1 7 2 8 36 10 37 11 83 12 38 13
REMARK SMILES IDX 82 14 39 15 40 16 41 17 76 18 42 19 81 20 75 21 77 22 43 23
REMARK SMILES IDX 80 24 74 25 73 26 44 28 66 29 51 30 65 31 52 32 55 33 64 34
REMARK SMILES IDX 78 35 53 36 54 37 63 39 79 40 56 41 45 42 46 43 50 44 47 45
REMARK SMILES IDX 49 46 48 47 67 48 68 49 72 50 69 51 71 52 70 53 57 54 58 55
REMARK SMILES IDX 62 56 59 57 61 58 60 59 9 60 10 61 11 62 12 64 13 65 14 66
REMARK SMILES IDX 21 67 15 68 18 69 20 70 16 71 17 73 19 74 22 75 23 76 24 77
REMARK SMILES IDX 25 78 26 79 27 80 28 81 35 82 29 83 30 84 34 85 31 87 33 88
REMARK SMILES IDX 32 89
REMARK H PARENT 3 9 77 27 55 38 10 63 15 72 29 86
REMARK Flexibility Score: inf
ROOT
ATOM      1  C   UNL A   1      32.228  25.470  26.625  1.00  0.00     0.021 C 
ENDROOT
BRANCH   1   2
ATOM      2  C   UNL A   1      31.755  26.335  25.454  1.00  0.00     0.002 C 
BRANCH   2   3
ATOM      3  C   UNL A   1      31.329  27.756  25.843  1.00  0.00     0.002 C 
BRANCH   3   4
ATOM      4  C   UNL A   1      32.463  28.791  25.882  1.00  0.00     0.021 C 
BRANCH   4   5
ATOM      5  C   UNL A   1      32.952  29.124  27.290  1.00  0.00     0.116 C 
BRANCH   5   6
ATOM      6  N   UNL A   1      33.270  30.526  27.470  1.00  0.00    -0.352 N 
ATOM      7  O   UNL A   1      34.276  32.467  27.759  1.00  0.00    -0.269 OA
ATOM      8  C   UNL A   1      34.406  31.233  27.732  1.00  0.00     0.251 C 
ATOM      9  H   UNL A   1      32.478  31.105  27.382  1.00  0.00     0.163 HD
BRANCH   8  10
ATOM     10  C   UNL A   1      35.746  30.656  28.028  1.00  0.00     0.039 A 
ATOM     11  C   UNL A   1      36.141  29.337  27.812  1.00  0.00     0.014 A 
ATOM     12  C   UNL A   1      36.690  31.551  28.576  1.00  0.00     0.014 A 
ATOM     13  C   UNL A   1      37.420  28.913  28.180  1.00  0.00     0.010 A 
ATOM     14  C   UNL A   1      37.969  31.136  28.941  1.00  0.00     0.010 A 
ATOM     15  C   UNL A   1      38.330  29.807  28.759  1.00  0.00    -0.014 A 
BRANCH  15  16
ATOM     16  C   UNL A   1      39.705  29.356  28.966  1.00  0.00     0.031 A 
ATOM     17  C   UNL A   1      40.051  29.095  30.390  1.00  0.00     0.074 A 
ATOM     18  C   UNL A   1      40.602  29.062  28.002  1.00  0.00     0.049 A 
ATOM     19  N   UNL A   1      40.864  29.767  31.135  1.00  0.00    -0.248 NA
ATOM     20  C   UNL A   1      39.333  28.024  31.096  1.00  0.00     0.031 C 
ATOM     21  C   UNL A   1      40.388  28.958  26.560  1.00  0.00     0.029 A 
ATOM     22  N   UNL A   1      41.914  28.703  28.146  1.00  0.00    -0.354 N 
ATOM     23  C   UNL A   1      40.898  29.110  32.363  1.00  0.00     0.074 A 
ATOM     24  C   UNL A   1      39.844  28.126  32.325  1.00  0.00     0.031 C 
ATOM     25  C   UNL A   1      41.464  28.362  25.990  1.00  0.00     0.029 A 
ATOM     26  C   UNL A   1      42.494  28.174  26.999  1.00  0.00     0.049 A 
ATOM     27  H   UNL A   1      42.407  28.811  28.992  1.00  0.00     0.167 HD
ATOM     28  C   UNL A   1      41.926  29.286  33.238  1.00  0.00     0.031 A 
ATOM     29  C   UNL A   1      43.718  27.595  26.899  1.00  0.00     0.031 A 
ATOM     30  C   UNL A   1      42.722  30.440  32.909  1.00  0.00     0.049 A 
ATOM     31  C   UNL A   1      44.531  28.041  28.050  1.00  0.00     0.074 A 
ATOM     32  C   UNL A   1      42.482  31.792  32.780  1.00  0.00     0.029 A 
ATOM     33  N   UNL A   1      43.928  30.210  32.291  1.00  0.00    -0.354 N 
ATOM     34  N   UNL A   1      44.985  29.251  28.184  1.00  0.00    -0.248 NA
ATOM     35  C   UNL A   1      44.521  27.238  29.261  1.00  0.00     0.031 C 
ATOM     36  C   UNL A   1      43.294  32.204  31.682  1.00  0.00     0.029 A 
ATOM     37  C   UNL A   1      44.025  31.096  31.252  1.00  0.00     0.049 A 
ATOM     38  H   UNL A   1      44.597  29.536  32.547  1.00  0.00     0.167 HD
ATOM     39  C   UNL A   1      44.874  29.514  29.540  1.00  0.00     0.074 A 
ATOM     40  C   UNL A   1      44.697  28.205  30.165  1.00  0.00     0.031 C 
ATOM     41  C   UNL A   1      44.657  30.784  29.990  1.00  0.00     0.031 A 
BRANCH  28  42
ATOM     42  C   UNL A   1      42.459  28.197  34.137  1.00  0.00    -0.014 A 
ATOM     43  C   UNL A   1      43.149  27.117  33.551  1.00  0.00     0.009 A 
ATOM     44  C   UNL A   1      42.051  28.036  35.474  1.00  0.00     0.009 A 
ATOM     45  C   UNL A   1      43.334  25.912  34.237  1.00  0.00     0.001 A 
ATOM     46  C   UNL A   1      42.274  26.848  36.176  1.00  0.00     0.001 A 
ATOM     47  C   UNL A   1      42.887  25.774  35.546  1.00  0.00     0.000 A 
ENDBRANCH  28  42
BRANCH  29  48
ATOM     48  C   UNL A   1      44.194  26.514  26.008  1.00  0.00    -0.014 A 
ATOM     49  C   UNL A   1      45.568  26.247  25.872  1.00  0.00     0.009 A 
ATOM     50  C   UNL A   1      43.290  25.550  25.529  1.00  0.00     0.009 A 
ATOM     51  C   UNL A   1      46.019  25.037  25.325  1.00  0.00     0.001 A 
ATOM     52  C   UNL A   1      43.741  24.344  24.980  1.00  0.00     0.001 A 
ATOM     53  C   UNL A   1      45.104  24.079  24.895  1.00  0.00     0.000 A 
ENDBRANCH  29  48
BRANCH  41  54
ATOM     54  C   UNL A   1      44.838  31.926  29.021  1.00  0.00    -0.014 A 
ATOM     55  C   UNL A   1      43.909  32.249  28.018  1.00  0.00     0.009 A 
ATOM     56  C   UNL A   1      45.933  32.783  29.212  1.00  0.00     0.009 A 
ATOM     57  C   UNL A   1      44.096  33.371  27.202  1.00  0.00     0.001 A 
ATOM     58  C   UNL A   1      46.106  33.916  28.417  1.00  0.00     0.001 A 
ATOM     59  C   UNL A   1      45.193  34.205  27.405  1.00  0.00     0.000 A 
ENDBRANCH  41  54
ENDBRANCH  15  16
ENDBRANCH   8  10
ENDBRANCH   5   6
ENDBRANCH   4   5
ENDBRANCH   3   4
ENDBRANCH   2   3
ENDBRANCH   1   2
BRANCH   1  60
ATOM     60  C   UNL A   1      31.871  23.994  26.457  1.00  0.00     0.116 C 
BRANCH  60  61
ATOM     61  N   UNL A   1      32.957  23.148  26.936  1.00  0.00    -0.354 N 
ATOM     62  C   UNL A   1      33.318  21.876  26.549  1.00  0.00     0.249 C 
ATOM     63  H   UNL A   1      33.516  23.545  27.642  1.00  0.00     0.163 HD
ATOM     64  O   UNL A   1      34.118  21.255  27.254  1.00  0.00    -0.272 OA
BRANCH  62  65
ATOM     65  C   UNL A   1      32.651  21.293  25.286  1.00  0.00     0.223 C 
ATOM     66  C   UNL A   1      32.687  19.790  25.296  1.00  0.00     0.071 A 
ATOM     67  N   UNL A   1      32.980  21.708  23.907  1.00  0.00    -0.325 N 
ATOM     68  N   UNL A   1      32.815  18.927  26.347  1.00  0.00    -0.346 N 
ATOM     69  C   UNL A   1      32.523  18.984  24.193  1.00  0.00     0.066 A 
ATOM     70  C   UNL A   1      32.140  21.038  22.911  1.00  0.00     0.127 C 
ATOM     71  C   UNL A   1      32.663  17.661  25.839  1.00  0.00     0.197 A 
ATOM     72  H   UNL A   1      32.982  19.167  27.287  1.00  0.00     0.167 HD
ATOM     73  N   UNL A   1      32.484  17.667  24.535  1.00  0.00    -0.242 NA
ATOM     74  C   UNL A   1      32.420  19.526  22.822  1.00  0.00     0.080 C 
BRANCH  67  75
ATOM     75  C   UNL A   1      33.732  22.835  23.642  1.00  0.00     0.223 C 
ATOM     76  O   UNL A   1      33.220  23.866  23.202  1.00  0.00    -0.275 OA
BRANCH  75  77
ATOM     77  C   UNL A   1      35.261  22.789  23.805  1.00  0.00     0.100 C 
BRANCH  77  78
ATOM     78  C   UNL A   1      35.960  23.916  24.594  1.00  0.00     0.015 C 
BRANCH  78  79
ATOM     79  C   UNL A   1      36.459  23.625  26.038  1.00  0.00     0.038 C 
BRANCH  79  80
ATOM     80  C   UNL A   1      37.920  23.279  26.112  1.00  0.00    -0.023 A 
ATOM     81  C   UNL A   1      38.473  22.142  25.557  1.00  0.00     0.087 A 
ATOM     82  C   UNL A   1      38.999  23.963  26.785  1.00  0.00     0.003 A 
ATOM     83  N   UNL A   1      39.733  21.992  26.061  1.00  0.00    -0.361 N 
ATOM     84  C   UNL A   1      40.042  23.041  26.891  1.00  0.00     0.046 A 
ATOM     85  C   UNL A   1      39.190  25.228  27.390  1.00  0.00     0.010 A 
ATOM     86  H   UNL A   1      40.333  21.239  25.859  1.00  0.00     0.166 HD
ATOM     87  C   UNL A   1      41.167  23.247  27.699  1.00  0.00     0.026 A 
ATOM     88  C   UNL A   1      40.348  25.483  28.139  1.00  0.00     0.001 A 
ATOM     89  C   UNL A   1      41.302  24.488  28.324  1.00  0.00     0.002 A 
ENDBRANCH  79  80
ENDBRANCH  78  79
ENDBRANCH  77  78
ENDBRANCH  75  77
ENDBRANCH  67  75
ENDBRANCH  62  65
ENDBRANCH  60  61
ENDBRANCH   1  60
TORSDOF 18
ENDMDL
MODEL 2
REMARK VINA RESULT:     -11.7      2.664      8.063
REMARK SMILES O=C(NCCCCCCNC(=O)[C@@H]1c2[nH]cnc2CCN1C(=O)CCCc1c[nH]c2ccccc12)c1ccc(-c2c3nc(c(-c4ccccc4)c4ccc([nH]4)c(-c4ccccc4)c4nc(c(-c5ccccc5)c5ccc2[nH]5)C=C4)C=C3)cc1
REMARK SMILES IDX 8 1 7 2 6 3 5 4 4 5 3 6 1 7 2 8 36 10 37 11 83 12 38 13
REMARK SMILES IDX 82 14 39 15 40 16 41 17 76 18 42 19 81 20 75 21 77 22 43 23
REMARK SMILES IDX 80 24 74 25 73 26 44 28 66 29 51 30 65 31 52 32 55 33 64 34
REMARK SMILES IDX 78 35 53 36 54 37 63 39 79 40 56 41 45 42 46 43 50 44 47 45
REMARK SMILES IDX 49 46 48 47 67 48 68 49 72 50 69 51 71 52 70 53 57 54 58 55
REMARK SMILES IDX 62 56 59 57 61 58 60 59 9 60 10 61 11 62 12 64 13 65 14 66
REMARK SMILES IDX 21 67 15 68 18 69 20 70 16 71 17 73 19 74 22 75 23 76 24 77
REMARK SMILES IDX 25 78 26 79 27 80 28 81 35 82 29 83 30 84 34 85 31 87 33 88
REMARK SMILES IDX 32 89
REMARK H PARENT 3 9 77 27 55 38 10 63 15 72 29 86
REMARK Flexibility Score: inf
ROOT
ATOM      1  C   UNL A   1      34.133  24.449  22.643  1.00  0.00     0.021 C 
ENDROOT
BRANCH   1   2
ATOM      2  C   UNL A   1      34.205  24.209  24.153  1.00  0.00     0.002 C 
BRANCH   2   3
ATOM      3  C   UNL A   1      34.692  22.810  24.553  1.00  0.00     0.002 C 
BRANCH   3   4
ATOM      4  C   UNL A   1      36.154  22.501  24.199  1.00  0.00     0.021 C 
BRANCH   4   5
ATOM      5  C   UNL A   1      37.173  23.227  25.074  1.00  0.00     0.116 C 
BRANCH   5   6
ATOM      6  N   UNL A   1      38.368  22.450  25.329  1.00  0.00    -0.352 N 
ATOM      7  O   UNL A   1      40.272  21.654  26.107  1.00  0.00    -0.269 OA
ATOM      8  C   UNL A   1      39.462  22.594  26.130  1.00  0.00     0.251 C 
ATOM      9  H   UNL A   1      38.396  21.620  24.799  1.00  0.00     0.163 HD
BRANCH   8  10
ATOM     10  C   UNL A   1      39.780  23.780  26.971  1.00  0.00     0.039 A 
ATOM     11  C   UNL A   1      40.969  24.004  27.663  1.00  0.00     0.014 A 
ATOM     12  C   UNL A   1      38.767  24.759  27.058  1.00  0.00     0.014 A 
ATOM     13  C   UNL A   1      41.122  25.143  28.457  1.00  0.00     0.010 A 
ATOM     14  C   UNL A   1      38.914  25.900  27.844  1.00  0.00     0.010 A 
ATOM     15  C   UNL A   1      40.089  26.084  28.561  1.00  0.00    -0.014 A 
BRANCH  15  16
ATOM     16  C   UNL A   1      40.364  27.335  29.265  1.00  0.00     0.031 A 
ATOM     17  C   UNL A   1      41.370  28.203  28.592  1.00  0.00     0.074 A 
ATOM     18  C   UNL A   1      39.722  27.793  30.359  1.00  0.00     0.049 A 
ATOM     19  N   UNL A   1      42.561  28.485  29.004  1.00  0.00    -0.248 NA
ATOM     20  C   UNL A   1      41.050  28.736  27.261  1.00  0.00     0.031 C 
ATOM     21  C   UNL A   1      38.520  27.260  31.000  1.00  0.00     0.029 A 
ATOM     22  N   UNL A   1      39.986  28.918  31.090  1.00  0.00    -0.354 N 
ATOM     23  C   UNL A   1      43.094  29.371  28.070  1.00  0.00     0.074 A 
ATOM     24  C   UNL A   1      42.175  29.388  26.959  1.00  0.00     0.031 C 
ATOM     25  C   UNL A   1      38.042  28.171  31.882  1.00  0.00     0.029 A 
ATOM     26  C   UNL A   1      38.977  29.282  31.972  1.00  0.00     0.049 A 
ATOM     27  H   UNL A   1      40.823  29.429  30.998  1.00  0.00     0.167 HD
ATOM     28  C   UNL A   1      44.146  30.180  28.374  1.00  0.00     0.031 A 
ATOM     29  C   UNL A   1      38.901  30.427  32.696  1.00  0.00     0.031 A 
ATOM     30  C   UNL A   1      44.819  29.761  29.576  1.00  0.00     0.049 A 
ATOM     31  C   UNL A   1      40.260  31.002  32.788  1.00  0.00     0.074 A 
ATOM     32  C   UNL A   1      45.467  28.614  29.988  1.00  0.00     0.029 A 
ATOM     33  N   UNL A   1      44.562  30.479  30.718  1.00  0.00    -0.354 N 
ATOM     34  N   UNL A   1      41.216  30.479  33.495  1.00  0.00    -0.248 NA
ATOM     35  C   UNL A   1      40.681  31.957  31.777  1.00  0.00     0.031 C 
ATOM     36  C   UNL A   1      45.124  28.475  31.365  1.00  0.00     0.029 A 
ATOM     37  C   UNL A   1      44.345  29.576  31.724  1.00  0.00     0.049 A 
ATOM     38  H   UNL A   1      44.538  31.460  30.799  1.00  0.00     0.167 HD
ATOM     39  C   UNL A   1      42.356  30.667  32.730  1.00  0.00     0.074 A 
ATOM     40  C   UNL A   1      41.987  31.682  31.747  1.00  0.00     0.031 C 
ATOM     41  C   UNL A   1      43.394  29.781  32.793  1.00  0.00     0.031 A 
BRANCH  28  42
ATOM     42  C   UNL A   1      44.315  31.577  27.828  1.00  0.00    -0.014 A 
ATOM     43  C   UNL A   1      43.803  32.657  28.572  1.00  0.00     0.009 A 
ATOM     44  C   UNL A   1      44.676  31.842  26.494  1.00  0.00     0.009 A 
ATOM     45  C   UNL A   1      43.577  33.907  27.983  1.00  0.00     0.001 A 
ATOM     46  C   UNL A   1      44.492  33.101  25.916  1.00  0.00     0.001 A 
ATOM     47  C   UNL A   1      43.912  34.125  26.652  1.00  0.00     0.000 A 
ENDBRANCH  28  42
BRANCH  29  48
ATOM     48  C   UNL A   1      37.721  31.198  33.148  1.00  0.00    -0.014 A 
ATOM     49  C   UNL A   1      37.796  32.032  34.278  1.00  0.00     0.009 A 
ATOM     50  C   UNL A   1      36.614  31.351  32.295  1.00  0.00     0.009 A 
ATOM     51  C   UNL A   1      36.826  33.016  34.515  1.00  0.00     0.001 A 
ATOM     52  C   UNL A   1      35.645  32.331  32.534  1.00  0.00     0.001 A 
ATOM     53  C   UNL A   1      35.760  33.176  33.634  1.00  0.00     0.000 A 
ENDBRANCH  29  48
BRANCH  41  54
ATOM     54  C   UNL A   1      43.406  28.775  33.916  1.00  0.00    -0.014 A 
ATOM     55  C   UNL A   1      42.706  27.556  33.876  1.00  0.00     0.009 A 
ATOM     56  C   UNL A   1      44.260  29.014  35.003  1.00  0.00     0.009 A 
ATOM     57  C   UNL A   1      42.824  26.628  34.915  1.00  0.00     0.001 A 
ATOM     58  C   UNL A   1      44.398  28.077  36.027  1.00  0.00     0.001 A 
ATOM     59  C   UNL A   1      43.673  26.888  35.989  1.00  0.00     0.000 A 
ENDBRANCH  41  54
ENDBRANCH  15  16
ENDBRANCH   8  10
ENDBRANCH   5   6
ENDBRANCH   4   5
ENDBRANCH   3   4
ENDBRANCH   2   3
ENDBRANCH   1   2
BRANCH   1  60
ATOM     60  C   UNL A   1      32.991  25.382  22.244  1.00  0.00     0.116 C 
BRANCH  60  61
ATOM     61  N   UNL A   1      33.299  26.756  22.618  1.00  0.00    -0.354 N 
ATOM     62  C   UNL A   1      32.456  27.830  22.801  1.00  0.00     0.249 C 
ATOM     63  H   UNL A   1      34.254  26.946  22.761  1.00  0.00     0.163 HD
ATOM     64  O   UNL A   1      32.951  28.957  22.879  1.00  0.00    -0.272 OA
BRANCH  62  65
ATOM     65  C   UNL A   1      30.938  27.552  22.839  1.00  0.00     0.223 C 
ATOM     66  C   UNL A   1      30.152  28.761  22.414  1.00  0.00     0.071 A 
ATOM     67  N   UNL A   1      30.228  26.981  24.002  1.00  0.00    -0.325 N 
ATOM     68  N   UNL A   1      30.537  29.829  21.655  1.00  0.00    -0.346 N 
ATOM     69  C   UNL A   1      28.820  28.976  22.680  1.00  0.00     0.066 A 
ATOM     70  C   UNL A   1      28.806  26.761  23.730  1.00  0.00     0.127 C 
ATOM     71  C   UNL A   1      29.416  30.595  21.453  1.00  0.00     0.197 A 
ATOM     72  H   UNL A   1      31.443  30.014  21.317  1.00  0.00     0.167 HD
ATOM     73  N   UNL A   1      28.360  30.099  22.063  1.00  0.00    -0.242 NA
ATOM     74  C   UNL A   1      28.028  28.078  23.546  1.00  0.00     0.080 C 
BRANCH  67  75
ATOM     75  C   UNL A   1      30.903  26.412  25.064  1.00  0.00     0.223 C 
ATOM     76  O   UNL A   1      31.001  25.190  25.188  1.00  0.00    -0.275 OA
BRANCH  75  77
ATOM     77  C   UNL A   1      31.469  27.308  26.178  1.00  0.00     0.100 C 
BRANCH  77  78
ATOM     78  C   UNL A   1      32.938  27.119  26.611  1.00  0.00     0.015 C 
BRANCH  78  79
ATOM     79  C   UNL A   1      34.007  28.133  26.111  1.00  0.00     0.038 C 
BRANCH  79  80
ATOM     80  C   UNL A   1      34.216  29.296  27.041  1.00  0.00    -0.023 A 
ATOM     81  C   UNL A   1      33.234  30.210  27.365  1.00  0.00     0.087 A 
ATOM     82  C   UNL A   1      35.415  29.739  27.712  1.00  0.00     0.003 A 
ATOM     83  N   UNL A   1      33.830  31.278  27.971  1.00  0.00    -0.361 N 
ATOM     84  C   UNL A   1      35.178  31.056  28.108  1.00  0.00     0.046 A 
ATOM     85  C   UNL A   1      36.703  29.209  27.962  1.00  0.00     0.010 A 
ATOM     86  H   UNL A   1      33.360  32.090  28.268  1.00  0.00     0.166 HD
ATOM     87  C   UNL A   1      36.187  31.911  28.568  1.00  0.00     0.026 A 
ATOM     88  C   UNL A   1      37.708  30.028  28.498  1.00  0.00     0.001 A 
ATOM     89  C   UNL A   1      37.461  31.372  28.757  1.00  0.00     0.002 A 
ENDBRANCH  79  80
ENDBRANCH  78  79
ENDBRANCH  77  78
ENDBRANCH  75  77
ENDBRANCH  67  75
ENDBRANCH  62  65
ENDBRANCH  60  61
ENDBRANCH   1  60
TORSDOF 18
ENDMDL
MODEL 3
REMARK VINA RESULT:     -11.4      1.587      4.035
REMARK SMILES O=C(NCCCCCCNC(=O)[C@@H]1c2[nH]cnc2CCN1C(=O)CCCc1c[nH]c2ccccc12)c1ccc(-c2c3nc(c(-c4ccccc4)c4ccc([nH]4)c(-c4ccccc4)c4nc(c(-c5ccccc5)c5ccc2[nH]5)C=C4)C=C3)cc1
REMARK SMILES IDX 8 1 7 2 6 3 5 4 4 5 3 6 1 7 2 8 36 10 37 11 83 12 38 13
REMARK SMILES IDX 82 14 39 15 40 16 41 17 76 18 42 19 81 20 75 21 77 22 43 23
REMARK SMILES IDX 80 24 74 25 73 26 44 28 66 29 51 30 65 31 52 32 55 33 64 34
REMARK SMILES IDX 78 35 53 36 54 37 63 39 79 40 56 41 45 42 46 43 50 44 47 45
REMARK SMILES IDX 49 46 48 47 67 48 68 49 72 50 69 51 71 52 70 53 57 54 58 55
REMARK SMILES IDX 62 56 59 57 61 58 60 59 9 60 10 61 11 62 12 64 13 65 14 66
REMARK SMILES IDX 21 67 15 68 18 69 20 70 16 71 17 73 19 74 22 75 23 76 24 77
REMARK SMILES IDX 25 78 26 79 27 80 28 81 35 82 29 83 30 84 34 85 31 87 33 88
REMARK SMILES IDX 32 89
REMARK H PARENT 3 9 77 27 55 38 10 63 15 72 29 86
REMARK Flexibility Score: inf
ROOT
ATOM      1  C   UNL A   1      32.275  25.611  26.349  1.00  0.00     0.021 C 
ENDROOT
BRANCH   1   2
ATOM      2  C   UNL A   1      31.113  26.586  26.557  1.00  0.00     0.002 C 
BRANCH   2   3
ATOM      3  C   UNL A   1      31.481  27.860  27.329  1.00  0.00     0.002 C 
BRANCH   3   4
ATOM      4  C   UNL A   1      31.861  29.067  26.459  1.00  0.00     0.021 C 
BRANCH   4   5
ATOM      5  C   UNL A   1      33.300  29.542  26.648  1.00  0.00     0.116 C 
BRANCH   5   6
ATOM      6  N   UNL A   1      33.398  30.813  27.335  1.00  0.00    -0.352 N 
ATOM      7  O   UNL A   1      34.088  32.618  28.398  1.00  0.00    -0.269 OA
ATOM      8  C   UNL A   1      34.394  31.494  27.969  1.00  0.00     0.251 C 
ATOM      9  H   UNL A   1      32.543  31.301  27.346  1.00  0.00     0.163 HD
BRANCH   8  10
ATOM     10  C   UNL A   1      35.772  30.991  28.224  1.00  0.00     0.039 A 
ATOM     11  C   UNL A   1      36.827  31.722  28.770  1.00  0.00     0.014 A 
ATOM     12  C   UNL A   1      36.007  29.644  27.877  1.00  0.00     0.014 A 
ATOM     13  C   UNL A   1      38.089  31.140  28.914  1.00  0.00     0.010 A 
ATOM     14  C   UNL A   1      37.261  29.056  28.023  1.00  0.00     0.010 A 
ATOM     15  C   UNL A   1      38.311  29.812  28.527  1.00  0.00    -0.014 A 
BRANCH  15  16
ATOM     16  C   UNL A   1      39.599  29.204  28.857  1.00  0.00     0.031 A 
ATOM     17  C   UNL A   1      39.877  29.124  30.318  1.00  0.00     0.074 A 
ATOM     18  C   UNL A   1      40.458  28.632  27.988  1.00  0.00     0.049 A 
ATOM     19  N   UNL A   1      40.770  29.780  30.983  1.00  0.00    -0.248 NA
ATOM     20  C   UNL A   1      38.994  28.295  31.150  1.00  0.00     0.031 C 
ATOM     21  C   UNL A   1      40.256  28.333  26.571  1.00  0.00     0.029 A 
ATOM     22  N   UNL A   1      41.698  28.113  28.238  1.00  0.00    -0.354 N 
ATOM     23  C   UNL A   1      40.684  29.328  32.297  1.00  0.00     0.074 A 
ATOM     24  C   UNL A   1      39.494  28.516  32.369  1.00  0.00     0.031 C 
ATOM     25  C   UNL A   1      41.238  27.503  26.144  1.00  0.00     0.029 A 
ATOM     26  C   UNL A   1      42.211  27.330  27.212  1.00  0.00     0.049 A 
ATOM     27  H   UNL A   1      42.187  28.281  29.076  1.00  0.00     0.167 HD
ATOM     28  C   UNL A   1      41.711  29.489  33.176  1.00  0.00     0.031 A 
ATOM     29  C   UNL A   1      43.335  26.569  27.251  1.00  0.00     0.031 A 
ATOM     30  C   UNL A   1      42.678  30.446  32.705  1.00  0.00     0.049 A 
ATOM     31  C   UNL A   1      44.187  27.068  28.352  1.00  0.00     0.074 A 
ATOM     32  C   UNL A   1      42.647  31.782  32.359  1.00  0.00     0.029 A 
ATOM     33  N   UNL A   1      43.845  29.948  32.179  1.00  0.00    -0.354 N 
ATOM     34  N   UNL A   1      44.816  28.204  28.316  1.00  0.00    -0.248 NA
ATOM     35  C   UNL A   1      44.035  26.478  29.671  1.00  0.00     0.031 C 
ATOM     36  C   UNL A   1      43.530  31.891  31.244  1.00  0.00     0.029 A 
ATOM     37  C   UNL A   1      44.093  30.634  31.021  1.00  0.00     0.049 A 
ATOM     38  H   UNL A   1      44.401  29.232  32.564  1.00  0.00     0.167 HD
ATOM     39  C   UNL A   1      44.723  28.693  29.609  1.00  0.00     0.074 A 
ATOM     40  C   UNL A   1      44.340  27.540  30.421  1.00  0.00     0.031 C 
ATOM     41  C   UNL A   1      44.691  30.037  29.849  1.00  0.00     0.031 A 
BRANCH  28  42
ATOM     42  C   UNL A   1      42.058  28.490  34.253  1.00  0.00    -0.014 A 
ATOM     43  C   UNL A   1      42.606  27.250  33.870  1.00  0.00     0.009 A 
ATOM     44  C   UNL A   1      41.592  28.594  35.576  1.00  0.00     0.009 A 
ATOM     45  C   UNL A   1      42.600  26.151  34.737  1.00  0.00     0.001 A 
ATOM     46  C   UNL A   1      41.624  27.510  36.458  1.00  0.00     0.001 A 
ATOM     47  C   UNL A   1      42.098  26.279  36.027  1.00  0.00     0.000 A 
ENDBRANCH  28  42
BRANCH  29  48
ATOM     48  C   UNL A   1      43.658  25.302  26.558  1.00  0.00    -0.014 A 
ATOM     49  C   UNL A   1      42.717  24.260  26.486  1.00  0.00     0.009 A 
ATOM     50  C   UNL A   1      44.775  25.234  25.707  1.00  0.00     0.009 A 
ATOM     51  C   UNL A   1      42.862  23.217  25.561  1.00  0.00     0.001 A 
ATOM     52  C   UNL A   1      44.921  24.191  24.786  1.00  0.00     0.001 A 
ATOM     53  C   UNL A   1      43.956  23.192  24.700  1.00  0.00     0.000 A 
ENDBRANCH  29  48
BRANCH  41  54
ATOM     54  C   UNL A   1      45.060  30.970  28.724  1.00  0.00    -0.014 A 
ATOM     55  C   UNL A   1      46.369  31.426  28.488  1.00  0.00     0.009 A 
ATOM     56  C   UNL A   1      44.064  31.302  27.791  1.00  0.00     0.009 A 
ATOM     57  C   UNL A   1      46.660  32.226  27.378  1.00  0.00     0.001 A 
ATOM     58  C   UNL A   1      44.360  32.077  26.670  1.00  0.00     0.001 A 
ATOM     59  C   UNL A   1      45.655  32.549  26.468  1.00  0.00     0.000 A 
ENDBRANCH  41  54
ENDBRANCH  15  16
ENDBRANCH   8  10
ENDBRANCH   5   6
ENDBRANCH   4   5
ENDBRANCH   3   4
ENDBRANCH   2   3
ENDBRANCH   1   2
BRANCH   1  60
ATOM     60  C   UNL A   1      31.871  24.153  26.558  1.00  0.00     0.116 C 
BRANCH  60  61
ATOM     61  N   UNL A   1      33.031  23.348  26.918  1.00  0.00    -0.354 N 
ATOM     62  C   UNL A   1      33.421  22.109  26.457  1.00  0.00     0.249 C 
ATOM     63  H   UNL A   1      33.625  23.750  27.592  1.00  0.00     0.163 HD
ATOM     64  O   UNL A   1      34.304  21.507  27.073  1.00  0.00    -0.272 OA
BRANCH  62  65
ATOM     65  C   UNL A   1      32.682  21.535  25.230  1.00  0.00     0.223 C 
ATOM     66  C   UNL A   1      32.702  20.032  25.237  1.00  0.00     0.071 A 
ATOM     67  N   UNL A   1      32.944  21.948  23.836  1.00  0.00    -0.325 N 
ATOM     68  N   UNL A   1      32.874  19.167  26.280  1.00  0.00    -0.346 N 
ATOM     69  C   UNL A   1      32.472  19.229  24.144  1.00  0.00     0.066 A 
ATOM     70  C   UNL A   1      32.046  21.289  22.884  1.00  0.00     0.127 C 
ATOM     71  C   UNL A   1      32.682  17.903  25.780  1.00  0.00     0.197 A 
ATOM     72  H   UNL A   1      33.093  19.403  27.210  1.00  0.00     0.167 HD
ATOM     73  N   UNL A   1      32.435  17.912  24.487  1.00  0.00    -0.242 NA
ATOM     74  C   UNL A   1      32.304  19.774  22.781  1.00  0.00     0.080 C 
BRANCH  67  75
ATOM     75  C   UNL A   1      33.694  23.067  23.533  1.00  0.00     0.223 C 
ATOM     76  O   UNL A   1      34.896  23.132  23.799  1.00  0.00    -0.275 OA
BRANCH  75  77
ATOM     77  C   UNL A   1      33.009  24.308  22.936  1.00  0.00     0.100 C 
BRANCH  77  78
ATOM     78  C   UNL A   1      33.844  25.587  22.719  1.00  0.00     0.015 C 
BRANCH  78  79
ATOM     79  C   UNL A   1      33.542  26.840  23.590  1.00  0.00     0.038 C 
BRANCH  79  80
ATOM     80  C   UNL A   1      32.501  27.748  22.999  1.00  0.00    -0.023 A 
ATOM     81  C   UNL A   1      32.790  28.918  22.324  1.00  0.00     0.087 A 
ATOM     82  C   UNL A   1      31.060  27.659  23.047  1.00  0.00     0.003 A 
ATOM     83  N   UNL A   1      31.634  29.631  22.194  1.00  0.00    -0.361 N 
ATOM     84  C   UNL A   1      30.578  28.925  22.715  1.00  0.00     0.046 A 
ATOM     85  C   UNL A   1      30.108  26.677  23.412  1.00  0.00     0.010 A 
ATOM     86  H   UNL A   1      31.566  30.523  21.785  1.00  0.00     0.166 HD
ATOM     87  C   UNL A   1      29.242  29.306  22.893  1.00  0.00     0.026 A 
ATOM     88  C   UNL A   1      28.751  27.019  23.519  1.00  0.00     0.001 A 
ATOM     89  C   UNL A   1      28.334  28.328  23.302  1.00  0.00     0.002 A 
ENDBRANCH  79  80
ENDBRANCH  78  79
ENDBRANCH  77  78
ENDBRANCH  75  77
ENDBRANCH  67  75
ENDBRANCH  62  65
ENDBRANCH  60  61
ENDBRANCH   1  60
TORSDOF 18
ENDMDL
