MODEL 1
REMARK VINA RESULT:     -10.6      0.000      0.000
REMARK SMILES CC(C)C[C@H](CNC(=O)c1ccc(O)cc1O)C(=O)NCCCCCCNC(=O)c1ccc(-c2c3nc(c(-c4ccccc4)c4ccc([nH]4)c(-c4ccccc4)c4nc(c(-c5ccccc5)c5ccc2[nH]5)C=C4)C=C3)cc1
REMARK SMILES IDX 22 1 21 2 20 3 18 4 19 5 5 7 4 8 2 9 1 10 3 11 6 12 7 13
REMARK SMILES IDX 8 14 9 16 10 17 11 18 16 19 12 20 15 21 13 22 17 23 14 25
REMARK SMILES IDX 23 27 24 28 25 29 26 30 27 31 28 32 29 34 30 35 31 36 77 37
REMARK SMILES IDX 32 38 76 39 33 40 34 41 35 42 70 43 36 44 75 45 69 46 71 47
REMARK SMILES IDX 37 48 74 49 68 50 67 51 38 53 60 54 45 55 59 56 46 57 49 58
REMARK SMILES IDX 58 59 72 60 47 61 48 62 57 64 73 65 50 66 39 67 40 68 44 69
REMARK SMILES IDX 41 70 43 71 42 72 61 73 62 74 66 75 63 76 65 77 64 78 51 79
REMARK SMILES IDX 52 80 56 81 53 82 55 83 54 84
REMARK H PARENT 20 6 7 15 17 24 14 26 27 33 71 52 49 63
REMARK Flexibility Score: inf
ROOT
ATOM      1  C   UNL A   1      32.180  28.472  26.649  1.00  0.00     0.021 C 
ENDROOT
BRANCH   1   2
ATOM      2  C   UNL A   1      32.564  27.074  26.170  1.00  0.00     0.116 C 
BRANCH   2   3
ATOM      3  N   UNL A   1      31.589  26.088  26.596  1.00  0.00    -0.356 N 
ATOM      4  C   UNL A   1      30.654  25.399  25.886  1.00  0.00     0.224 C 
ATOM      5  O   UNL A   1      29.878  24.673  26.511  1.00  0.00    -0.275 OA
ATOM      6  H   UNL A   1      31.607  25.882  27.559  1.00  0.00     0.163 HD
BRANCH   4   7
ATOM      7  C   UNL A   1      30.573  25.498  24.367  1.00  0.00     0.098 C 
BRANCH   7   8
ATOM      8  C   UNL A   1      29.381  26.365  23.902  1.00  0.00     0.018 C 
BRANCH   8   9
ATOM      9  C   UNL A   1      29.746  27.813  23.499  1.00  0.00    -0.017 C 
ATOM     10  C   UNL A   1      30.847  27.854  22.439  1.00  0.00     0.007 C 
ATOM     11  C   UNL A   1      28.500  28.534  22.977  1.00  0.00     0.007 C 
ENDBRANCH   8   9
ENDBRANCH   7   8
BRANCH   7  12
ATOM     12  C   UNL A   1      30.688  24.088  23.749  1.00  0.00     0.129 C 
BRANCH  12  13
ATOM     13  N   UNL A   1      31.790  23.933  22.806  1.00  0.00    -0.351 N 
ATOM     14  C   UNL A   1      32.895  23.132  22.920  1.00  0.00     0.255 C 
ATOM     15  H   UNL A   1      31.733  24.473  21.985  1.00  0.00     0.163 HD
ATOM     16  O   UNL A   1      33.916  23.378  22.280  1.00  0.00    -0.269 OA
BRANCH  14  17
ATOM     17  C   UNL A   1      32.897  22.009  23.869  1.00  0.00     0.081 A 
ATOM     18  C   UNL A   1      33.395  22.187  25.166  1.00  0.00     0.021 A 
ATOM     19  C   UNL A   1      32.372  20.773  23.481  1.00  0.00     0.132 A 
ATOM     20  C   UNL A   1      33.435  21.107  26.048  1.00  0.00     0.047 A 
ATOM     21  C   UNL A   1      32.425  19.693  24.352  1.00  0.00     0.093 A 
ATOM     22  C   UNL A   1      32.963  19.865  25.626  1.00  0.00     0.119 A 
BRANCH  19  23
ATOM     23  O   UNL A   1      31.797  20.570  22.255  1.00  0.00    -0.507 OA
ATOM     24  H   UNL A   1      31.004  21.015  22.029  1.00  0.00     0.293 HD
ENDBRANCH  19  23
BRANCH  22  25
ATOM     25  O   UNL A   1      33.003  18.781  26.452  1.00  0.00    -0.508 OA
ATOM     26  H   UNL A   1      32.423  18.730  27.186  1.00  0.00     0.293 HD
ENDBRANCH  22  25
ENDBRANCH  14  17
ENDBRANCH  12  13
ENDBRANCH   7  12
ENDBRANCH   4   7
ENDBRANCH   2   3
ENDBRANCH   1   2
BRANCH   1  27
ATOM     27  C   UNL A   1      32.326  29.565  25.586  1.00  0.00     0.002 C 
BRANCH  27  28
ATOM     28  C   UNL A   1      31.297  30.697  25.673  1.00  0.00     0.002 C 
BRANCH  28  29
ATOM     29  C   UNL A   1      31.408  31.591  26.911  1.00  0.00     0.021 C 
BRANCH  29  30
ATOM     30  C   UNL A   1      32.686  32.422  26.997  1.00  0.00     0.116 C 
BRANCH  30  31
ATOM     31  N   UNL A   1      32.447  33.751  27.532  1.00  0.00    -0.352 N 
ATOM     32  C   UNL A   1      33.144  34.436  28.490  1.00  0.00     0.251 C 
ATOM     33  H   UNL A   1      31.674  34.226  27.150  1.00  0.00     0.163 HD
ATOM     34  O   UNL A   1      32.704  35.497  28.933  1.00  0.00    -0.269 OA
BRANCH  32  35
ATOM     35  C   UNL A   1      34.418  33.899  29.013  1.00  0.00     0.039 A 
ATOM     36  C   UNL A   1      34.381  33.038  30.113  1.00  0.00     0.014 A 
ATOM     37  C   UNL A   1      35.643  34.260  28.444  1.00  0.00     0.014 A 
ATOM     38  C   UNL A   1      35.569  32.506  30.617  1.00  0.00     0.010 A 
ATOM     39  C   UNL A   1      36.822  33.684  28.911  1.00  0.00     0.010 A 
ATOM     40  C   UNL A   1      36.797  32.810  30.008  1.00  0.00    -0.014 A 
BRANCH  40  41
ATOM     41  C   UNL A   1      38.065  32.239  30.523  1.00  0.00     0.031 A 
ATOM     42  C   UNL A   1      38.601  30.956  29.952  1.00  0.00     0.074 A 
ATOM     43  C   UNL A   1      38.712  32.851  31.533  1.00  0.00     0.049 A 
ATOM     44  N   UNL A   1      39.667  30.279  30.300  1.00  0.00    -0.248 NA
ATOM     45  C   UNL A   1      37.827  30.342  28.862  1.00  0.00     0.031 C 
ATOM     46  C   UNL A   1      38.281  34.082  32.197  1.00  0.00     0.029 A 
ATOM     47  N   UNL A   1      39.875  32.513  32.180  1.00  0.00    -0.354 N 
ATOM     48  C   UNL A   1      39.683  29.156  29.482  1.00  0.00     0.074 A 
ATOM     49  C   UNL A   1      38.499  29.218  28.653  1.00  0.00     0.031 C 
ATOM     50  C   UNL A   1      39.176  34.407  33.143  1.00  0.00     0.029 A 
ATOM     51  C   UNL A   1      40.227  33.395  33.172  1.00  0.00     0.049 A 
ATOM     52  H   UNL A   1      40.405  31.715  31.955  1.00  0.00     0.167 HD
ATOM     53  C   UNL A   1      40.608  28.170  29.413  1.00  0.00     0.031 A 
ATOM     54  C   UNL A   1      41.280  33.388  34.011  1.00  0.00     0.031 A 
ATOM     55  C   UNL A   1      41.793  28.109  30.226  1.00  0.00     0.049 A 
ATOM     56  C   UNL A   1      42.297  32.286  33.909  1.00  0.00     0.074 A 
ATOM     57  C   UNL A   1      42.807  27.168  30.206  1.00  0.00     0.029 A 
ATOM     58  N   UNL A   1      42.125  29.035  31.202  1.00  0.00    -0.354 N 
ATOM     59  N   UNL A   1      42.320  31.256  33.099  1.00  0.00    -0.248 NA
ATOM     60  C   UNL A   1      43.440  32.356  34.830  1.00  0.00     0.031 C 
ATOM     61  C   UNL A   1      43.739  27.508  31.193  1.00  0.00     0.029 A 
ATOM     62  C   UNL A   1      43.324  28.684  31.796  1.00  0.00     0.049 A 
ATOM     63  H   UNL A   1      41.586  29.826  31.437  1.00  0.00     0.167 HD
ATOM     64  C   UNL A   1      43.492  30.573  33.391  1.00  0.00     0.074 A 
ATOM     65  C   UNL A   1      44.158  31.310  34.445  1.00  0.00     0.031 C 
ATOM     66  C   UNL A   1      43.975  29.434  32.837  1.00  0.00     0.031 A 
BRANCH  53  67
ATOM     67  C   UNL A   1      40.369  27.074  28.413  1.00  0.00    -0.014 A 
ATOM     68  C   UNL A   1      39.623  25.935  28.757  1.00  0.00     0.009 A 
ATOM     69  C   UNL A   1      40.874  27.190  27.110  1.00  0.00     0.009 A 
ATOM     70  C   UNL A   1      39.418  24.917  27.823  1.00  0.00     0.001 A 
ATOM     71  C   UNL A   1      40.645  26.182  26.171  1.00  0.00     0.001 A 
ATOM     72  C   UNL A   1      39.925  25.043  26.531  1.00  0.00     0.000 A 
ENDBRANCH  53  67
BRANCH  54  73
ATOM     73  C   UNL A   1      41.442  34.474  35.010  1.00  0.00    -0.014 A 
ATOM     74  C   UNL A   1      42.161  35.635  34.685  1.00  0.00     0.009 A 
ATOM     75  C   UNL A   1      40.891  34.351  36.294  1.00  0.00     0.009 A 
ATOM     76  C   UNL A   1      42.349  36.639  35.638  1.00  0.00     0.001 A 
ATOM     77  C   UNL A   1      41.060  35.369  37.236  1.00  0.00     0.001 A 
ATOM     78  C   UNL A   1      41.796  36.506  36.910  1.00  0.00     0.000 A 
ENDBRANCH  54  73
BRANCH  66  79
ATOM     79  C   UNL A   1      45.304  28.944  33.334  1.00  0.00    -0.014 A 
ATOM     80  C   UNL A   1      45.393  28.035  34.398  1.00  0.00     0.009 A 
ATOM     81  C   UNL A   1      46.481  29.378  32.705  1.00  0.00     0.009 A 
ATOM     82  C   UNL A   1      46.640  27.595  34.846  1.00  0.00     0.001 A 
ATOM     83  C   UNL A   1      47.725  28.918  33.140  1.00  0.00     0.001 A 
ATOM     84  C   UNL A   1      47.804  28.034  34.214  1.00  0.00     0.000 A 
ENDBRANCH  66  79
ENDBRANCH  40  41
ENDBRANCH  32  35
ENDBRANCH  30  31
ENDBRANCH  29  30
ENDBRANCH  28  29
ENDBRANCH  27  28
ENDBRANCH   1  27
TORSDOF 20
ENDMDL
MODEL 2
REMARK VINA RESULT:     -10.6      0.822      5.900
REMARK SMILES CC(C)C[C@H](CNC(=O)c1ccc(O)cc1O)C(=O)NCCCCCCNC(=O)c1ccc(-c2c3nc(c(-c4ccccc4)c4ccc([nH]4)c(-c4ccccc4)c4nc(c(-c5ccccc5)c5ccc2[nH]5)C=C4)C=C3)cc1
REMARK SMILES IDX 22 1 21 2 20 3 18 4 19 5 5 7 4 8 2 9 1 10 3 11 6 12 7 13
REMARK SMILES IDX 8 14 9 16 10 17 11 18 16 19 12 20 15 21 13 22 17 23 14 25
REMARK SMILES IDX 23 27 24 28 25 29 26 30 27 31 28 32 29 34 30 35 31 36 77 37
REMARK SMILES IDX 32 38 76 39 33 40 34 41 35 42 70 43 36 44 75 45 69 46 71 47
REMARK SMILES IDX 37 48 74 49 68 50 67 51 38 53 60 54 45 55 59 56 46 57 49 58
REMARK SMILES IDX 58 59 72 60 47 61 48 62 57 64 73 65 50 66 39 67 40 68 44 69
REMARK SMILES IDX 41 70 43 71 42 72 61 73 62 74 66 75 63 76 65 77 64 78 51 79
REMARK SMILES IDX 52 80 56 81 53 82 55 83 54 84
REMARK H PARENT 20 6 7 15 17 24 14 26 27 33 71 52 49 63
REMARK Flexibility Score: inf
ROOT
ATOM      1  C   UNL A   1      32.295  28.671  27.231  1.00  0.00     0.021 C 
ENDROOT
BRANCH   1   2
ATOM      2  C   UNL A   1      32.414  27.396  26.398  1.00  0.00     0.116 C 
BRANCH   2   3
ATOM      3  N   UNL A   1      31.353  26.460  26.717  1.00  0.00    -0.356 N 
ATOM      4  C   UNL A   1      30.485  25.793  25.908  1.00  0.00     0.224 C 
ATOM      5  O   UNL A   1      29.607  25.114  26.444  1.00  0.00    -0.275 OA
ATOM      6  H   UNL A   1      31.242  26.277  27.678  1.00  0.00     0.163 HD
BRANCH   4   7
ATOM      7  C   UNL A   1      30.598  25.859  24.390  1.00  0.00     0.098 C 
BRANCH   7   8
ATOM      8  C   UNL A   1      29.562  26.824  23.769  1.00  0.00     0.018 C 
BRANCH   8   9
ATOM      9  C   UNL A   1      30.066  28.269  23.549  1.00  0.00    -0.017 C 
ATOM     10  C   UNL A   1      31.459  28.303  22.920  1.00  0.00     0.007 C 
ATOM     11  C   UNL A   1      29.079  29.032  22.661  1.00  0.00     0.007 C 
ENDBRANCH   8   9
ENDBRANCH   7   8
BRANCH   7  12
ATOM     12  C   UNL A   1      30.648  24.429  23.811  1.00  0.00     0.129 C 
BRANCH  12  13
ATOM     13  N   UNL A   1      31.615  24.250  22.734  1.00  0.00    -0.351 N 
ATOM     14  C   UNL A   1      32.725  23.449  22.718  1.00  0.00     0.255 C 
ATOM     15  H   UNL A   1      31.448  24.771  21.915  1.00  0.00     0.163 HD
ATOM     16  O   UNL A   1      33.652  23.678  21.942  1.00  0.00    -0.269 OA
BRANCH  14  17
ATOM     17  C   UNL A   1      32.855  22.348  23.683  1.00  0.00     0.081 A 
ATOM     18  C   UNL A   1      32.290  21.097  23.401  1.00  0.00     0.021 A 
ATOM     19  C   UNL A   1      33.570  22.546  24.868  1.00  0.00     0.132 A 
ATOM     20  C   UNL A   1      32.379  20.069  24.340  1.00  0.00     0.047 A 
ATOM     21  C   UNL A   1      33.646  21.527  25.810  1.00  0.00     0.093 A 
ATOM     22  C   UNL A   1      33.043  20.300  25.543  1.00  0.00     0.119 A 
BRANCH  19  23
ATOM     23  O   UNL A   1      34.212  23.721  25.153  1.00  0.00    -0.507 OA
ATOM     24  H   UNL A   1      35.113  23.832  24.919  1.00  0.00     0.293 HD
ENDBRANCH  19  23
BRANCH  22  25
ATOM     25  O   UNL A   1      33.135  19.326  26.493  1.00  0.00    -0.508 OA
ATOM     26  H   UNL A   1      32.397  19.130  27.035  1.00  0.00     0.293 HD
ENDBRANCH  22  25
ENDBRANCH  14  17
ENDBRANCH  12  13
ENDBRANCH   7  12
ENDBRANCH   4   7
ENDBRANCH   2   3
ENDBRANCH   1   2
BRANCH   1  27
ATOM     27  C   UNL A   1      32.554  29.961  26.449  1.00  0.00     0.002 C 
BRANCH  27  28
ATOM     28  C   UNL A   1      31.297  30.732  26.032  1.00  0.00     0.002 C 
BRANCH  28  29
ATOM     29  C   UNL A   1      31.250  32.198  26.472  1.00  0.00     0.021 C 
BRANCH  29  30
ATOM     30  C   UNL A   1      32.579  32.772  26.955  1.00  0.00     0.116 C 
BRANCH  30  31
ATOM     31  N   UNL A   1      32.410  33.998  27.715  1.00  0.00    -0.352 N 
ATOM     32  C   UNL A   1      33.168  34.491  28.743  1.00  0.00     0.251 C 
ATOM     33  H   UNL A   1      31.640  34.553  27.454  1.00  0.00     0.163 HD
ATOM     34  O   UNL A   1      32.783  35.473  29.377  1.00  0.00    -0.269 OA
BRANCH  32  35
ATOM     35  C   UNL A   1      34.441  33.836  29.111  1.00  0.00     0.039 A 
ATOM     36  C   UNL A   1      35.584  34.125  28.361  1.00  0.00     0.014 A 
ATOM     37  C   UNL A   1      34.505  32.922  30.167  1.00  0.00     0.014 A 
ATOM     38  C   UNL A   1      36.802  33.532  28.697  1.00  0.00     0.010 A 
ATOM     39  C   UNL A   1      35.732  32.375  30.536  1.00  0.00     0.010 A 
ATOM     40  C   UNL A   1      36.889  32.666  29.799  1.00  0.00    -0.014 A 
BRANCH  40  41
ATOM     41  C   UNL A   1      38.179  32.040  30.176  1.00  0.00     0.031 A 
ATOM     42  C   UNL A   1      39.115  32.749  31.116  1.00  0.00     0.074 A 
ATOM     43  C   UNL A   1      38.529  30.854  29.641  1.00  0.00     0.049 A 
ATOM     44  N   UNL A   1      40.303  32.385  31.528  1.00  0.00    -0.248 NA
ATOM     45  C   UNL A   1      38.665  34.046  31.644  1.00  0.00     0.031 C 
ATOM     46  C   UNL A   1      37.727  30.080  28.693  1.00  0.00     0.029 A 
ATOM     47  N   UNL A   1      39.659  30.096  29.820  1.00  0.00    -0.354 N 
ATOM     48  C   UNL A   1      40.747  33.412  32.352  1.00  0.00     0.074 A 
ATOM     49  C   UNL A   1      39.722  34.433  32.345  1.00  0.00     0.031 C 
ATOM     50  C   UNL A   1      38.381  28.947  28.389  1.00  0.00     0.029 A 
ATOM     51  C   UNL A   1      39.657  28.929  29.097  1.00  0.00     0.049 A 
ATOM     52  H   UNL A   1      40.400  30.363  30.411  1.00  0.00     0.167 HD
ATOM     53  C   UNL A   1      41.894  33.492  33.065  1.00  0.00     0.031 A 
ATOM     54  C   UNL A   1      40.580  27.953  29.013  1.00  0.00     0.031 A 
ATOM     55  C   UNL A   1      42.911  32.475  33.085  1.00  0.00     0.049 A 
ATOM     56  C   UNL A   1      41.844  28.063  29.820  1.00  0.00     0.074 A 
ATOM     57  C   UNL A   1      44.094  32.450  33.802  1.00  0.00     0.029 A 
ATOM     58  N   UNL A   1      42.859  31.297  32.356  1.00  0.00    -0.354 N 
ATOM     59  N   UNL A   1      42.226  29.020  30.629  1.00  0.00    -0.248 NA
ATOM     60  C   UNL A   1      42.795  26.947  29.712  1.00  0.00     0.031 C 
ATOM     61  C   UNL A   1      44.774  31.269  33.484  1.00  0.00     0.029 A 
ATOM     62  C   UNL A   1      43.992  30.541  32.601  1.00  0.00     0.049 A 
ATOM     63  H   UNL A   1      42.124  31.037  31.754  1.00  0.00     0.167 HD
ATOM     64  C   UNL A   1      43.447  28.610  31.148  1.00  0.00     0.074 A 
ATOM     65  C   UNL A   1      43.735  27.313  30.572  1.00  0.00     0.031 C 
ATOM     66  C   UNL A   1      44.258  29.251  32.024  1.00  0.00     0.031 A 
BRANCH  53  67
ATOM     67  C   UNL A   1      42.106  34.731  33.888  1.00  0.00    -0.014 A 
ATOM     68  C   UNL A   1      41.710  34.780  35.234  1.00  0.00     0.009 A 
ATOM     69  C   UNL A   1      42.729  35.853  33.320  1.00  0.00     0.009 A 
ATOM     70  C   UNL A   1      41.901  35.941  35.986  1.00  0.00     0.001 A 
ATOM     71  C   UNL A   1      42.941  37.004  34.081  1.00  0.00     0.001 A 
ATOM     72  C   UNL A   1      42.520  37.050  35.410  1.00  0.00     0.000 A 
ENDBRANCH  53  67
BRANCH  54  73
ATOM     73  C   UNL A   1      40.337  26.771  28.149  1.00  0.00    -0.014 A 
ATOM     74  C   UNL A   1      40.836  26.738  26.836  1.00  0.00     0.009 A 
ATOM     75  C   UNL A   1      39.598  25.678  28.624  1.00  0.00     0.009 A 
ATOM     76  C   UNL A   1      40.573  25.644  26.009  1.00  0.00     0.001 A 
ATOM     77  C   UNL A   1      39.359  24.575  27.802  1.00  0.00     0.001 A 
ATOM     78  C   UNL A   1      39.838  24.563  26.493  1.00  0.00     0.000 A 
ENDBRANCH  54  73
BRANCH  66  79
ATOM     79  C   UNL A   1      45.512  28.537  32.441  1.00  0.00    -0.014 A 
ATOM     80  C   UNL A   1      45.520  27.658  33.533  1.00  0.00     0.009 A 
ATOM     81  C   UNL A   1      46.694  28.728  31.708  1.00  0.00     0.009 A 
ATOM     82  C   UNL A   1      46.697  27.007  33.905  1.00  0.00     0.001 A 
ATOM     83  C   UNL A   1      47.863  28.059  32.068  1.00  0.00     0.001 A 
ATOM     84  C   UNL A   1      47.867  27.206  33.171  1.00  0.00     0.000 A 
ENDBRANCH  66  79
ENDBRANCH  40  41
ENDBRANCH  32  35
ENDBRANCH  30  31
ENDBRANCH  29  30
ENDBRANCH  28  29
ENDBRANCH  27  28
ENDBRANCH   1  27
TORSDOF 20
ENDMDL
MODEL 3
REMARK VINA RESULT:     -10.6      2.650      7.196
REMARK SMILES CC(C)C[C@H](CNC(=O)c1ccc(O)cc1O)C(=O)NCCCCCCNC(=O)c1ccc(-c2c3nc(c(-c4ccccc4)c4ccc([nH]4)c(-c4ccccc4)c4nc(c(-c5ccccc5)c5ccc2[nH]5)C=C4)C=C3)cc1
REMARK SMILES IDX 22 1 21 2 20 3 18 4 19 5 5 7 4 8 2 9 1 10 3 11 6 12 7 13
REMARK SMILES IDX 8 14 9 16 10 17 11 18 16 19 12 20 15 21 13 22 17 23 14 25
REMARK SMILES IDX 23 27 24 28 25 29 26 30 27 31 28 32 29 34 30 35 31 36 77 37
REMARK SMILES IDX 32 38 76 39 33 40 34 41 35 42 70 43 36 44 75 45 69 46 71 47
REMARK SMILES IDX 37 48 74 49 68 50 67 51 38 53 60 54 45 55 59 56 46 57 49 58
REMARK SMILES IDX 58 59 72 60 47 61 48 62 57 64 73 65 50 66 39 67 40 68 44 69
REMARK SMILES IDX 41 70 43 71 42 72 61 73 62 74 66 75 63 76 65 77 64 78 51 79
REMARK SMILES IDX 52 80 56 81 53 82 55 83 54 84
REMARK H PARENT 20 6 7 15 17 24 14 26 27 33 71 52 49 63
REMARK Flexibility Score: inf
ROOT
ATOM      1  C   UNL A   1      33.570  31.735  27.572  1.00  0.00     0.021 C 
ENDROOT
BRANCH   1   2
ATOM      2  C   UNL A   1      33.798  30.262  27.241  1.00  0.00     0.116 C 
BRANCH   2   3
ATOM      3  N   UNL A   1      32.748  29.431  27.799  1.00  0.00    -0.356 N 
ATOM      4  C   UNL A   1      32.101  28.351  27.282  1.00  0.00     0.224 C 
ATOM      5  O   UNL A   1      31.172  27.870  27.934  1.00  0.00    -0.275 OA
ATOM      6  H   UNL A   1      32.454  29.691  28.702  1.00  0.00     0.163 HD
BRANCH   4   7
ATOM      7  C   UNL A   1      32.517  27.733  25.952  1.00  0.00     0.098 C 
BRANCH   7   8
ATOM      8  C   UNL A   1      33.766  26.833  26.092  1.00  0.00     0.018 C 
BRANCH   8   9
ATOM      9  C   UNL A   1      33.494  25.316  25.972  1.00  0.00    -0.017 C 
ATOM     10  C   UNL A   1      32.258  25.019  25.121  1.00  0.00     0.007 C 
ATOM     11  C   UNL A   1      34.716  24.617  25.370  1.00  0.00     0.007 C 
ENDBRANCH   8   9
ENDBRANCH   7   8
BRANCH   7  12
ATOM     12  C   UNL A   1      32.570  28.829  24.865  1.00  0.00     0.129 C 
BRANCH  12  13
ATOM     13  N   UNL A   1      32.844  28.330  23.523  1.00  0.00    -0.351 N 
ATOM     14  C   UNL A   1      31.962  27.794  22.623  1.00  0.00     0.255 C 
ATOM     15  H   UNL A   1      33.781  28.386  23.226  1.00  0.00     0.163 HD
ATOM     16  O   UNL A   1      32.359  27.064  21.716  1.00  0.00    -0.269 OA
BRANCH  14  17
ATOM     17  C   UNL A   1      30.519  28.025  22.777  1.00  0.00     0.081 A 
ATOM     18  C   UNL A   1      29.732  27.104  23.480  1.00  0.00     0.021 A 
ATOM     19  C   UNL A   1      29.942  29.183  22.248  1.00  0.00     0.132 A 
ATOM     20  C   UNL A   1      28.355  27.306  23.586  1.00  0.00     0.047 A 
ATOM     21  C   UNL A   1      28.569  29.378  22.339  1.00  0.00     0.093 A 
ATOM     22  C   UNL A   1      27.786  28.434  23.000  1.00  0.00     0.119 A 
BRANCH  19  23
ATOM     23  O   UNL A   1      30.679  30.155  21.626  1.00  0.00    -0.507 OA
ATOM     24  H   UNL A   1      31.569  29.986  21.384  1.00  0.00     0.293 HD
ENDBRANCH  19  23
BRANCH  22  25
ATOM     25  O   UNL A   1      26.442  28.658  23.066  1.00  0.00    -0.508 OA
ATOM     26  H   UNL A   1      26.107  29.343  23.610  1.00  0.00     0.293 HD
ENDBRANCH  22  25
ENDBRANCH  14  17
ENDBRANCH  12  13
ENDBRANCH   7  12
ENDBRANCH   4   7
ENDBRANCH   2   3
ENDBRANCH   1   2
BRANCH   1  27
ATOM     27  C   UNL A   1      34.664  32.362  28.441  1.00  0.00     0.002 C 
BRANCH  27  28
ATOM     28  C   UNL A   1      34.627  33.891  28.531  1.00  0.00     0.002 C 
BRANCH  28  29
ATOM     29  C   UNL A   1      33.262  34.495  28.875  1.00  0.00     0.021 C 
BRANCH  29  30
ATOM     30  C   UNL A   1      33.293  35.958  29.309  1.00  0.00     0.116 C 
BRANCH  30  31
ATOM     31  N   UNL A   1      32.525  36.193  30.519  1.00  0.00    -0.352 N 
ATOM     32  C   UNL A   1      32.717  35.691  31.778  1.00  0.00     0.251 C 
ATOM     33  H   UNL A   1      31.756  36.799  30.419  1.00  0.00     0.163 HD
ATOM     34  O   UNL A   1      31.871  35.876  32.652  1.00  0.00    -0.269 OA
BRANCH  32  35
ATOM     35  C   UNL A   1      33.932  34.908  32.090  1.00  0.00     0.039 A 
ATOM     36  C   UNL A   1      35.166  35.564  32.111  1.00  0.00     0.014 A 
ATOM     37  C   UNL A   1      33.863  33.533  32.334  1.00  0.00     0.014 A 
ATOM     38  C   UNL A   1      36.325  34.851  32.417  1.00  0.00     0.010 A 
ATOM     39  C   UNL A   1      35.012  32.834  32.695  1.00  0.00     0.010 A 
ATOM     40  C   UNL A   1      36.255  33.484  32.730  1.00  0.00    -0.014 A 
BRANCH  40  41
ATOM     41  C   UNL A   1      37.477  32.716  33.072  1.00  0.00     0.031 A 
ATOM     42  C   UNL A   1      38.190  32.974  34.371  1.00  0.00     0.074 A 
ATOM     43  C   UNL A   1      37.970  31.819  32.198  1.00  0.00     0.049 A 
ATOM     44  N   UNL A   1      39.295  32.438  34.827  1.00  0.00    -0.248 NA
ATOM     45  C   UNL A   1      37.596  33.981  35.264  1.00  0.00     0.031 C 
ATOM     46  C   UNL A   1      37.393  31.499  30.891  1.00  0.00     0.029 A 
ATOM     47  N   UNL A   1      39.077  31.012  32.280  1.00  0.00    -0.354 N 
ATOM     48  C   UNL A   1      39.533  33.051  36.050  1.00  0.00     0.074 A 
ATOM     49  C   UNL A   1      38.486  34.030  36.246  1.00  0.00     0.031 C 
ATOM     50  C   UNL A   1      38.138  30.551  30.302  1.00  0.00     0.029 A 
ATOM     51  C   UNL A   1      39.259  30.216  31.175  1.00  0.00     0.049 A 
ATOM     52  H   UNL A   1      39.683  31.004  33.055  1.00  0.00     0.167 HD
ATOM     53  C   UNL A   1      40.523  32.810  36.941  1.00  0.00     0.031 A 
ATOM     54  C   UNL A   1      40.222  29.317  30.897  1.00  0.00     0.031 A 
ATOM     55  C   UNL A   1      41.560  31.830  36.758  1.00  0.00     0.049 A 
ATOM     56  C   UNL A   1      41.307  29.063  31.906  1.00  0.00     0.074 A 
ATOM     57  C   UNL A   1      42.588  31.489  37.619  1.00  0.00     0.029 A 
ATOM     58  N   UNL A   1      41.694  31.028  35.636  1.00  0.00    -0.354 N 
ATOM     59  N   UNL A   1      41.491  29.619  33.078  1.00  0.00    -0.248 NA
ATOM     60  C   UNL A   1      42.307  28.044  31.557  1.00  0.00     0.031 C 
ATOM     61  C   UNL A   1      43.364  30.500  37.004  1.00  0.00     0.029 A 
ATOM     62  C   UNL A   1      42.792  30.198  35.779  1.00  0.00     0.049 A 
ATOM     63  H   UNL A   1      41.096  31.047  34.853  1.00  0.00     0.167 HD
ATOM     64  C   UNL A   1      42.609  28.998  33.618  1.00  0.00     0.074 A 
ATOM     65  C   UNL A   1      43.054  28.016  32.651  1.00  0.00     0.031 C 
ATOM     66  C   UNL A   1      43.215  29.222  34.809  1.00  0.00     0.031 A 
BRANCH  53  67
ATOM     67  C   UNL A   1      40.525  33.626  38.203  1.00  0.00    -0.014 A 
ATOM     68  C   UNL A   1      41.178  34.869  38.256  1.00  0.00     0.009 A 
ATOM     69  C   UNL A   1      39.850  33.162  39.341  1.00  0.00     0.009 A 
ATOM     70  C   UNL A   1      41.184  35.613  39.438  1.00  0.00     0.001 A 
ATOM     71  C   UNL A   1      39.836  33.920  40.513  1.00  0.00     0.001 A 
ATOM     72  C   UNL A   1      40.510  35.140  40.563  1.00  0.00     0.000 A 
ENDBRANCH  53  67
BRANCH  54  73
ATOM     73  C   UNL A   1      40.195  28.571  29.614  1.00  0.00    -0.014 A 
ATOM     74  C   UNL A   1      40.778  29.121  28.461  1.00  0.00     0.009 A 
ATOM     75  C   UNL A   1      39.577  27.314  29.532  1.00  0.00     0.009 A 
ATOM     76  C   UNL A   1      40.716  28.437  27.245  1.00  0.00     0.001 A 
ATOM     77  C   UNL A   1      39.540  26.622  28.319  1.00  0.00     0.001 A 
ATOM     78  C   UNL A   1      40.101  27.189  27.176  1.00  0.00     0.000 A 
ENDBRANCH  54  73
BRANCH  66  79
ATOM     79  C   UNL A   1      44.397  28.360  35.146  1.00  0.00    -0.014 A 
ATOM     80  C   UNL A   1      45.703  28.757  34.822  1.00  0.00     0.009 A 
ATOM     81  C   UNL A   1      44.200  27.147  35.824  1.00  0.00     0.009 A 
ATOM     82  C   UNL A   1      46.787  27.938  35.141  1.00  0.00     0.001 A 
ATOM     83  C   UNL A   1      45.287  26.342  36.163  1.00  0.00     0.001 A 
ATOM     84  C   UNL A   1      46.579  26.734  35.814  1.00  0.00     0.000 A 
ENDBRANCH  66  79
ENDBRANCH  40  41
ENDBRANCH  32  35
ENDBRANCH  30  31
ENDBRANCH  29  30
ENDBRANCH  28  29
ENDBRANCH  27  28
ENDBRANCH   1  27
TORSDOF 20
ENDMDL
