MODEL 1
REMARK VINA RESULT:     -10.6      0.000      0.000
REMARK SMILES CC(C)C[C@H](CNC(=O)NC[C@H]1CCC(=O)N1)C(=O)NCCCCCCNC(=O)c1ccc(-c2c3nc(c(-c4ccccc4)c4ccc([nH]4)c(-c4ccccc4)c4nc(c(-c5ccccc5)c5ccc2[nH]5)C=C4)C=C3)cc1
REMARK SMILES IDX 22 1 21 2 20 3 18 4 19 5 5 7 4 8 2 9 1 10 3 11 6 12 7 13
REMARK SMILES IDX 8 14 9 16 10 17 11 19 12 20 13 21 17 22 14 23 15 24 16 26
REMARK SMILES IDX 23 27 24 28 25 29 26 30 27 31 28 32 29 34 30 35 31 36 77 37
REMARK SMILES IDX 32 38 76 39 33 40 34 41 35 42 70 43 36 44 75 45 69 46 71 47
REMARK SMILES IDX 37 48 74 49 68 50 67 51 38 53 60 54 45 55 59 56 46 57 49 58
REMARK SMILES IDX 58 59 72 60 47 61 48 62 57 64 73 65 50 66 39 67 40 68 44 69
REMARK SMILES IDX 41 70 43 71 42 72 61 73 62 74 66 75 63 76 65 77 64 78 51 79
REMARK SMILES IDX 52 80 56 81 53 82 55 83 54 84
REMARK H PARENT 20 6 7 15 10 18 17 25 27 33 71 52 49 63
REMARK Flexibility Score: inf
ROOT
ATOM      1  C   UNL A   1      33.482  28.955  26.660  1.00  0.00     0.021 C 
ENDROOT
BRANCH   1   2
ATOM      2  C   UNL A   1      33.271  27.838  25.647  1.00  0.00     0.116 C 
BRANCH   2   3
ATOM      3  N   UNL A   1      31.972  27.218  25.783  1.00  0.00    -0.356 N 
ATOM      4  C   UNL A   1      30.927  27.125  24.921  1.00  0.00     0.224 C 
ATOM      5  O   UNL A   1      29.944  26.487  25.317  1.00  0.00    -0.275 OA
ATOM      6  H   UNL A   1      31.819  26.786  26.654  1.00  0.00     0.163 HD
BRANCH   4   7
ATOM      7  C   UNL A   1      30.890  27.776  23.529  1.00  0.00     0.098 C 
BRANCH   7   8
ATOM      8  C   UNL A   1      30.135  29.133  23.469  1.00  0.00     0.018 C 
BRANCH   8   9
ATOM      9  C   UNL A   1      28.909  29.335  22.540  1.00  0.00    -0.017 C 
ATOM     10  C   UNL A   1      27.564  28.851  23.082  1.00  0.00     0.007 C 
ATOM     11  C   UNL A   1      28.745  30.840  22.268  1.00  0.00     0.007 C 
ENDBRANCH   8   9
ENDBRANCH   7   8
BRANCH   7  12
ATOM     12  C   UNL A   1      30.702  26.783  22.374  1.00  0.00     0.131 C 
BRANCH  12  13
ATOM     13  N   UNL A   1      31.857  26.616  21.509  1.00  0.00    -0.337 N 
ATOM     14  C   UNL A   1      32.506  25.505  21.121  1.00  0.00     0.314 C 
ATOM     15  H   UNL A   1      32.227  27.456  21.149  1.00  0.00     0.165 HD
ATOM     16  O   UNL A   1      33.108  25.503  20.047  1.00  0.00    -0.249 OA
ATOM     17  N   UNL A   1      32.522  24.380  21.859  1.00  0.00    -0.336 N 
ATOM     18  H   UNL A   1      32.565  23.543  21.344  1.00  0.00     0.165 HD
BRANCH  17  19
ATOM     19  C   UNL A   1      32.485  24.215  23.301  1.00  0.00     0.142 C 
BRANCH  19  20
ATOM     20  C   UNL A   1      31.427  23.198  23.766  1.00  0.00     0.101 C 
ATOM     21  C   UNL A   1      32.064  21.994  24.462  1.00  0.00     0.036 C 
ATOM     22  N   UNL A   1      30.568  23.716  24.806  1.00  0.00    -0.352 N 
ATOM     23  C   UNL A   1      32.123  22.403  25.934  1.00  0.00     0.102 C 
ATOM     24  C   UNL A   1      30.899  23.266  26.064  1.00  0.00     0.220 C 
ATOM     25  H   UNL A   1      29.818  24.331  24.632  1.00  0.00     0.163 HD
ATOM     26  O   UNL A   1      30.324  23.570  27.090  1.00  0.00    -0.275 OA
ENDBRANCH  19  20
ENDBRANCH  17  19
ENDBRANCH  12  13
ENDBRANCH   7  12
ENDBRANCH   4   7
ENDBRANCH   2   3
ENDBRANCH   1   2
BRANCH   1  27
ATOM     27  C   UNL A   1      32.227  29.673  27.151  1.00  0.00     0.002 C 
BRANCH  27  28
ATOM     28  C   UNL A   1      31.663  30.746  26.218  1.00  0.00     0.002 C 
BRANCH  28  29
ATOM     29  C   UNL A   1      31.481  32.142  26.819  1.00  0.00     0.021 C 
BRANCH  29  30
ATOM     30  C   UNL A   1      32.759  32.861  27.242  1.00  0.00     0.116 C 
BRANCH  30  31
ATOM     31  N   UNL A   1      32.515  34.145  27.873  1.00  0.00    -0.352 N 
ATOM     32  C   UNL A   1      33.232  34.768  28.865  1.00  0.00     0.251 C 
ATOM     33  H   UNL A   1      31.729  34.638  27.543  1.00  0.00     0.163 HD
ATOM     34  O   UNL A   1      32.824  35.813  29.362  1.00  0.00    -0.269 OA
BRANCH  32  35
ATOM     35  C   UNL A   1      34.486  34.161  29.363  1.00  0.00     0.039 A 
ATOM     36  C   UNL A   1      34.437  33.360  30.506  1.00  0.00     0.014 A 
ATOM     37  C   UNL A   1      35.702  34.374  28.708  1.00  0.00     0.014 A 
ATOM     38  C   UNL A   1      35.598  32.730  30.963  1.00  0.00     0.010 A 
ATOM     39  C   UNL A   1      36.844  33.694  29.127  1.00  0.00     0.010 A 
ATOM     40  C   UNL A   1      36.806  32.869  30.262  1.00  0.00    -0.014 A 
BRANCH  40  41
ATOM     41  C   UNL A   1      38.041  32.170  30.712  1.00  0.00     0.031 A 
ATOM     42  C   UNL A   1      38.898  32.774  31.792  1.00  0.00     0.074 A 
ATOM     43  C   UNL A   1      38.416  31.018  30.121  1.00  0.00     0.049 A 
ATOM     44  N   UNL A   1      40.033  32.341  32.284  1.00  0.00    -0.248 NA
ATOM     45  C   UNL A   1      38.429  34.035  32.390  1.00  0.00     0.031 C 
ATOM     46  C   UNL A   1      37.690  30.337  29.048  1.00  0.00     0.029 A 
ATOM     47  N   UNL A   1      39.511  30.217  30.339  1.00  0.00    -0.354 N 
ATOM     48  C   UNL A   1      40.418  33.283  33.230  1.00  0.00     0.074 A 
ATOM     49  C   UNL A   1      39.421  34.329  33.218  1.00  0.00     0.031 C 
ATOM     50  C   UNL A   1      38.347  29.213  28.717  1.00  0.00     0.029 A 
ATOM     51  C   UNL A   1      39.562  29.115  29.518  1.00  0.00     0.049 A 
ATOM     52  H   UNL A   1      40.195  30.413  31.020  1.00  0.00     0.167 HD
ATOM     53  C   UNL A   1      41.498  33.271  34.046  1.00  0.00     0.031 A 
ATOM     54  C   UNL A   1      40.491  28.145  29.412  1.00  0.00     0.031 A 
ATOM     55  C   UNL A   1      42.486  32.226  34.070  1.00  0.00     0.049 A 
ATOM     56  C   UNL A   1      41.700  28.179  30.309  1.00  0.00     0.074 A 
ATOM     57  C   UNL A   1      43.584  32.101  34.903  1.00  0.00     0.029 A 
ATOM     58  N   UNL A   1      42.499  31.131  33.222  1.00  0.00    -0.354 N 
ATOM     59  N   UNL A   1      42.010  29.039  31.248  1.00  0.00    -0.248 NA
ATOM     60  C   UNL A   1      42.685  27.099  30.136  1.00  0.00     0.031 C 
ATOM     61  C   UNL A   1      44.299  30.964  34.518  1.00  0.00     0.029 A 
ATOM     62  C   UNL A   1      43.605  30.341  33.493  1.00  0.00     0.049 A 
ATOM     63  H   UNL A   1      41.825  30.942  32.531  1.00  0.00     0.167 HD
ATOM     64  C   UNL A   1      43.198  28.579  31.805  1.00  0.00     0.074 A 
ATOM     65  C   UNL A   1      43.547  27.362  31.107  1.00  0.00     0.031 C 
ATOM     66  C   UNL A   1      43.932  29.119  32.807  1.00  0.00     0.031 A 
BRANCH  53  67
ATOM     67  C   UNL A   1      41.684  34.431  34.985  1.00  0.00    -0.014 A 
ATOM     68  C   UNL A   1      42.372  35.588  34.589  1.00  0.00     0.009 A 
ATOM     69  C   UNL A   1      41.091  34.396  36.258  1.00  0.00     0.009 A 
ATOM     70  C   UNL A   1      42.482  36.677  35.457  1.00  0.00     0.001 A 
ATOM     71  C   UNL A   1      41.177  35.496  37.110  1.00  0.00     0.001 A 
ATOM     72  C   UNL A   1      41.877  36.633  36.712  1.00  0.00     0.000 A 
ENDBRANCH  53  67
BRANCH  54  73
ATOM     73  C   UNL A   1      40.335  27.053  28.411  1.00  0.00    -0.014 A 
ATOM     74  C   UNL A   1      40.890  27.174  27.126  1.00  0.00     0.009 A 
ATOM     75  C   UNL A   1      39.583  25.908  28.716  1.00  0.00     0.009 A 
ATOM     76  C   UNL A   1      40.655  26.196  26.156  1.00  0.00     0.001 A 
ATOM     77  C   UNL A   1      39.380  24.914  27.756  1.00  0.00     0.001 A 
ATOM     78  C   UNL A   1      39.902  25.066  26.472  1.00  0.00     0.000 A 
ENDBRANCH  54  73
BRANCH  66  79
ATOM     79  C   UNL A   1      45.152  28.367  33.262  1.00  0.00    -0.014 A 
ATOM     80  C   UNL A   1      45.082  27.381  34.257  1.00  0.00     0.009 A 
ATOM     81  C   UNL A   1      46.385  28.613  32.634  1.00  0.00     0.009 A 
ATOM     82  C   UNL A   1      46.229  26.679  34.635  1.00  0.00     0.001 A 
ATOM     83  C   UNL A   1      47.521  27.887  32.990  1.00  0.00     0.001 A 
ATOM     84  C   UNL A   1      47.444  26.926  33.996  1.00  0.00     0.000 A 
ENDBRANCH  66  79
ENDBRANCH  40  41
ENDBRANCH  32  35
ENDBRANCH  30  31
ENDBRANCH  29  30
ENDBRANCH  28  29
ENDBRANCH  27  28
ENDBRANCH   1  27
TORSDOF 19
ENDMDL
MODEL 2
REMARK VINA RESULT:     -10.4      1.408      6.015
REMARK SMILES CC(C)C[C@H](CNC(=O)NC[C@H]1CCC(=O)N1)C(=O)NCCCCCCNC(=O)c1ccc(-c2c3nc(c(-c4ccccc4)c4ccc([nH]4)c(-c4ccccc4)c4nc(c(-c5ccccc5)c5ccc2[nH]5)C=C4)C=C3)cc1
REMARK SMILES IDX 22 1 21 2 20 3 18 4 19 5 5 7 4 8 2 9 1 10 3 11 6 12 7 13
REMARK SMILES IDX 8 14 9 16 10 17 11 19 12 20 13 21 17 22 14 23 15 24 16 26
REMARK SMILES IDX 23 27 24 28 25 29 26 30 27 31 28 32 29 34 30 35 31 36 77 37
REMARK SMILES IDX 32 38 76 39 33 40 34 41 35 42 70 43 36 44 75 45 69 46 71 47
REMARK SMILES IDX 37 48 74 49 68 50 67 51 38 53 60 54 45 55 59 56 46 57 49 58
REMARK SMILES IDX 58 59 72 60 47 61 48 62 57 64 73 65 50 66 39 67 40 68 44 69
REMARK SMILES IDX 41 70 43 71 42 72 61 73 62 74 66 75 63 76 65 77 64 78 51 79
REMARK SMILES IDX 52 80 56 81 53 82 55 83 54 84
REMARK H PARENT 20 6 7 15 10 18 17 25 27 33 71 52 49 63
REMARK Flexibility Score: inf
ROOT
ATOM      1  C   UNL A   1      33.163  28.900  27.211  1.00  0.00     0.021 C 
ENDROOT
BRANCH   1   2
ATOM      2  C   UNL A   1      33.261  27.664  26.327  1.00  0.00     0.116 C 
BRANCH   2   3
ATOM      3  N   UNL A   1      32.091  26.822  26.435  1.00  0.00    -0.356 N 
ATOM      4  C   UNL A   1      31.122  26.512  25.536  1.00  0.00     0.224 C 
ATOM      5  O   UNL A   1      30.252  25.720  25.918  1.00  0.00    -0.275 OA
ATOM      6  H   UNL A   1      31.976  26.400  27.317  1.00  0.00     0.163 HD
BRANCH   4   7
ATOM      7  C   UNL A   1      31.034  27.098  24.117  1.00  0.00     0.098 C 
BRANCH   7   8
ATOM      8  C   UNL A   1      30.106  28.337  23.985  1.00  0.00     0.018 C 
BRANCH   8   9
ATOM      9  C   UNL A   1      29.321  28.623  22.678  1.00  0.00    -0.017 C 
ATOM     10  C   UNL A   1      27.852  29.013  22.844  1.00  0.00     0.007 C 
ATOM     11  C   UNL A   1      29.997  29.797  21.949  1.00  0.00     0.007 C 
ENDBRANCH   8   9
ENDBRANCH   7   8
BRANCH   7  12
ATOM     12  C   UNL A   1      31.012  26.045  23.001  1.00  0.00     0.131 C 
BRANCH  12  13
ATOM     13  N   UNL A   1      32.019  26.220  21.968  1.00  0.00    -0.337 N 
ATOM     14  C   UNL A   1      32.660  25.314  21.210  1.00  0.00     0.314 C 
ATOM     15  H   UNL A   1      32.275  27.156  21.796  1.00  0.00     0.165 HD
ATOM     16  O   UNL A   1      33.078  25.645  20.100  1.00  0.00    -0.249 OA
ATOM     17  N   UNL A   1      32.862  24.045  21.611  1.00  0.00    -0.336 N 
ATOM     18  H   UNL A   1      32.871  23.375  20.891  1.00  0.00     0.165 HD
BRANCH  17  19
ATOM     19  C   UNL A   1      33.071  23.518  22.947  1.00  0.00     0.142 C 
BRANCH  19  20
ATOM     20  C   UNL A   1      34.501  23.744  23.471  1.00  0.00     0.101 C 
ATOM     21  C   UNL A   1      34.521  24.679  24.682  1.00  0.00     0.036 C 
ATOM     22  N   UNL A   1      35.098  22.546  24.015  1.00  0.00    -0.352 N 
ATOM     23  C   UNL A   1      34.378  23.738  25.879  1.00  0.00     0.102 C 
ATOM     24  C   UNL A   1      35.086  22.506  25.390  1.00  0.00     0.220 C 
ATOM     25  H   UNL A   1      35.476  21.829  23.455  1.00  0.00     0.163 HD
ATOM     26  O   UNL A   1      35.525  21.597  26.067  1.00  0.00    -0.275 OA
ENDBRANCH  19  20
ENDBRANCH  17  19
ENDBRANCH  12  13
ENDBRANCH   7  12
ENDBRANCH   4   7
ENDBRANCH   2   3
ENDBRANCH   1   2
BRANCH   1  27
ATOM     27  C   UNL A   1      31.821  29.626  27.215  1.00  0.00     0.002 C 
BRANCH  27  28
ATOM     28  C   UNL A   1      31.634  30.691  26.133  1.00  0.00     0.002 C 
BRANCH  28  29
ATOM     29  C   UNL A   1      31.404  32.123  26.622  1.00  0.00     0.021 C 
BRANCH  29  30
ATOM     30  C   UNL A   1      32.618  32.829  27.221  1.00  0.00     0.116 C 
BRANCH  30  31
ATOM     31  N   UNL A   1      32.343  34.191  27.641  1.00  0.00    -0.352 N 
ATOM     32  C   UNL A   1      33.002  34.955  28.572  1.00  0.00     0.251 C 
ATOM     33  H   UNL A   1      31.580  34.627  27.196  1.00  0.00     0.163 HD
ATOM     34  O   UNL A   1      32.570  36.061  28.885  1.00  0.00    -0.269 OA
BRANCH  32  35
ATOM     35  C   UNL A   1      34.221  34.433  29.227  1.00  0.00     0.039 A 
ATOM     36  C   UNL A   1      34.098  33.798  30.466  1.00  0.00     0.014 A 
ATOM     37  C   UNL A   1      35.477  34.563  28.628  1.00  0.00     0.014 A 
ATOM     38  C   UNL A   1      35.227  33.247  31.079  1.00  0.00     0.010 A 
ATOM     39  C   UNL A   1      36.589  33.957  29.209  1.00  0.00     0.010 A 
ATOM     40  C   UNL A   1      36.478  33.297  30.443  1.00  0.00    -0.014 A 
BRANCH  40  41
ATOM     41  C   UNL A   1      37.680  32.677  31.062  1.00  0.00     0.031 A 
ATOM     42  C   UNL A   1      38.324  31.476  30.422  1.00  0.00     0.074 A 
ATOM     43  C   UNL A   1      38.167  33.162  32.222  1.00  0.00     0.049 A 
ATOM     44  N   UNL A   1      39.347  30.768  30.836  1.00  0.00    -0.248 NA
ATOM     45  C   UNL A   1      37.737  30.998  29.159  1.00  0.00     0.031 C 
ATOM     46  C   UNL A   1      37.627  34.305  32.959  1.00  0.00     0.029 A 
ATOM     47  N   UNL A   1      39.231  32.748  32.988  1.00  0.00    -0.354 N 
ATOM     48  C   UNL A   1      39.509  29.756  29.898  1.00  0.00     0.074 A 
ATOM     49  C   UNL A   1      38.461  29.916  28.915  1.00  0.00     0.031 C 
ATOM     50  C   UNL A   1      38.371  34.513  34.058  1.00  0.00     0.029 A 
ATOM     51  C   UNL A   1      39.413  33.494  34.129  1.00  0.00     0.049 A 
ATOM     52  H   UNL A   1      39.808  31.989  32.743  1.00  0.00     0.167 HD
ATOM     53  C   UNL A   1      40.457  28.790  29.850  1.00  0.00     0.031 A 
ATOM     54  C   UNL A   1      40.308  33.361  35.128  1.00  0.00     0.031 A 
ATOM     55  C   UNL A   1      41.509  28.636  30.819  1.00  0.00     0.049 A 
ATOM     56  C   UNL A   1      41.326  32.253  35.064  1.00  0.00     0.074 A 
ATOM     57  C   UNL A   1      42.547  27.720  30.821  1.00  0.00     0.029 A 
ATOM     58  N   UNL A   1      41.655  29.412  31.957  1.00  0.00    -0.354 N 
ATOM     59  N   UNL A   1      41.511  31.351  34.132  1.00  0.00    -0.248 NA
ATOM     60  C   UNL A   1      42.267  32.153  36.191  1.00  0.00     0.031 C 
ATOM     61  C   UNL A   1      43.285  27.899  31.994  1.00  0.00     0.029 A 
ATOM     62  C   UNL A   1      42.750  28.974  32.684  1.00  0.00     0.049 A 
ATOM     63  H   UNL A   1      41.070  30.160  32.211  1.00  0.00     0.167 HD
ATOM     64  C   UNL A   1      42.613  30.607  34.538  1.00  0.00     0.074 A 
ATOM     65  C   UNL A   1      43.061  31.169  35.792  1.00  0.00     0.031 C 
ATOM     66  C   UNL A   1      43.201  29.554  33.922  1.00  0.00     0.031 A 
BRANCH  53  67
ATOM     67  C   UNL A   1      40.401  27.806  28.715  1.00  0.00    -0.014 A 
ATOM     68  C   UNL A   1      41.086  28.040  27.512  1.00  0.00     0.009 A 
ATOM     69  C   UNL A   1      39.720  26.589  28.882  1.00  0.00     0.009 A 
ATOM     70  C   UNL A   1      41.069  27.085  26.492  1.00  0.00     0.001 A 
ATOM     71  C   UNL A   1      39.730  25.626  27.874  1.00  0.00     0.001 A 
ATOM     72  C   UNL A   1      40.399  25.877  26.677  1.00  0.00     0.000 A 
ENDBRANCH  53  67
BRANCH  54  73
ATOM     73  C   UNL A   1      40.288  34.291  36.291  1.00  0.00    -0.014 A 
ATOM     74  C   UNL A   1      39.550  33.980  37.445  1.00  0.00     0.009 A 
ATOM     75  C   UNL A   1      40.963  35.520  36.234  1.00  0.00     0.009 A 
ATOM     76  C   UNL A   1      39.448  34.899  38.492  1.00  0.00     0.001 A 
ATOM     77  C   UNL A   1      40.891  36.422  37.297  1.00  0.00     0.001 A 
ATOM     78  C   UNL A   1      40.120  36.118  38.419  1.00  0.00     0.000 A 
ENDBRANCH  54  73
BRANCH  66  79
ATOM     79  C   UNL A   1      44.436  28.975  34.556  1.00  0.00    -0.014 A 
ATOM     80  C   UNL A   1      45.715  29.469  34.261  1.00  0.00     0.009 A 
ATOM     81  C   UNL A   1      44.304  27.956  35.513  1.00  0.00     0.009 A 
ATOM     82  C   UNL A   1      46.841  28.930  34.890  1.00  0.00     0.001 A 
ATOM     83  C   UNL A   1      45.426  27.444  36.165  1.00  0.00     0.001 A 
ATOM     84  C   UNL A   1      46.694  27.925  35.846  1.00  0.00     0.000 A 
ENDBRANCH  66  79
ENDBRANCH  40  41
ENDBRANCH  32  35
ENDBRANCH  30  31
ENDBRANCH  29  30
ENDBRANCH  28  29
ENDBRANCH  27  28
ENDBRANCH   1  27
TORSDOF 19
ENDMDL
MODEL 3
REMARK VINA RESULT:     -10.2      1.078      6.528
REMARK SMILES CC(C)C[C@H](CNC(=O)NC[C@H]1CCC(=O)N1)C(=O)NCCCCCCNC(=O)c1ccc(-c2c3nc(c(-c4ccccc4)c4ccc([nH]4)c(-c4ccccc4)c4nc(c(-c5ccccc5)c5ccc2[nH]5)C=C4)C=C3)cc1
REMARK SMILES IDX 22 1 21 2 20 3 18 4 19 5 5 7 4 8 2 9 1 10 3 11 6 12 7 13
REMARK SMILES IDX 8 14 9 16 10 17 11 19 12 20 13 21 17 22 14 23 15 24 16 26
REMARK SMILES IDX 23 27 24 28 25 29 26 30 27 31 28 32 29 34 30 35 31 36 77 37
REMARK SMILES IDX 32 38 76 39 33 40 34 41 35 42 70 43 36 44 75 45 69 46 71 47
REMARK SMILES IDX 37 48 74 49 68 50 67 51 38 53 60 54 45 55 59 56 46 57 49 58
REMARK SMILES IDX 58 59 72 60 47 61 48 62 57 64 73 65 50 66 39 67 40 68 44 69
REMARK SMILES IDX 41 70 43 71 42 72 61 73 62 74 66 75 63 76 65 77 64 78 51 79
REMARK SMILES IDX 52 80 56 81 53 82 55 83 54 84
REMARK H PARENT 20 6 7 15 10 18 17 25 27 33 71 52 49 63
REMARK Flexibility Score: inf
ROOT
ATOM      1  C   UNL A   1      32.835  27.974  27.211  1.00  0.00     0.021 C 
ENDROOT
BRANCH   1   2
ATOM      2  C   UNL A   1      32.675  26.742  26.330  1.00  0.00     0.116 C 
BRANCH   2   3
ATOM      3  N   UNL A   1      31.597  25.888  26.777  1.00  0.00    -0.356 N 
ATOM      4  C   UNL A   1      30.992  24.825  26.190  1.00  0.00     0.224 C 
ATOM      5  O   UNL A   1      30.107  24.264  26.848  1.00  0.00    -0.275 OA
ATOM      6  H   UNL A   1      31.240  26.119  27.665  1.00  0.00     0.163 HD
BRANCH   4   7
ATOM      7  C   UNL A   1      31.317  24.312  24.778  1.00  0.00     0.098 C 
BRANCH   7   8
ATOM      8  C   UNL A   1      32.831  24.095  24.500  1.00  0.00     0.018 C 
BRANCH   8   9
ATOM      9  C   UNL A   1      33.365  22.750  23.942  1.00  0.00    -0.017 C 
ATOM     10  C   UNL A   1      32.852  21.483  24.627  1.00  0.00     0.007 C 
ATOM     11  C   UNL A   1      32.952  22.636  22.465  1.00  0.00     0.007 C 
ENDBRANCH   8   9
ENDBRANCH   7   8
BRANCH   7  12
ATOM     12  C   UNL A   1      30.451  24.925  23.669  1.00  0.00     0.131 C 
BRANCH  12  13
ATOM     13  N   UNL A   1      29.199  25.512  24.118  1.00  0.00    -0.337 N 
ATOM     14  C   UNL A   1      28.624  26.686  23.809  1.00  0.00     0.314 C 
ATOM     15  H   UNL A   1      28.689  24.957  24.752  1.00  0.00     0.165 HD
ATOM     16  O   UNL A   1      27.399  26.793  23.875  1.00  0.00    -0.249 OA
ATOM     17  N   UNL A   1      29.335  27.762  23.423  1.00  0.00    -0.336 N 
ATOM     18  H   UNL A   1      28.879  28.358  22.786  1.00  0.00     0.165 HD
BRANCH  17  19
ATOM     19  C   UNL A   1      30.673  28.175  23.804  1.00  0.00     0.142 C 
BRANCH  19  20
ATOM     20  C   UNL A   1      31.564  28.526  22.598  1.00  0.00     0.101 C 
ATOM     21  C   UNL A   1      32.981  28.906  23.030  1.00  0.00     0.036 C 
ATOM     22  N   UNL A   1      31.813  27.395  21.734  1.00  0.00    -0.352 N 
ATOM     23  C   UNL A   1      33.739  27.577  23.030  1.00  0.00     0.102 C 
ATOM     24  C   UNL A   1      33.057  26.834  21.915  1.00  0.00     0.220 C 
ATOM     25  H   UNL A   1      31.157  27.059  21.081  1.00  0.00     0.163 HD
ATOM     26  O   UNL A   1      33.486  25.873  21.308  1.00  0.00    -0.275 OA
ENDBRANCH  19  20
ENDBRANCH  17  19
ENDBRANCH  12  13
ENDBRANCH   7  12
ENDBRANCH   4   7
ENDBRANCH   2   3
ENDBRANCH   1   2
BRANCH   1  27
ATOM     27  C   UNL A   1      31.706  29.000  27.155  1.00  0.00     0.002 C 
BRANCH  27  28
ATOM     28  C   UNL A   1      31.977  30.245  26.309  1.00  0.00     0.002 C 
BRANCH  28  29
ATOM     29  C   UNL A   1      31.687  31.594  26.974  1.00  0.00     0.021 C 
BRANCH  29  30
ATOM     30  C   UNL A   1      32.865  32.559  27.072  1.00  0.00     0.116 C 
BRANCH  30  31
ATOM     31  N   UNL A   1      32.508  33.846  27.640  1.00  0.00    -0.352 N 
ATOM     32  C   UNL A   1      33.149  34.562  28.621  1.00  0.00     0.251 C 
ATOM     33  H   UNL A   1      31.696  34.264  27.271  1.00  0.00     0.163 HD
ATOM     34  O   UNL A   1      32.650  35.593  29.063  1.00  0.00    -0.269 OA
BRANCH  32  35
ATOM     35  C   UNL A   1      34.430  34.073  29.176  1.00  0.00     0.039 A 
ATOM     36  C   UNL A   1      34.410  33.322  30.353  1.00  0.00     0.014 A 
ATOM     37  C   UNL A   1      35.645  34.348  28.540  1.00  0.00     0.014 A 
ATOM     38  C   UNL A   1      35.601  32.802  30.866  1.00  0.00     0.010 A 
ATOM     39  C   UNL A   1      36.822  33.774  29.017  1.00  0.00     0.010 A 
ATOM     40  C   UNL A   1      36.815  33.000  30.187  1.00  0.00    -0.014 A 
BRANCH  40  41
ATOM     41  C   UNL A   1      38.085  32.416  30.697  1.00  0.00     0.031 A 
ATOM     42  C   UNL A   1      38.612  31.131  30.114  1.00  0.00     0.074 A 
ATOM     43  C   UNL A   1      38.742  33.013  31.711  1.00  0.00     0.049 A 
ATOM     44  N   UNL A   1      39.672  30.442  30.458  1.00  0.00    -0.248 NA
ATOM     45  C   UNL A   1      37.840  30.533  29.012  1.00  0.00     0.031 C 
ATOM     46  C   UNL A   1      38.331  34.248  32.381  1.00  0.00     0.029 A 
ATOM     47  N   UNL A   1      39.899  32.654  32.361  1.00  0.00    -0.354 N 
ATOM     48  C   UNL A   1      39.682  29.327  29.630  1.00  0.00     0.074 A 
ATOM     49  C   UNL A   1      38.505  29.408  28.794  1.00  0.00     0.031 C 
ATOM     50  C   UNL A   1      39.230  34.554  33.331  1.00  0.00     0.029 A 
ATOM     51  C   UNL A   1      40.256  33.517  33.371  1.00  0.00     0.049 A 
ATOM     52  H   UNL A   1      40.424  31.855  32.126  1.00  0.00     0.167 HD
ATOM     53  C   UNL A   1      40.598  28.332  29.560  1.00  0.00     0.031 A 
ATOM     54  C   UNL A   1      41.284  33.470  34.240  1.00  0.00     0.031 A 
ATOM     55  C   UNL A   1      41.777  28.255  30.380  1.00  0.00     0.049 A 
ATOM     56  C   UNL A   1      42.266  32.330  34.161  1.00  0.00     0.074 A 
ATOM     57  C   UNL A   1      42.790  27.313  30.341  1.00  0.00     0.029 A 
ATOM     58  N   UNL A   1      42.098  29.148  31.389  1.00  0.00    -0.354 N 
ATOM     59  N   UNL A   1      42.300  31.323  33.323  1.00  0.00    -0.248 NA
ATOM     60  C   UNL A   1      43.359  32.327  35.146  1.00  0.00     0.031 C 
ATOM     61  C   UNL A   1      43.693  27.599  31.368  1.00  0.00     0.029 A 
ATOM     62  C   UNL A   1      43.280  28.761  31.998  1.00  0.00     0.049 A 
ATOM     63  H   UNL A   1      41.567  29.939  31.635  1.00  0.00     0.167 HD
ATOM     64  C   UNL A   1      43.438  30.596  33.651  1.00  0.00     0.074 A 
ATOM     65  C   UNL A   1      44.072  31.280  34.756  1.00  0.00     0.031 C 
ATOM     66  C   UNL A   1      43.915  29.462  33.084  1.00  0.00     0.031 A 
BRANCH  53  67
ATOM     67  C   UNL A   1      40.364  27.229  28.565  1.00  0.00    -0.014 A 
ATOM     68  C   UNL A   1      39.550  26.129  28.874  1.00  0.00     0.009 A 
ATOM     69  C   UNL A   1      40.903  27.334  27.272  1.00  0.00     0.009 A 
ATOM     70  C   UNL A   1      39.298  25.145  27.914  1.00  0.00     0.001 A 
ATOM     71  C   UNL A   1      40.625  26.365  26.308  1.00  0.00     0.001 A 
ATOM     72  C   UNL A   1      39.829  25.268  26.631  1.00  0.00     0.000 A 
ENDBRANCH  53  67
BRANCH  54  73
ATOM     73  C   UNL A   1      41.447  34.524  35.279  1.00  0.00    -0.014 A 
ATOM     74  C   UNL A   1      42.246  35.653  35.036  1.00  0.00     0.009 A 
ATOM     75  C   UNL A   1      40.849  34.380  36.541  1.00  0.00     0.009 A 
ATOM     76  C   UNL A   1      42.481  36.588  36.047  1.00  0.00     0.001 A 
ATOM     77  C   UNL A   1      41.055  35.335  37.539  1.00  0.00     0.001 A 
ATOM     78  C   UNL A   1      41.884  36.430  37.297  1.00  0.00     0.000 A 
ENDBRANCH  54  73
BRANCH  66  79
ATOM     79  C   UNL A   1      45.220  28.920  33.598  1.00  0.00    -0.014 A 
ATOM     80  C   UNL A   1      45.266  27.961  34.622  1.00  0.00     0.009 A 
ATOM     81  C   UNL A   1      46.420  29.335  33.000  1.00  0.00     0.009 A 
ATOM     82  C   UNL A   1      46.493  27.454  35.057  1.00  0.00     0.001 A 
ATOM     83  C   UNL A   1      47.641  28.802  33.413  1.00  0.00     0.001 A 
ATOM     84  C   UNL A   1      47.678  27.868  34.447  1.00  0.00     0.000 A 
ENDBRANCH  66  79
ENDBRANCH  40  41
ENDBRANCH  32  35
ENDBRANCH  30  31
ENDBRANCH  29  30
ENDBRANCH  28  29
ENDBRANCH  27  28
ENDBRANCH   1  27
TORSDOF 19
ENDMDL
