MODEL 1
REMARK VINA RESULT:     -10.5      0.000      0.000
REMARK SMILES CC(C)(C)C[N@H+]1[C@@H](C(=O)NCCCCCCNC(=O)c2ccc(-c3c4nc(c(-c5ccccc5)c5ccc([nH]5)c(-c5ccccc5)c5nc(c(-c6ccccc6)c6ccc3[nH]6)C=C5)C=C4)cc2)CC[C@H]2CCCC[C@@H]21
REMARK SMILES IDX 13 1 12 2 11 3 10 4 8 5 9 6 7 8 6 9 75 10 68 12 70 13 74 14
REMARK SMILES IDX 69 15 71 16 73 17 72 18 5 19 2 20 1 21 3 22 4 23 14 24 15 25
REMARK SMILES IDX 16 26 17 27 18 28 19 30 20 31 21 32 67 33 22 34 66 35 23 36
REMARK SMILES IDX 24 37 25 38 60 39 26 40 65 41 59 42 61 43 27 44 64 45 58 46
REMARK SMILES IDX 57 47 28 49 50 50 35 51 49 52 36 53 39 54 48 55 62 56 37 57
REMARK SMILES IDX 38 58 47 60 63 61 40 62 29 63 30 64 34 65 31 66 33 67 32 68
REMARK SMILES IDX 51 69 52 70 56 71 53 72 55 73 54 74 41 75 42 76 46 77 43 78
REMARK SMILES IDX 45 79 44 80
REMARK H PARENT 10 7 6 11 17 29 61 48 39 59
REMARK Flexibility Score: inf
ROOT
ATOM      1  C   UNL A   1      31.305  27.707  25.757  1.00  0.00     0.002 C 
ENDROOT
BRANCH   1   2
ATOM      2  C   UNL A   1      30.808  26.283  26.027  1.00  0.00     0.021 C 
BRANCH   2   3
ATOM      3  C   UNL A   1      31.799  25.194  26.462  1.00  0.00     0.116 C 
BRANCH   3   4
ATOM      4  N   UNL A   1      31.213  23.865  26.381  1.00  0.00    -0.351 N 
ATOM      5  C   UNL A   1      31.703  22.649  25.998  1.00  0.00     0.278 C 
ATOM      6  O   UNL A   1      30.852  21.747  25.955  1.00  0.00    -0.268 OA
ATOM      7  H   UNL A   1      30.270  23.837  26.660  1.00  0.00     0.163 HD
BRANCH   5   8
ATOM      8  C   UNL A   1      33.207  22.324  25.760  1.00  0.00     0.274 C 
ATOM      9  N   UNL A   1      33.956  23.167  24.766  1.00  0.00    -0.322 N 
ATOM     10  C   UNL A   1      35.426  22.832  24.874  1.00  0.00     0.187 C 
ATOM     11  H   UNL A   1      33.753  24.140  24.996  1.00  0.00     0.349 HD
ATOM     12  C   UNL A   1      33.362  20.801  25.446  1.00  0.00     0.076 C 
ATOM     13  C   UNL A   1      35.754  21.423  25.437  1.00  0.00     0.048 C 
ATOM     14  C   UNL A   1      36.233  23.839  25.715  1.00  0.00     0.065 C 
ATOM     15  C   UNL A   1      34.751  20.408  24.928  1.00  0.00     0.016 C 
ATOM     16  C   UNL A   1      37.211  21.083  25.116  1.00  0.00     0.010 C 
ATOM     17  C   UNL A   1      37.742  23.551  25.565  1.00  0.00     0.006 C 
ATOM     18  C   UNL A   1      38.134  22.087  25.813  1.00  0.00     0.001 C 
BRANCH   9  19
ATOM     19  C   UNL A   1      33.529  22.969  23.336  1.00  0.00     0.269 C 
BRANCH  19  20
ATOM     20  C   UNL A   1      32.999  24.223  22.575  1.00  0.00     0.011 C 
ATOM     21  C   UNL A   1      31.499  24.418  22.852  1.00  0.00     0.017 C 
ATOM     22  C   UNL A   1      33.099  24.010  21.046  1.00  0.00     0.017 C 
ATOM     23  C   UNL A   1      33.869  25.454  22.881  1.00  0.00     0.017 C 
ENDBRANCH  19  20
ENDBRANCH   9  19
ENDBRANCH   5   8
ENDBRANCH   3   4
ENDBRANCH   2   3
ENDBRANCH   1   2
BRANCH   1  24
ATOM     24  C   UNL A   1      32.633  27.832  24.995  1.00  0.00     0.002 C 
BRANCH  24  25
ATOM     25  C   UNL A   1      33.869  28.303  25.781  1.00  0.00     0.021 C 
BRANCH  25  26
ATOM     26  C   UNL A   1      33.676  28.542  27.281  1.00  0.00     0.116 C 
BRANCH  26  27
ATOM     27  N   UNL A   1      33.636  29.955  27.617  1.00  0.00    -0.352 N 
ATOM     28  C   UNL A   1      34.564  30.746  28.253  1.00  0.00     0.251 C 
ATOM     29  H   UNL A   1      32.811  30.421  27.347  1.00  0.00     0.163 HD
ATOM     30  O   UNL A   1      34.247  31.870  28.629  1.00  0.00    -0.269 OA
BRANCH  28  31
ATOM     31  C   UNL A   1      35.943  30.267  28.506  1.00  0.00     0.039 A 
ATOM     32  C   UNL A   1      36.869  30.308  27.458  1.00  0.00     0.014 A 
ATOM     33  C   UNL A   1      36.308  29.688  29.725  1.00  0.00     0.014 A 
ATOM     34  C   UNL A   1      38.167  29.820  27.644  1.00  0.00     0.010 A 
ATOM     35  C   UNL A   1      37.618  29.240  29.926  1.00  0.00     0.010 A 
ATOM     36  C   UNL A   1      38.561  29.298  28.887  1.00  0.00    -0.014 A 
BRANCH  36  37
ATOM     37  C   UNL A   1      39.951  28.815  29.108  1.00  0.00     0.031 A 
ATOM     38  C   UNL A   1      40.994  29.716  29.712  1.00  0.00     0.074 A 
ATOM     39  C   UNL A   1      40.295  27.568  28.725  1.00  0.00     0.049 A 
ATOM     40  N   UNL A   1      42.262  29.478  29.939  1.00  0.00    -0.248 NA
ATOM     41  C   UNL A   1      40.558  31.068  30.097  1.00  0.00     0.031 C 
ATOM     42  C   UNL A   1      39.394  26.595  28.106  1.00  0.00     0.029 A 
ATOM     43  N   UNL A   1      41.498  26.911  28.795  1.00  0.00    -0.354 N 
ATOM     44  C   UNL A   1      42.779  30.651  30.477  1.00  0.00     0.074 A 
ATOM     45  C   UNL A   1      41.696  31.611  30.509  1.00  0.00     0.031 C 
ATOM     46  C   UNL A   1      40.072  25.459  27.869  1.00  0.00     0.029 A 
ATOM     47  C   UNL A   1      41.460  25.635  28.286  1.00  0.00     0.049 A 
ATOM     48  H   UNL A   1      42.312  27.316  29.173  1.00  0.00     0.167 HD
ATOM     49  C   UNL A   1      44.036  30.904  30.917  1.00  0.00     0.031 A 
ATOM     50  C   UNL A   1      42.431  24.711  28.161  1.00  0.00     0.031 A 
ATOM     51  C   UNL A   1      45.116  29.954  30.897  1.00  0.00     0.049 A 
ATOM     52  C   UNL A   1      43.821  25.022  28.640  1.00  0.00     0.074 A 
ATOM     53  C   UNL A   1      46.409  30.107  31.370  1.00  0.00     0.029 A 
ATOM     54  N   UNL A   1      45.033  28.673  30.375  1.00  0.00    -0.354 N 
ATOM     55  N   UNL A   1      44.276  26.116  29.199  1.00  0.00    -0.248 NA
ATOM     56  C   UNL A   1      44.828  23.962  28.480  1.00  0.00     0.031 C 
ATOM     57  C   UNL A   1      47.121  28.936  31.093  1.00  0.00     0.029 A 
ATOM     58  C   UNL A   1      46.257  28.035  30.491  1.00  0.00     0.049 A 
ATOM     59  H   UNL A   1      44.225  28.277  29.978  1.00  0.00     0.167 HD
ATOM     60  C   UNL A   1      45.613  25.870  29.480  1.00  0.00     0.074 A 
ATOM     61  C   UNL A   1      45.893  24.517  29.044  1.00  0.00     0.031 C 
ATOM     62  C   UNL A   1      46.527  26.690  30.052  1.00  0.00     0.031 A 
BRANCH  49  63
ATOM     63  C   UNL A   1      44.316  32.281  31.453  1.00  0.00    -0.014 A 
ATOM     64  C   UNL A   1      44.766  33.311  30.612  1.00  0.00     0.009 A 
ATOM     65  C   UNL A   1      44.087  32.562  32.810  1.00  0.00     0.009 A 
ATOM     66  C   UNL A   1      45.016  34.585  31.126  1.00  0.00     0.001 A 
ATOM     67  C   UNL A   1      44.313  33.844  33.316  1.00  0.00     0.001 A 
ATOM     68  C   UNL A   1      44.786  34.852  32.476  1.00  0.00     0.000 A 
ENDBRANCH  49  63
BRANCH  50  69
ATOM     69  C   UNL A   1      42.120  23.387  27.564  1.00  0.00    -0.014 A 
ATOM     70  C   UNL A   1      41.615  22.348  28.361  1.00  0.00     0.009 A 
ATOM     71  C   UNL A   1      42.332  23.153  26.196  1.00  0.00     0.009 A 
ATOM     72  C   UNL A   1      41.350  21.095  27.804  1.00  0.00     0.001 A 
ATOM     73  C   UNL A   1      42.041  21.907  25.638  1.00  0.00     0.001 A 
ATOM     74  C   UNL A   1      41.558  20.877  26.444  1.00  0.00     0.000 A 
ENDBRANCH  50  69
BRANCH  62  75
ATOM     75  C   UNL A   1      47.907  26.139  30.267  1.00  0.00    -0.014 A 
ATOM     76  C   UNL A   1      48.843  26.091  29.223  1.00  0.00     0.009 A 
ATOM     77  C   UNL A   1      48.287  25.695  31.543  1.00  0.00     0.009 A 
ATOM     78  C   UNL A   1      50.124  25.580  29.446  1.00  0.00     0.001 A 
ATOM     79  C   UNL A   1      49.576  25.207  31.769  1.00  0.00     0.001 A 
ATOM     80  C   UNL A   1      50.489  25.142  30.718  1.00  0.00     0.000 A 
ENDBRANCH  62  75
ENDBRANCH  36  37
ENDBRANCH  28  31
ENDBRANCH  26  27
ENDBRANCH  25  26
ENDBRANCH  24  25
ENDBRANCH   1  24
TORSDOF 15
ENDMDL
MODEL 2
REMARK VINA RESULT:     -10.3      1.982      7.638
REMARK SMILES CC(C)(C)C[N@H+]1[C@@H](C(=O)NCCCCCCNC(=O)c2ccc(-c3c4nc(c(-c5ccccc5)c5ccc([nH]5)c(-c5ccccc5)c5nc(c(-c6ccccc6)c6ccc3[nH]6)C=C5)C=C4)cc2)CC[C@H]2CCCC[C@@H]21
REMARK SMILES IDX 13 1 12 2 11 3 10 4 8 5 9 6 7 8 6 9 75 10 68 12 70 13 74 14
REMARK SMILES IDX 69 15 71 16 73 17 72 18 5 19 2 20 1 21 3 22 4 23 14 24 15 25
REMARK SMILES IDX 16 26 17 27 18 28 19 30 20 31 21 32 67 33 22 34 66 35 23 36
REMARK SMILES IDX 24 37 25 38 60 39 26 40 65 41 59 42 61 43 27 44 64 45 58 46
REMARK SMILES IDX 57 47 28 49 50 50 35 51 49 52 36 53 39 54 48 55 62 56 37 57
REMARK SMILES IDX 38 58 47 60 63 61 40 62 29 63 30 64 34 65 31 66 33 67 32 68
REMARK SMILES IDX 51 69 52 70 56 71 53 72 55 73 54 74 41 75 42 76 46 77 43 78
REMARK SMILES IDX 45 79 44 80
REMARK H PARENT 10 7 6 11 17 29 61 48 39 59
REMARK Flexibility Score: inf
ROOT
ATOM      1  C   UNL A   1      38.041  22.393  25.704  1.00  0.00     0.002 C 
ENDROOT
BRANCH   1   2
ATOM      2  C   UNL A   1      37.438  23.773  25.418  1.00  0.00     0.021 C 
BRANCH   2   3
ATOM      3  C   UNL A   1      35.915  23.960  25.425  1.00  0.00     0.116 C 
BRANCH   3   4
ATOM      4  N   UNL A   1      35.343  23.793  24.098  1.00  0.00    -0.351 N 
ATOM      5  C   UNL A   1      34.292  24.382  23.451  1.00  0.00     0.278 C 
ATOM      6  O   UNL A   1      34.034  23.886  22.344  1.00  0.00    -0.268 OA
ATOM      7  H   UNL A   1      35.808  23.117  23.555  1.00  0.00     0.163 HD
BRANCH   5   8
ATOM      8  C   UNL A   1      33.539  25.654  23.940  1.00  0.00     0.274 C 
ATOM      9  N   UNL A   1      32.773  25.560  25.230  1.00  0.00    -0.322 N 
ATOM     10  C   UNL A   1      32.330  26.951  25.620  1.00  0.00     0.187 C 
ATOM     11  H   UNL A   1      33.403  25.138  25.914  1.00  0.00     0.349 HD
ATOM     12  C   UNL A   1      32.640  26.197  22.783  1.00  0.00     0.076 C 
ATOM     13  C   UNL A   1      32.199  27.966  24.452  1.00  0.00     0.048 C 
ATOM     14  C   UNL A   1      33.228  27.616  26.680  1.00  0.00     0.065 C 
ATOM     15  C   UNL A   1      31.645  27.279  23.220  1.00  0.00     0.016 C 
ATOM     16  C   UNL A   1      31.379  29.168  24.925  1.00  0.00     0.010 C 
ATOM     17  C   UNL A   1      32.564  28.915  27.184  1.00  0.00     0.006 C 
ATOM     18  C   UNL A   1      32.117  29.870  26.068  1.00  0.00     0.001 C 
BRANCH   9  19
ATOM     19  C   UNL A   1      31.556  24.674  25.168  1.00  0.00     0.269 C 
BRANCH  19  20
ATOM     20  C   UNL A   1      31.565  23.395  26.060  1.00  0.00     0.011 C 
ATOM     21  C   UNL A   1      32.782  23.411  27.001  1.00  0.00     0.017 C 
ATOM     22  C   UNL A   1      31.751  22.130  25.188  1.00  0.00     0.017 C 
ATOM     23  C   UNL A   1      30.212  23.216  26.770  1.00  0.00     0.017 C 
ENDBRANCH  19  20
ENDBRANCH   9  19
ENDBRANCH   5   8
ENDBRANCH   3   4
ENDBRANCH   2   3
ENDBRANCH   1   2
BRANCH   1  24
ATOM     24  C   UNL A   1      37.571  21.244  24.799  1.00  0.00     0.002 C 
BRANCH  24  25
ATOM     25  C   UNL A   1      38.324  19.906  24.890  1.00  0.00     0.021 C 
BRANCH  25  26
ATOM     26  C   UNL A   1      39.123  19.655  26.172  1.00  0.00     0.116 C 
BRANCH  26  27
ATOM     27  N   UNL A   1      40.399  19.011  25.914  1.00  0.00    -0.352 N 
ATOM     28  C   UNL A   1      41.674  19.527  25.910  1.00  0.00     0.251 C 
ATOM     29  H   UNL A   1      40.342  18.049  25.708  1.00  0.00     0.163 HD
ATOM     30  O   UNL A   1      42.598  18.858  25.459  1.00  0.00    -0.269 OA
BRANCH  28  31
ATOM     31  C   UNL A   1      41.957  20.885  26.430  1.00  0.00     0.039 A 
ATOM     32  C   UNL A   1      41.771  21.132  27.796  1.00  0.00     0.014 A 
ATOM     33  C   UNL A   1      42.306  21.940  25.582  1.00  0.00     0.014 A 
ATOM     34  C   UNL A   1      41.982  22.413  28.316  1.00  0.00     0.010 A 
ATOM     35  C   UNL A   1      42.561  23.211  26.108  1.00  0.00     0.010 A 
ATOM     36  C   UNL A   1      42.398  23.463  27.481  1.00  0.00    -0.014 A 
BRANCH  36  37
ATOM     37  C   UNL A   1      42.666  24.819  28.031  1.00  0.00     0.031 A 
ATOM     38  C   UNL A   1      44.046  25.207  28.487  1.00  0.00     0.074 A 
ATOM     39  C   UNL A   1      41.652  25.699  28.163  1.00  0.00     0.049 A 
ATOM     40  N   UNL A   1      44.453  26.329  29.029  1.00  0.00    -0.248 NA
ATOM     41  C   UNL A   1      45.105  24.198  28.328  1.00  0.00     0.031 C 
ATOM     42  C   UNL A   1      40.260  25.450  27.784  1.00  0.00     0.029 A 
ATOM     43  N   UNL A   1      41.639  26.979  28.660  1.00  0.00    -0.354 N 
ATOM     44  C   UNL A   1      45.807  26.155  29.290  1.00  0.00     0.074 A 
ATOM     45  C   UNL A   1      46.144  24.808  28.880  1.00  0.00     0.031 C 
ATOM     46  C   UNL A   1      39.532  26.548  28.045  1.00  0.00     0.029 A 
ATOM     47  C   UNL A   1      40.396  27.564  28.641  1.00  0.00     0.049 A 
ATOM     48  H   UNL A   1      42.443  27.435  28.998  1.00  0.00     0.167 HD
ATOM     49  C   UNL A   1      46.694  27.038  29.811  1.00  0.00     0.031 A 
ATOM     50  C   UNL A   1      39.990  28.777  29.061  1.00  0.00     0.031 A 
ATOM     51  C   UNL A   1      46.370  28.381  30.214  1.00  0.00     0.049 A 
ATOM     52  C   UNL A   1      40.989  29.733  29.652  1.00  0.00     0.074 A 
ATOM     53  C   UNL A   1      47.216  29.363  30.704  1.00  0.00     0.029 A 
ATOM     54  N   UNL A   1      45.100  28.933  30.177  1.00  0.00    -0.354 N 
ATOM     55  N   UNL A   1      42.276  29.571  29.837  1.00  0.00    -0.248 NA
ATOM     56  C   UNL A   1      40.478  31.043  30.081  1.00  0.00     0.031 C 
ATOM     57  C   UNL A   1      46.449  30.493  31.005  1.00  0.00     0.029 A 
ATOM     58  C   UNL A   1      45.134  30.232  30.657  1.00  0.00     0.049 A 
ATOM     59  H   UNL A   1      44.292  28.469  29.858  1.00  0.00     0.167 HD
ATOM     60  C   UNL A   1      42.733  30.765  30.379  1.00  0.00     0.074 A 
ATOM     61  C   UNL A   1      41.589  31.647  30.481  1.00  0.00     0.031 C 
ATOM     62  C   UNL A   1      43.990  31.101  30.756  1.00  0.00     0.031 A 
BRANCH  49  63
ATOM     63  C   UNL A   1      48.113  26.571  29.987  1.00  0.00    -0.014 A 
ATOM     64  C   UNL A   1      49.078  26.788  28.992  1.00  0.00     0.009 A 
ATOM     65  C   UNL A   1      48.498  25.942  31.182  1.00  0.00     0.009 A 
ATOM     66  C   UNL A   1      50.393  26.352  29.174  1.00  0.00     0.001 A 
ATOM     67  C   UNL A   1      49.819  25.531  31.373  1.00  0.00     0.001 A 
ATOM     68  C   UNL A   1      50.763  25.727  30.365  1.00  0.00     0.000 A 
ENDBRANCH  49  63
BRANCH  50  69
ATOM     69  C   UNL A   1      38.564  29.169  28.927  1.00  0.00    -0.014 A 
ATOM     70  C   UNL A   1      38.074  29.662  27.708  1.00  0.00     0.009 A 
ATOM     71  C   UNL A   1      37.687  29.057  30.017  1.00  0.00     0.009 A 
ATOM     72  C   UNL A   1      36.740  30.058  27.590  1.00  0.00     0.001 A 
ATOM     73  C   UNL A   1      36.347  29.429  29.888  1.00  0.00     0.001 A 
ATOM     74  C   UNL A   1      35.877  29.936  28.678  1.00  0.00     0.000 A 
ENDBRANCH  50  69
BRANCH  62  75
ATOM     75  C   UNL A   1      44.202  32.490  31.286  1.00  0.00    -0.014 A 
ATOM     76  C   UNL A   1      44.107  32.769  32.658  1.00  0.00     0.009 A 
ATOM     77  C   UNL A   1      44.535  33.528  30.401  1.00  0.00     0.009 A 
ATOM     78  C   UNL A   1      44.312  34.067  33.130  1.00  0.00     0.001 A 
ATOM     79  C   UNL A   1      44.765  34.820  30.879  1.00  0.00     0.001 A 
ATOM     80  C   UNL A   1      44.645  35.089  32.241  1.00  0.00     0.000 A 
ENDBRANCH  62  75
ENDBRANCH  36  37
ENDBRANCH  28  31
ENDBRANCH  26  27
ENDBRANCH  25  26
ENDBRANCH  24  25
ENDBRANCH   1  24
TORSDOF 15
ENDMDL
MODEL 3
REMARK VINA RESULT:     -10.3      2.416      3.724
REMARK SMILES CC(C)(C)C[N@H+]1[C@@H](C(=O)NCCCCCCNC(=O)c2ccc(-c3c4nc(c(-c5ccccc5)c5ccc([nH]5)c(-c5ccccc5)c5nc(c(-c6ccccc6)c6ccc3[nH]6)C=C5)C=C4)cc2)CC[C@H]2CCCC[C@@H]21
REMARK SMILES IDX 13 1 12 2 11 3 10 4 8 5 9 6 7 8 6 9 75 10 68 12 70 13 74 14
REMARK SMILES IDX 69 15 71 16 73 17 72 18 5 19 2 20 1 21 3 22 4 23 14 24 15 25
REMARK SMILES IDX 16 26 17 27 18 28 19 30 20 31 21 32 67 33 22 34 66 35 23 36
REMARK SMILES IDX 24 37 25 38 60 39 26 40 65 41 59 42 61 43 27 44 64 45 58 46
REMARK SMILES IDX 57 47 28 49 50 50 35 51 49 52 36 53 39 54 48 55 62 56 37 57
REMARK SMILES IDX 38 58 47 60 63 61 40 62 29 63 30 64 34 65 31 66 33 67 32 68
REMARK SMILES IDX 51 69 52 70 56 71 53 72 55 73 54 74 41 75 42 76 46 77 43 78
REMARK SMILES IDX 45 79 44 80
REMARK H PARENT 10 7 6 11 17 29 61 48 39 59
REMARK Flexibility Score: inf
ROOT
ATOM      1  C   UNL A   1      32.124  29.716  25.673  1.00  0.00     0.002 C 
ENDROOT
BRANCH   1   2
ATOM      2  C   UNL A   1      31.852  28.751  26.832  1.00  0.00     0.021 C 
BRANCH   2   3
ATOM      3  C   UNL A   1      32.353  27.302  26.756  1.00  0.00     0.116 C 
BRANCH   3   4
ATOM      4  N   UNL A   1      31.259  26.346  26.835  1.00  0.00    -0.351 N 
ATOM      5  C   UNL A   1      31.122  25.046  26.436  1.00  0.00     0.278 C 
ATOM      6  O   UNL A   1      29.977  24.589  26.575  1.00  0.00    -0.268 OA
ATOM      7  H   UNL A   1      30.452  26.711  27.264  1.00  0.00     0.163 HD
BRANCH   5   8
ATOM      8  C   UNL A   1      32.288  24.124  25.974  1.00  0.00     0.274 C 
ATOM      9  N   UNL A   1      33.149  24.602  24.838  1.00  0.00    -0.322 N 
ATOM     10  C   UNL A   1      34.337  23.674  24.723  1.00  0.00     0.187 C 
ATOM     11  H   UNL A   1      33.416  25.562  25.057  1.00  0.00     0.349 HD
ATOM     12  C   UNL A   1      31.733  22.689  25.703  1.00  0.00     0.076 C 
ATOM     13  C   UNL A   1      34.128  22.242  25.284  1.00  0.00     0.048 C 
ATOM     14  C   UNL A   1      35.619  24.220  25.380  1.00  0.00     0.065 C 
ATOM     15  C   UNL A   1      32.722  21.762  24.985  1.00  0.00     0.016 C 
ATOM     16  C   UNL A   1      35.232  21.329  24.747  1.00  0.00     0.010 C 
ATOM     17  C   UNL A   1      36.819  23.326  25.002  1.00  0.00     0.006 C 
ATOM     18  C   UNL A   1      36.592  21.828  25.245  1.00  0.00     0.001 C 
BRANCH   9  19
ATOM     19  C   UNL A   1      32.451  24.646  23.504  1.00  0.00     0.269 C 
BRANCH  19  20
ATOM     20  C   UNL A   1      32.364  26.033  22.797  1.00  0.00     0.011 C 
ATOM     21  C   UNL A   1      33.484  26.959  23.301  1.00  0.00     0.017 C 
ATOM     22  C   UNL A   1      31.048  26.753  23.178  1.00  0.00     0.017 C 
ATOM     23  C   UNL A   1      32.317  25.863  21.268  1.00  0.00     0.017 C 
ENDBRANCH  19  20
ENDBRANCH   9  19
ENDBRANCH   5   8
ENDBRANCH   3   4
ENDBRANCH   2   3
ENDBRANCH   1   2
BRANCH   1  24
ATOM     24  C   UNL A   1      31.018  30.737  25.363  1.00  0.00     0.002 C 
BRANCH  24  25
ATOM     25  C   UNL A   1      31.005  32.048  26.168  1.00  0.00     0.021 C 
BRANCH  25  26
ATOM     26  C   UNL A   1      32.306  32.426  26.881  1.00  0.00     0.116 C 
BRANCH  26  27
ATOM     27  N   UNL A   1      32.253  33.755  27.465  1.00  0.00    -0.352 N 
ATOM     28  C   UNL A   1      33.073  34.355  28.391  1.00  0.00     0.251 C 
ATOM     29  H   UNL A   1      31.508  34.317  27.147  1.00  0.00     0.163 HD
ATOM     30  O   UNL A   1      32.730  35.412  28.910  1.00  0.00    -0.269 OA
BRANCH  28  31
ATOM     31  C   UNL A   1      34.364  33.746  28.787  1.00  0.00     0.039 A 
ATOM     32  C   UNL A   1      34.424  33.024  29.985  1.00  0.00     0.014 A 
ATOM     33  C   UNL A   1      35.534  33.957  28.052  1.00  0.00     0.014 A 
ATOM     34  C   UNL A   1      35.636  32.475  30.418  1.00  0.00     0.010 A 
ATOM     35  C   UNL A   1      36.736  33.370  28.460  1.00  0.00     0.010 A 
ATOM     36  C   UNL A   1      36.802  32.626  29.650  1.00  0.00    -0.014 A 
BRANCH  36  37
ATOM     37  C   UNL A   1      38.086  32.010  30.079  1.00  0.00     0.031 A 
ATOM     38  C   UNL A   1      39.001  32.723  31.039  1.00  0.00     0.074 A 
ATOM     39  C   UNL A   1      38.459  30.817  29.571  1.00  0.00     0.049 A 
ATOM     40  N   UNL A   1      40.175  32.356  31.489  1.00  0.00    -0.248 NA
ATOM     41  C   UNL A   1      38.542  34.025  31.546  1.00  0.00     0.031 C 
ATOM     42  C   UNL A   1      37.684  30.025  28.615  1.00  0.00     0.029 A 
ATOM     43  N   UNL A   1      39.590  30.069  29.784  1.00  0.00    -0.354 N 
ATOM     44  C   UNL A   1      40.603  33.387  32.318  1.00  0.00     0.074 A 
ATOM     45  C   UNL A   1      39.578  34.409  32.280  1.00  0.00     0.031 C 
ATOM     46  C   UNL A   1      38.353  28.894  28.339  1.00  0.00     0.029 A 
ATOM     47  C   UNL A   1      39.618  28.896  29.069  1.00  0.00     0.049 A 
ATOM     48  H   UNL A   1      40.313  30.345  30.393  1.00  0.00     0.167 HD
ATOM     49  C   UNL A   1      41.737  33.472  33.055  1.00  0.00     0.031 A 
ATOM     50  C   UNL A   1      40.556  27.933  28.999  1.00  0.00     0.031 A 
ATOM     51  C   UNL A   1      42.757  32.458  33.105  1.00  0.00     0.049 A 
ATOM     52  C   UNL A   1      41.813  28.058  29.812  1.00  0.00     0.074 A 
ATOM     53  C   UNL A   1      43.916  32.436  33.865  1.00  0.00     0.029 A 
ATOM     54  N   UNL A   1      42.745  31.286  32.366  1.00  0.00    -0.354 N 
ATOM     55  N   UNL A   1      42.173  29.012  30.635  1.00  0.00    -0.248 NA
ATOM     56  C   UNL A   1      42.789  26.964  29.693  1.00  0.00     0.031 C 
ATOM     57  C   UNL A   1      44.626  31.273  33.551  1.00  0.00     0.029 A 
ATOM     58  C   UNL A   1      43.885  30.546  32.632  1.00  0.00     0.049 A 
ATOM     59  H   UNL A   1      42.031  31.020  31.743  1.00  0.00     0.167 HD
ATOM     60  C   UNL A   1      43.402  28.624  31.150  1.00  0.00     0.074 A 
ATOM     61  C   UNL A   1      43.721  27.340  30.559  1.00  0.00     0.031 C 
ATOM     62  C   UNL A   1      44.195  29.272  32.038  1.00  0.00     0.031 A 
BRANCH  49  63
ATOM     63  C   UNL A   1      41.943  34.721  33.866  1.00  0.00    -0.014 A 
ATOM     64  C   UNL A   1      41.484  34.811  35.190  1.00  0.00     0.009 A 
ATOM     65  C   UNL A   1      42.641  35.807  33.313  1.00  0.00     0.009 A 
ATOM     66  C   UNL A   1      41.689  35.977  35.931  1.00  0.00     0.001 A 
ATOM     67  C   UNL A   1      42.866  36.961  34.065  1.00  0.00     0.001 A 
ATOM     68  C   UNL A   1      42.383  37.050  35.370  1.00  0.00     0.000 A 
ENDBRANCH  49  63
BRANCH  50  69
ATOM     69  C   UNL A   1      40.336  26.747  28.131  1.00  0.00    -0.014 A 
ATOM     70  C   UNL A   1      39.606  25.646  28.603  1.00  0.00     0.009 A 
ATOM     71  C   UNL A   1      40.859  26.709  26.829  1.00  0.00     0.009 A 
ATOM     72  C   UNL A   1      39.425  24.520  27.797  1.00  0.00     0.001 A 
ATOM     73  C   UNL A   1      40.654  25.592  26.016  1.00  0.00     0.001 A 
ATOM     74  C   UNL A   1      39.944  24.496  26.504  1.00  0.00     0.000 A 
ENDBRANCH  50  69
BRANCH  62  75
ATOM     75  C   UNL A   1      45.469  28.591  32.447  1.00  0.00    -0.014 A 
ATOM     76  C   UNL A   1      45.503  27.699  33.530  1.00  0.00     0.009 A 
ATOM     77  C   UNL A   1      46.645  28.820  31.717  1.00  0.00     0.009 A 
ATOM     78  C   UNL A   1      46.697  27.072  33.891  1.00  0.00     0.001 A 
ATOM     79  C   UNL A   1      47.833  28.174  32.065  1.00  0.00     0.001 A 
ATOM     80  C   UNL A   1      47.859  27.307  33.156  1.00  0.00     0.000 A 
ENDBRANCH  62  75
ENDBRANCH  36  37
ENDBRANCH  28  31
ENDBRANCH  26  27
ENDBRANCH  25  26
ENDBRANCH  24  25
ENDBRANCH   1  24
TORSDOF 15
ENDMDL
