MODEL 1
REMARK VINA RESULT:     -10.6      0.000      0.000
REMARK SMILES C[C@@H](C(=O)NCCCCCCNC(=O)c1ccc(-c2c3nc(c(-c4ccccc4)c4ccc([nH]4)c(-c4ccccc4)c4nc(c(-c5ccccc5)c5ccc2[nH]5)C=C4)C=C3)cc1)c1ccc(-c2cccc(OC(=O)NCCCc3ccccc3)c2)c(F)c1
REMARK SMILES IDX 3 1 4 2 5 3 2 5 1 6 63 7 64 8 88 9 65 10 86 11 66 12 87 13
REMARK SMILES IDX 67 14 68 15 85 16 69 17 71 18 70 19 72 20 73 21 74 22 75 23
REMARK SMILES IDX 76 25 77 26 78 27 79 28 80 29 84 30 81 31 83 32 82 33 6 34
REMARK SMILES IDX 7 35 8 36 9 37 10 38 11 39 12 40 13 41 14 43 15 44 16 45
REMARK SMILES IDX 62 46 17 47 61 48 18 49 19 50 20 51 55 52 21 53 60 54 54 55
REMARK SMILES IDX 56 56 22 57 59 58 53 59 52 60 23 62 45 63 30 64 44 65 31 66
REMARK SMILES IDX 34 67 43 68 57 69 32 70 33 71 42 73 58 74 35 75 24 76 25 77
REMARK SMILES IDX 29 78 26 79 28 80 27 81 46 82 47 83 51 84 48 85 50 86 49 87
REMARK SMILES IDX 36 88 37 89 41 90 38 91 40 92 39 93
REMARK H PARENT 5 4 75 24 12 42 56 61 34 72
REMARK Flexibility Score: inf
ROOT
ATOM      1  C   UNL A   1      33.132  25.810  22.922  1.00  0.00     0.227 C 
ATOM      2  O   UNL A   1      34.027  25.858  22.075  1.00  0.00    -0.274 OA
ATOM      3  N   UNL A   1      31.972  26.428  22.573  1.00  0.00    -0.356 N 
ATOM      4  H   UNL A   1      31.962  26.795  21.659  1.00  0.00     0.163 HD
ENDROOT
BRANCH   1   5
ATOM      5  C   UNL A   1      33.240  25.062  24.264  1.00  0.00     0.105 C 
ATOM      6  C   UNL A   1      33.140  25.980  25.487  1.00  0.00     0.023 C 
BRANCH   5   7
ATOM      7  C   UNL A   1      34.515  24.238  24.421  1.00  0.00    -0.033 A 
ATOM      8  C   UNL A   1      34.695  23.071  23.661  1.00  0.00     0.005 A 
ATOM      9  C   UNL A   1      35.466  24.545  25.399  1.00  0.00     0.044 A 
ATOM     10  C   UNL A   1      35.791  22.229  23.889  1.00  0.00     0.012 A 
ATOM     11  C   UNL A   1      36.568  23.726  25.595  1.00  0.00     0.131 A 
ATOM     12  C   UNL A   1      36.737  22.535  24.878  1.00  0.00     0.018 A 
ATOM     13  F   UNL A   1      37.453  24.085  26.540  1.00  0.00    -0.206 F 
BRANCH  12  14
ATOM     14  C   UNL A   1      37.803  21.593  25.246  1.00  0.00    -0.012 A 
ATOM     15  C   UNL A   1      37.784  20.240  24.880  1.00  0.00     0.009 A 
ATOM     16  C   UNL A   1      38.890  22.066  25.999  1.00  0.00     0.056 A 
ATOM     17  C   UNL A   1      38.832  19.390  25.247  1.00  0.00     0.004 A 
ATOM     18  C   UNL A   1      39.929  21.223  26.367  1.00  0.00     0.133 A 
ATOM     19  C   UNL A   1      39.908  19.883  25.989  1.00  0.00     0.047 A 
BRANCH  18  20
ATOM     20  O   UNL A   1      41.071  21.653  27.082  1.00  0.00    -0.410 OA
BRANCH  20  21
ATOM     21  C   UNL A   1      42.377  21.675  26.591  1.00  0.00     0.412 C 
ATOM     22  O   UNL A   1      42.744  21.388  25.460  1.00  0.00    -0.224 OA
ATOM     23  N   UNL A   1      43.288  22.091  27.519  1.00  0.00    -0.321 N 
ATOM     24  H   UNL A   1      44.240  22.025  27.278  1.00  0.00     0.167 HD
BRANCH  23  25
ATOM     25  C   UNL A   1      42.974  22.619  28.823  1.00  0.00     0.120 C 
BRANCH  25  26
ATOM     26  C   UNL A   1      43.715  23.907  29.179  1.00  0.00     0.026 C 
BRANCH  26  27
ATOM     27  C   UNL A   1      45.143  24.099  28.652  1.00  0.00     0.037 C 
BRANCH  27  28
ATOM     28  C   UNL A   1      45.400  24.883  27.385  1.00  0.00    -0.048 A 
ATOM     29  C   UNL A   1      45.379  24.344  26.096  1.00  0.00     0.004 A 
ATOM     30  C   UNL A   1      45.745  26.241  27.523  1.00  0.00     0.004 A 
ATOM     31  C   UNL A   1      45.696  25.130  24.981  1.00  0.00     0.000 A 
ATOM     32  C   UNL A   1      46.050  27.029  26.411  1.00  0.00     0.000 A 
ATOM     33  C   UNL A   1      46.030  26.470  25.139  1.00  0.00     0.000 A 
ENDBRANCH  27  28
ENDBRANCH  26  27
ENDBRANCH  25  26
ENDBRANCH  23  25
ENDBRANCH  20  21
ENDBRANCH  18  20
ENDBRANCH  12  14
ENDBRANCH   5   7
ENDBRANCH   1   5
BRANCH   3  34
ATOM     34  C   UNL A   1      30.754  26.636  23.317  1.00  0.00     0.116 C 
BRANCH  34  35
ATOM     35  C   UNL A   1      30.442  28.129  23.432  1.00  0.00     0.021 C 
BRANCH  35  36
ATOM     36  C   UNL A   1      31.606  28.978  23.964  1.00  0.00     0.002 C 
BRANCH  36  37
ATOM     37  C   UNL A   1      31.519  29.342  25.449  1.00  0.00     0.002 C 
BRANCH  37  38
ATOM     38  C   UNL A   1      31.444  30.842  25.737  1.00  0.00     0.021 C 
BRANCH  38  39
ATOM     39  C   UNL A   1      32.387  31.314  26.834  1.00  0.00     0.116 C 
BRANCH  39  40
ATOM     40  N   UNL A   1      32.230  32.731  27.114  1.00  0.00    -0.352 N 
ATOM     41  C   UNL A   1      33.002  33.540  27.910  1.00  0.00     0.251 C 
ATOM     42  H   UNL A   1      31.467  33.171  26.675  1.00  0.00     0.163 HD
ATOM     43  O   UNL A   1      32.627  34.670  28.201  1.00  0.00    -0.269 OA
BRANCH  41  44
ATOM     44  C   UNL A   1      34.289  33.031  28.429  1.00  0.00     0.039 A 
ATOM     45  C   UNL A   1      35.479  33.573  27.938  1.00  0.00     0.014 A 
ATOM     46  C   UNL A   1      34.319  32.021  29.394  1.00  0.00     0.014 A 
ATOM     47  C   UNL A   1      36.701  33.128  28.445  1.00  0.00     0.010 A 
ATOM     48  C   UNL A   1      35.532  31.637  29.956  1.00  0.00     0.010 A 
ATOM     49  C   UNL A   1      36.735  32.171  29.472  1.00  0.00    -0.014 A 
BRANCH  49  50
ATOM     50  C   UNL A   1      38.021  31.684  30.028  1.00  0.00     0.031 A 
ATOM     51  C   UNL A   1      38.575  32.299  31.284  1.00  0.00     0.074 A 
ATOM     52  C   UNL A   1      38.716  30.731  29.379  1.00  0.00     0.049 A 
ATOM     53  N   UNL A   1      39.699  32.044  31.904  1.00  0.00    -0.248 NA
ATOM     54  C   UNL A   1      37.773  33.364  31.909  1.00  0.00     0.031 C 
ATOM     55  C   UNL A   1      38.304  30.077  28.136  1.00  0.00     0.029 A 
ATOM     56  N   UNL A   1      39.921  30.148  29.680  1.00  0.00    -0.354 N 
ATOM     57  C   UNL A   1      39.749  32.931  32.972  1.00  0.00     0.074 A 
ATOM     58  C   UNL A   1      38.572  33.767  32.884  1.00  0.00     0.031 C 
ATOM     59  C   UNL A   1      39.221  29.155  27.801  1.00  0.00     0.029 A 
ATOM     60  C   UNL A   1      40.303  29.183  28.781  1.00  0.00     0.049 A 
ATOM     61  H   UNL A   1      40.460  30.397  30.465  1.00  0.00     0.167 HD
ATOM     62  C   UNL A   1      40.679  33.030  33.952  1.00  0.00     0.031 A 
ATOM     63  C   UNL A   1      41.401  28.405  28.752  1.00  0.00     0.031 A 
ATOM     64  C   UNL A   1      41.843  32.191  34.046  1.00  0.00     0.049 A 
ATOM     65  C   UNL A   1      42.427  28.538  29.842  1.00  0.00     0.074 A 
ATOM     66  C   UNL A   1      42.813  32.167  35.032  1.00  0.00     0.029 A 
ATOM     67  N   UNL A   1      42.194  31.225  33.114  1.00  0.00    -0.354 N 
ATOM     68  N   UNL A   1      42.427  29.335  30.885  1.00  0.00    -0.248 NA
ATOM     69  C   UNL A   1      43.597  27.653  29.759  1.00  0.00     0.031 C 
ATOM     70  C   UNL A   1      43.782  31.225  34.668  1.00  0.00     0.029 A 
ATOM     71  C   UNL A   1      43.381  30.618  33.488  1.00  0.00     0.049 A 
ATOM     72  H   UNL A   1      41.676  31.005  32.306  1.00  0.00     0.167 HD
ATOM     73  C   UNL A   1      43.575  29.022  31.600  1.00  0.00     0.074 A 
ATOM     74  C   UNL A   1      44.243  27.958  30.876  1.00  0.00     0.031 C 
ATOM     75  C   UNL A   1      44.033  29.561  32.756  1.00  0.00     0.031 A 
BRANCH  62  76
ATOM     76  C   UNL A   1      40.476  34.105  34.986  1.00  0.00    -0.014 A 
ATOM     77  C   UNL A   1      39.744  33.864  36.159  1.00  0.00     0.009 A 
ATOM     78  C   UNL A   1      41.028  35.380  34.782  1.00  0.00     0.009 A 
ATOM     79  C   UNL A   1      39.523  34.891  37.080  1.00  0.00     0.001 A 
ATOM     80  C   UNL A   1      40.835  36.394  35.721  1.00  0.00     0.001 A 
ATOM     81  C   UNL A   1      40.072  36.153  36.862  1.00  0.00     0.000 A 
ENDBRANCH  62  76
BRANCH  63  82
ATOM     82  C   UNL A   1      41.567  27.396  27.672  1.00  0.00    -0.014 A 
ATOM     83  C   UNL A   1      41.011  26.116  27.811  1.00  0.00     0.009 A 
ATOM     84  C   UNL A   1      42.269  27.710  26.498  1.00  0.00     0.009 A 
ATOM     85  C   UNL A   1      41.174  25.161  26.805  1.00  0.00     0.001 A 
ATOM     86  C   UNL A   1      42.407  26.761  25.482  1.00  0.00     0.001 A 
ATOM     87  C   UNL A   1      41.867  25.486  25.640  1.00  0.00     0.000 A 
ENDBRANCH  63  82
BRANCH  75  88
ATOM     88  C   UNL A   1      45.290  28.977  33.338  1.00  0.00    -0.014 A 
ATOM     89  C   UNL A   1      46.554  29.506  33.035  1.00  0.00     0.009 A 
ATOM     90  C   UNL A   1      45.200  27.902  34.237  1.00  0.00     0.009 A 
ATOM     91  C   UNL A   1      47.705  28.944  33.592  1.00  0.00     0.001 A 
ATOM     92  C   UNL A   1      46.349  27.364  34.817  1.00  0.00     0.001 A 
ATOM     93  C   UNL A   1      47.601  27.879  34.487  1.00  0.00     0.000 A 
ENDBRANCH  75  88
ENDBRANCH  49  50
ENDBRANCH  41  44
ENDBRANCH  39  40
ENDBRANCH  38  39
ENDBRANCH  37  38
ENDBRANCH  36  37
ENDBRANCH  35  36
ENDBRANCH  34  35
ENDBRANCH   3  34
TORSDOF 21
ENDMDL
MODEL 2
REMARK VINA RESULT:     -10.2      4.961      9.654
REMARK SMILES C[C@@H](C(=O)NCCCCCCNC(=O)c1ccc(-c2c3nc(c(-c4ccccc4)c4ccc([nH]4)c(-c4ccccc4)c4nc(c(-c5ccccc5)c5ccc2[nH]5)C=C4)C=C3)cc1)c1ccc(-c2cccc(OC(=O)NCCCc3ccccc3)c2)c(F)c1
REMARK SMILES IDX 3 1 4 2 5 3 2 5 1 6 63 7 64 8 88 9 65 10 86 11 66 12 87 13
REMARK SMILES IDX 67 14 68 15 85 16 69 17 71 18 70 19 72 20 73 21 74 22 75 23
REMARK SMILES IDX 76 25 77 26 78 27 79 28 80 29 84 30 81 31 83 32 82 33 6 34
REMARK SMILES IDX 7 35 8 36 9 37 10 38 11 39 12 40 13 41 14 43 15 44 16 45
REMARK SMILES IDX 62 46 17 47 61 48 18 49 19 50 20 51 55 52 21 53 60 54 54 55
REMARK SMILES IDX 56 56 22 57 59 58 53 59 52 60 23 62 45 63 30 64 44 65 31 66
REMARK SMILES IDX 34 67 43 68 57 69 32 70 33 71 42 73 58 74 35 75 24 76 25 77
REMARK SMILES IDX 29 78 26 79 28 80 27 81 46 82 47 83 51 84 48 85 50 86 49 87
REMARK SMILES IDX 36 88 37 89 41 90 38 91 40 92 39 93
REMARK H PARENT 5 4 75 24 12 42 56 61 34 72
REMARK Flexibility Score: inf
ROOT
ATOM      1  C   UNL A   1      34.792  34.327  28.749  1.00  0.00     0.227 C 
ATOM      2  O   UNL A   1      34.619  34.950  27.699  1.00  0.00    -0.274 OA
ATOM      3  N   UNL A   1      34.127  34.818  29.828  1.00  0.00    -0.356 N 
ATOM      4  H   UNL A   1      33.539  35.584  29.634  1.00  0.00     0.163 HD
ENDROOT
BRANCH   1   5
ATOM      5  C   UNL A   1      35.633  33.042  28.873  1.00  0.00     0.105 C 
ATOM      6  C   UNL A   1      36.951  33.096  28.092  1.00  0.00     0.023 C 
BRANCH   5   7
ATOM      7  C   UNL A   1      34.905  31.772  28.443  1.00  0.00    -0.033 A 
ATOM      8  C   UNL A   1      35.545  30.527  28.548  1.00  0.00     0.005 A 
ATOM      9  C   UNL A   1      33.650  31.823  27.828  1.00  0.00     0.044 A 
ATOM     10  C   UNL A   1      34.948  29.369  28.032  1.00  0.00     0.012 A 
ATOM     11  C   UNL A   1      33.049  30.668  27.352  1.00  0.00     0.131 A 
ATOM     12  C   UNL A   1      33.694  29.426  27.406  1.00  0.00     0.018 A 
ATOM     13  F   UNL A   1      31.837  30.783  26.785  1.00  0.00    -0.206 F 
BRANCH  12  14
ATOM     14  C   UNL A   1      33.120  28.262  26.718  1.00  0.00    -0.012 A 
ATOM     15  C   UNL A   1      31.912  27.667  27.105  1.00  0.00     0.009 A 
ATOM     16  C   UNL A   1      33.812  27.717  25.622  1.00  0.00     0.056 A 
ATOM     17  C   UNL A   1      31.406  26.566  26.406  1.00  0.00     0.004 A 
ATOM     18  C   UNL A   1      33.312  26.624  24.929  1.00  0.00     0.133 A 
ATOM     19  C   UNL A   1      32.105  26.046  25.315  1.00  0.00     0.047 A 
BRANCH  18  20
ATOM     20  O   UNL A   1      33.938  26.065  23.792  1.00  0.00    -0.410 OA
BRANCH  20  21
ATOM     21  C   UNL A   1      33.302  25.728  22.597  1.00  0.00     0.412 C 
ATOM     22  O   UNL A   1      32.816  24.644  22.300  1.00  0.00    -0.224 OA
ATOM     23  N   UNL A   1      33.231  26.770  21.718  1.00  0.00    -0.321 N 
ATOM     24  H   UNL A   1      32.896  26.576  20.813  1.00  0.00     0.167 HD
BRANCH  23  25
ATOM     25  C   UNL A   1      33.605  28.133  22.003  1.00  0.00     0.120 C 
BRANCH  25  26
ATOM     26  C   UNL A   1      32.496  28.975  22.630  1.00  0.00     0.026 C 
BRANCH  26  27
ATOM     27  C   UNL A   1      31.070  28.410  22.648  1.00  0.00     0.037 C 
BRANCH  27  28
ATOM     28  C   UNL A   1      29.887  29.307  22.937  1.00  0.00    -0.048 A 
ATOM     29  C   UNL A   1      29.962  30.542  23.586  1.00  0.00     0.004 A 
ATOM     30  C   UNL A   1      28.611  28.831  22.577  1.00  0.00     0.004 A 
ATOM     31  C   UNL A   1      28.805  31.277  23.872  1.00  0.00     0.000 A 
ATOM     32  C   UNL A   1      27.457  29.568  22.852  1.00  0.00     0.000 A 
ATOM     33  C   UNL A   1      27.555  30.791  23.505  1.00  0.00     0.000 A 
ENDBRANCH  27  28
ENDBRANCH  26  27
ENDBRANCH  25  26
ENDBRANCH  23  25
ENDBRANCH  20  21
ENDBRANCH  18  20
ENDBRANCH  12  14
ENDBRANCH   5   7
ENDBRANCH   1   5
BRANCH   3  34
ATOM     34  C   UNL A   1      34.140  34.407  31.211  1.00  0.00     0.116 C 
BRANCH  34  35
ATOM     35  C   UNL A   1      34.060  35.623  32.135  1.00  0.00     0.021 C 
BRANCH  35  36
ATOM     36  C   UNL A   1      34.587  35.371  33.556  1.00  0.00     0.002 C 
BRANCH  36  37
ATOM     37  C   UNL A   1      34.671  33.899  33.966  1.00  0.00     0.002 C 
BRANCH  37  38
ATOM     38  C   UNL A   1      36.092  33.371  34.171  1.00  0.00     0.021 C 
BRANCH  38  39
ATOM     39  C   UNL A   1      36.692  32.701  32.944  1.00  0.00     0.116 C 
BRANCH  39  40
ATOM     40  N   UNL A   1      36.600  31.253  33.013  1.00  0.00    -0.352 N 
ATOM     41  C   UNL A   1      37.412  30.312  32.430  1.00  0.00     0.251 C 
ATOM     42  H   UNL A   1      35.856  30.898  33.550  1.00  0.00     0.163 HD
ATOM     43  O   UNL A   1      37.088  29.129  32.421  1.00  0.00    -0.269 OA
BRANCH  41  44
ATOM     44  C   UNL A   1      38.677  30.738  31.796  1.00  0.00     0.039 A 
ATOM     45  C   UNL A   1      38.756  30.779  30.402  1.00  0.00     0.014 A 
ATOM     46  C   UNL A   1      39.781  31.093  32.576  1.00  0.00     0.014 A 
ATOM     47  C   UNL A   1      39.932  31.213  29.790  1.00  0.00     0.010 A 
ATOM     48  C   UNL A   1      40.923  31.603  31.968  1.00  0.00     0.010 A 
ATOM     49  C   UNL A   1      41.017  31.648  30.569  1.00  0.00    -0.014 A 
BRANCH  49  50
ATOM     50  C   UNL A   1      42.277  32.116  29.941  1.00  0.00     0.031 A 
ATOM     51  C   UNL A   1      42.411  33.551  29.510  1.00  0.00     0.074 A 
ATOM     52  C   UNL A   1      43.276  31.244  29.709  1.00  0.00     0.049 A 
ATOM     53  N   UNL A   1      43.410  34.143  28.908  1.00  0.00    -0.248 NA
ATOM     54  C   UNL A   1      41.256  34.428  29.763  1.00  0.00     0.031 C 
ATOM     55  C   UNL A   1      43.258  29.821  30.049  1.00  0.00     0.029 A 
ATOM     56  N   UNL A   1      44.505  31.433  29.128  1.00  0.00    -0.354 N 
ATOM     57  C   UNL A   1      42.995  35.451  28.688  1.00  0.00     0.074 A 
ATOM     58  C   UNL A   1      41.635  35.550  29.171  1.00  0.00     0.031 C 
ATOM     59  C   UNL A   1      44.436  29.274  29.706  1.00  0.00     0.029 A 
ATOM     60  C   UNL A   1      45.273  30.296  29.085  1.00  0.00     0.049 A 
ATOM     61  H   UNL A   1      44.806  32.301  28.775  1.00  0.00     0.167 HD
ATOM     62  C   UNL A   1      43.687  36.485  28.153  1.00  0.00     0.031 A 
ATOM     63  C   UNL A   1      46.515  30.100  28.604  1.00  0.00     0.031 A 
ATOM     64  C   UNL A   1      45.044  36.388  27.684  1.00  0.00     0.049 A 
ATOM     65  C   UNL A   1      47.262  31.258  28.003  1.00  0.00     0.074 A 
ATOM     66  C   UNL A   1      45.856  37.389  27.182  1.00  0.00     0.029 A 
ATOM     67  N   UNL A   1      45.786  35.218  27.659  1.00  0.00    -0.354 N 
ATOM     68  N   UNL A   1      46.881  32.506  27.865  1.00  0.00    -0.248 NA
ATOM     69  C   UNL A   1      48.616  30.981  27.505  1.00  0.00     0.031 C 
ATOM     70  C   UNL A   1      47.073  36.813  26.801  1.00  0.00     0.029 A 
ATOM     71  C   UNL A   1      47.040  35.465  27.125  1.00  0.00     0.049 A 
ATOM     72  H   UNL A   1      45.469  34.340  27.973  1.00  0.00     0.167 HD
ATOM     73  C   UNL A   1      47.962  33.170  27.299  1.00  0.00     0.074 A 
ATOM     74  C   UNL A   1      49.014  32.188  27.127  1.00  0.00     0.031 C 
ATOM     75  C   UNL A   1      48.075  34.477  26.959  1.00  0.00     0.031 A 
BRANCH  62  76
ATOM     76  C   UNL A   1      42.969  37.801  28.029  1.00  0.00    -0.014 A 
ATOM     77  C   UNL A   1      43.028  38.767  29.047  1.00  0.00     0.009 A 
ATOM     78  C   UNL A   1      42.223  38.081  26.873  1.00  0.00     0.009 A 
ATOM     79  C   UNL A   1      42.312  39.960  28.934  1.00  0.00     0.001 A 
ATOM     80  C   UNL A   1      41.536  39.290  26.748  1.00  0.00     0.001 A 
ATOM     81  C   UNL A   1      41.570  40.222  27.784  1.00  0.00     0.000 A 
ENDBRANCH  62  76
BRANCH  63  82
ATOM     82  C   UNL A   1      47.148  28.760  28.711  1.00  0.00    -0.014 A 
ATOM     83  C   UNL A   1      47.122  27.878  27.620  1.00  0.00     0.009 A 
ATOM     84  C   UNL A   1      47.789  28.360  29.893  1.00  0.00     0.009 A 
ATOM     85  C   UNL A   1      47.705  26.613  27.718  1.00  0.00     0.001 A 
ATOM     86  C   UNL A   1      48.395  27.104  29.979  1.00  0.00     0.001 A 
ATOM     87  C   UNL A   1      48.346  26.229  28.895  1.00  0.00     0.000 A 
ENDBRANCH  63  82
BRANCH  75  88
ATOM     88  C   UNL A   1      49.399  34.933  26.413  1.00  0.00    -0.014 A 
ATOM     89  C   UNL A   1      50.456  35.304  27.259  1.00  0.00     0.009 A 
ATOM     90  C   UNL A   1      49.602  34.954  25.023  1.00  0.00     0.009 A 
ATOM     91  C   UNL A   1      51.675  35.721  26.723  1.00  0.00     0.001 A 
ATOM     92  C   UNL A   1      50.832  35.340  24.491  1.00  0.00     0.001 A 
ATOM     93  C   UNL A   1      51.864  35.733  25.341  1.00  0.00     0.000 A 
ENDBRANCH  75  88
ENDBRANCH  49  50
ENDBRANCH  41  44
ENDBRANCH  39  40
ENDBRANCH  38  39
ENDBRANCH  37  38
ENDBRANCH  36  37
ENDBRANCH  35  36
ENDBRANCH  34  35
ENDBRANCH   3  34
TORSDOF 21
ENDMDL
MODEL 3
REMARK VINA RESULT:     -10.1      4.167      9.304
REMARK SMILES C[C@@H](C(=O)NCCCCCCNC(=O)c1ccc(-c2c3nc(c(-c4ccccc4)c4ccc([nH]4)c(-c4ccccc4)c4nc(c(-c5ccccc5)c5ccc2[nH]5)C=C4)C=C3)cc1)c1ccc(-c2cccc(OC(=O)NCCCc3ccccc3)c2)c(F)c1
REMARK SMILES IDX 3 1 4 2 5 3 2 5 1 6 63 7 64 8 88 9 65 10 86 11 66 12 87 13
REMARK SMILES IDX 67 14 68 15 85 16 69 17 71 18 70 19 72 20 73 21 74 22 75 23
REMARK SMILES IDX 76 25 77 26 78 27 79 28 80 29 84 30 81 31 83 32 82 33 6 34
REMARK SMILES IDX 7 35 8 36 9 37 10 38 11 39 12 40 13 41 14 43 15 44 16 45
REMARK SMILES IDX 62 46 17 47 61 48 18 49 19 50 20 51 55 52 21 53 60 54 54 55
REMARK SMILES IDX 56 56 22 57 59 58 53 59 52 60 23 62 45 63 30 64 44 65 31 66
REMARK SMILES IDX 34 67 43 68 57 69 32 70 33 71 42 73 58 74 35 75 24 76 25 77
REMARK SMILES IDX 29 78 26 79 28 80 27 81 46 82 47 83 51 84 48 85 50 86 49 87
REMARK SMILES IDX 36 88 37 89 41 90 38 91 40 92 39 93
REMARK H PARENT 5 4 75 24 12 42 56 61 34 72
REMARK Flexibility Score: inf
ROOT
ATOM      1  C   UNL A   1      37.761  31.536  35.177  1.00  0.00     0.227 C 
ATOM      2  O   UNL A   1      37.975  31.211  36.347  1.00  0.00    -0.274 OA
ATOM      3  N   UNL A   1      36.860  32.541  35.011  1.00  0.00    -0.356 N 
ATOM      4  H   UNL A   1      36.524  32.932  35.849  1.00  0.00     0.163 HD
ENDROOT
BRANCH   1   5
ATOM      5  C   UNL A   1      38.481  30.928  33.958  1.00  0.00     0.105 C 
ATOM      6  C   UNL A   1      37.601  29.977  33.138  1.00  0.00     0.023 C 
BRANCH   5   7
ATOM      7  C   UNL A   1      39.764  30.177  34.298  1.00  0.00    -0.033 A 
ATOM      8  C   UNL A   1      40.160  29.076  33.522  1.00  0.00     0.005 A 
ATOM      9  C   UNL A   1      40.505  30.479  35.445  1.00  0.00     0.044 A 
ATOM     10  C   UNL A   1      41.257  28.289  33.899  1.00  0.00     0.012 A 
ATOM     11  C   UNL A   1      41.611  29.719  35.793  1.00  0.00     0.131 A 
ATOM     12  C   UNL A   1      41.990  28.589  35.056  1.00  0.00     0.018 A 
ATOM     13  F   UNL A   1      42.288  30.071  36.899  1.00  0.00    -0.206 F 
BRANCH  12  14
ATOM     14  C   UNL A   1      43.040  27.694  35.559  1.00  0.00    -0.012 A 
ATOM     15  C   UNL A   1      44.179  28.157  36.231  1.00  0.00     0.009 A 
ATOM     16  C   UNL A   1      42.899  26.310  35.359  1.00  0.00     0.056 A 
ATOM     17  C   UNL A   1      45.142  27.258  36.700  1.00  0.00     0.004 A 
ATOM     18  C   UNL A   1      43.855  25.417  35.821  1.00  0.00     0.133 A 
ATOM     19  C   UNL A   1      44.979  25.886  36.498  1.00  0.00     0.047 A 
BRANCH  18  20
ATOM     20  O   UNL A   1      43.744  24.013  35.692  1.00  0.00    -0.410 OA
BRANCH  20  21
ATOM     21  C   UNL A   1      44.305  23.244  34.673  1.00  0.00     0.412 C 
ATOM     22  O   UNL A   1      44.091  23.342  33.472  1.00  0.00    -0.224 OA
ATOM     23  N   UNL A   1      45.193  22.314  35.133  1.00  0.00    -0.321 N 
ATOM     24  H   UNL A   1      45.542  21.662  34.483  1.00  0.00     0.167 HD
BRANCH  23  25
ATOM     25  C   UNL A   1      45.662  22.206  36.492  1.00  0.00     0.120 C 
BRANCH  25  26
ATOM     26  C   UNL A   1      45.987  20.781  36.937  1.00  0.00     0.026 C 
BRANCH  26  27
ATOM     27  C   UNL A   1      47.459  20.356  37.012  1.00  0.00     0.037 C 
BRANCH  27  28
ATOM     28  C   UNL A   1      48.371  20.513  35.815  1.00  0.00    -0.048 A 
ATOM     29  C   UNL A   1      48.131  19.962  34.553  1.00  0.00     0.004 A 
ATOM     30  C   UNL A   1      49.577  21.212  36.007  1.00  0.00     0.004 A 
ATOM     31  C   UNL A   1      49.063  20.101  33.518  1.00  0.00     0.000 A 
ATOM     32  C   UNL A   1      50.503  21.361  34.973  1.00  0.00     0.000 A 
ATOM     33  C   UNL A   1      50.246  20.800  33.728  1.00  0.00     0.000 A 
ENDBRANCH  27  28
ENDBRANCH  26  27
ENDBRANCH  25  26
ENDBRANCH  23  25
ENDBRANCH  20  21
ENDBRANCH  18  20
ENDBRANCH  12  14
ENDBRANCH   5   7
ENDBRANCH   1   5
BRANCH   3  34
ATOM     34  C   UNL A   1      36.314  33.129  33.812  1.00  0.00     0.116 C 
BRANCH  34  35
ATOM     35  C   UNL A   1      35.843  34.559  34.080  1.00  0.00     0.021 C 
BRANCH  35  36
ATOM     36  C   UNL A   1      35.423  35.332  32.822  1.00  0.00     0.002 C 
BRANCH  36  37
ATOM     37  C   UNL A   1      34.070  36.043  32.917  1.00  0.00     0.002 C 
BRANCH  37  38
ATOM     38  C   UNL A   1      33.058  35.641  31.844  1.00  0.00     0.021 C 
BRANCH  38  39
ATOM     39  C   UNL A   1      33.422  36.099  30.439  1.00  0.00     0.116 C 
BRANCH  39  40
ATOM     40  N   UNL A   1      32.757  35.308  29.418  1.00  0.00    -0.352 N 
ATOM     41  C   UNL A   1      33.255  34.261  28.683  1.00  0.00     0.251 C 
ATOM     42  H   UNL A   1      31.824  35.555  29.228  1.00  0.00     0.163 HD
ATOM     43  O   UNL A   1      32.633  33.823  27.722  1.00  0.00    -0.269 OA
BRANCH  41  44
ATOM     44  C   UNL A   1      34.560  33.673  29.050  1.00  0.00     0.039 A 
ATOM     45  C   UNL A   1      35.705  34.081  28.361  1.00  0.00     0.014 A 
ATOM     46  C   UNL A   1      34.652  32.721  30.069  1.00  0.00     0.014 A 
ATOM     47  C   UNL A   1      36.949  33.561  28.721  1.00  0.00     0.010 A 
ATOM     48  C   UNL A   1      35.900  32.266  30.481  1.00  0.00     0.010 A 
ATOM     49  C   UNL A   1      37.057  32.665  29.797  1.00  0.00    -0.014 A 
BRANCH  49  50
ATOM     50  C   UNL A   1      38.369  32.101  30.199  1.00  0.00     0.031 A 
ATOM     51  C   UNL A   1      38.824  30.785  29.630  1.00  0.00     0.074 A 
ATOM     52  C   UNL A   1      39.125  32.740  31.111  1.00  0.00     0.049 A 
ATOM     53  N   UNL A   1      39.913  30.106  29.886  1.00  0.00    -0.248 NA
ATOM     54  C   UNL A   1      37.920  30.131  28.670  1.00  0.00     0.031 C 
ATOM     55  C   UNL A   1      38.782  34.006  31.762  1.00  0.00     0.029 A 
ATOM     56  N   UNL A   1      40.341  32.407  31.650  1.00  0.00    -0.354 N 
ATOM     57  C   UNL A   1      39.813  28.938  29.140  1.00  0.00     0.074 A 
ATOM     58  C   UNL A   1      38.533  28.975  28.467  1.00  0.00     0.031 C 
ATOM     59  C   UNL A   1      39.783  34.362  32.582  1.00  0.00     0.029 A 
ATOM     60  C   UNL A   1      40.816  33.332  32.548  1.00  0.00     0.049 A 
ATOM     61  H   UNL A   1      40.828  31.584  31.416  1.00  0.00     0.167 HD
ATOM     62  C   UNL A   1      40.711  27.933  29.008  1.00  0.00     0.031 A 
ATOM     63  C   UNL A   1      41.958  33.349  33.260  1.00  0.00     0.031 A 
ATOM     64  C   UNL A   1      41.989  27.903  29.668  1.00  0.00     0.049 A 
ATOM     65  C   UNL A   1      42.937  32.218  33.108  1.00  0.00     0.074 A 
ATOM     66  C   UNL A   1      42.997  26.963  29.554  1.00  0.00     0.029 A 
ATOM     67  N   UNL A   1      42.431  28.859  30.570  1.00  0.00    -0.354 N 
ATOM     68  N   UNL A   1      42.859  31.153  32.346  1.00  0.00    -0.248 NA
ATOM     69  C   UNL A   1      44.169  32.301  33.905  1.00  0.00     0.031 C 
ATOM     70  C   UNL A   1      44.028  27.321  30.430  1.00  0.00     0.029 A 
ATOM     71  C   UNL A   1      43.688  28.518  31.041  1.00  0.00     0.049 A 
ATOM     72  H   UNL A   1      41.926  29.661  30.836  1.00  0.00     0.167 HD
ATOM     73  C   UNL A   1      44.045  30.458  32.543  1.00  0.00     0.074 A 
ATOM     74  C   UNL A   1      44.827  31.227  33.491  1.00  0.00     0.031 C 
ATOM     75  C   UNL A   1      44.453  29.293  31.984  1.00  0.00     0.031 A 
BRANCH  62  76
ATOM     76  C   UNL A   1      40.322  26.775  28.129  1.00  0.00    -0.014 A 
ATOM     77  C   UNL A   1      40.770  26.680  26.802  1.00  0.00     0.009 A 
ATOM     78  C   UNL A   1      39.495  25.762  28.639  1.00  0.00     0.009 A 
ATOM     79  C   UNL A   1      40.354  25.624  25.988  1.00  0.00     0.001 A 
ATOM     80  C   UNL A   1      39.109  24.689  27.834  1.00  0.00     0.001 A 
ATOM     81  C   UNL A   1      39.527  24.628  26.505  1.00  0.00     0.000 A 
ENDBRANCH  62  76
BRANCH  63  82
ATOM     82  C   UNL A   1      42.259  34.499  34.151  1.00  0.00    -0.014 A 
ATOM     83  C   UNL A   1      41.926  34.444  35.513  1.00  0.00     0.009 A 
ATOM     84  C   UNL A   1      42.889  35.650  33.652  1.00  0.00     0.009 A 
ATOM     85  C   UNL A   1      42.195  35.527  36.352  1.00  0.00     0.001 A 
ATOM     86  C   UNL A   1      43.182  36.721  34.500  1.00  0.00     0.001 A 
ATOM     87  C   UNL A   1      42.827  36.662  35.847  1.00  0.00     0.000 A 
ENDBRANCH  63  82
BRANCH  75  88
ATOM     88  C   UNL A   1      45.827  28.801  32.344  1.00  0.00    -0.014 A 
ATOM     89  C   UNL A   1      46.020  27.796  33.305  1.00  0.00     0.009 A 
ATOM     90  C   UNL A   1      46.946  29.330  31.679  1.00  0.00     0.009 A 
ATOM     91  C   UNL A   1      47.308  27.358  33.617  1.00  0.00     0.001 A 
ATOM     92  C   UNL A   1      48.228  28.867  31.971  1.00  0.00     0.001 A 
ATOM     93  C   UNL A   1      48.410  27.889  32.946  1.00  0.00     0.000 A 
ENDBRANCH  75  88
ENDBRANCH  49  50
ENDBRANCH  41  44
ENDBRANCH  39  40
ENDBRANCH  38  39
ENDBRANCH  37  38
ENDBRANCH  36  37
ENDBRANCH  35  36
ENDBRANCH  34  35
ENDBRANCH   3  34
TORSDOF 21
ENDMDL
