MODEL 1
REMARK VINA RESULT:     -10.2      0.000      0.000
REMARK SMILES C[C@H](CC(=O)NCCCCCCNC(=O)c1ccc(-c2c3nc(c(-c4ccccc4)c4ccc([nH]4)c(-c4ccccc4)c4nc(c(-c5ccccc5)c5ccc2[nH]5)C=C4)C=C3)cc1)NC(=O)[C@H]1CC(=O)N(C2CC2)C1
REMARK SMILES IDX 8 1 7 2 6 3 4 4 5 5 3 7 2 8 1 9 64 10 65 11 66 13 67 14
REMARK SMILES IDX 68 15 75 16 69 17 71 18 70 19 72 20 73 21 74 22 9 23 10 24
REMARK SMILES IDX 11 25 12 26 13 27 14 28 15 30 16 31 17 32 63 33 18 34 62 35
REMARK SMILES IDX 19 36 20 37 21 38 56 39 22 40 61 41 55 42 57 43 23 44 60 45
REMARK SMILES IDX 54 46 53 47 24 49 46 50 31 51 45 52 32 53 35 54 44 55 58 56
REMARK SMILES IDX 33 57 34 58 43 60 59 61 36 62 25 63 26 64 30 65 27 66 29 67
REMARK SMILES IDX 28 68 47 69 48 70 52 71 49 72 51 73 50 74 37 75 38 76 42 77
REMARK SMILES IDX 39 78 41 79 40 80
REMARK H PARENT 6 6 64 12 13 29 57 48 35 59
REMARK Flexibility Score: inf
ROOT
ATOM      1  C   UNL A   1      30.535  29.271  23.764  1.00  0.00     0.021 C 
ENDROOT
BRANCH   1   2
ATOM      2  C   UNL A   1      30.710  28.795  22.324  1.00  0.00     0.116 C 
BRANCH   2   3
ATOM      3  N   UNL A   1      32.066  28.329  22.104  1.00  0.00    -0.356 N 
ATOM      4  C   UNL A   1      32.528  27.058  21.942  1.00  0.00     0.222 C 
ATOM      5  O   UNL A   1      33.744  26.874  21.890  1.00  0.00    -0.275 OA
ATOM      6  H   UNL A   1      32.752  29.034  22.066  1.00  0.00     0.163 HD
BRANCH   4   7
ATOM      7  C   UNL A   1      31.555  25.905  21.811  1.00  0.00     0.124 C 
BRANCH   7   8
ATOM      8  C   UNL A   1      31.446  24.999  23.045  1.00  0.00     0.088 C 
ATOM      9  C   UNL A   1      30.201  25.286  23.879  1.00  0.00     0.031 C 
BRANCH   8  10
ATOM     10  N   UNL A   1      31.490  23.572  22.728  1.00  0.00    -0.353 N 
ATOM     11  C   UNL A   1      32.303  22.579  23.188  1.00  0.00     0.225 C 
ATOM     12  H   UNL A   1      30.818  23.279  22.071  1.00  0.00     0.163 HD
ATOM     13  O   UNL A   1      32.200  21.460  22.686  1.00  0.00    -0.275 OA
BRANCH  11  14
ATOM     14  C   UNL A   1      33.282  22.882  24.295  1.00  0.00     0.107 C 
ATOM     15  C   UNL A   1      32.793  22.279  25.607  1.00  0.00     0.115 C 
ATOM     16  C   UNL A   1      34.629  22.207  24.072  1.00  0.00     0.133 C 
ATOM     17  C   UNL A   1      34.052  21.870  26.319  1.00  0.00     0.223 C 
ATOM     18  N   UNL A   1      35.094  21.881  25.396  1.00  0.00    -0.339 N 
ATOM     19  O   UNL A   1      34.085  21.562  27.500  1.00  0.00    -0.275 OA
BRANCH  18  20
ATOM     20  C   UNL A   1      36.444  21.456  25.608  1.00  0.00     0.085 C 
ATOM     21  C   UNL A   1      37.533  21.527  24.573  1.00  0.00     0.027 C 
ATOM     22  C   UNL A   1      37.553  22.466  25.744  1.00  0.00     0.027 C 
ENDBRANCH  18  20
ENDBRANCH  11  14
ENDBRANCH   8  10
ENDBRANCH   7   8
ENDBRANCH   4   7
ENDBRANCH   2   3
ENDBRANCH   1   2
BRANCH   1  23
ATOM     23  C   UNL A   1      31.597  28.755  24.733  1.00  0.00     0.002 C 
BRANCH  23  24
ATOM     24  C   UNL A   1      31.511  29.346  26.141  1.00  0.00     0.002 C 
BRANCH  24  25
ATOM     25  C   UNL A   1      32.215  28.534  27.234  1.00  0.00     0.021 C 
BRANCH  25  26
ATOM     26  C   UNL A   1      33.660  28.945  27.507  1.00  0.00     0.116 C 
BRANCH  26  27
ATOM     27  N   UNL A   1      33.760  30.346  27.884  1.00  0.00    -0.352 N 
ATOM     28  C   UNL A   1      34.773  31.006  28.529  1.00  0.00     0.251 C 
ATOM     29  H   UNL A   1      32.985  30.901  27.640  1.00  0.00     0.163 HD
ATOM     30  O   UNL A   1      34.586  32.131  28.984  1.00  0.00    -0.269 OA
BRANCH  28  31
ATOM     31  C   UNL A   1      36.090  30.357  28.693  1.00  0.00     0.039 A 
ATOM     32  C   UNL A   1      36.977  30.353  27.616  1.00  0.00     0.014 A 
ATOM     33  C   UNL A   1      36.443  29.746  29.900  1.00  0.00     0.014 A 
ATOM     34  C   UNL A   1      38.247  29.793  27.769  1.00  0.00     0.010 A 
ATOM     35  C   UNL A   1      37.733  29.250  30.073  1.00  0.00     0.010 A 
ATOM     36  C   UNL A   1      38.650  29.274  29.011  1.00  0.00    -0.014 A 
BRANCH  36  37
ATOM     37  C   UNL A   1      40.039  28.791  29.220  1.00  0.00     0.031 A 
ATOM     38  C   UNL A   1      41.087  29.700  29.802  1.00  0.00     0.074 A 
ATOM     39  C   UNL A   1      40.368  27.545  28.829  1.00  0.00     0.049 A 
ATOM     40  N   UNL A   1      42.355  29.457  30.020  1.00  0.00    -0.248 NA
ATOM     41  C   UNL A   1      40.663  31.060  30.170  1.00  0.00     0.031 C 
ATOM     42  C   UNL A   1      39.453  26.580  28.213  1.00  0.00     0.029 A 
ATOM     43  N   UNL A   1      41.566  26.875  28.883  1.00  0.00    -0.354 N 
ATOM     44  C   UNL A   1      42.882  30.635  30.537  1.00  0.00     0.074 A 
ATOM     45  C   UNL A   1      41.807  31.604  30.560  1.00  0.00     0.031 C 
ATOM     46  C   UNL A   1      40.114  25.438  27.972  1.00  0.00     0.029 A 
ATOM     47  C   UNL A   1      41.508  25.602  28.370  1.00  0.00     0.049 A 
ATOM     48  H   UNL A   1      42.387  27.270  29.255  1.00  0.00     0.167 HD
ATOM     49  C   UNL A   1      44.142  30.881  30.967  1.00  0.00     0.031 A 
ATOM     50  C   UNL A   1      42.472  24.673  28.220  1.00  0.00     0.031 A 
ATOM     51  C   UNL A   1      45.210  29.917  30.944  1.00  0.00     0.049 A 
ATOM     52  C   UNL A   1      43.869  24.986  28.679  1.00  0.00     0.074 A 
ATOM     53  C   UNL A   1      46.505  30.055  31.416  1.00  0.00     0.029 A 
ATOM     54  N   UNL A   1      45.112  28.640  30.412  1.00  0.00    -0.354 N 
ATOM     55  N   UNL A   1      44.329  26.076  29.243  1.00  0.00    -0.248 NA
ATOM     56  C   UNL A   1      44.878  23.936  28.488  1.00  0.00     0.031 C 
ATOM     57  C   UNL A   1      47.209  28.888  31.106  1.00  0.00     0.029 A 
ATOM     58  C   UNL A   1      46.335  27.996  30.507  1.00  0.00     0.049 A 
ATOM     59  H   UNL A   1      44.296  28.250  30.024  1.00  0.00     0.167 HD
ATOM     60  C   UNL A   1      45.672  25.834  29.498  1.00  0.00     0.074 A 
ATOM     61  C   UNL A   1      45.947  24.485  29.047  1.00  0.00     0.031 C 
ATOM     62  C   UNL A   1      46.597  26.656  30.050  1.00  0.00     0.031 A 
BRANCH  49  63
ATOM     63  C   UNL A   1      44.447  32.260  31.488  1.00  0.00    -0.014 A 
ATOM     64  C   UNL A   1      44.227  32.597  32.833  1.00  0.00     0.009 A 
ATOM     65  C   UNL A   1      45.025  33.214  30.636  1.00  0.00     0.009 A 
ATOM     66  C   UNL A   1      44.553  33.871  33.305  1.00  0.00     0.001 A 
ATOM     67  C   UNL A   1      45.377  34.476  31.117  1.00  0.00     0.001 A 
ATOM     68  C   UNL A   1      45.134  34.806  32.449  1.00  0.00     0.000 A 
ENDBRANCH  49  63
BRANCH  50  69
ATOM     69  C   UNL A   1      42.155  23.361  27.595  1.00  0.00    -0.014 A 
ATOM     70  C   UNL A   1      42.340  23.159  26.219  1.00  0.00     0.009 A 
ATOM     71  C   UNL A   1      41.645  22.308  28.371  1.00  0.00     0.009 A 
ATOM     72  C   UNL A   1      41.986  21.943  25.628  1.00  0.00     0.001 A 
ATOM     73  C   UNL A   1      41.326  21.081  27.784  1.00  0.00     0.001 A 
ATOM     74  C   UNL A   1      41.485  20.905  26.411  1.00  0.00     0.000 A 
ENDBRANCH  50  69
BRANCH  62  75
ATOM     75  C   UNL A   1      47.986  26.108  30.226  1.00  0.00    -0.014 A 
ATOM     76  C   UNL A   1      48.888  26.042  29.152  1.00  0.00     0.009 A 
ATOM     77  C   UNL A   1      48.412  25.685  31.495  1.00  0.00     0.009 A 
ATOM     78  C   UNL A   1      50.173  25.529  29.339  1.00  0.00     0.001 A 
ATOM     79  C   UNL A   1      49.707  25.205  31.687  1.00  0.00     0.001 A 
ATOM     80  C   UNL A   1      50.584  25.117  30.606  1.00  0.00     0.000 A 
ENDBRANCH  62  75
ENDBRANCH  36  37
ENDBRANCH  28  31
ENDBRANCH  26  27
ENDBRANCH  25  26
ENDBRANCH  24  25
ENDBRANCH  23  24
ENDBRANCH   1  23
TORSDOF 17
ENDMDL
MODEL 2
REMARK VINA RESULT:     -10.1      0.379      5.910
REMARK SMILES C[C@H](CC(=O)NCCCCCCNC(=O)c1ccc(-c2c3nc(c(-c4ccccc4)c4ccc([nH]4)c(-c4ccccc4)c4nc(c(-c5ccccc5)c5ccc2[nH]5)C=C4)C=C3)cc1)NC(=O)[C@H]1CC(=O)N(C2CC2)C1
REMARK SMILES IDX 8 1 7 2 6 3 4 4 5 5 3 7 2 8 1 9 64 10 65 11 66 13 67 14
REMARK SMILES IDX 68 15 75 16 69 17 71 18 70 19 72 20 73 21 74 22 9 23 10 24
REMARK SMILES IDX 11 25 12 26 13 27 14 28 15 30 16 31 17 32 63 33 18 34 62 35
REMARK SMILES IDX 19 36 20 37 21 38 56 39 22 40 61 41 55 42 57 43 23 44 60 45
REMARK SMILES IDX 54 46 53 47 24 49 46 50 31 51 45 52 32 53 35 54 44 55 58 56
REMARK SMILES IDX 33 57 34 58 43 60 59 61 36 62 25 63 26 64 30 65 27 66 29 67
REMARK SMILES IDX 28 68 47 69 48 70 52 71 49 72 51 73 50 74 37 75 38 76 42 77
REMARK SMILES IDX 39 78 41 79 40 80
REMARK H PARENT 6 6 64 12 13 29 57 48 35 59
REMARK Flexibility Score: inf
ROOT
ATOM      1  C   UNL A   1      30.569  28.915  24.027  1.00  0.00     0.021 C 
ENDROOT
BRANCH   1   2
ATOM      2  C   UNL A   1      30.847  28.887  22.527  1.00  0.00     0.116 C 
BRANCH   2   3
ATOM      3  N   UNL A   1      32.185  28.390  22.266  1.00  0.00    -0.356 N 
ATOM      4  C   UNL A   1      32.603  27.115  22.034  1.00  0.00     0.222 C 
ATOM      5  O   UNL A   1      33.813  26.895  21.958  1.00  0.00    -0.275 OA
ATOM      6  H   UNL A   1      32.892  29.074  22.256  1.00  0.00     0.163 HD
BRANCH   4   7
ATOM      7  C   UNL A   1      31.593  26.001  21.857  1.00  0.00     0.124 C 
BRANCH   7   8
ATOM      8  C   UNL A   1      31.353  25.133  23.099  1.00  0.00     0.088 C 
ATOM      9  C   UNL A   1      30.002  25.401  23.755  1.00  0.00     0.031 C 
BRANCH   8  10
ATOM     10  N   UNL A   1      31.483  23.699  22.844  1.00  0.00    -0.353 N 
ATOM     11  C   UNL A   1      32.448  22.808  23.212  1.00  0.00     0.225 C 
ATOM     12  H   UNL A   1      30.749  23.310  22.316  1.00  0.00     0.163 HD
ATOM     13  O   UNL A   1      32.375  21.657  22.784  1.00  0.00    -0.275 OA
BRANCH  11  14
ATOM     14  C   UNL A   1      33.552  23.260  24.135  1.00  0.00     0.107 C 
ATOM     15  C   UNL A   1      33.086  23.193  25.584  1.00  0.00     0.115 C 
ATOM     16  C   UNL A   1      34.750  22.319  24.102  1.00  0.00     0.133 C 
ATOM     17  C   UNL A   1      34.318  22.807  26.353  1.00  0.00     0.223 C 
ATOM     18  N   UNL A   1      35.267  22.343  25.446  1.00  0.00    -0.339 N 
ATOM     19  O   UNL A   1      34.400  22.882  27.569  1.00  0.00    -0.275 OA
BRANCH  18  20
ATOM     20  C   UNL A   1      36.544  21.770  25.744  1.00  0.00     0.085 C 
ATOM     21  C   UNL A   1      37.651  21.588  24.744  1.00  0.00     0.027 C 
ATOM     22  C   UNL A   1      37.775  22.636  25.812  1.00  0.00     0.027 C 
ENDBRANCH  18  20
ENDBRANCH  11  14
ENDBRANCH   8  10
ENDBRANCH   7   8
ENDBRANCH   4   7
ENDBRANCH   2   3
ENDBRANCH   1   2
BRANCH   1  23
ATOM     23  C   UNL A   1      31.672  29.563  24.861  1.00  0.00     0.002 C 
BRANCH  23  24
ATOM     24  C   UNL A   1      31.462  29.470  26.373  1.00  0.00     0.002 C 
BRANCH  24  25
ATOM     25  C   UNL A   1      32.341  28.441  27.092  1.00  0.00     0.021 C 
BRANCH  25  26
ATOM     26  C   UNL A   1      33.780  28.888  27.337  1.00  0.00     0.116 C 
BRANCH  26  27
ATOM     27  N   UNL A   1      33.843  30.253  27.835  1.00  0.00    -0.352 N 
ATOM     28  C   UNL A   1      34.834  30.879  28.545  1.00  0.00     0.251 C 
ATOM     29  H   UNL A   1      33.057  30.809  27.632  1.00  0.00     0.163 HD
ATOM     30  O   UNL A   1      34.617  31.954  29.094  1.00  0.00    -0.269 OA
BRANCH  28  31
ATOM     31  C   UNL A   1      36.165  30.249  28.666  1.00  0.00     0.039 A 
ATOM     32  C   UNL A   1      37.023  30.271  27.565  1.00  0.00     0.014 A 
ATOM     33  C   UNL A   1      36.561  29.629  29.855  1.00  0.00     0.014 A 
ATOM     34  C   UNL A   1      38.305  29.730  27.676  1.00  0.00     0.010 A 
ATOM     35  C   UNL A   1      37.863  29.152  29.987  1.00  0.00     0.010 A 
ATOM     36  C   UNL A   1      38.750  29.203  28.901  1.00  0.00    -0.014 A 
BRANCH  36  37
ATOM     37  C   UNL A   1      40.152  28.740  29.066  1.00  0.00     0.031 A 
ATOM     38  C   UNL A   1      40.554  27.351  28.655  1.00  0.00     0.074 A 
ATOM     39  C   UNL A   1      41.051  29.560  29.643  1.00  0.00     0.049 A 
ATOM     40  N   UNL A   1      41.722  26.769  28.761  1.00  0.00    -0.248 NA
ATOM     41  C   UNL A   1      39.508  26.498  28.069  1.00  0.00     0.031 C 
ATOM     42  C   UNL A   1      40.776  30.918  30.122  1.00  0.00     0.029 A 
ATOM     43  N   UNL A   1      42.380  29.372  29.933  1.00  0.00    -0.354 N 
ATOM     44  C   UNL A   1      41.550  25.482  28.267  1.00  0.00     0.074 A 
ATOM     45  C   UNL A   1      40.156  25.353  27.902  1.00  0.00     0.031 C 
ATOM     46  C   UNL A   1      41.904  31.447  30.620  1.00  0.00     0.029 A 
ATOM     47  C   UNL A   1      42.970  30.454  30.541  1.00  0.00     0.049 A 
ATOM     48  H   UNL A   1      42.865  28.541  29.723  1.00  0.00     0.167 HD
ATOM     49  C   UNL A   1      42.473  24.501  28.117  1.00  0.00     0.031 A 
ATOM     50  C   UNL A   1      44.224  30.625  30.999  1.00  0.00     0.031 A 
ATOM     51  C   UNL A   1      43.859  24.630  28.480  1.00  0.00     0.049 A 
ATOM     52  C   UNL A   1      45.219  29.508  30.846  1.00  0.00     0.074 A 
ATOM     53  C   UNL A   1      44.883  23.714  28.309  1.00  0.00     0.029 A 
ATOM     54  N   UNL A   1      44.415  25.740  29.097  1.00  0.00    -0.354 N 
ATOM     55  N   UNL A   1      45.059  28.328  30.299  1.00  0.00    -0.248 NA
ATOM     56  C   UNL A   1      46.571  29.751  31.367  1.00  0.00     0.031 C 
ATOM     57  C   UNL A   1      46.042  24.240  28.885  1.00  0.00     0.029 A 
ATOM     58  C   UNL A   1      45.759  25.514  29.351  1.00  0.00     0.049 A 
ATOM     59  H   UNL A   1      43.928  26.566  29.323  1.00  0.00     0.167 HD
ATOM     60  C   UNL A   1      46.293  27.699  30.387  1.00  0.00     0.074 A 
ATOM     61  C   UNL A   1      47.199  28.637  31.018  1.00  0.00     0.031 C 
ATOM     62  C   UNL A   1      46.647  26.453  29.985  1.00  0.00     0.031 A 
BRANCH  49  63
ATOM     63  C   UNL A   1      42.012  23.187  27.548  1.00  0.00    -0.014 A 
ATOM     64  C   UNL A   1      41.407  22.212  28.358  1.00  0.00     0.009 A 
ATOM     65  C   UNL A   1      42.124  22.948  26.170  1.00  0.00     0.009 A 
ATOM     66  C   UNL A   1      40.952  21.014  27.802  1.00  0.00     0.001 A 
ATOM     67  C   UNL A   1      41.640  21.762  25.612  1.00  0.00     0.001 A 
ATOM     68  C   UNL A   1      41.061  20.794  26.430  1.00  0.00     0.000 A 
ENDBRANCH  49  63
BRANCH  50  69
ATOM     69  C   UNL A   1      44.612  31.901  31.659  1.00  0.00    -0.014 A 
ATOM     70  C   UNL A   1      44.454  32.068  33.043  1.00  0.00     0.009 A 
ATOM     71  C   UNL A   1      45.124  32.967  30.903  1.00  0.00     0.009 A 
ATOM     72  C   UNL A   1      44.766  33.289  33.649  1.00  0.00     0.001 A 
ATOM     73  C   UNL A   1      45.468  34.173  31.516  1.00  0.00     0.001 A 
ATOM     74  C   UNL A   1      45.277  34.337  32.886  1.00  0.00     0.000 A 
ENDBRANCH  50  69
BRANCH  62  75
ATOM     75  C   UNL A   1      48.079  26.046  30.189  1.00  0.00    -0.014 A 
ATOM     76  C   UNL A   1      48.984  25.995  29.117  1.00  0.00     0.009 A 
ATOM     77  C   UNL A   1      48.540  25.743  31.480  1.00  0.00     0.009 A 
ATOM     78  C   UNL A   1      50.311  25.613  29.329  1.00  0.00     0.001 A 
ATOM     79  C   UNL A   1      49.874  25.395  31.695  1.00  0.00     0.001 A 
ATOM     80  C   UNL A   1      50.756  25.319  30.617  1.00  0.00     0.000 A 
ENDBRANCH  62  75
ENDBRANCH  36  37
ENDBRANCH  28  31
ENDBRANCH  26  27
ENDBRANCH  25  26
ENDBRANCH  24  25
ENDBRANCH  23  24
ENDBRANCH   1  23
TORSDOF 17
ENDMDL
MODEL 3
REMARK VINA RESULT:     -10.1      2.213      7.819
REMARK SMILES C[C@H](CC(=O)NCCCCCCNC(=O)c1ccc(-c2c3nc(c(-c4ccccc4)c4ccc([nH]4)c(-c4ccccc4)c4nc(c(-c5ccccc5)c5ccc2[nH]5)C=C4)C=C3)cc1)NC(=O)[C@H]1CC(=O)N(C2CC2)C1
REMARK SMILES IDX 8 1 7 2 6 3 4 4 5 5 3 7 2 8 1 9 64 10 65 11 66 13 67 14
REMARK SMILES IDX 68 15 75 16 69 17 71 18 70 19 72 20 73 21 74 22 9 23 10 24
REMARK SMILES IDX 11 25 12 26 13 27 14 28 15 30 16 31 17 32 63 33 18 34 62 35
REMARK SMILES IDX 19 36 20 37 21 38 56 39 22 40 61 41 55 42 57 43 23 44 60 45
REMARK SMILES IDX 54 46 53 47 24 49 46 50 31 51 45 52 32 53 35 54 44 55 58 56
REMARK SMILES IDX 33 57 34 58 43 60 59 61 36 62 25 63 26 64 30 65 27 66 29 67
REMARK SMILES IDX 28 68 47 69 48 70 52 71 49 72 51 73 50 74 37 75 38 76 42 77
REMARK SMILES IDX 39 78 41 79 40 80
REMARK H PARENT 6 6 64 12 13 29 57 48 35 59
REMARK Flexibility Score: inf
ROOT
ATOM      1  C   UNL A   1      37.400  23.156  25.657  1.00  0.00     0.021 C 
ENDROOT
BRANCH   1   2
ATOM      2  C   UNL A   1      36.081  23.796  26.082  1.00  0.00     0.116 C 
BRANCH   2   3
ATOM      3  N   UNL A   1      35.298  22.869  26.877  1.00  0.00    -0.356 N 
ATOM      4  C   UNL A   1      34.145  22.218  26.560  1.00  0.00     0.222 C 
ATOM      5  O   UNL A   1      33.574  21.566  27.435  1.00  0.00    -0.275 OA
ATOM      6  H   UNL A   1      35.652  22.685  27.777  1.00  0.00     0.163 HD
BRANCH   4   7
ATOM      7  C   UNL A   1      33.594  22.286  25.151  1.00  0.00     0.124 C 
BRANCH   7   8
ATOM      8  C   UNL A   1      32.193  21.689  24.967  1.00  0.00     0.088 C 
ATOM      9  C   UNL A   1      32.203  20.164  24.913  1.00  0.00     0.031 C 
BRANCH   8  10
ATOM     10  N   UNL A   1      31.235  22.124  25.984  1.00  0.00    -0.353 N 
ATOM     11  C   UNL A   1      30.872  23.372  26.395  1.00  0.00     0.225 C 
ATOM     12  H   UNL A   1      30.774  21.390  26.450  1.00  0.00     0.163 HD
ATOM     13  O   UNL A   1      30.102  23.472  27.350  1.00  0.00    -0.275 OA
BRANCH  11  14
ATOM     14  C   UNL A   1      31.412  24.574  25.662  1.00  0.00     0.107 C 
ATOM     15  C   UNL A   1      30.366  25.112  24.693  1.00  0.00     0.115 C 
ATOM     16  C   UNL A   1      31.670  25.750  26.597  1.00  0.00     0.133 C 
ATOM     17  C   UNL A   1      30.580  26.600  24.703  1.00  0.00     0.223 C 
ATOM     18  N   UNL A   1      31.373  26.915  25.803  1.00  0.00    -0.339 N 
ATOM     19  O   UNL A   1      30.088  27.354  23.878  1.00  0.00    -0.275 OA
BRANCH  18  20
ATOM     20  C   UNL A   1      31.735  28.220  26.265  1.00  0.00     0.085 C 
ATOM     21  C   UNL A   1      32.844  28.502  27.240  1.00  0.00     0.027 C 
ATOM     22  C   UNL A   1      33.009  28.873  25.795  1.00  0.00     0.027 C 
ENDBRANCH  18  20
ENDBRANCH  11  14
ENDBRANCH   8  10
ENDBRANCH   7   8
ENDBRANCH   4   7
ENDBRANCH   2   3
ENDBRANCH   1   2
BRANCH   1  23
ATOM     23  C   UNL A   1      37.284  22.203  24.469  1.00  0.00     0.002 C 
BRANCH  23  24
ATOM     24  C   UNL A   1      36.901  20.769  24.840  1.00  0.00     0.002 C 
BRANCH  24  25
ATOM     25  C   UNL A   1      38.069  19.779  24.911  1.00  0.00     0.021 C 
BRANCH  25  26
ATOM     26  C   UNL A   1      39.236  20.228  25.787  1.00  0.00     0.116 C 
BRANCH  26  27
ATOM     27  N   UNL A   1      40.244  19.188  25.918  1.00  0.00    -0.352 N 
ATOM     28  C   UNL A   1      41.592  19.300  26.139  1.00  0.00     0.251 C 
ATOM     29  H   UNL A   1      39.907  18.267  25.834  1.00  0.00     0.163 HD
ATOM     30  O   UNL A   1      42.328  18.332  25.976  1.00  0.00    -0.269 OA
BRANCH  28  31
ATOM     31  C   UNL A   1      42.165  20.596  26.558  1.00  0.00     0.039 A 
ATOM     32  C   UNL A   1      42.738  21.423  25.591  1.00  0.00     0.014 A 
ATOM     33  C   UNL A   1      42.148  20.988  27.900  1.00  0.00     0.014 A 
ATOM     34  C   UNL A   1      43.236  22.675  25.959  1.00  0.00     0.010 A 
ATOM     35  C   UNL A   1      42.581  22.263  28.255  1.00  0.00     0.010 A 
ATOM     36  C   UNL A   1      43.124  23.121  27.287  1.00  0.00    -0.014 A 
BRANCH  36  37
ATOM     37  C   UNL A   1      43.534  24.498  27.664  1.00  0.00     0.031 A 
ATOM     38  C   UNL A   1      42.502  25.545  27.983  1.00  0.00     0.074 A 
ATOM     39  C   UNL A   1      44.842  24.819  27.662  1.00  0.00     0.049 A 
ATOM     40  N   UNL A   1      42.679  26.805  28.295  1.00  0.00    -0.248 NA
ATOM     41  C   UNL A   1      41.091  25.133  27.926  1.00  0.00     0.031 C 
ATOM     42  C   UNL A   1      45.938  23.904  27.331  1.00  0.00     0.029 A 
ATOM     43  N   UNL A   1      45.475  26.005  27.940  1.00  0.00    -0.354 N 
ATOM     44  C   UNL A   1      41.406  27.336  28.459  1.00  0.00     0.074 A 
ATOM     45  C   UNL A   1      40.465  26.276  28.170  1.00  0.00     0.031 C 
ATOM     46  C   UNL A   1      47.106  24.554  27.452  1.00  0.00     0.029 A 
ATOM     47  C   UNL A   1      46.843  25.940  27.820  1.00  0.00     0.049 A 
ATOM     48  H   UNL A   1      44.995  26.823  28.203  1.00  0.00     0.167 HD
ATOM     49  C   UNL A   1      41.054  28.590  28.831  1.00  0.00     0.031 A 
ATOM     50  C   UNL A   1      47.781  26.894  27.973  1.00  0.00     0.031 A 
ATOM     51  C   UNL A   1      41.990  29.644  29.118  1.00  0.00     0.049 A 
ATOM     52  C   UNL A   1      47.358  28.284  28.357  1.00  0.00     0.074 A 
ATOM     53  C   UNL A   1      41.730  30.930  29.563  1.00  0.00     0.029 A 
ATOM     54  N   UNL A   1      43.366  29.540  28.980  1.00  0.00    -0.354 N 
ATOM     55  N   UNL A   1      46.154  28.747  28.590  1.00  0.00    -0.248 NA
ATOM     56  C   UNL A   1      48.425  29.283  28.507  1.00  0.00     0.031 C 
ATOM     57  C   UNL A   1      42.941  31.624  29.626  1.00  0.00     0.029 A 
ATOM     58  C   UNL A   1      43.963  30.751  29.291  1.00  0.00     0.049 A 
ATOM     59  H   UNL A   1      43.846  28.727  28.702  1.00  0.00     0.167 HD
ATOM     60  C   UNL A   1      46.321  30.080  28.939  1.00  0.00     0.074 A 
ATOM     61  C   UNL A   1      47.745  30.346  28.910  1.00  0.00     0.031 C 
ATOM     62  C   UNL A   1      45.380  31.004  29.252  1.00  0.00     0.031 A 
BRANCH  49  63
ATOM     63  C   UNL A   1      39.586  28.903  28.935  1.00  0.00    -0.014 A 
ATOM     64  C   UNL A   1      38.859  29.375  27.830  1.00  0.00     0.009 A 
ATOM     65  C   UNL A   1      38.906  28.658  30.138  1.00  0.00     0.009 A 
ATOM     66  C   UNL A   1      37.489  29.623  27.938  1.00  0.00     0.001 A 
ATOM     67  C   UNL A   1      37.530  28.878  30.235  1.00  0.00     0.001 A 
ATOM     68  C   UNL A   1      36.824  29.367  29.137  1.00  0.00     0.000 A 
ENDBRANCH  49  63
BRANCH  50  69
ATOM     69  C   UNL A   1      49.217  26.573  27.751  1.00  0.00    -0.014 A 
ATOM     70  C   UNL A   1      49.757  26.563  26.455  1.00  0.00     0.009 A 
ATOM     71  C   UNL A   1      50.051  26.253  28.834  1.00  0.00     0.009 A 
ATOM     72  C   UNL A   1      51.091  26.204  26.247  1.00  0.00     0.001 A 
ATOM     73  C   UNL A   1      51.394  25.930  28.626  1.00  0.00     0.001 A 
ATOM     74  C   UNL A   1      51.909  25.893  27.332  1.00  0.00     0.000 A 
ENDBRANCH  50  69
BRANCH  62  75
ATOM     75  C   UNL A   1      45.863  32.381  29.617  1.00  0.00    -0.014 A 
ATOM     76  C   UNL A   1      45.994  33.390  28.649  1.00  0.00     0.009 A 
ATOM     77  C   UNL A   1      46.155  32.684  30.956  1.00  0.00     0.009 A 
ATOM     78  C   UNL A   1      46.445  34.661  29.011  1.00  0.00     0.001 A 
ATOM     79  C   UNL A   1      46.571  33.964  31.320  1.00  0.00     0.001 A 
ATOM     80  C   UNL A   1      46.727  34.949  30.346  1.00  0.00     0.000 A 
ENDBRANCH  62  75
ENDBRANCH  36  37
ENDBRANCH  28  31
ENDBRANCH  26  27
ENDBRANCH  25  26
ENDBRANCH  24  25
ENDBRANCH  23  24
ENDBRANCH   1  23
TORSDOF 17
ENDMDL
