MODEL 1
REMARK VINA RESULT:     -12.8      0.000      0.000
REMARK SMILES CCCOC(=O)c1c(NC(=O)[C@@H]2CC=CC[C@H]2C(=O)NCCCCCCNC(=O)c2ccc(-c3c4nc(c(-c5ccccc5)c5ccc([nH]5)c(-c5ccccc5)c5nc(c(-c6ccccc6)c6ccc3[nH]6)C=C5)C=C4)cc2)sc2c1CCCC2
REMARK SMILES IDX 21 1 20 2 18 3 19 4 17 6 12 7 13 8 14 9 16 10 15 11 10 12
REMARK SMILES IDX 9 13 11 15 8 16 7 17 80 18 78 19 79 20 81 21 84 22 82 23
REMARK SMILES IDX 83 24 5 25 6 26 4 27 3 28 2 29 1 30 22 31 23 32 24 33 25 34
REMARK SMILES IDX 26 35 27 36 28 37 29 39 30 40 31 41 77 42 32 43 76 44 33 45
REMARK SMILES IDX 34 46 35 47 70 48 36 49 75 50 69 51 71 52 37 53 74 54 68 55
REMARK SMILES IDX 67 56 38 58 60 59 45 60 59 61 46 62 49 63 58 64 72 65 47 66
REMARK SMILES IDX 48 67 57 69 73 70 50 71 39 72 40 73 44 74 41 75 43 76 42 77
REMARK SMILES IDX 61 78 62 79 66 80 63 81 65 82 64 83 51 84 52 85 56 86 53 87
REMARK SMILES IDX 55 88 54 89
REMARK H PARENT 20 5 9 14 27 38 71 57 49 68
REMARK Flexibility Score: inf
ROOT
ATOM      1  C   UNL A   1      33.280  30.942  27.236  1.00  0.00     0.116 C 
ENDROOT
BRANCH   1   2
ATOM      2  N   UNL A   1      32.275  29.584  27.535  1.00  0.00    -0.356 N 
ATOM      3  C   UNL A   1      31.939  28.182  27.397  1.00  0.00     0.224 C 
ATOM      4  O   UNL A   1      30.898  27.938  28.049  1.00  0.00    -0.275 OA
ATOM      5  H   UNL A   1      31.547  29.948  28.090  1.00  0.00     0.163 HD
BRANCH   3   6
ATOM      6  C   UNL A   1      32.583  26.728  26.524  1.00  0.00     0.095 C 
ATOM      7  C   UNL A   1      31.713  26.041  25.443  1.00  0.00     0.095 C 
ATOM      8  C   UNL A   1      32.042  24.528  25.215  1.00  0.00     0.041 C 
ATOM      9  C   UNL A   1      33.488  24.192  25.104  1.00  0.00    -0.030 C 
ATOM     10  C   UNL A   1      34.057  26.436  25.958  1.00  0.00     0.041 C 
ATOM     11  C   UNL A   1      34.416  25.074  25.459  1.00  0.00    -0.030 C 
BRANCH   7  12
ATOM     12  C   UNL A   1      30.241  26.090  25.673  1.00  0.00     0.229 C 
ATOM     13  N   UNL A   1      29.501  26.578  24.656  1.00  0.00    -0.317 N 
ATOM     14  H   UNL A   1      28.673  26.085  24.455  1.00  0.00     0.170 HD
ATOM     15  O   UNL A   1      29.689  25.530  26.619  1.00  0.00    -0.274 OA
BRANCH  13  16
ATOM     16  C   UNL A   1      29.747  27.670  23.867  1.00  0.00     0.110 A 
ATOM     17  C   UNL A   1      30.723  28.667  23.745  1.00  0.00     0.098 A 
ATOM     18  C   UNL A   1      29.813  29.934  23.690  1.00  0.00    -0.017 A 
ATOM     19  S   UNL A   1      28.321  27.984  22.990  1.00  0.00    -0.122 S 
ATOM     20  C   UNL A   1      28.589  29.635  23.096  1.00  0.00     0.011 A 
ATOM     21  C   UNL A   1      29.888  31.353  24.247  1.00  0.00     0.038 C 
ATOM     22  C   UNL A   1      27.516  30.611  22.710  1.00  0.00     0.047 C 
ATOM     23  C   UNL A   1      28.907  32.412  23.695  1.00  0.00     0.005 C 
ATOM     24  C   UNL A   1      28.141  31.975  22.458  1.00  0.00     0.006 C 
BRANCH  17  25
ATOM     25  C   UNL A   1      32.310  28.305  23.466  1.00  0.00     0.341 C 
ATOM     26  O   UNL A   1      33.094  29.185  23.839  1.00  0.00    -0.246 OA
BRANCH  25  27
ATOM     27  O   UNL A   1      32.996  27.145  22.860  1.00  0.00    -0.462 OA
BRANCH  27  28
ATOM     28  C   UNL A   1      33.544  25.902  21.799  1.00  0.00     0.233 C 
BRANCH  28  29
ATOM     29  C   UNL A   1      32.871  24.477  21.405  1.00  0.00     0.038 C 
ATOM     30  C   UNL A   1      33.278  23.073  21.925  1.00  0.00     0.007 C 
ENDBRANCH  28  29
ENDBRANCH  27  28
ENDBRANCH  25  27
ENDBRANCH  17  25
ENDBRANCH  13  16
ENDBRANCH   7  12
ENDBRANCH   3   6
ENDBRANCH   1   2
BRANCH   1  31
ATOM     31  C   UNL A   1      34.601  31.425  28.071  1.00  0.00     0.021 C 
BRANCH  31  32
ATOM     32  C   UNL A   1      34.521  32.597  29.081  1.00  0.00     0.002 C 
BRANCH  32  33
ATOM     33  C   UNL A   1      34.452  34.007  28.480  1.00  0.00     0.002 C 
BRANCH  33  34
ATOM     34  C   UNL A   1      33.242  34.885  28.825  1.00  0.00     0.021 C 
BRANCH  34  35
ATOM     35  C   UNL A   1      33.505  36.112  29.698  1.00  0.00     0.116 C 
BRANCH  35  36
ATOM     36  N   UNL A   1      32.518  36.282  30.757  1.00  0.00    -0.352 N 
ATOM     37  C   UNL A   1      32.483  35.742  32.029  1.00  0.00     0.251 C 
ATOM     38  H   UNL A   1      31.762  36.871  30.533  1.00  0.00     0.163 HD
ATOM     39  O   UNL A   1      31.506  35.847  32.734  1.00  0.00    -0.269 OA
BRANCH  37  40
ATOM     40  C   UNL A   1      33.679  35.019  32.507  1.00  0.00     0.039 A 
ATOM     41  C   UNL A   1      33.565  33.683  32.898  1.00  0.00     0.014 A 
ATOM     42  C   UNL A   1      34.916  35.665  32.507  1.00  0.00     0.014 A 
ATOM     43  C   UNL A   1      34.720  32.965  33.213  1.00  0.00     0.010 A 
ATOM     44  C   UNL A   1      36.068  34.929  32.747  1.00  0.00     0.010 A 
ATOM     45  C   UNL A   1      35.982  33.574  33.103  1.00  0.00    -0.014 A 
BRANCH  45  46
ATOM     46  C   UNL A   1      37.230  32.818  33.373  1.00  0.00     0.031 A 
ATOM     47  C   UNL A   1      37.983  33.063  34.650  1.00  0.00     0.074 A 
ATOM     48  C   UNL A   1      37.717  31.972  32.444  1.00  0.00     0.049 A 
ATOM     49  N   UNL A   1      39.122  32.558  35.049  1.00  0.00    -0.248 NA
ATOM     50  C   UNL A   1      37.395  34.033  35.590  1.00  0.00     0.031 C 
ATOM     51  C   UNL A   1      37.106  31.693  31.142  1.00  0.00     0.029 A 
ATOM     52  N   UNL A   1      38.846  31.193  32.452  1.00  0.00    -0.354 N 
ATOM     53  C   UNL A   1      39.393  33.163  36.269  1.00  0.00     0.074 A 
ATOM     54  C   UNL A   1      38.336  34.117  36.517  1.00  0.00     0.031 C 
ATOM     55  C   UNL A   1      37.849  30.782  30.492  1.00  0.00     0.029 A 
ATOM     56  C   UNL A   1      39.005  30.440  31.312  1.00  0.00     0.049 A 
ATOM     57  H   UNL A   1      39.483  31.176  33.201  1.00  0.00     0.167 HD
ATOM     58  C   UNL A   1      40.416  32.927  37.123  1.00  0.00     0.031 A 
ATOM     59  C   UNL A   1      39.974  29.569  30.974  1.00  0.00     0.031 A 
ATOM     60  C   UNL A   1      41.453  31.961  36.883  1.00  0.00     0.049 A 
ATOM     61  C   UNL A   1      41.095  29.315  31.946  1.00  0.00     0.074 A 
ATOM     62  C   UNL A   1      42.502  31.598  37.708  1.00  0.00     0.029 A 
ATOM     63  N   UNL A   1      41.562  31.199  35.730  1.00  0.00    -0.354 N 
ATOM     64  N   UNL A   1      41.296  29.839  33.130  1.00  0.00    -0.248 NA
ATOM     65  C   UNL A   1      42.114  28.337  31.538  1.00  0.00     0.031 C 
ATOM     66  C   UNL A   1      43.272  30.644  37.034  1.00  0.00     0.029 A 
ATOM     67  C   UNL A   1      42.670  30.377  35.814  1.00  0.00     0.049 A 
ATOM     68  H   UNL A   1      40.943  31.237  34.966  1.00  0.00     0.167 HD
ATOM     69  C   UNL A   1      42.445  29.234  33.622  1.00  0.00     0.074 A 
ATOM     70  C   UNL A   1      42.885  28.291  32.615  1.00  0.00     0.031 C 
ATOM     71  C   UNL A   1      43.082  29.442  34.801  1.00  0.00     0.031 A 
BRANCH  58  72
ATOM     72  C   UNL A   1      40.451  33.724  38.397  1.00  0.00    -0.014 A 
ATOM     73  C   UNL A   1      39.773  33.286  39.547  1.00  0.00     0.009 A 
ATOM     74  C   UNL A   1      41.186  34.918  38.457  1.00  0.00     0.009 A 
ATOM     75  C   UNL A   1      39.797  34.046  40.717  1.00  0.00     0.001 A 
ATOM     76  C   UNL A   1      41.235  35.661  39.639  1.00  0.00     0.001 A 
ATOM     77  C   UNL A   1      40.532  35.231  40.763  1.00  0.00     0.000 A 
ENDBRANCH  58  72
BRANCH  59  78
ATOM     78  C   UNL A   1      39.922  28.849  29.673  1.00  0.00    -0.014 A 
ATOM     79  C   UNL A   1      39.375  27.559  29.595  1.00  0.00     0.009 A 
ATOM     80  C   UNL A   1      40.435  29.437  28.507  1.00  0.00     0.009 A 
ATOM     81  C   UNL A   1      39.375  26.859  28.385  1.00  0.00     0.001 A 
ATOM     82  C   UNL A   1      40.407  28.747  27.291  1.00  0.00     0.001 A 
ATOM     83  C   UNL A   1      39.888  27.455  27.235  1.00  0.00     0.000 A 
ENDBRANCH  59  78
BRANCH  71  84
ATOM     84  C   UNL A   1      44.297  28.604  35.079  1.00  0.00    -0.014 A 
ATOM     85  C   UNL A   1      45.584  29.054  34.745  1.00  0.00     0.009 A 
ATOM     86  C   UNL A   1      44.153  27.368  35.727  1.00  0.00     0.009 A 
ATOM     87  C   UNL A   1      46.700  28.266  35.028  1.00  0.00     0.001 A 
ATOM     88  C   UNL A   1      45.273  26.596  36.035  1.00  0.00     0.001 A 
ATOM     89  C   UNL A   1      46.544  27.041  35.678  1.00  0.00     0.000 A 
ENDBRANCH  71  84
ENDBRANCH  45  46
ENDBRANCH  37  40
ENDBRANCH  35  36
ENDBRANCH  34  35
ENDBRANCH  33  34
ENDBRANCH  32  33
ENDBRANCH  31  32
ENDBRANCH   1  31
TORSDOF 19
ENDMDL
MODEL 2
REMARK VINA RESULT:     -12.0      2.642      4.695
REMARK SMILES CCCOC(=O)c1c(NC(=O)[C@@H]2CC=CC[C@H]2C(=O)NCCCCCCNC(=O)c2ccc(-c3c4nc(c(-c5ccccc5)c5ccc([nH]5)c(-c5ccccc5)c5nc(c(-c6ccccc6)c6ccc3[nH]6)C=C5)C=C4)cc2)sc2c1CCCC2
REMARK SMILES IDX 21 1 20 2 18 3 19 4 17 6 12 7 13 8 14 9 16 10 15 11 10 12
REMARK SMILES IDX 9 13 11 15 8 16 7 17 80 18 78 19 79 20 81 21 84 22 82 23
REMARK SMILES IDX 83 24 5 25 6 26 4 27 3 28 2 29 1 30 22 31 23 32 24 33 25 34
REMARK SMILES IDX 26 35 27 36 28 37 29 39 30 40 31 41 77 42 32 43 76 44 33 45
REMARK SMILES IDX 34 46 35 47 70 48 36 49 75 50 69 51 71 52 37 53 74 54 68 55
REMARK SMILES IDX 67 56 38 58 60 59 45 60 59 61 46 62 49 63 58 64 72 65 47 66
REMARK SMILES IDX 48 67 57 69 73 70 50 71 39 72 40 73 44 74 41 75 43 76 42 77
REMARK SMILES IDX 61 78 62 79 66 80 63 81 65 82 64 83 51 84 52 85 56 86 53 87
REMARK SMILES IDX 55 88 54 89
REMARK H PARENT 20 5 9 14 27 38 71 57 49 68
REMARK Flexibility Score: inf
ROOT
ATOM      1  C   UNL A   1      34.685  28.952  26.889  1.00  0.00     0.116 C 
ENDROOT
BRANCH   1   2
ATOM      2  N   UNL A   1      34.301  28.821  25.222  1.00  0.00    -0.356 N 
ATOM      3  C   UNL A   1      33.469  28.357  24.130  1.00  0.00     0.224 C 
ATOM      4  O   UNL A   1      33.929  28.785  23.047  1.00  0.00    -0.275 OA
ATOM      5  H   UNL A   1      35.020  29.322  24.774  1.00  0.00     0.163 HD
BRANCH   3   6
ATOM      6  C   UNL A   1      31.999  27.317  23.912  1.00  0.00     0.095 C 
ATOM      7  C   UNL A   1      32.164  25.857  23.423  1.00  0.00     0.095 C 
ATOM      8  C   UNL A   1      30.908  25.275  22.692  1.00  0.00     0.041 C 
ATOM      9  C   UNL A   1      29.600  25.525  23.358  1.00  0.00    -0.030 C 
ATOM     10  C   UNL A   1      30.687  27.183  24.827  1.00  0.00     0.041 C 
ATOM     11  C   UNL A   1      29.501  26.417  24.338  1.00  0.00    -0.030 C 
BRANCH   7  12
ATOM     12  C   UNL A   1      33.304  25.613  22.495  1.00  0.00     0.229 C 
ATOM     13  N   UNL A   1      33.634  24.320  22.293  1.00  0.00    -0.317 N 
ATOM     14  H   UNL A   1      33.829  24.070  21.361  1.00  0.00     0.170 HD
ATOM     15  O   UNL A   1      33.787  26.488  21.778  1.00  0.00    -0.274 OA
BRANCH  13  16
ATOM     16  C   UNL A   1      33.737  23.311  23.212  1.00  0.00     0.110 A 
ATOM     17  C   UNL A   1      32.939  22.273  23.711  1.00  0.00     0.098 A 
ATOM     18  C   UNL A   1      33.129  22.497  25.245  1.00  0.00    -0.017 A 
ATOM     19  S   UNL A   1      35.139  23.612  24.132  1.00  0.00    -0.122 S 
ATOM     20  C   UNL A   1      34.391  23.025  25.512  1.00  0.00     0.011 A 
ATOM     21  C   UNL A   1      32.233  22.410  26.477  1.00  0.00     0.038 C 
ATOM     22  C   UNL A   1      35.014  23.223  26.863  1.00  0.00     0.047 C 
ATOM     23  C   UNL A   1      32.899  22.410  27.871  1.00  0.00     0.005 C 
ATOM     24  C   UNL A   1      34.408  22.233  27.848  1.00  0.00     0.006 C 
BRANCH  17  25
ATOM     25  C   UNL A   1      32.315  21.102  22.729  1.00  0.00     0.341 C 
ATOM     26  O   UNL A   1      31.576  21.539  21.840  1.00  0.00    -0.246 OA
BRANCH  25  27
ATOM     27  O   UNL A   1      32.455  19.631  22.686  1.00  0.00    -0.462 OA
BRANCH  27  28
ATOM     28  C   UNL A   1      32.565  17.957  23.082  1.00  0.00     0.233 C 
BRANCH  28  29
ATOM     29  C   UNL A   1      33.861  16.986  23.213  1.00  0.00     0.038 C 
ATOM     30  C   UNL A   1      34.392  16.302  24.500  1.00  0.00     0.007 C 
ENDBRANCH  28  29
ENDBRANCH  27  28
ENDBRANCH  25  27
ENDBRANCH  17  25
ENDBRANCH  13  16
ENDBRANCH   7  12
ENDBRANCH   3   6
ENDBRANCH   1   2
BRANCH   1  31
ATOM     31  C   UNL A   1      35.443  30.181  27.657  1.00  0.00     0.021 C 
BRANCH  31  32
ATOM     32  C   UNL A   1      34.636  31.257  28.427  1.00  0.00     0.002 C 
BRANCH  32  33
ATOM     33  C   UNL A   1      34.719  32.688  27.880  1.00  0.00     0.002 C 
BRANCH  33  34
ATOM     34  C   UNL A   1      33.616  33.680  28.271  1.00  0.00     0.021 C 
BRANCH  34  35
ATOM     35  C   UNL A   1      34.063  34.992  28.917  1.00  0.00     0.116 C 
BRANCH  35  36
ATOM     36  N   UNL A   1      33.535  35.175  30.263  1.00  0.00    -0.352 N 
ATOM     37  C   UNL A   1      33.885  34.549  31.444  1.00  0.00     0.251 C 
ATOM     38  H   UNL A   1      32.821  35.848  30.343  1.00  0.00     0.163 HD
ATOM     39  O   UNL A   1      33.236  34.693  32.454  1.00  0.00    -0.269 OA
BRANCH  37  40
ATOM     40  C   UNL A   1      35.081  33.682  31.439  1.00  0.00     0.039 A 
ATOM     41  C   UNL A   1      36.265  34.144  30.860  1.00  0.00     0.014 A 
ATOM     42  C   UNL A   1      35.027  32.437  32.067  1.00  0.00     0.014 A 
ATOM     43  C   UNL A   1      37.427  33.380  30.984  1.00  0.00     0.010 A 
ATOM     44  C   UNL A   1      36.199  31.716  32.254  1.00  0.00     0.010 A 
ATOM     45  C   UNL A   1      37.408  32.180  31.715  1.00  0.00    -0.014 A 
BRANCH  45  46
ATOM     46  C   UNL A   1      38.641  31.379  31.914  1.00  0.00     0.031 A 
ATOM     47  C   UNL A   1      39.559  31.702  33.060  1.00  0.00     0.074 A 
ATOM     48  C   UNL A   1      38.967  30.417  31.029  1.00  0.00     0.049 A 
ATOM     49  N   UNL A   1      40.711  31.169  33.372  1.00  0.00    -0.248 NA
ATOM     50  C   UNL A   1      39.141  32.795  33.955  1.00  0.00     0.031 C 
ATOM     51  C   UNL A   1      38.186  30.049  29.844  1.00  0.00     0.029 A 
ATOM     52  N   UNL A   1      40.048  29.574  30.984  1.00  0.00    -0.354 N 
ATOM     53  C   UNL A   1      41.162  31.874  34.481  1.00  0.00     0.074 A 
ATOM     54  C   UNL A   1      40.192  32.911  34.750  1.00  0.00     0.031 C 
ATOM     55  C   UNL A   1      38.796  29.034  29.211  1.00  0.00     0.029 A 
ATOM     56  C   UNL A   1      40.027  28.703  29.920  1.00  0.00     0.049 A 
ATOM     57  H   UNL A   1      40.772  29.591  31.651  1.00  0.00     0.167 HD
ATOM     58  C   UNL A   1      42.270  31.660  35.228  1.00  0.00     0.031 A 
ATOM     59  C   UNL A   1      40.903  27.745  29.564  1.00  0.00     0.031 A 
ATOM     60  C   UNL A   1      43.220  30.612  34.970  1.00  0.00     0.049 A 
ATOM     61  C   UNL A   1      42.121  27.519  30.417  1.00  0.00     0.074 A 
ATOM     62  C   UNL A   1      44.344  30.269  35.699  1.00  0.00     0.029 A 
ATOM     63  N   UNL A   1      43.147  29.735  33.900  1.00  0.00    -0.354 N 
ATOM     64  N   UNL A   1      42.493  28.145  31.507  1.00  0.00    -0.248 NA
ATOM     65  C   UNL A   1      43.032  26.444  29.998  1.00  0.00     0.031 C 
ATOM     66  C   UNL A   1      44.977  29.207  35.043  1.00  0.00     0.029 A 
ATOM     67  C   UNL A   1      44.215  28.858  33.938  1.00  0.00     0.049 A 
ATOM     68  H   UNL A   1      42.441  29.736  33.214  1.00  0.00     0.167 HD
ATOM     69  C   UNL A   1      43.663  27.521  31.921  1.00  0.00     0.074 A 
ATOM     70  C   UNL A   1      43.928  26.457  30.975  1.00  0.00     0.031 C 
ATOM     71  C   UNL A   1      44.451  27.804  32.988  1.00  0.00     0.031 A 
BRANCH  58  72
ATOM     72  C   UNL A   1      42.502  32.576  36.397  1.00  0.00    -0.014 A 
ATOM     73  C   UNL A   1      43.230  33.769  36.252  1.00  0.00     0.009 A 
ATOM     74  C   UNL A   1      41.969  32.256  37.655  1.00  0.00     0.009 A 
ATOM     75  C   UNL A   1      43.455  34.600  37.350  1.00  0.00     0.001 A 
ATOM     76  C   UNL A   1      42.169  33.106  38.745  1.00  0.00     0.001 A 
ATOM     77  C   UNL A   1      42.920  34.270  38.595  1.00  0.00     0.000 A 
ENDBRANCH  58  72
BRANCH  59  78
ATOM     78  C   UNL A   1      40.654  26.905  28.362  1.00  0.00    -0.014 A 
ATOM     79  C   UNL A   1      39.861  25.750  28.452  1.00  0.00     0.009 A 
ATOM     80  C   UNL A   1      41.222  27.239  27.122  1.00  0.00     0.009 A 
ATOM     81  C   UNL A   1      39.671  24.929  27.336  1.00  0.00     0.001 A 
ATOM     82  C   UNL A   1      41.006  26.433  26.001  1.00  0.00     0.001 A 
ATOM     83  C   UNL A   1      40.241  25.273  26.112  1.00  0.00     0.000 A 
ENDBRANCH  59  78
BRANCH  71  84
ATOM     84  C   UNL A   1      45.649  26.924  33.207  1.00  0.00    -0.014 A 
ATOM     85  C   UNL A   1      45.548  25.723  33.925  1.00  0.00     0.009 A 
ATOM     86  C   UNL A   1      46.883  27.282  32.644  1.00  0.00     0.009 A 
ATOM     87  C   UNL A   1      46.671  24.913  34.102  1.00  0.00     0.001 A 
ATOM     88  C   UNL A   1      47.997  26.456  32.798  1.00  0.00     0.001 A 
ATOM     89  C   UNL A   1      47.891  25.277  33.534  1.00  0.00     0.000 A 
ENDBRANCH  71  84
ENDBRANCH  45  46
ENDBRANCH  37  40
ENDBRANCH  35  36
ENDBRANCH  34  35
ENDBRANCH  33  34
ENDBRANCH  32  33
ENDBRANCH  31  32
ENDBRANCH   1  31
TORSDOF 19
ENDMDL
MODEL 3
REMARK VINA RESULT:     -11.9      8.422     13.844
REMARK SMILES CCCOC(=O)c1c(NC(=O)[C@@H]2CC=CC[C@H]2C(=O)NCCCCCCNC(=O)c2ccc(-c3c4nc(c(-c5ccccc5)c5ccc([nH]5)c(-c5ccccc5)c5nc(c(-c6ccccc6)c6ccc3[nH]6)C=C5)C=C4)cc2)sc2c1CCCC2
REMARK SMILES IDX 21 1 20 2 18 3 19 4 17 6 12 7 13 8 14 9 16 10 15 11 10 12
REMARK SMILES IDX 9 13 11 15 8 16 7 17 80 18 78 19 79 20 81 21 84 22 82 23
REMARK SMILES IDX 83 24 5 25 6 26 4 27 3 28 2 29 1 30 22 31 23 32 24 33 25 34
REMARK SMILES IDX 26 35 27 36 28 37 29 39 30 40 31 41 77 42 32 43 76 44 33 45
REMARK SMILES IDX 34 46 35 47 70 48 36 49 75 50 69 51 71 52 37 53 74 54 68 55
REMARK SMILES IDX 67 56 38 58 60 59 45 60 59 61 46 62 49 63 58 64 72 65 47 66
REMARK SMILES IDX 48 67 57 69 73 70 50 71 39 72 40 73 44 74 41 75 43 76 42 77
REMARK SMILES IDX 61 78 62 79 66 80 63 81 65 82 64 83 51 84 52 85 56 86 53 87
REMARK SMILES IDX 55 88 54 89
REMARK H PARENT 20 5 9 14 27 38 71 57 49 68
REMARK Flexibility Score: inf
ROOT
ATOM      1  C   UNL A   1      45.999  26.752  24.736  1.00  0.00     0.116 C 
ENDROOT
BRANCH   1   2
ATOM      2  N   UNL A   1      45.124  27.972  25.566  1.00  0.00    -0.356 N 
ATOM      3  C   UNL A   1      44.066  28.414  26.452  1.00  0.00     0.224 C 
ATOM      4  O   UNL A   1      44.134  29.657  26.592  1.00  0.00    -0.275 OA
ATOM      5  H   UNL A   1      45.576  28.806  25.303  1.00  0.00     0.163 HD
BRANCH   3   6
ATOM      6  C   UNL A   1      42.679  27.676  27.360  1.00  0.00     0.095 C 
ATOM      7  C   UNL A   1      42.193  26.255  26.983  1.00  0.00     0.095 C 
ATOM      8  C   UNL A   1      40.696  25.970  27.341  1.00  0.00     0.041 C 
ATOM      9  C   UNL A   1      40.266  26.395  28.702  1.00  0.00    -0.030 C 
ATOM     10  C   UNL A   1      42.344  27.705  28.929  1.00  0.00     0.041 C 
ATOM     11  C   UNL A   1      41.027  27.206  29.429  1.00  0.00    -0.030 C 
BRANCH   7  12
ATOM     12  C   UNL A   1      42.326  25.888  25.545  1.00  0.00     0.229 C 
ATOM     13  N   UNL A   1      42.202  24.575  25.257  1.00  0.00    -0.317 N 
ATOM     14  H   UNL A   1      41.661  24.362  24.463  1.00  0.00     0.170 HD
ATOM     15  O   UNL A   1      42.328  26.718  24.636  1.00  0.00    -0.274 OA
BRANCH  13  16
ATOM     16  C   UNL A   1      42.731  23.502  25.921  1.00  0.00     0.110 A 
ATOM     17  C   UNL A   1      43.989  22.920  26.125  1.00  0.00     0.098 A 
ATOM     18  C   UNL A   1      43.658  21.431  25.791  1.00  0.00    -0.017 A 
ATOM     19  S   UNL A   1      41.426  22.513  26.393  1.00  0.00    -0.122 S 
ATOM     20  C   UNL A   1      42.338  21.134  26.122  1.00  0.00     0.011 A 
ATOM     21  C   UNL A   1      44.377  20.292  25.074  1.00  0.00     0.038 C 
ATOM     22  C   UNL A   1      41.692  19.779  26.110  1.00  0.00     0.047 C 
ATOM     23  C   UNL A   1      43.820  18.859  25.231  1.00  0.00     0.005 C 
ATOM     24  C   UNL A   1      42.757  18.711  26.306  1.00  0.00     0.006 C 
BRANCH  17  25
ATOM     25  C   UNL A   1      45.236  23.757  26.811  1.00  0.00     0.341 C 
ATOM     26  O   UNL A   1      46.352  23.297  26.541  1.00  0.00    -0.246 OA
BRANCH  25  27
ATOM     27  O   UNL A   1      45.303  24.947  27.684  1.00  0.00    -0.462 OA
BRANCH  27  28
ATOM     28  C   UNL A   1      45.722  26.107  28.888  1.00  0.00     0.233 C 
BRANCH  28  29
ATOM     29  C   UNL A   1      46.234  25.905  30.416  1.00  0.00     0.038 C 
ATOM     30  C   UNL A   1      47.182  26.836  31.218  1.00  0.00     0.007 C 
ENDBRANCH  28  29
ENDBRANCH  27  28
ENDBRANCH  25  27
ENDBRANCH  17  25
ENDBRANCH  13  16
ENDBRANCH   7  12
ENDBRANCH   3   6
ENDBRANCH   1   2
BRANCH   1  31
ATOM     31  C   UNL A   1      47.542  26.270  24.984  1.00  0.00     0.021 C 
BRANCH  31  32
ATOM     32  C   UNL A   1      48.623  26.463  23.890  1.00  0.00     0.002 C 
BRANCH  32  33
ATOM     33  C   UNL A   1      49.927  27.137  24.337  1.00  0.00     0.002 C 
BRANCH  33  34
ATOM     34  C   UNL A   1      50.976  26.281  25.059  1.00  0.00     0.021 C 
BRANCH  34  35
ATOM     35  C   UNL A   1      51.648  26.901  26.285  1.00  0.00     0.116 C 
BRANCH  35  36
ATOM     36  N   UNL A   1      51.552  26.061  27.473  1.00  0.00    -0.352 N 
ATOM     37  C   UNL A   1      50.870  26.276  28.656  1.00  0.00     0.251 C 
ATOM     38  H   UNL A   1      52.047  25.212  27.425  1.00  0.00     0.163 HD
ATOM     39  O   UNL A   1      51.025  25.557  29.616  1.00  0.00    -0.269 OA
BRANCH  37  40
ATOM     40  C   UNL A   1      49.944  27.425  28.722  1.00  0.00     0.039 A 
ATOM     41  C   UNL A   1      50.184  28.452  29.637  1.00  0.00     0.014 A 
ATOM     42  C   UNL A   1      48.874  27.494  27.828  1.00  0.00     0.014 A 
ATOM     43  C   UNL A   1      49.388  29.598  29.598  1.00  0.00     0.010 A 
ATOM     44  C   UNL A   1      48.134  28.666  27.741  1.00  0.00     0.010 A 
ATOM     45  C   UNL A   1      48.383  29.728  28.625  1.00  0.00    -0.014 A 
BRANCH  45  46
ATOM     46  C   UNL A   1      47.563  30.960  28.522  1.00  0.00     0.031 A 
ATOM     47  C   UNL A   1      48.147  32.188  27.882  1.00  0.00     0.074 A 
ATOM     48  C   UNL A   1      46.330  30.993  29.064  1.00  0.00     0.049 A 
ATOM     49  N   UNL A   1      47.624  33.380  27.749  1.00  0.00    -0.248 NA
ATOM     50  C   UNL A   1      49.516  32.071  27.350  1.00  0.00     0.031 C 
ATOM     51  C   UNL A   1      45.677  29.882  29.762  1.00  0.00     0.029 A 
ATOM     52  N   UNL A   1      45.406  32.006  29.119  1.00  0.00    -0.354 N 
ATOM     53  C   UNL A   1      48.605  34.153  27.142  1.00  0.00     0.074 A 
ATOM     54  C   UNL A   1      49.774  33.317  26.988  1.00  0.00     0.031 C 
ATOM     55  C   UNL A   1      44.447  30.264  30.144  1.00  0.00     0.029 A 
ATOM     56  C   UNL A   1      44.238  31.654  29.753  1.00  0.00     0.049 A 
ATOM     57  H   UNL A   1      45.565  32.900  28.741  1.00  0.00     0.167 HD
ATOM     58  C   UNL A   1      48.531  35.438  26.723  1.00  0.00     0.031 A 
ATOM     59  C   UNL A   1      43.124  32.373  29.985  1.00  0.00     0.031 A 
ATOM     60  C   UNL A   1      47.360  36.259  26.857  1.00  0.00     0.049 A 
ATOM     61  C   UNL A   1      43.063  33.796  29.498  1.00  0.00     0.074 A 
ATOM     62  C   UNL A   1      47.157  37.552  26.413  1.00  0.00     0.029 A 
ATOM     63  N   UNL A   1      46.188  35.856  27.479  1.00  0.00    -0.354 N 
ATOM     64  N   UNL A   1      43.972  34.489  28.857  1.00  0.00    -0.248 NA
ATOM     65  C   UNL A   1      41.815  34.529  29.756  1.00  0.00     0.031 C 
ATOM     66  C   UNL A   1      45.873  37.949  26.804  1.00  0.00     0.029 A 
ATOM     67  C   UNL A   1      45.262  36.881  27.445  1.00  0.00     0.049 A 
ATOM     68  H   UNL A   1      46.038  34.972  27.885  1.00  0.00     0.167 HD
ATOM     69  C   UNL A   1      43.397  35.728  28.608  1.00  0.00     0.074 A 
ATOM     70  C   UNL A   1      42.055  35.684  29.151  1.00  0.00     0.031 C 
ATOM     71  C   UNL A   1      43.931  36.809  27.986  1.00  0.00     0.031 A 
BRANCH  58  72
ATOM     72  C   UNL A   1      49.754  36.023  26.073  1.00  0.00    -0.014 A 
ATOM     73  C   UNL A   1      50.687  36.766  26.816  1.00  0.00     0.009 A 
ATOM     74  C   UNL A   1      49.990  35.813  24.705  1.00  0.00     0.009 A 
ATOM     75  C   UNL A   1      51.808  37.320  26.196  1.00  0.00     0.001 A 
ATOM     76  C   UNL A   1      51.129  36.342  24.094  1.00  0.00     0.001 A 
ATOM     77  C   UNL A   1      52.030  37.103  24.836  1.00  0.00     0.000 A 
ENDBRANCH  58  72
BRANCH  59  78
ATOM     78  C   UNL A   1      41.963  31.762  30.686  1.00  0.00    -0.014 A 
ATOM     79  C   UNL A   1      40.965  31.093  29.961  1.00  0.00     0.009 A 
ATOM     80  C   UNL A   1      41.834  31.860  32.081  1.00  0.00     0.009 A 
ATOM     81  C   UNL A   1      39.846  30.565  30.612  1.00  0.00     0.001 A 
ATOM     82  C   UNL A   1      40.729  31.306  32.733  1.00  0.00     0.001 A 
ATOM     83  C   UNL A   1      39.731  30.670  31.996  1.00  0.00     0.000 A 
ENDBRANCH  59  78
BRANCH  71  84
ATOM     84  C   UNL A   1      43.048  38.013  27.827  1.00  0.00    -0.014 A 
ATOM     85  C   UNL A   1      43.010  39.023  28.802  1.00  0.00     0.009 A 
ATOM     86  C   UNL A   1      42.279  38.159  26.662  1.00  0.00     0.009 A 
ATOM     87  C   UNL A   1      42.194  40.140  28.625  1.00  0.00     0.001 A 
ATOM     88  C   UNL A   1      41.487  39.292  26.475  1.00  0.00     0.001 A 
ATOM     89  C   UNL A   1      41.439  40.277  27.460  1.00  0.00     0.000 A 
ENDBRANCH  71  84
ENDBRANCH  45  46
ENDBRANCH  37  40
ENDBRANCH  35  36
ENDBRANCH  34  35
ENDBRANCH  33  34
ENDBRANCH  32  33
ENDBRANCH  31  32
ENDBRANCH   1  31
TORSDOF 19
ENDMDL
