MODEL 1
REMARK VINA RESULT:     -10.8      0.000      0.000
REMARK SMILES COc1ccc(C(=O)NCCCCCCNC(=O)c2ccc(-c3c4nc(c(-c5ccccc5)c5ccc([nH]5)c(-c5ccccc5)c5nc(c(-c6ccccc6)c6ccc3[nH]6)C=C5)C=C4)cc2)cc1NC(=O)c1cc([N+](=O)[O-])ccc1Cl
REMARK SMILES IDX 12 1 11 2 10 3 9 4 7 5 8 6 6 8 3 9 4 10 68 11 5 12 67 13
REMARK SMILES IDX 2 14 1 15 69 16 70 17 71 19 72 20 73 21 80 22 74 23 79 24
REMARK SMILES IDX 81 25 78 26 75 27 76 28 77 29 13 30 14 31 15 32 16 33 17 34
REMARK SMILES IDX 18 36 19 37 20 38 66 39 21 40 65 41 22 42 23 43 24 44 59 45
REMARK SMILES IDX 25 46 64 47 58 48 60 49 26 50 63 51 57 52 56 53 27 55 49 56
REMARK SMILES IDX 34 57 48 58 35 59 38 60 47 61 61 62 36 63 37 64 46 66 62 67
REMARK SMILES IDX 39 68 28 69 29 70 33 71 30 72 32 73 31 74 50 75 51 76 55 77
REMARK SMILES IDX 52 78 54 79 53 80 40 81 41 82 45 83 42 84 44 85 43 86
REMARK H PARENT 9 7 69 18 16 35 60 54 38 65
REMARK Flexibility Score: inf
ROOT
ATOM      1  C   UNL A   1      35.889  21.306  24.669  1.00  0.00     0.002 C 
ENDROOT
BRANCH   1   2
ATOM      2  C   UNL A   1      35.152  21.664  25.978  1.00  0.00     0.021 C 
BRANCH   2   3
ATOM      3  C   UNL A   1      33.617  21.776  25.936  1.00  0.00     0.116 C 
BRANCH   3   4
ATOM      4  N   UNL A   1      33.044  21.109  24.778  1.00  0.00    -0.352 N 
ATOM      5  C   UNL A   1      32.476  21.504  23.594  1.00  0.00     0.251 C 
ATOM      6  O   UNL A   1      32.293  20.595  22.777  1.00  0.00    -0.269 OA
ATOM      7  H   UNL A   1      33.072  20.129  24.865  1.00  0.00     0.163 HD
BRANCH   5   8
ATOM      8  C   UNL A   1      32.058  22.891  23.193  1.00  0.00     0.042 A 
ATOM      9  C   UNL A   1      31.037  25.509  22.827  1.00  0.00     0.142 A 
ATOM     10  C   UNL A   1      30.201  24.498  23.278  1.00  0.00     0.049 A 
ATOM     11  C   UNL A   1      32.381  25.226  22.523  1.00  0.00     0.084 A 
ATOM     12  C   UNL A   1      30.702  23.204  23.434  1.00  0.00     0.018 A 
ATOM     13  C   UNL A   1      32.895  23.924  22.740  1.00  0.00     0.044 A 
BRANCH   9  14
ATOM     14  O   UNL A   1      30.506  26.776  22.803  1.00  0.00    -0.495 OA
ATOM     15  C   UNL A   1      29.440  27.004  23.730  1.00  0.00     0.278 C 
ENDBRANCH   9  14
BRANCH  11  16
ATOM     16  N   UNL A   1      33.137  26.311  22.045  1.00  0.00    -0.319 N 
ATOM     17  C   UNL A   1      33.687  27.400  22.658  1.00  0.00     0.257 C 
ATOM     18  H   UNL A   1      33.301  26.281  21.075  1.00  0.00     0.170 HD
ATOM     19  O   UNL A   1      34.402  28.178  22.030  1.00  0.00    -0.269 OA
BRANCH  17  20
ATOM     20  C   UNL A   1      33.428  27.705  24.060  1.00  0.00     0.065 A 
ATOM     21  C   UNL A   1      32.718  28.891  24.266  1.00  0.00     0.101 A 
ATOM     22  C   UNL A   1      33.877  26.928  25.137  1.00  0.00     0.054 A 
ATOM     23  C   UNL A   1      32.439  29.274  25.568  1.00  0.00     0.270 A 
ATOM     24  C   UNL A   1      33.554  27.316  26.440  1.00  0.00     0.028 A 
ATOM     25  Cl  UNL A   1      34.839  25.511  24.940  1.00  0.00    -0.083 Cl
ATOM     26  C   UNL A   1      32.846  28.500  26.661  1.00  0.00     0.087 A 
BRANCH  23  27
ATOM     27  N   UNL A   1      31.685  30.493  25.768  1.00  0.00     0.062 N 
ATOM     28  O   UNL A   1      31.958  31.165  26.767  1.00  0.00    -0.258 OA
ATOM     29  O   UNL A   1      30.806  30.752  24.936  1.00  0.00    -0.258 OA
ENDBRANCH  23  27
ENDBRANCH  17  20
ENDBRANCH  11  16
ENDBRANCH   5   8
ENDBRANCH   3   4
ENDBRANCH   2   3
ENDBRANCH   1   2
BRANCH   1  30
ATOM     30  C   UNL A   1      37.426  21.262  24.634  1.00  0.00     0.002 C 
BRANCH  30  31
ATOM     31  C   UNL A   1      38.165  19.933  24.840  1.00  0.00     0.021 C 
BRANCH  31  32
ATOM     32  C   UNL A   1      39.011  19.718  26.094  1.00  0.00     0.116 C 
BRANCH  32  33
ATOM     33  N   UNL A   1      40.278  19.061  25.837  1.00  0.00    -0.352 N 
ATOM     34  C   UNL A   1      41.557  19.565  25.912  1.00  0.00     0.251 C 
ATOM     35  H   UNL A   1      40.214  18.115  25.569  1.00  0.00     0.163 HD
ATOM     36  O   UNL A   1      42.497  18.880  25.503  1.00  0.00    -0.269 OA
BRANCH  34  37
ATOM     37  C   UNL A   1      41.840  20.924  26.447  1.00  0.00     0.039 A 
ATOM     38  C   UNL A   1      41.666  21.152  27.817  1.00  0.00     0.014 A 
ATOM     39  C   UNL A   1      42.212  21.993  25.623  1.00  0.00     0.014 A 
ATOM     40  C   UNL A   1      41.906  22.420  28.362  1.00  0.00     0.010 A 
ATOM     41  C   UNL A   1      42.510  23.244  26.177  1.00  0.00     0.010 A 
ATOM     42  C   UNL A   1      42.353  23.476  27.552  1.00  0.00    -0.014 A 
BRANCH  42  43
ATOM     43  C   UNL A   1      42.641  24.814  28.144  1.00  0.00     0.031 A 
ATOM     44  C   UNL A   1      44.034  25.175  28.595  1.00  0.00     0.074 A 
ATOM     45  C   UNL A   1      41.646  25.714  28.286  1.00  0.00     0.049 A 
ATOM     46  N   UNL A   1      44.473  26.306  29.094  1.00  0.00    -0.248 NA
ATOM     47  C   UNL A   1      45.064  24.131  28.484  1.00  0.00     0.031 C 
ATOM     48  C   UNL A   1      40.245  25.488  27.929  1.00  0.00     0.029 A 
ATOM     49  N   UNL A   1      41.661  27.002  28.766  1.00  0.00    -0.354 N 
ATOM     50  C   UNL A   1      45.823  26.105  29.362  1.00  0.00     0.074 A 
ATOM     51  C   UNL A   1      46.122  24.734  29.010  1.00  0.00     0.031 C 
ATOM     52  C   UNL A   1      39.542  26.606  28.175  1.00  0.00     0.029 A 
ATOM     53  C   UNL A   1      40.431  27.615  28.740  1.00  0.00     0.049 A 
ATOM     54  H   UNL A   1      42.476  27.444  29.097  1.00  0.00     0.167 HD
ATOM     55  C   UNL A   1      46.735  26.985  29.842  1.00  0.00     0.031 A 
ATOM     56  C   UNL A   1      40.056  28.850  29.131  1.00  0.00     0.031 A 
ATOM     57  C   UNL A   1      46.447  28.352  30.188  1.00  0.00     0.049 A 
ATOM     58  C   UNL A   1      41.088  29.800  29.677  1.00  0.00     0.074 A 
ATOM     59  C   UNL A   1      47.324  29.333  30.619  1.00  0.00     0.029 A 
ATOM     60  N   UNL A   1      45.189  28.929  30.153  1.00  0.00    -0.354 N 
ATOM     61  N   UNL A   1      42.377  29.620  29.833  1.00  0.00    -0.248 NA
ATOM     62  C   UNL A   1      40.613  31.129  30.090  1.00  0.00     0.031 C 
ATOM     63  C   UNL A   1      46.587  30.485  30.906  1.00  0.00     0.029 A 
ATOM     64  C   UNL A   1      45.261  30.242  30.591  1.00  0.00     0.049 A 
ATOM     65  H   UNL A   1      44.365  28.475  29.861  1.00  0.00     0.167 HD
ATOM     66  C   UNL A   1      42.868  30.818  30.337  1.00  0.00     0.074 A 
ATOM     67  C   UNL A   1      41.745  31.725  30.437  1.00  0.00     0.031 C 
ATOM     68  C   UNL A   1      44.137  31.137  30.687  1.00  0.00     0.031 A 
BRANCH  55  69
ATOM     69  C   UNL A   1      48.145  26.499  30.035  1.00  0.00    -0.014 A 
ATOM     70  C   UNL A   1      49.118  26.668  29.036  1.00  0.00     0.009 A 
ATOM     71  C   UNL A   1      48.526  25.934  31.263  1.00  0.00     0.009 A 
ATOM     72  C   UNL A   1      50.436  26.260  29.256  1.00  0.00     0.001 A 
ATOM     73  C   UNL A   1      49.849  25.551  31.489  1.00  0.00     0.001 A 
ATOM     74  C   UNL A   1      50.802  25.709  30.484  1.00  0.00     0.000 A 
ENDBRANCH  55  69
BRANCH  56  75
ATOM     75  C   UNL A   1      38.631  29.269  29.033  1.00  0.00    -0.014 A 
ATOM     76  C   UNL A   1      37.768  29.154  30.135  1.00  0.00     0.009 A 
ATOM     77  C   UNL A   1      38.116  29.752  27.820  1.00  0.00     0.009 A 
ATOM     78  C   UNL A   1      36.414  29.477  30.012  1.00  0.00     0.001 A 
ATOM     79  C   UNL A   1      36.770  30.106  27.709  1.00  0.00     0.001 A 
ATOM     80  C   UNL A   1      35.917  29.956  28.801  1.00  0.00     0.000 A 
ENDBRANCH  56  75
BRANCH  68  81
ATOM     81  C   UNL A   1      44.387  32.534  31.187  1.00  0.00    -0.014 A 
ATOM     82  C   UNL A   1      44.230  32.862  32.542  1.00  0.00     0.009 A 
ATOM     83  C   UNL A   1      44.821  33.525  30.293  1.00  0.00     0.009 A 
ATOM     84  C   UNL A   1      44.469  34.166  32.986  1.00  0.00     0.001 A 
ATOM     85  C   UNL A   1      45.091  34.817  30.744  1.00  0.00     0.001 A 
ATOM     86  C   UNL A   1      44.905  35.140  32.087  1.00  0.00     0.000 A 
ENDBRANCH  68  81
ENDBRANCH  42  43
ENDBRANCH  34  37
ENDBRANCH  32  33
ENDBRANCH  31  32
ENDBRANCH  30  31
ENDBRANCH   1  30
TORSDOF 17
ENDMDL
MODEL 2
REMARK VINA RESULT:     -10.7      4.438      9.827
REMARK SMILES COc1ccc(C(=O)NCCCCCCNC(=O)c2ccc(-c3c4nc(c(-c5ccccc5)c5ccc([nH]5)c(-c5ccccc5)c5nc(c(-c6ccccc6)c6ccc3[nH]6)C=C5)C=C4)cc2)cc1NC(=O)c1cc([N+](=O)[O-])ccc1Cl
REMARK SMILES IDX 12 1 11 2 10 3 9 4 7 5 8 6 6 8 3 9 4 10 68 11 5 12 67 13
REMARK SMILES IDX 2 14 1 15 69 16 70 17 71 19 72 20 73 21 80 22 74 23 79 24
REMARK SMILES IDX 81 25 78 26 75 27 76 28 77 29 13 30 14 31 15 32 16 33 17 34
REMARK SMILES IDX 18 36 19 37 20 38 66 39 21 40 65 41 22 42 23 43 24 44 59 45
REMARK SMILES IDX 25 46 64 47 58 48 60 49 26 50 63 51 57 52 56 53 27 55 49 56
REMARK SMILES IDX 34 57 48 58 35 59 38 60 47 61 61 62 36 63 37 64 46 66 62 67
REMARK SMILES IDX 39 68 28 69 29 70 33 71 30 72 32 73 31 74 50 75 51 76 55 77
REMARK SMILES IDX 52 78 54 79 53 80 40 81 41 82 45 83 42 84 44 85 43 86
REMARK H PARENT 9 7 69 18 16 35 60 54 38 65
REMARK Flexibility Score: inf
ROOT
ATOM      1  C   UNL A   1      35.152  32.648  28.032  1.00  0.00     0.002 C 
ENDROOT
BRANCH   1   2
ATOM      2  C   UNL A   1      33.998  31.622  28.005  1.00  0.00     0.021 C 
BRANCH   2   3
ATOM      3  C   UNL A   1      34.269  30.246  27.371  1.00  0.00     0.116 C 
BRANCH   3   4
ATOM      4  N   UNL A   1      33.597  30.083  26.092  1.00  0.00    -0.352 N 
ATOM      5  C   UNL A   1      32.894  29.084  25.467  1.00  0.00     0.251 C 
ATOM      6  O   UNL A   1      32.306  29.430  24.437  1.00  0.00    -0.269 OA
ATOM      7  H   UNL A   1      33.661  30.893  25.536  1.00  0.00     0.163 HD
BRANCH   5   8
ATOM      8  C   UNL A   1      32.770  27.647  25.888  1.00  0.00     0.042 A 
ATOM      9  C   UNL A   1      32.153  24.937  26.441  1.00  0.00     0.142 A 
ATOM     10  C   UNL A   1      31.157  25.900  26.509  1.00  0.00     0.049 A 
ATOM     11  C   UNL A   1      33.473  25.311  26.129  1.00  0.00     0.084 A 
ATOM     12  C   UNL A   1      31.471  27.238  26.259  1.00  0.00     0.018 A 
ATOM     13  C   UNL A   1      33.769  26.662  25.820  1.00  0.00     0.044 A 
BRANCH   9  14
ATOM     14  O   UNL A   1      31.751  23.632  26.589  1.00  0.00    -0.495 OA
ATOM     15  C   UNL A   1      30.337  23.438  26.673  1.00  0.00     0.278 C 
ENDBRANCH   9  14
BRANCH  11  16
ATOM     16  N   UNL A   1      34.413  24.266  26.115  1.00  0.00    -0.319 N 
ATOM     17  C   UNL A   1      34.733  23.319  25.186  1.00  0.00     0.257 C 
ATOM     18  H   UNL A   1      34.946  24.204  26.940  1.00  0.00     0.170 HD
ATOM     19  O   UNL A   1      35.680  22.556  25.368  1.00  0.00    -0.269 OA
BRANCH  17  20
ATOM     20  C   UNL A   1      33.958  23.149  23.963  1.00  0.00     0.065 A 
ATOM     21  C   UNL A   1      33.967  24.263  23.119  1.00  0.00     0.101 A 
ATOM     22  C   UNL A   1      33.218  22.001  23.646  1.00  0.00     0.054 A 
ATOM     23  C   UNL A   1      33.244  24.202  21.939  1.00  0.00     0.270 A 
ATOM     24  C   UNL A   1      32.524  21.950  22.434  1.00  0.00     0.028 A 
ATOM     25  Cl  UNL A   1      33.095  20.640  24.696  1.00  0.00    -0.083 Cl
ATOM     26  C   UNL A   1      32.523  23.057  21.582  1.00  0.00     0.087 A 
BRANCH  23  27
ATOM     27  N   UNL A   1      33.277  25.355  21.064  1.00  0.00     0.062 N 
ATOM     28  O   UNL A   1      33.633  26.427  21.560  1.00  0.00    -0.258 OA
ATOM     29  O   UNL A   1      32.918  25.179  19.893  1.00  0.00    -0.258 OA
ENDBRANCH  23  27
ENDBRANCH  17  20
ENDBRANCH  11  16
ENDBRANCH   5   8
ENDBRANCH   3   4
ENDBRANCH   2   3
ENDBRANCH   1   2
BRANCH   1  30
ATOM     30  C   UNL A   1      34.934  34.042  28.646  1.00  0.00     0.002 C 
BRANCH  30  31
ATOM     31  C   UNL A   1      33.525  34.645  28.709  1.00  0.00     0.021 C 
BRANCH  31  32
ATOM     32  C   UNL A   1      33.328  36.068  29.232  1.00  0.00     0.116 C 
BRANCH  32  33
ATOM     33  N   UNL A   1      32.510  36.140  30.428  1.00  0.00    -0.352 N 
ATOM     34  C   UNL A   1      32.717  35.575  31.666  1.00  0.00     0.251 C 
ATOM     35  H   UNL A   1      31.685  36.672  30.342  1.00  0.00     0.163 HD
ATOM     36  O   UNL A   1      31.820  35.632  32.510  1.00  0.00    -0.269 OA
BRANCH  34  37
ATOM     37  C   UNL A   1      33.982  34.871  32.011  1.00  0.00     0.039 A 
ATOM     38  C   UNL A   1      33.934  33.492  32.249  1.00  0.00     0.014 A 
ATOM     39  C   UNL A   1      35.199  35.544  32.165  1.00  0.00     0.014 A 
ATOM     40  C   UNL A   1      35.097  32.790  32.591  1.00  0.00     0.010 A 
ATOM     41  C   UNL A   1      36.372  34.833  32.448  1.00  0.00     0.010 A 
ATOM     42  C   UNL A   1      36.335  33.448  32.673  1.00  0.00    -0.014 A 
BRANCH  42  43
ATOM     43  C   UNL A   1      37.575  32.689  33.003  1.00  0.00     0.031 A 
ATOM     44  C   UNL A   1      38.328  32.957  34.281  1.00  0.00     0.074 A 
ATOM     45  C   UNL A   1      38.037  31.753  32.147  1.00  0.00     0.049 A 
ATOM     46  N   UNL A   1      39.401  32.364  34.748  1.00  0.00    -0.248 NA
ATOM     47  C   UNL A   1      37.821  34.037  35.142  1.00  0.00     0.031 C 
ATOM     48  C   UNL A   1      37.432  31.416  30.858  1.00  0.00     0.029 A 
ATOM     49  N   UNL A   1      39.121  30.912  32.235  1.00  0.00    -0.354 N 
ATOM     50  C   UNL A   1      39.699  33.003  35.947  1.00  0.00     0.074 A 
ATOM     51  C   UNL A   1      38.720  34.055  36.117  1.00  0.00     0.031 C 
ATOM     52  C   UNL A   1      38.135  30.422  30.289  1.00  0.00     0.029 A 
ATOM     53  C   UNL A   1      39.259  30.076  31.153  1.00  0.00     0.049 A 
ATOM     54  H   UNL A   1      39.739  30.909  33.001  1.00  0.00     0.167 HD
ATOM     55  C   UNL A   1      40.686  32.729  36.834  1.00  0.00     0.031 A 
ATOM     56  C   UNL A   1      40.188  29.137  30.880  1.00  0.00     0.031 A 
ATOM     57  C   UNL A   1      41.659  31.680  36.675  1.00  0.00     0.049 A 
ATOM     58  C   UNL A   1      41.284  28.868  31.877  1.00  0.00     0.074 A 
ATOM     59  C   UNL A   1      42.654  31.290  37.556  1.00  0.00     0.029 A 
ATOM     60  N   UNL A   1      41.767  30.863  35.564  1.00  0.00    -0.354 N 
ATOM     61  N   UNL A   1      41.490  29.419  33.048  1.00  0.00    -0.248 NA
ATOM     62  C   UNL A   1      42.268  27.836  31.517  1.00  0.00     0.031 C 
ATOM     63  C   UNL A   1      43.404  30.279  36.950  1.00  0.00     0.029 A 
ATOM     64  C   UNL A   1      42.836  29.994  35.719  1.00  0.00     0.049 A 
ATOM     65  H   UNL A   1      41.173  30.893  34.778  1.00  0.00     0.167 HD
ATOM     66  C   UNL A   1      42.610  28.785  33.573  1.00  0.00     0.074 A 
ATOM     67  C   UNL A   1      43.023  27.791  32.606  1.00  0.00     0.031 C 
ATOM     68  C   UNL A   1      43.240  29.009  34.751  1.00  0.00     0.031 A 
BRANCH  55  69
ATOM     69  C   UNL A   1      40.778  33.586  38.067  1.00  0.00    -0.014 A 
ATOM     70  C   UNL A   1      40.127  33.224  39.257  1.00  0.00     0.009 A 
ATOM     71  C   UNL A   1      41.592  34.730  38.061  1.00  0.00     0.009 A 
ATOM     72  C   UNL A   1      40.270  34.003  40.407  1.00  0.00     0.001 A 
ATOM     73  C   UNL A   1      41.754  35.492  39.220  1.00  0.00     0.001 A 
ATOM     74  C   UNL A   1      41.089  35.132  40.390  1.00  0.00     0.000 A 
ENDBRANCH  55  69
BRANCH  56  75
ATOM     75  C   UNL A   1      40.138  28.379  29.600  1.00  0.00    -0.014 A 
ATOM     76  C   UNL A   1      39.405  27.186  29.498  1.00  0.00     0.009 A 
ATOM     77  C   UNL A   1      40.855  28.829  28.481  1.00  0.00     0.009 A 
ATOM     78  C   UNL A   1      39.426  26.440  28.316  1.00  0.00     0.001 A 
ATOM     79  C   UNL A   1      40.848  28.100  27.291  1.00  0.00     0.001 A 
ATOM     80  C   UNL A   1      40.144  26.899  27.213  1.00  0.00     0.000 A 
ENDBRANCH  56  75
BRANCH  68  81
ATOM     81  C   UNL A   1      44.428  28.146  35.075  1.00  0.00    -0.014 A 
ATOM     82  C   UNL A   1      45.739  28.602  34.869  1.00  0.00     0.009 A 
ATOM     83  C   UNL A   1      44.232  26.871  35.629  1.00  0.00     0.009 A 
ATOM     84  C   UNL A   1      46.829  27.785  35.178  1.00  0.00     0.001 A 
ATOM     85  C   UNL A   1      45.322  26.069  35.967  1.00  0.00     0.001 A 
ATOM     86  C   UNL A   1      46.619  26.522  35.732  1.00  0.00     0.000 A 
ENDBRANCH  68  81
ENDBRANCH  42  43
ENDBRANCH  34  37
ENDBRANCH  32  33
ENDBRANCH  31  32
ENDBRANCH  30  31
ENDBRANCH   1  30
TORSDOF 17
ENDMDL
MODEL 3
REMARK VINA RESULT:     -10.7      3.641      5.416
REMARK SMILES COc1ccc(C(=O)NCCCCCCNC(=O)c2ccc(-c3c4nc(c(-c5ccccc5)c5ccc([nH]5)c(-c5ccccc5)c5nc(c(-c6ccccc6)c6ccc3[nH]6)C=C5)C=C4)cc2)cc1NC(=O)c1cc([N+](=O)[O-])ccc1Cl
REMARK SMILES IDX 12 1 11 2 10 3 9 4 7 5 8 6 6 8 3 9 4 10 68 11 5 12 67 13
REMARK SMILES IDX 2 14 1 15 69 16 70 17 71 19 72 20 73 21 80 22 74 23 79 24
REMARK SMILES IDX 81 25 78 26 75 27 76 28 77 29 13 30 14 31 15 32 16 33 17 34
REMARK SMILES IDX 18 36 19 37 20 38 66 39 21 40 65 41 22 42 23 43 24 44 59 45
REMARK SMILES IDX 25 46 64 47 58 48 60 49 26 50 63 51 57 52 56 53 27 55 49 56
REMARK SMILES IDX 34 57 48 58 35 59 38 60 47 61 61 62 36 63 37 64 46 66 62 67
REMARK SMILES IDX 39 68 28 69 29 70 33 71 30 72 32 73 31 74 50 75 51 76 55 77
REMARK SMILES IDX 52 78 54 79 53 80 40 81 41 82 45 83 42 84 44 85 43 86
REMARK H PARENT 9 7 69 18 16 35 60 54 38 65
REMARK Flexibility Score: inf
ROOT
ATOM      1  C   UNL A   1      41.107  20.636  27.265  1.00  0.00     0.002 C 
ENDROOT
BRANCH   1   2
ATOM      2  C   UNL A   1      40.348  19.969  26.097  1.00  0.00     0.021 C 
BRANCH   2   3
ATOM      3  C   UNL A   1      38.949  20.503  25.745  1.00  0.00     0.116 C 
BRANCH   3   4
ATOM      4  N   UNL A   1      38.890  21.956  25.759  1.00  0.00    -0.352 N 
ATOM      5  C   UNL A   1      37.897  22.902  25.776  1.00  0.00     0.251 C 
ATOM      6  O   UNL A   1      38.285  24.056  25.989  1.00  0.00    -0.269 OA
ATOM      7  H   UNL A   1      39.787  22.361  25.756  1.00  0.00     0.163 HD
BRANCH   5   8
ATOM      8  C   UNL A   1      36.424  22.693  25.565  1.00  0.00     0.042 A 
ATOM      9  C   UNL A   1      33.737  21.858  25.233  1.00  0.00     0.142 A 
ATOM     10  C   UNL A   1      34.761  21.144  24.631  1.00  0.00     0.049 A 
ATOM     11  C   UNL A   1      34.030  23.014  25.982  1.00  0.00     0.084 A 
ATOM     12  C   UNL A   1      36.083  21.572  24.778  1.00  0.00     0.018 A 
ATOM     13  C   UNL A   1      35.378  23.406  26.173  1.00  0.00     0.044 A 
BRANCH   9  14
ATOM     14  O   UNL A   1      32.477  21.318  25.139  1.00  0.00    -0.495 OA
ATOM     15  C   UNL A   1      32.329  20.295  24.151  1.00  0.00     0.278 C 
ENDBRANCH   9  14
BRANCH  11  16
ATOM     16  N   UNL A   1      32.920  23.683  26.525  1.00  0.00    -0.319 N 
ATOM     17  C   UNL A   1      32.229  24.796  26.142  1.00  0.00     0.257 C 
ATOM     18  H   UNL A   1      32.573  23.268  27.347  1.00  0.00     0.170 HD
ATOM     19  O   UNL A   1      31.210  25.138  26.739  1.00  0.00    -0.269 OA
BRANCH  17  20
ATOM     20  C   UNL A   1      32.678  25.638  25.040  1.00  0.00     0.065 A 
ATOM     21  C   UNL A   1      32.696  24.997  23.798  1.00  0.00     0.101 A 
ATOM     22  C   UNL A   1      33.107  26.966  25.180  1.00  0.00     0.054 A 
ATOM     23  C   UNL A   1      33.124  25.713  22.693  1.00  0.00     0.270 A 
ATOM     24  C   UNL A   1      33.502  27.679  24.045  1.00  0.00     0.028 A 
ATOM     25  Cl  UNL A   1      33.197  27.771  26.701  1.00  0.00    -0.083 Cl
ATOM     26  C   UNL A   1      33.527  27.049  22.798  1.00  0.00     0.087 A 
BRANCH  23  27
ATOM     27  N   UNL A   1      33.119  25.043  21.409  1.00  0.00     0.062 N 
ATOM     28  O   UNL A   1      33.226  23.814  21.416  1.00  0.00    -0.258 OA
ATOM     29  O   UNL A   1      33.036  25.761  20.403  1.00  0.00    -0.258 OA
ENDBRANCH  23  27
ENDBRANCH  17  20
ENDBRANCH  11  16
ENDBRANCH   5   8
ENDBRANCH   3   4
ENDBRANCH   2   3
ENDBRANCH   1   2
BRANCH   1  30
ATOM     30  C   UNL A   1      42.600  20.978  27.124  1.00  0.00     0.002 C 
BRANCH  30  31
ATOM     31  C   UNL A   1      43.192  21.293  25.744  1.00  0.00     0.021 C 
BRANCH  31  32
ATOM     32  C   UNL A   1      42.963  22.666  25.113  1.00  0.00     0.116 C 
BRANCH  32  33
ATOM     33  N   UNL A   1      44.189  23.349  24.744  1.00  0.00    -0.352 N 
ATOM     34  C   UNL A   1      44.710  24.531  25.221  1.00  0.00     0.251 C 
ATOM     35  H   UNL A   1      44.727  22.902  24.051  1.00  0.00     0.163 HD
ATOM     36  O   UNL A   1      45.695  25.020  24.664  1.00  0.00    -0.269 OA
BRANCH  34  37
ATOM     37  C   UNL A   1      44.105  25.253  26.372  1.00  0.00     0.039 A 
ATOM     38  C   UNL A   1      44.303  26.635  26.471  1.00  0.00     0.014 A 
ATOM     39  C   UNL A   1      43.401  24.594  27.387  1.00  0.00     0.014 A 
ATOM     40  C   UNL A   1      43.764  27.355  27.546  1.00  0.00     0.010 A 
ATOM     41  C   UNL A   1      42.812  25.321  28.429  1.00  0.00     0.010 A 
ATOM     42  C   UNL A   1      42.993  26.710  28.527  1.00  0.00    -0.014 A 
BRANCH  42  43
ATOM     43  C   UNL A   1      42.393  27.487  29.649  1.00  0.00     0.031 A 
ATOM     44  C   UNL A   1      43.049  27.516  31.006  1.00  0.00     0.074 A 
ATOM     45  C   UNL A   1      41.245  28.169  29.454  1.00  0.00     0.049 A 
ATOM     46  N   UNL A   1      42.689  28.171  32.084  1.00  0.00    -0.248 NA
ATOM     47  C   UNL A   1      44.259  26.697  31.181  1.00  0.00     0.031 C 
ATOM     48  C   UNL A   1      40.481  28.199  28.206  1.00  0.00     0.029 A 
ATOM     49  N   UNL A   1      40.521  28.971  30.305  1.00  0.00    -0.354 N 
ATOM     50  C   UNL A   1      43.619  27.836  33.062  1.00  0.00     0.074 A 
ATOM     51  C   UNL A   1      44.535  26.890  32.464  1.00  0.00     0.031 C 
ATOM     52  C   UNL A   1      39.414  29.000  28.363  1.00  0.00     0.029 A 
ATOM     53  C   UNL A   1      39.396  29.511  29.730  1.00  0.00     0.049 A 
ATOM     54  H   UNL A   1      40.784  29.142  31.238  1.00  0.00     0.167 HD
ATOM     55  C   UNL A   1      43.712  28.287  34.336  1.00  0.00     0.031 A 
ATOM     56  C   UNL A   1      38.451  30.324  30.242  1.00  0.00     0.031 A 
ATOM     57  C   UNL A   1      42.809  29.234  34.936  1.00  0.00     0.049 A 
ATOM     58  C   UNL A   1      38.571  30.794  31.667  1.00  0.00     0.074 A 
ATOM     59  C   UNL A   1      42.867  29.796  36.201  1.00  0.00     0.029 A 
ATOM     60  N   UNL A   1      41.681  29.750  34.322  1.00  0.00    -0.354 N 
ATOM     61  N   UNL A   1      39.511  30.541  32.545  1.00  0.00    -0.248 NA
ATOM     62  C   UNL A   1      37.505  31.675  32.167  1.00  0.00     0.031 C 
ATOM     63  C   UNL A   1      41.740  30.603  36.373  1.00  0.00     0.029 A 
ATOM     64  C   UNL A   1      41.014  30.596  35.194  1.00  0.00     0.049 A 
ATOM     65  H   UNL A   1      41.394  29.547  33.401  1.00  0.00     0.167 HD
ATOM     66  C   UNL A   1      39.162  31.248  33.689  1.00  0.00     0.074 A 
ATOM     67  C   UNL A   1      37.939  31.961  33.387  1.00  0.00     0.031 C 
ATOM     68  C   UNL A   1      39.798  31.300  34.884  1.00  0.00     0.031 A 
BRANCH  55  69
ATOM     69  C   UNL A   1      44.833  27.757  35.188  1.00  0.00    -0.014 A 
ATOM     70  C   UNL A   1      46.074  28.411  35.251  1.00  0.00     0.009 A 
ATOM     71  C   UNL A   1      44.618  26.631  35.999  1.00  0.00     0.009 A 
ATOM     72  C   UNL A   1      47.084  27.934  36.090  1.00  0.00     0.001 A 
ATOM     73  C   UNL A   1      45.620  26.172  36.857  1.00  0.00     0.001 A 
ATOM     74  C   UNL A   1      46.854  26.820  36.897  1.00  0.00     0.000 A 
ENDBRANCH  55  69
BRANCH  56  75
ATOM     75  C   UNL A   1      37.290  30.746  29.411  1.00  0.00    -0.014 A 
ATOM     76  C   UNL A   1      36.245  29.853  29.125  1.00  0.00     0.009 A 
ATOM     77  C   UNL A   1      37.242  32.039  28.866  1.00  0.00     0.009 A 
ATOM     78  C   UNL A   1      35.199  30.233  28.280  1.00  0.00     0.001 A 
ATOM     79  C   UNL A   1      36.178  32.427  28.049  1.00  0.00     0.001 A 
ATOM     80  C   UNL A   1      35.164  31.520  27.746  1.00  0.00     0.000 A 
ENDBRANCH  56  75
BRANCH  68  81
ATOM     81  C   UNL A   1      39.198  32.178  35.949  1.00  0.00    -0.014 A 
ATOM     82  C   UNL A   1      38.234  31.687  36.842  1.00  0.00     0.009 A 
ATOM     83  C   UNL A   1      39.635  33.505  36.082  1.00  0.00     0.009 A 
ATOM     84  C   UNL A   1      37.692  32.519  37.824  1.00  0.00     0.001 A 
ATOM     85  C   UNL A   1      39.115  34.325  37.085  1.00  0.00     0.001 A 
ATOM     86  C   UNL A   1      38.137  33.835  37.948  1.00  0.00     0.000 A 
ENDBRANCH  68  81
ENDBRANCH  42  43
ENDBRANCH  34  37
ENDBRANCH  32  33
ENDBRANCH  31  32
ENDBRANCH  30  31
ENDBRANCH   1  30
TORSDOF 17
ENDMDL
