MODEL 1
REMARK VINA RESULT:     -10.7      0.000      0.000
REMARK SMILES C[C@@H](C(=O)NCCCCCCNC(=O)c1ccc(-c2c3nc(c(-c4ccccc4)c4ccc([nH]4)c(-c4ccccc4)c4nc(c(-c5ccccc5)c5ccc2[nH]5)C=C4)C=C3)cc1)c1ccc(Cc2ccsc2)cc1F
REMARK SMILES IDX 8 1 7 2 6 3 5 4 3 5 4 6 2 8 1 9 63 10 64 11 74 12 65 13
REMARK SMILES IDX 73 14 75 15 66 16 67 17 68 18 69 19 72 20 70 21 71 22 9 23
REMARK SMILES IDX 10 24 11 25 12 26 13 27 14 29 15 30 16 31 62 32 17 33 61 34
REMARK SMILES IDX 18 35 19 36 20 37 55 38 21 39 60 40 54 41 56 42 22 43 59 44
REMARK SMILES IDX 53 45 52 46 23 48 45 49 30 50 44 51 31 52 34 53 43 54 57 55
REMARK SMILES IDX 32 56 33 57 42 59 58 60 35 61 24 62 25 63 29 64 26 65 28 66
REMARK SMILES IDX 27 67 46 68 47 69 51 70 48 71 50 72 49 73 36 74 37 75 41 76
REMARK SMILES IDX 38 77 40 78 39 79
REMARK H PARENT 5 7 12 28 56 47 34 58
REMARK Flexibility Score: inf
ROOT
ATOM      1  C   UNL A   1      31.822  28.373  26.177  1.00  0.00     0.002 C 
ENDROOT
BRANCH   1   2
ATOM      2  C   UNL A   1      33.209  27.858  26.594  1.00  0.00     0.021 C 
BRANCH   2   3
ATOM      3  C   UNL A   1      33.650  26.594  25.850  1.00  0.00     0.116 C 
BRANCH   3   4
ATOM      4  N   UNL A   1      34.037  26.921  24.495  1.00  0.00    -0.356 N 
ATOM      5  C   UNL A   1      33.576  26.447  23.305  1.00  0.00     0.227 C 
ATOM      6  O   UNL A   1      34.221  26.769  22.304  1.00  0.00    -0.274 OA
ATOM      7  H   UNL A   1      34.752  27.594  24.421  1.00  0.00     0.163 HD
BRANCH   5   8
ATOM      8  C   UNL A   1      32.293  25.598  23.248  1.00  0.00     0.108 C 
ATOM      9  C   UNL A   1      32.251  24.646  22.045  1.00  0.00     0.023 C 
BRANCH   8  10
ATOM     10  C   UNL A   1      31.043  26.468  23.231  1.00  0.00    -0.000 A 
ATOM     11  C   UNL A   1      31.008  27.658  22.490  1.00  0.00     0.008 A 
ATOM     12  C   UNL A   1      29.897  26.106  23.941  1.00  0.00     0.127 A 
ATOM     13  C   UNL A   1      29.854  28.438  22.441  1.00  0.00     0.004 A 
ATOM     14  C   UNL A   1      28.744  26.895  23.917  1.00  0.00     0.043 A 
ATOM     15  F   UNL A   1      29.879  24.963  24.644  1.00  0.00    -0.207 F 
ATOM     16  C   UNL A   1      28.707  28.077  23.162  1.00  0.00    -0.041 A 
BRANCH  16  17
ATOM     17  C   UNL A   1      27.449  28.904  23.064  1.00  0.00     0.072 C 
BRANCH  17  18
ATOM     18  C   UNL A   1      27.831  30.334  22.792  1.00  0.00    -0.033 A 
ATOM     19  C   UNL A   1      28.395  31.255  23.743  1.00  0.00     0.015 A 
ATOM     20  C   UNL A   1      27.772  30.928  21.542  1.00  0.00     0.068 A 
ATOM     21  C   UNL A   1      28.702  32.481  23.196  1.00  0.00     0.065 A 
ATOM     22  S   UNL A   1      28.350  32.537  21.528  1.00  0.00    -0.152 S 
ENDBRANCH  17  18
ENDBRANCH  16  17
ENDBRANCH   8  10
ENDBRANCH   5   8
ENDBRANCH   3   4
ENDBRANCH   2   3
ENDBRANCH   1   2
BRANCH   1  23
ATOM     23  C   UNL A   1      31.799  29.804  25.632  1.00  0.00     0.002 C 
BRANCH  23  24
ATOM     24  C   UNL A   1      31.551  30.887  26.683  1.00  0.00     0.021 C 
BRANCH  24  25
ATOM     25  C   UNL A   1      32.787  31.699  27.055  1.00  0.00     0.116 C 
BRANCH  25  26
ATOM     26  N   UNL A   1      32.460  33.085  27.358  1.00  0.00    -0.352 N 
ATOM     27  C   UNL A   1      33.088  33.960  28.209  1.00  0.00     0.251 C 
ATOM     28  H   UNL A   1      31.675  33.445  26.887  1.00  0.00     0.163 HD
ATOM     29  O   UNL A   1      32.559  35.029  28.503  1.00  0.00    -0.269 OA
BRANCH  27  30
ATOM     30  C   UNL A   1      34.395  33.599  28.794  1.00  0.00     0.039 A 
ATOM     31  C   UNL A   1      34.430  33.008  30.059  1.00  0.00     0.014 A 
ATOM     32  C   UNL A   1      35.581  33.822  28.086  1.00  0.00     0.014 A 
ATOM     33  C   UNL A   1      35.645  32.557  30.576  1.00  0.00     0.010 A 
ATOM     34  C   UNL A   1      36.781  33.312  28.573  1.00  0.00     0.010 A 
ATOM     35  C   UNL A   1      36.822  32.658  29.815  1.00  0.00    -0.014 A 
BRANCH  35  36
ATOM     36  C   UNL A   1      38.087  32.023  30.266  1.00  0.00     0.031 A 
ATOM     37  C   UNL A   1      39.028  32.755  31.180  1.00  0.00     0.074 A 
ATOM     38  C   UNL A   1      38.426  30.815  29.772  1.00  0.00     0.049 A 
ATOM     39  N   UNL A   1      40.212  32.391  31.602  1.00  0.00    -0.248 NA
ATOM     40  C   UNL A   1      38.595  34.074  31.669  1.00  0.00     0.031 C 
ATOM     41  C   UNL A   1      37.617  30.021  28.842  1.00  0.00     0.029 A 
ATOM     42  N   UNL A   1      39.550  30.049  29.966  1.00  0.00    -0.354 N 
ATOM     43  C   UNL A   1      40.673  33.440  32.388  1.00  0.00     0.074 A 
ATOM     44  C   UNL A   1      39.656  34.468  32.360  1.00  0.00     0.031 C 
ATOM     45  C   UNL A   1      38.265  28.879  28.559  1.00  0.00     0.029 A 
ATOM     46  C   UNL A   1      39.553  28.880  29.243  1.00  0.00     0.049 A 
ATOM     47  H   UNL A   1      40.283  30.312  30.569  1.00  0.00     0.167 HD
ATOM     48  C   UNL A   1      41.837  33.531  33.075  1.00  0.00     0.031 A 
ATOM     49  C   UNL A   1      40.498  27.928  29.118  1.00  0.00     0.031 A 
ATOM     50  C   UNL A   1      42.839  32.500  33.113  1.00  0.00     0.049 A 
ATOM     51  C   UNL A   1      41.791  28.076  29.870  1.00  0.00     0.074 A 
ATOM     52  C   UNL A   1      44.008  32.467  33.855  1.00  0.00     0.029 A 
ATOM     53  N   UNL A   1      42.802  31.331  32.371  1.00  0.00    -0.354 N 
ATOM     54  N   UNL A   1      42.163  29.026  30.694  1.00  0.00    -0.248 NA
ATOM     55  C   UNL A   1      42.797  27.021  29.677  1.00  0.00     0.031 C 
ATOM     56  C   UNL A   1      44.714  31.314  33.505  1.00  0.00     0.029 A 
ATOM     57  C   UNL A   1      43.954  30.597  32.596  1.00  0.00     0.049 A 
ATOM     58  H   UNL A   1      42.067  31.063  31.774  1.00  0.00     0.167 HD
ATOM     59  C   UNL A   1      43.435  28.673  31.128  1.00  0.00     0.074 A 
ATOM     60  C   UNL A   1      43.758  27.410  30.502  1.00  0.00     0.031 C 
ATOM     61  C   UNL A   1      44.264  29.341  31.964  1.00  0.00     0.031 A 
BRANCH  48  62
ATOM     62  C   UNL A   1      42.112  34.796  33.839  1.00  0.00    -0.014 A 
ATOM     63  C   UNL A   1      41.765  34.922  35.192  1.00  0.00     0.009 A 
ATOM     64  C   UNL A   1      42.822  35.837  33.218  1.00  0.00     0.009 A 
ATOM     65  C   UNL A   1      42.110  36.073  35.905  1.00  0.00     0.001 A 
ATOM     66  C   UNL A   1      43.188  36.975  33.939  1.00  0.00     0.001 A 
ATOM     67  C   UNL A   1      42.829  37.094  35.280  1.00  0.00     0.000 A 
ENDBRANCH  48  62
BRANCH  49  68
ATOM     68  C   UNL A   1      40.282  26.764  28.215  1.00  0.00    -0.014 A 
ATOM     69  C   UNL A   1      40.793  26.765  26.908  1.00  0.00     0.009 A 
ATOM     70  C   UNL A   1      39.520  25.666  28.643  1.00  0.00     0.009 A 
ATOM     71  C   UNL A   1      40.511  25.709  26.036  1.00  0.00     0.001 A 
ATOM     72  C   UNL A   1      39.270  24.595  27.781  1.00  0.00     0.001 A 
ATOM     73  C   UNL A   1      39.753  24.625  26.475  1.00  0.00     0.000 A 
ENDBRANCH  49  68
BRANCH  61  74
ATOM     74  C   UNL A   1      45.597  28.715  32.261  1.00  0.00    -0.014 A 
ATOM     75  C   UNL A   1      46.764  29.155  31.619  1.00  0.00     0.009 A 
ATOM     76  C   UNL A   1      45.694  27.710  33.237  1.00  0.00     0.009 A 
ATOM     77  C   UNL A   1      47.999  28.583  31.928  1.00  0.00     0.001 A 
ATOM     78  C   UNL A   1      46.935  27.162  33.567  1.00  0.00     0.001 A 
ATOM     79  C   UNL A   1      48.085  27.594  32.906  1.00  0.00     0.000 A 
ENDBRANCH  61  74
ENDBRANCH  35  36
ENDBRANCH  27  30
ENDBRANCH  25  26
ENDBRANCH  24  25
ENDBRANCH  23  24
ENDBRANCH   1  23
TORSDOF 16
ENDMDL
MODEL 2
REMARK VINA RESULT:     -10.5      0.577      5.944
REMARK SMILES C[C@@H](C(=O)NCCCCCCNC(=O)c1ccc(-c2c3nc(c(-c4ccccc4)c4ccc([nH]4)c(-c4ccccc4)c4nc(c(-c5ccccc5)c5ccc2[nH]5)C=C4)C=C3)cc1)c1ccc(Cc2ccsc2)cc1F
REMARK SMILES IDX 8 1 7 2 6 3 5 4 3 5 4 6 2 8 1 9 63 10 64 11 74 12 65 13
REMARK SMILES IDX 73 14 75 15 66 16 67 17 68 18 69 19 72 20 70 21 71 22 9 23
REMARK SMILES IDX 10 24 11 25 12 26 13 27 14 29 15 30 16 31 62 32 17 33 61 34
REMARK SMILES IDX 18 35 19 36 20 37 55 38 21 39 60 40 54 41 56 42 22 43 59 44
REMARK SMILES IDX 53 45 52 46 23 48 45 49 30 50 44 51 31 52 34 53 43 54 57 55
REMARK SMILES IDX 32 56 33 57 42 59 58 60 35 61 24 62 25 63 29 64 26 65 28 66
REMARK SMILES IDX 27 67 46 68 47 69 51 70 48 71 50 72 49 73 36 74 37 75 41 76
REMARK SMILES IDX 38 77 40 78 39 79
REMARK H PARENT 5 7 12 28 56 47 34 58
REMARK Flexibility Score: inf
ROOT
ATOM      1  C   UNL A   1      32.013  28.102  27.204  1.00  0.00     0.002 C 
ENDROOT
BRANCH   1   2
ATOM      2  C   UNL A   1      31.689  26.728  26.597  1.00  0.00     0.021 C 
BRANCH   2   3
ATOM      3  C   UNL A   1      32.922  25.950  26.129  1.00  0.00     0.116 C 
BRANCH   3   4
ATOM      4  N   UNL A   1      33.631  26.699  25.115  1.00  0.00    -0.356 N 
ATOM      5  C   UNL A   1      33.545  26.649  23.757  1.00  0.00     0.227 C 
ATOM      6  O   UNL A   1      34.407  27.274  23.134  1.00  0.00    -0.274 OA
ATOM      7  H   UNL A   1      34.282  27.350  25.463  1.00  0.00     0.163 HD
BRANCH   5   8
ATOM      8  C   UNL A   1      32.399  25.882  23.075  1.00  0.00     0.108 C 
ATOM      9  C   UNL A   1      32.708  25.496  21.623  1.00  0.00     0.023 C 
BRANCH   8  10
ATOM     10  C   UNL A   1      31.096  26.672  23.107  1.00  0.00    -0.000 A 
ATOM     11  C   UNL A   1      31.044  27.987  22.626  1.00  0.00     0.008 A 
ATOM     12  C   UNL A   1      29.919  26.110  23.607  1.00  0.00     0.127 A 
ATOM     13  C   UNL A   1      29.846  28.701  22.619  1.00  0.00     0.004 A 
ATOM     14  C   UNL A   1      28.721  26.828  23.626  1.00  0.00     0.043 A 
ATOM     15  F   UNL A   1      29.919  24.846  24.055  1.00  0.00    -0.207 F 
ATOM     16  C   UNL A   1      28.668  28.139  23.128  1.00  0.00    -0.041 A 
BRANCH  16  17
ATOM     17  C   UNL A   1      27.368  28.903  23.072  1.00  0.00     0.072 C 
BRANCH  17  18
ATOM     18  C   UNL A   1      27.659  30.321  22.661  1.00  0.00    -0.033 A 
ATOM     19  C   UNL A   1      27.934  31.420  23.547  1.00  0.00     0.015 A 
ATOM     20  C   UNL A   1      27.791  30.734  21.345  1.00  0.00     0.068 A 
ATOM     21  C   UNL A   1      28.226  32.592  22.885  1.00  0.00     0.065 A 
ATOM     22  S   UNL A   1      28.205  32.386  21.192  1.00  0.00    -0.152 S 
ENDBRANCH  17  18
ENDBRANCH  16  17
ENDBRANCH   8  10
ENDBRANCH   5   8
ENDBRANCH   3   4
ENDBRANCH   2   3
ENDBRANCH   1   2
BRANCH   1  23
ATOM     23  C   UNL A   1      31.928  29.279  26.227  1.00  0.00     0.002 C 
BRANCH  23  24
ATOM     24  C   UNL A   1      31.621  30.629  26.876  1.00  0.00     0.021 C 
BRANCH  24  25
ATOM     25  C   UNL A   1      32.830  31.548  27.020  1.00  0.00     0.116 C 
BRANCH  25  26
ATOM     26  N   UNL A   1      32.443  32.918  27.324  1.00  0.00    -0.352 N 
ATOM     27  C   UNL A   1      33.041  33.825  28.163  1.00  0.00     0.251 C 
ATOM     28  H   UNL A   1      31.636  33.239  26.861  1.00  0.00     0.163 HD
ATOM     29  O   UNL A   1      32.466  34.869  28.460  1.00  0.00    -0.269 OA
BRANCH  27  30
ATOM     30  C   UNL A   1      34.370  33.527  28.732  1.00  0.00     0.039 A 
ATOM     31  C   UNL A   1      34.448  32.831  29.941  1.00  0.00     0.014 A 
ATOM     32  C   UNL A   1      35.536  33.913  28.064  1.00  0.00     0.014 A 
ATOM     33  C   UNL A   1      35.695  32.441  30.434  1.00  0.00     0.010 A 
ATOM     34  C   UNL A   1      36.773  33.467  28.521  1.00  0.00     0.010 A 
ATOM     35  C   UNL A   1      36.863  32.711  29.701  1.00  0.00    -0.014 A 
BRANCH  35  36
ATOM     36  C   UNL A   1      38.175  32.149  30.112  1.00  0.00     0.031 A 
ATOM     37  C   UNL A   1      38.652  30.835  29.563  1.00  0.00     0.074 A 
ATOM     38  C   UNL A   1      38.895  32.789  31.056  1.00  0.00     0.049 A 
ATOM     39  N   UNL A   1      39.725  30.154  29.877  1.00  0.00    -0.248 NA
ATOM     40  C   UNL A   1      37.807  30.188  28.546  1.00  0.00     0.031 C 
ATOM     41  C   UNL A   1      38.519  34.052  31.699  1.00  0.00     0.029 A 
ATOM     42  N   UNL A   1      40.086  32.457  31.655  1.00  0.00    -0.354 N 
ATOM     43  C   UNL A   1      39.675  28.994  29.113  1.00  0.00     0.074 A 
ATOM     44  C   UNL A   1      38.452  29.047  28.343  1.00  0.00     0.031 C 
ATOM     45  C   UNL A   1      39.465  34.392  32.590  1.00  0.00     0.029 A 
ATOM     46  C   UNL A   1      40.486  33.351  32.621  1.00  0.00     0.049 A 
ATOM     47  H   UNL A   1      40.605  31.656  31.414  1.00  0.00     0.167 HD
ATOM     48  C   UNL A   1      40.574  27.983  29.055  1.00  0.00     0.031 A 
ATOM     49  C   UNL A   1      41.539  33.323  33.460  1.00  0.00     0.031 A 
ATOM     50  C   UNL A   1      41.798  27.942  29.811  1.00  0.00     0.049 A 
ATOM     51  C   UNL A   1      42.500  32.169  33.391  1.00  0.00     0.074 A 
ATOM     52  C   UNL A   1      42.812  27.000  29.749  1.00  0.00     0.029 A 
ATOM     53  N   UNL A   1      42.167  28.866  30.773  1.00  0.00    -0.354 N 
ATOM     54  N   UNL A   1      42.492  31.135  32.585  1.00  0.00    -0.248 NA
ATOM     55  C   UNL A   1      43.618  32.176  34.348  1.00  0.00     0.031 C 
ATOM     56  C   UNL A   1      43.759  27.316  30.727  1.00  0.00     0.029 A 
ATOM     57  C   UNL A   1      43.367  28.488  31.350  1.00  0.00     0.049 A 
ATOM     58  H   UNL A   1      41.653  29.672  31.010  1.00  0.00     0.167 HD
ATOM     59  C   UNL A   1      43.609  30.381  32.925  1.00  0.00     0.074 A 
ATOM     60  C   UNL A   1      44.287  31.091  33.989  1.00  0.00     0.031 C 
ATOM     61  C   UNL A   1      44.030  29.203  32.410  1.00  0.00     0.031 A 
BRANCH  48  62
ATOM     62  C   UNL A   1      40.273  26.818  28.155  1.00  0.00    -0.014 A 
ATOM     63  C   UNL A   1      40.750  26.770  26.838  1.00  0.00     0.009 A 
ATOM     64  C   UNL A   1      39.586  25.706  28.672  1.00  0.00     0.009 A 
ATOM     65  C   UNL A   1      40.533  25.637  26.049  1.00  0.00     0.001 A 
ATOM     66  C   UNL A   1      39.393  24.565  27.891  1.00  0.00     0.001 A 
ATOM     67  C   UNL A   1      39.863  24.533  26.580  1.00  0.00     0.000 A 
ENDBRANCH  48  62
BRANCH  49  68
ATOM     68  C   UNL A   1      41.727  34.399  34.471  1.00  0.00    -0.014 A 
ATOM     69  C   UNL A   1      41.121  34.313  35.734  1.00  0.00     0.009 A 
ATOM     70  C   UNL A   1      42.478  35.543  34.158  1.00  0.00     0.009 A 
ATOM     71  C   UNL A   1      41.228  35.368  36.645  1.00  0.00     0.001 A 
ATOM     72  C   UNL A   1      42.613  36.580  35.084  1.00  0.00     0.001 A 
ATOM     73  C   UNL A   1      41.976  36.498  36.320  1.00  0.00     0.000 A 
ENDBRANCH  49  68
BRANCH  61  74
ATOM     74  C   UNL A   1      45.288  28.610  32.977  1.00  0.00    -0.014 A 
ATOM     75  C   UNL A   1      46.547  28.944  32.455  1.00  0.00     0.009 A 
ATOM     76  C   UNL A   1      45.216  27.749  34.084  1.00  0.00     0.009 A 
ATOM     77  C   UNL A   1      47.707  28.408  33.013  1.00  0.00     0.001 A 
ATOM     78  C   UNL A   1      46.381  27.239  34.660  1.00  0.00     0.001 A 
ATOM     79  C   UNL A   1      47.625  27.562  34.119  1.00  0.00     0.000 A 
ENDBRANCH  61  74
ENDBRANCH  35  36
ENDBRANCH  27  30
ENDBRANCH  25  26
ENDBRANCH  24  25
ENDBRANCH  23  24
ENDBRANCH   1  23
TORSDOF 16
ENDMDL
MODEL 3
REMARK VINA RESULT:     -10.4      3.625      8.416
REMARK SMILES C[C@@H](C(=O)NCCCCCCNC(=O)c1ccc(-c2c3nc(c(-c4ccccc4)c4ccc([nH]4)c(-c4ccccc4)c4nc(c(-c5ccccc5)c5ccc2[nH]5)C=C4)C=C3)cc1)c1ccc(Cc2ccsc2)cc1F
REMARK SMILES IDX 8 1 7 2 6 3 5 4 3 5 4 6 2 8 1 9 63 10 64 11 74 12 65 13
REMARK SMILES IDX 73 14 75 15 66 16 67 17 68 18 69 19 72 20 70 21 71 22 9 23
REMARK SMILES IDX 10 24 11 25 12 26 13 27 14 29 15 30 16 31 62 32 17 33 61 34
REMARK SMILES IDX 18 35 19 36 20 37 55 38 21 39 60 40 54 41 56 42 22 43 59 44
REMARK SMILES IDX 53 45 52 46 23 48 45 49 30 50 44 51 31 52 34 53 43 54 57 55
REMARK SMILES IDX 32 56 33 57 42 59 58 60 35 61 24 62 25 63 29 64 26 65 28 66
REMARK SMILES IDX 27 67 46 68 47 69 51 70 48 71 50 72 49 73 36 74 37 75 41 76
REMARK SMILES IDX 38 77 40 78 39 79
REMARK H PARENT 5 7 12 28 56 47 34 58
REMARK Flexibility Score: inf
ROOT
ATOM      1  C   UNL A   1      34.637  24.863  24.394  1.00  0.00     0.002 C 
ENDROOT
BRANCH   1   2
ATOM      2  C   UNL A   1      33.718  25.309  23.247  1.00  0.00     0.021 C 
BRANCH   2   3
ATOM      3  C   UNL A   1      32.300  25.679  23.694  1.00  0.00     0.116 C 
BRANCH   3   4
ATOM      4  N   UNL A   1      32.256  25.838  25.131  1.00  0.00    -0.356 N 
ATOM      5  C   UNL A   1      31.592  25.122  26.080  1.00  0.00     0.227 C 
ATOM      6  O   UNL A   1      31.588  25.598  27.218  1.00  0.00    -0.274 OA
ATOM      7  H   UNL A   1      32.791  26.587  25.480  1.00  0.00     0.163 HD
BRANCH   5   8
ATOM      8  C   UNL A   1      30.934  23.776  25.724  1.00  0.00     0.108 C 
ATOM      9  C   UNL A   1      29.949  23.283  26.791  1.00  0.00     0.023 C 
BRANCH   8  10
ATOM     10  C   UNL A   1      31.975  22.691  25.475  1.00  0.00    -0.000 A 
ATOM     11  C   UNL A   1      32.858  22.299  26.491  1.00  0.00     0.008 A 
ATOM     12  C   UNL A   1      32.074  22.051  24.238  1.00  0.00     0.127 A 
ATOM     13  C   UNL A   1      33.786  21.281  26.279  1.00  0.00     0.004 A 
ATOM     14  C   UNL A   1      33.018  21.046  24.011  1.00  0.00     0.043 A 
ATOM     15  F   UNL A   1      31.232  22.379  23.246  1.00  0.00    -0.207 F 
ATOM     16  C   UNL A   1      33.890  20.645  25.035  1.00  0.00    -0.041 A 
BRANCH  16  17
ATOM     17  C   UNL A   1      34.866  19.512  24.832  1.00  0.00     0.072 C 
BRANCH  17  18
ATOM     18  C   UNL A   1      34.094  18.229  24.687  1.00  0.00    -0.033 A 
ATOM     19  C   UNL A   1      34.163  17.320  23.574  1.00  0.00     0.015 A 
ATOM     20  C   UNL A   1      33.270  17.705  25.670  1.00  0.00     0.068 A 
ATOM     21  C   UNL A   1      33.389  16.193  23.743  1.00  0.00     0.065 A 
ATOM     22  S   UNL A   1      32.592  16.192  25.251  1.00  0.00    -0.152 S 
ENDBRANCH  17  18
ENDBRANCH  16  17
ENDBRANCH   8  10
ENDBRANCH   5   8
ENDBRANCH   3   4
ENDBRANCH   2   3
ENDBRANCH   1   2
BRANCH   1  23
ATOM     23  C   UNL A   1      35.491  23.627  24.097  1.00  0.00     0.002 C 
BRANCH  23  24
ATOM     24  C   UNL A   1      36.906  23.672  24.676  1.00  0.00     0.021 C 
BRANCH  24  25
ATOM     25  C   UNL A   1      37.064  22.948  26.009  1.00  0.00     0.116 C 
BRANCH  25  26
ATOM     26  N   UNL A   1      38.342  22.258  26.109  1.00  0.00    -0.352 N 
ATOM     27  C   UNL A   1      39.579  22.760  26.426  1.00  0.00     0.251 C 
ATOM     28  H   UNL A   1      38.314  21.292  25.921  1.00  0.00     0.163 HD
ATOM     29  O   UNL A   1      40.587  22.078  26.264  1.00  0.00    -0.269 OA
BRANCH  27  30
ATOM     30  C   UNL A   1      39.698  24.140  26.938  1.00  0.00     0.039 A 
ATOM     31  C   UNL A   1      39.243  24.424  28.228  1.00  0.00     0.014 A 
ATOM     32  C   UNL A   1      40.279  25.144  26.158  1.00  0.00     0.014 A 
ATOM     33  C   UNL A   1      39.452  25.694  28.769  1.00  0.00     0.010 A 
ATOM     34  C   UNL A   1      40.546  26.388  26.722  1.00  0.00     0.010 A 
ATOM     35  C   UNL A   1      40.153  26.670  28.039  1.00  0.00    -0.014 A 
BRANCH  35  36
ATOM     36  C   UNL A   1      40.545  27.960  28.661  1.00  0.00     0.031 A 
ATOM     37  C   UNL A   1      41.903  28.130  29.282  1.00  0.00     0.074 A 
ATOM     38  C   UNL A   1      39.635  28.952  28.745  1.00  0.00     0.049 A 
ATOM     39  N   UNL A   1      42.382  29.152  29.944  1.00  0.00    -0.248 NA
ATOM     40  C   UNL A   1      42.839  27.000  29.162  1.00  0.00     0.031 C 
ATOM     41  C   UNL A   1      38.267  28.894  28.219  1.00  0.00     0.029 A 
ATOM     42  N   UNL A   1      39.714  30.197  29.320  1.00  0.00    -0.354 N 
ATOM     43  C   UNL A   1      43.663  28.783  30.336  1.00  0.00     0.074 A 
ATOM     44  C   UNL A   1      43.877  27.433  29.864  1.00  0.00     0.031 C 
ATOM     45  C   UNL A   1      37.644  30.054  28.485  1.00  0.00     0.029 A 
ATOM     46  C   UNL A   1      38.544  30.916  29.242  1.00  0.00     0.049 A 
ATOM     47  H   UNL A   1      40.532  30.542  29.746  1.00  0.00     0.167 HD
ATOM     48  C   UNL A   1      44.578  29.511  31.020  1.00  0.00     0.031 A 
ATOM     49  C   UNL A   1      38.220  32.121  29.748  1.00  0.00     0.031 A 
ATOM     50  C   UNL A   1      44.367  30.860  31.472  1.00  0.00     0.049 A 
ATOM     51  C   UNL A   1      39.250  32.888  30.529  1.00  0.00     0.074 A 
ATOM     52  C   UNL A   1      45.270  31.707  32.094  1.00  0.00     0.029 A 
ATOM     53  N   UNL A   1      43.173  31.553  31.370  1.00  0.00    -0.354 N 
ATOM     54  N   UNL A   1      40.493  32.567  30.796  1.00  0.00    -0.248 NA
ATOM     55  C   UNL A   1      38.835  34.187  31.081  1.00  0.00     0.031 C 
ATOM     56  C   UNL A   1      44.599  32.885  32.434  1.00  0.00     0.029 A 
ATOM     57  C   UNL A   1      43.299  32.796  31.966  1.00  0.00     0.049 A 
ATOM     58  H   UNL A   1      42.356  31.212  30.938  1.00  0.00     0.167 HD
ATOM     59  C   UNL A   1      41.010  33.628  31.529  1.00  0.00     0.074 A 
ATOM     60  C   UNL A   1      39.957  34.615  31.639  1.00  0.00     0.031 C 
ATOM     61  C   UNL A   1      42.243  33.768  32.070  1.00  0.00     0.031 A 
BRANCH  48  62
ATOM     62  C   UNL A   1      45.898  28.868  31.342  1.00  0.00    -0.014 A 
ATOM     63  C   UNL A   1      46.088  28.145  32.528  1.00  0.00     0.009 A 
ATOM     64  C   UNL A   1      46.933  28.903  30.392  1.00  0.00     0.009 A 
ATOM     65  C   UNL A   1      47.295  27.482  32.765  1.00  0.00     0.001 A 
ATOM     66  C   UNL A   1      48.128  28.219  30.619  1.00  0.00     0.001 A 
ATOM     67  C   UNL A   1      48.309  27.512  31.807  1.00  0.00     0.000 A 
ENDBRANCH  48  62
BRANCH  49  68
ATOM     68  C   UNL A   1      36.848  32.669  29.572  1.00  0.00    -0.014 A 
ATOM     69  C   UNL A   1      35.837  32.389  30.503  1.00  0.00     0.009 A 
ATOM     70  C   UNL A   1      36.531  33.439  28.441  1.00  0.00     0.009 A 
ATOM     71  C   UNL A   1      34.529  32.832  30.285  1.00  0.00     0.001 A 
ATOM     72  C   UNL A   1      35.231  33.911  28.244  1.00  0.00     0.001 A 
ATOM     73  C   UNL A   1      34.229  33.594  29.158  1.00  0.00     0.000 A 
ENDBRANCH  49  68
BRANCH  61  74
ATOM     74  C   UNL A   1      42.528  35.038  32.820  1.00  0.00    -0.014 A 
ATOM     75  C   UNL A   1      42.127  35.197  34.156  1.00  0.00     0.009 A 
ATOM     76  C   UNL A   1      43.255  36.067  32.201  1.00  0.00     0.009 A 
ATOM     77  C   UNL A   1      42.426  36.371  34.847  1.00  0.00     0.001 A 
ATOM     78  C   UNL A   1      43.580  37.228  32.905  1.00  0.00     0.001 A 
ATOM     79  C   UNL A   1      43.158  37.382  34.225  1.00  0.00     0.000 A 
ENDBRANCH  61  74
ENDBRANCH  35  36
ENDBRANCH  27  30
ENDBRANCH  25  26
ENDBRANCH  24  25
ENDBRANCH  23  24
ENDBRANCH   1  23
TORSDOF 16
ENDMDL
