MODEL 1
REMARK VINA RESULT:      -9.6      0.000      0.000
REMARK SMILES Nc1ccccc1C(=O)NCc1ccc(C(=O)NCCCCCCNC(=O)c2ccc(-c3c4nc(c(-c5ccccc5)c5ccc([nH]5)c(-c5ccccc5)c5nc(c(-c6ccccc6)c6ccc3[nH]6)C=C5)C=C4)cc2)o1
REMARK SMILES IDX 20 1 19 2 18 3 16 4 17 5 15 7 12 8 13 9 76 10 14 11 11 12
REMARK SMILES IDX 10 13 8 14 9 15 7 17 2 18 3 19 4 20 6 21 5 22 1 23 21 26
REMARK SMILES IDX 22 27 23 28 24 29 25 30 26 31 27 33 28 34 29 35 75 36 30 37
REMARK SMILES IDX 74 38 31 39 32 40 33 41 68 42 34 43 73 44 67 45 69 46 35 47
REMARK SMILES IDX 72 48 66 49 65 50 36 52 58 53 43 54 57 55 44 56 47 57 56 58
REMARK SMILES IDX 70 59 45 60 46 61 55 63 71 64 48 65 37 66 38 67 42 68 39 69
REMARK SMILES IDX 41 70 40 71 59 72 60 73 64 74 61 75 63 76 62 77 49 78 50 79
REMARK SMILES IDX 54 80 51 81 53 82 52 83
REMARK H PARENT 18 6 10 16 1 24 1 25 25 32 69 51 47 62
REMARK Flexibility Score: inf
ROOT
ATOM      1  C   UNL A   1      45.814  24.207  24.672  1.00  0.00     0.021 C 
ENDROOT
BRANCH   1   2
ATOM      2  C   UNL A   1      46.877  25.022  25.403  1.00  0.00     0.116 C 
BRANCH   2   3
ATOM      3  N   UNL A   1      47.302  26.108  24.563  1.00  0.00    -0.349 N 
ATOM      4  C   UNL A   1      46.747  27.344  24.380  1.00  0.00     0.286 C 
ATOM      5  O   UNL A   1      47.293  28.053  23.528  1.00  0.00    -0.266 OA
ATOM      6  H   UNL A   1      48.119  25.936  24.041  1.00  0.00     0.163 HD
BRANCH   4   7
ATOM      7  C   UNL A   1      45.630  27.798  25.184  1.00  0.00     0.191 A 
ATOM      8  C   UNL A   1      44.759  29.319  26.538  1.00  0.00     0.124 A 
ATOM      9  C   UNL A   1      43.837  28.303  26.477  1.00  0.00     0.048 A 
ATOM     10  O   UNL A   1      45.815  29.024  25.742  1.00  0.00    -0.454 OA
ATOM     11  C   UNL A   1      44.383  27.339  25.577  1.00  0.00     0.056 A 
BRANCH   8  12
ATOM     12  C   UNL A   1      44.910  30.639  27.167  1.00  0.00     0.191 C 
BRANCH  12  13
ATOM     13  N   UNL A   1      46.015  31.420  26.687  1.00  0.00    -0.345 N 
ATOM     14  C   UNL A   1      46.040  32.767  26.402  1.00  0.00     0.253 C 
ATOM     15  O   UNL A   1      47.123  33.262  26.086  1.00  0.00    -0.269 OA
ATOM     16  H   UNL A   1      46.858  30.933  26.544  1.00  0.00     0.164 HD
BRANCH  14  17
ATOM     17  C   UNL A   1      44.807  33.620  26.353  1.00  0.00     0.062 A 
ATOM     18  C   UNL A   1      43.994  33.875  25.228  1.00  0.00     0.044 A 
ATOM     19  C   UNL A   1      42.986  34.850  25.334  1.00  0.00     0.026 A 
ATOM     20  C   UNL A   1      42.688  35.462  26.551  1.00  0.00     0.002 A 
ATOM     21  C   UNL A   1      44.468  34.218  27.585  1.00  0.00     0.016 A 
ATOM     22  C   UNL A   1      43.406  35.117  27.687  1.00  0.00     0.001 A 
BRANCH  18  23
ATOM     23  N   UNL A   1      44.101  33.211  24.012  1.00  0.00    -0.398 N 
ATOM     24  H   UNL A   1      44.985  33.080  23.599  1.00  0.00     0.156 HD
ATOM     25  H   UNL A   1      43.294  32.869  23.564  1.00  0.00     0.156 HD
ENDBRANCH  18  23
ENDBRANCH  14  17
ENDBRANCH  12  13
ENDBRANCH   8  12
ENDBRANCH   4   7
ENDBRANCH   2   3
ENDBRANCH   1   2
BRANCH   1  26
ATOM     26  C   UNL A   1      46.315  22.806  24.299  1.00  0.00     0.002 C 
BRANCH  26  27
ATOM     27  C   UNL A   1      45.828  21.696  25.240  1.00  0.00     0.002 C 
BRANCH  27  28
ATOM     28  C   UNL A   1      45.041  20.583  24.545  1.00  0.00     0.021 C 
BRANCH  28  29
ATOM     29  C   UNL A   1      44.544  19.508  25.502  1.00  0.00     0.116 C 
BRANCH  29  30
ATOM     30  N   UNL A   1      43.149  19.183  25.245  1.00  0.00    -0.352 N 
ATOM     31  C   UNL A   1      42.025  19.792  25.736  1.00  0.00     0.251 C 
ATOM     32  H   UNL A   1      42.993  18.424  24.639  1.00  0.00     0.163 HD
ATOM     33  O   UNL A   1      40.930  19.240  25.660  1.00  0.00    -0.269 OA
BRANCH  31  34
ATOM     34  C   UNL A   1      42.147  21.119  26.366  1.00  0.00     0.039 A 
ATOM     35  C   UNL A   1      42.186  21.212  27.758  1.00  0.00     0.014 A 
ATOM     36  C   UNL A   1      42.236  22.265  25.572  1.00  0.00     0.014 A 
ATOM     37  C   UNL A   1      42.367  22.460  28.354  1.00  0.00     0.010 A 
ATOM     38  C   UNL A   1      42.501  23.494  26.164  1.00  0.00     0.010 A 
ATOM     39  C   UNL A   1      42.559  23.604  27.562  1.00  0.00    -0.014 A 
BRANCH  39  40
ATOM     40  C   UNL A   1      42.820  24.927  28.176  1.00  0.00     0.031 A 
ATOM     41  C   UNL A   1      44.196  25.271  28.673  1.00  0.00     0.074 A 
ATOM     42  C   UNL A   1      41.802  25.796  28.337  1.00  0.00     0.049 A 
ATOM     43  N   UNL A   1      44.607  26.358  29.275  1.00  0.00    -0.248 NA
ATOM     44  C   UNL A   1      45.242  24.250  28.495  1.00  0.00     0.031 C 
ATOM     45  C   UNL A   1      40.413  25.561  27.935  1.00  0.00     0.029 A 
ATOM     46  N   UNL A   1      41.781  27.052  28.888  1.00  0.00    -0.354 N 
ATOM     47  C   UNL A   1      45.950  26.146  29.559  1.00  0.00     0.074 A 
ATOM     48  C   UNL A   1      46.271  24.806  29.118  1.00  0.00     0.031 C 
ATOM     49  C   UNL A   1      39.684  26.651  28.219  1.00  0.00     0.029 A 
ATOM     50  C   UNL A   1      40.540  27.641  28.865  1.00  0.00     0.049 A 
ATOM     51  H   UNL A   1      42.578  27.490  29.264  1.00  0.00     0.167 HD
ATOM     52  C   UNL A   1      46.844  26.997  30.117  1.00  0.00     0.031 A 
ATOM     53  C   UNL A   1      40.135  28.841  29.320  1.00  0.00     0.031 A 
ATOM     54  C   UNL A   1      46.523  28.329  30.551  1.00  0.00     0.049 A 
ATOM     55  C   UNL A   1      41.141  29.758  29.960  1.00  0.00     0.074 A 
ATOM     56  C   UNL A   1      47.367  29.290  31.078  1.00  0.00     0.029 A 
ATOM     57  N   UNL A   1      45.254  28.887  30.515  1.00  0.00    -0.354 N 
ATOM     58  N   UNL A   1      42.425  29.571  30.152  1.00  0.00    -0.248 NA
ATOM     59  C   UNL A   1      40.642  31.054  30.436  1.00  0.00     0.031 C 
ATOM     60  C   UNL A   1      46.598  30.406  31.420  1.00  0.00     0.029 A 
ATOM     61  C   UNL A   1      45.286  30.168  31.040  1.00  0.00     0.049 A 
ATOM     62  H   UNL A   1      44.449  28.439  30.168  1.00  0.00     0.167 HD
ATOM     63  C   UNL A   1      42.892  30.738  30.743  1.00  0.00     0.074 A 
ATOM     64  C   UNL A   1      41.759  31.631  30.859  1.00  0.00     0.031 C 
ATOM     65  C   UNL A   1      44.149  31.043  31.153  1.00  0.00     0.031 A 
BRANCH  52  66
ATOM     66  C   UNL A   1      48.254  26.502  30.296  1.00  0.00    -0.014 A 
ATOM     67  C   UNL A   1      49.240  26.739  29.324  1.00  0.00     0.009 A 
ATOM     68  C   UNL A   1      48.610  25.820  31.468  1.00  0.00     0.009 A 
ATOM     69  C   UNL A   1      50.542  26.267  29.506  1.00  0.00     0.001 A 
ATOM     70  C   UNL A   1      49.920  25.378  31.663  1.00  0.00     0.001 A 
ATOM     71  C   UNL A   1      50.882  25.592  30.677  1.00  0.00     0.000 A 
ENDBRANCH  52  66
BRANCH  53  72
ATOM     72  C   UNL A   1      38.714  29.253  29.178  1.00  0.00    -0.014 A 
ATOM     73  C   UNL A   1      37.817  29.099  30.247  1.00  0.00     0.009 A 
ATOM     74  C   UNL A   1      38.240  29.790  27.971  1.00  0.00     0.009 A 
ATOM     75  C   UNL A   1      36.472  29.445  30.100  1.00  0.00     0.001 A 
ATOM     76  C   UNL A   1      36.902  30.166  27.837  1.00  0.00     0.001 A 
ATOM     77  C   UNL A   1      36.017  29.983  28.896  1.00  0.00     0.000 A 
ENDBRANCH  53  72
BRANCH  65  78
ATOM     78  C   UNL A   1      44.369  32.413  31.731  1.00  0.00    -0.014 A 
ATOM     79  C   UNL A   1      44.767  33.492  30.927  1.00  0.00     0.009 A 
ATOM     80  C   UNL A   1      44.135  32.634  33.097  1.00  0.00     0.009 A 
ATOM     81  C   UNL A   1      44.960  34.757  31.487  1.00  0.00     0.001 A 
ATOM     82  C   UNL A   1      44.294  33.905  33.648  1.00  0.00     0.001 A 
ATOM     83  C   UNL A   1      44.718  34.963  32.846  1.00  0.00     0.000 A 
ENDBRANCH  65  78
ENDBRANCH  39  40
ENDBRANCH  31  34
ENDBRANCH  29  30
ENDBRANCH  28  29
ENDBRANCH  27  28
ENDBRANCH  26  27
ENDBRANCH   1  26
TORSDOF 17
ENDMDL
MODEL 2
REMARK VINA RESULT:      -9.5      6.954     12.552
REMARK SMILES Nc1ccccc1C(=O)NCc1ccc(C(=O)NCCCCCCNC(=O)c2ccc(-c3c4nc(c(-c5ccccc5)c5ccc([nH]5)c(-c5ccccc5)c5nc(c(-c6ccccc6)c6ccc3[nH]6)C=C5)C=C4)cc2)o1
REMARK SMILES IDX 20 1 19 2 18 3 16 4 17 5 15 7 12 8 13 9 76 10 14 11 11 12
REMARK SMILES IDX 10 13 8 14 9 15 7 17 2 18 3 19 4 20 6 21 5 22 1 23 21 26
REMARK SMILES IDX 22 27 23 28 24 29 25 30 26 31 27 33 28 34 29 35 75 36 30 37
REMARK SMILES IDX 74 38 31 39 32 40 33 41 68 42 34 43 73 44 67 45 69 46 35 47
REMARK SMILES IDX 72 48 66 49 65 50 36 52 58 53 43 54 57 55 44 56 47 57 56 58
REMARK SMILES IDX 70 59 45 60 46 61 55 63 71 64 48 65 37 66 38 67 42 68 39 69
REMARK SMILES IDX 41 70 40 71 59 72 60 73 64 74 61 75 63 76 62 77 49 78 50 79
REMARK SMILES IDX 54 80 51 81 53 82 52 83
REMARK H PARENT 18 6 10 16 1 24 1 25 25 32 69 51 47 62
REMARK Flexibility Score: inf
ROOT
ATOM      1  C   UNL A   1      35.682  31.930  27.992  1.00  0.00     0.021 C 
ENDROOT
BRANCH   1   2
ATOM      2  C   UNL A   1      34.875  30.662  27.728  1.00  0.00     0.116 C 
BRANCH   2   3
ATOM      3  N   UNL A   1      33.480  30.996  27.647  1.00  0.00    -0.349 N 
ATOM      4  C   UNL A   1      32.543  30.634  26.719  1.00  0.00     0.286 C 
ATOM      5  O   UNL A   1      31.425  31.138  26.864  1.00  0.00    -0.266 OA
ATOM      6  H   UNL A   1      33.146  31.573  28.372  1.00  0.00     0.163 HD
BRANCH   4   7
ATOM      7  C   UNL A   1      32.845  29.672  25.677  1.00  0.00     0.191 A 
ATOM      8  C   UNL A   1      32.248  28.653  23.804  1.00  0.00     0.124 A 
ATOM      9  C   UNL A   1      33.421  28.056  24.195  1.00  0.00     0.048 A 
ATOM     10  O   UNL A   1      31.924  29.636  24.678  1.00  0.00    -0.454 OA
ATOM     11  C   UNL A   1      33.823  28.736  25.384  1.00  0.00     0.056 A 
BRANCH   8  12
ATOM     12  C   UNL A   1      31.282  28.572  22.699  1.00  0.00     0.191 C 
BRANCH  12  13
ATOM     13  N   UNL A   1      29.969  28.124  23.070  1.00  0.00    -0.345 N 
ATOM     14  C   UNL A   1      28.771  28.781  22.899  1.00  0.00     0.253 C 
ATOM     15  O   UNL A   1      27.742  28.177  23.207  1.00  0.00    -0.269 OA
ATOM     16  H   UNL A   1      29.919  27.240  23.499  1.00  0.00     0.164 HD
BRANCH  14  17
ATOM     17  C   UNL A   1      28.672  30.214  22.465  1.00  0.00     0.062 A 
ATOM     18  C   UNL A   1      29.018  31.356  23.219  1.00  0.00     0.044 A 
ATOM     19  C   UNL A   1      28.682  32.623  22.712  1.00  0.00     0.026 A 
ATOM     20  C   UNL A   1      28.145  32.779  21.435  1.00  0.00     0.002 A 
ATOM     21  C   UNL A   1      28.166  30.390  21.160  1.00  0.00     0.016 A 
ATOM     22  C   UNL A   1      27.922  31.663  20.643  1.00  0.00     0.001 A 
BRANCH  18  23
ATOM     23  N   UNL A   1      29.696  31.323  24.432  1.00  0.00    -0.398 N 
ATOM     24  H   UNL A   1      29.193  31.229  25.274  1.00  0.00     0.156 HD
ATOM     25  H   UNL A   1      30.677  31.392  24.451  1.00  0.00     0.156 HD
ENDBRANCH  18  23
ENDBRANCH  14  17
ENDBRANCH  12  13
ENDBRANCH   8  12
ENDBRANCH   4   7
ENDBRANCH   2   3
ENDBRANCH   1   2
BRANCH   1  26
ATOM     26  C   UNL A   1      34.953  32.893  28.938  1.00  0.00     0.002 C 
BRANCH  26  27
ATOM     27  C   UNL A   1      35.345  34.366  28.757  1.00  0.00     0.002 C 
BRANCH  27  28
ATOM     28  C   UNL A   1      34.191  35.351  28.955  1.00  0.00     0.021 C 
BRANCH  28  29
ATOM     29  C   UNL A   1      33.007  34.752  29.702  1.00  0.00     0.116 C 
BRANCH  29  30
ATOM     30  N   UNL A   1      32.551  35.641  30.760  1.00  0.00    -0.352 N 
ATOM     31  C   UNL A   1      32.916  35.657  32.079  1.00  0.00     0.251 C 
ATOM     32  H   UNL A   1      31.893  36.321  30.491  1.00  0.00     0.163 HD
ATOM     33  O   UNL A   1      32.247  36.272  32.906  1.00  0.00    -0.269 OA
BRANCH  31  34
ATOM     34  C   UNL A   1      34.120  34.918  32.499  1.00  0.00     0.039 A 
ATOM     35  C   UNL A   1      33.988  33.615  32.981  1.00  0.00     0.014 A 
ATOM     36  C   UNL A   1      35.379  35.518  32.400  1.00  0.00     0.014 A 
ATOM     37  C   UNL A   1      35.132  32.892  33.316  1.00  0.00     0.010 A 
ATOM     38  C   UNL A   1      36.520  34.767  32.653  1.00  0.00     0.010 A 
ATOM     39  C   UNL A   1      36.407  33.450  33.124  1.00  0.00    -0.014 A 
BRANCH  39  40
ATOM     40  C   UNL A   1      37.636  32.673  33.411  1.00  0.00     0.031 A 
ATOM     41  C   UNL A   1      38.412  32.926  34.674  1.00  0.00     0.074 A 
ATOM     42  C   UNL A   1      38.084  31.782  32.505  1.00  0.00     0.049 A 
ATOM     43  N   UNL A   1      39.529  32.378  35.077  1.00  0.00    -0.248 NA
ATOM     44  C   UNL A   1      37.876  33.945  35.590  1.00  0.00     0.031 C 
ATOM     45  C   UNL A   1      37.443  31.479  31.223  1.00  0.00     0.029 A 
ATOM     46  N   UNL A   1      39.188  30.969  32.525  1.00  0.00    -0.354 N 
ATOM     47  C   UNL A   1      39.836  32.994  36.284  1.00  0.00     0.074 A 
ATOM     48  C   UNL A   1      38.821  33.998  36.518  1.00  0.00     0.031 C 
ATOM     49  C   UNL A   1      38.145  30.522  30.597  1.00  0.00     0.029 A 
ATOM     50  C   UNL A   1      39.308  30.177  31.408  1.00  0.00     0.049 A 
ATOM     51  H   UNL A   1      39.834  30.953  33.268  1.00  0.00     0.167 HD
ATOM     52  C   UNL A   1      40.859  32.735  37.132  1.00  0.00     0.031 A 
ATOM     53  C   UNL A   1      40.253  29.280  31.072  1.00  0.00     0.031 A 
ATOM     54  C   UNL A   1      41.864  31.735  36.899  1.00  0.00     0.049 A 
ATOM     55  C   UNL A   1      41.393  29.029  32.019  1.00  0.00     0.074 A 
ATOM     56  C   UNL A   1      42.910  31.356  37.722  1.00  0.00     0.029 A 
ATOM     57  N   UNL A   1      41.954  30.957  35.754  1.00  0.00    -0.354 N 
ATOM     58  N   UNL A   1      41.628  29.568  33.192  1.00  0.00    -0.248 NA
ATOM     59  C   UNL A   1      42.393  28.038  31.600  1.00  0.00     0.031 C 
ATOM     60  C   UNL A   1      43.669  30.395  37.048  1.00  0.00     0.029 A 
ATOM     61  C   UNL A   1      43.056  30.123  35.835  1.00  0.00     0.049 A 
ATOM     62  H   UNL A   1      41.327  30.993  34.996  1.00  0.00     0.167 HD
ATOM     63  C   UNL A   1      42.784  28.959  33.663  1.00  0.00     0.074 A 
ATOM     64  C   UNL A   1      43.191  27.999  32.658  1.00  0.00     0.031 C 
ATOM     65  C   UNL A   1      43.450  29.176  34.825  1.00  0.00     0.031 A 
BRANCH  52  66
ATOM     66  C   UNL A   1      40.942  33.558  38.390  1.00  0.00    -0.014 A 
ATOM     67  C   UNL A   1      41.690  34.745  38.438  1.00  0.00     0.009 A 
ATOM     68  C   UNL A   1      40.234  33.158  39.533  1.00  0.00     0.009 A 
ATOM     69  C   UNL A   1      41.760  35.492  39.616  1.00  0.00     0.001 A 
ATOM     70  C   UNL A   1      40.278  33.924  40.699  1.00  0.00     0.001 A 
ATOM     71  C   UNL A   1      41.050  35.083  40.744  1.00  0.00     0.000 A 
ENDBRANCH  52  66
BRANCH  53  72
ATOM     72  C   UNL A   1      40.159  28.543  29.784  1.00  0.00    -0.014 A 
ATOM     73  C   UNL A   1      39.534  27.287  29.724  1.00  0.00     0.009 A 
ATOM     74  C   UNL A   1      40.702  29.084  28.608  1.00  0.00     0.009 A 
ATOM     75  C   UNL A   1      39.484  26.576  28.523  1.00  0.00     0.001 A 
ATOM     76  C   UNL A   1      40.621  28.386  27.401  1.00  0.00     0.001 A 
ATOM     77  C   UNL A   1      40.024  27.128  27.362  1.00  0.00     0.000 A 
ENDBRANCH  53  72
BRANCH  65  78
ATOM     78  C   UNL A   1      44.667  28.333  35.087  1.00  0.00    -0.014 A 
ATOM     79  C   UNL A   1      45.950  28.763  34.713  1.00  0.00     0.009 A 
ATOM     80  C   UNL A   1      44.529  27.107  35.755  1.00  0.00     0.009 A 
ATOM     81  C   UNL A   1      47.066  27.964  34.972  1.00  0.00     0.001 A 
ATOM     82  C   UNL A   1      45.649  26.326  36.044  1.00  0.00     0.001 A 
ATOM     83  C   UNL A   1      46.915  26.749  35.642  1.00  0.00     0.000 A 
ENDBRANCH  65  78
ENDBRANCH  39  40
ENDBRANCH  31  34
ENDBRANCH  29  30
ENDBRANCH  28  29
ENDBRANCH  27  28
ENDBRANCH  26  27
ENDBRANCH   1  26
TORSDOF 17
ENDMDL
MODEL 3
REMARK VINA RESULT:      -9.3      4.900     10.895
REMARK SMILES Nc1ccccc1C(=O)NCc1ccc(C(=O)NCCCCCCNC(=O)c2ccc(-c3c4nc(c(-c5ccccc5)c5ccc([nH]5)c(-c5ccccc5)c5nc(c(-c6ccccc6)c6ccc3[nH]6)C=C5)C=C4)cc2)o1
REMARK SMILES IDX 20 1 19 2 18 3 16 4 17 5 15 7 12 8 13 9 76 10 14 11 11 12
REMARK SMILES IDX 10 13 8 14 9 15 7 17 2 18 3 19 4 20 6 21 5 22 1 23 21 26
REMARK SMILES IDX 22 27 23 28 24 29 25 30 26 31 27 33 28 34 29 35 75 36 30 37
REMARK SMILES IDX 74 38 31 39 32 40 33 41 68 42 34 43 73 44 67 45 69 46 35 47
REMARK SMILES IDX 72 48 66 49 65 50 36 52 58 53 43 54 57 55 44 56 47 57 56 58
REMARK SMILES IDX 70 59 45 60 46 61 55 63 71 64 48 65 37 66 38 67 42 68 39 69
REMARK SMILES IDX 41 70 40 71 59 72 60 73 64 74 61 75 63 76 62 77 49 78 50 79
REMARK SMILES IDX 54 80 51 81 53 82 52 83
REMARK H PARENT 18 6 10 16 1 24 1 25 25 32 69 51 47 62
REMARK Flexibility Score: inf
ROOT
ATOM      1  C   UNL A   1      31.482  29.087  23.320  1.00  0.00     0.021 C 
ENDROOT
BRANCH   1   2
ATOM      2  C   UNL A   1      32.971  28.953  23.017  1.00  0.00     0.116 C 
BRANCH   2   3
ATOM      3  N   UNL A   1      33.169  27.892  22.067  1.00  0.00    -0.349 N 
ATOM      4  C   UNL A   1      33.423  26.565  22.276  1.00  0.00     0.286 C 
ATOM      5  O   UNL A   1      33.625  25.895  21.258  1.00  0.00    -0.266 OA
ATOM      6  H   UNL A   1      33.111  28.163  21.122  1.00  0.00     0.163 HD
BRANCH   4   7
ATOM      7  C   UNL A   1      33.392  25.989  23.605  1.00  0.00     0.191 A 
ATOM      8  C   UNL A   1      32.445  24.608  25.055  1.00  0.00     0.124 A 
ATOM      9  C   UNL A   1      33.420  25.273  25.756  1.00  0.00     0.048 A 
ATOM     10  O   UNL A   1      32.451  25.021  23.764  1.00  0.00    -0.454 OA
ATOM     11  C   UNL A   1      34.053  26.138  24.814  1.00  0.00     0.056 A 
BRANCH   8  12
ATOM     12  C   UNL A   1      31.443  23.556  25.281  1.00  0.00     0.191 C 
BRANCH  12  13
ATOM     13  N   UNL A   1      31.396  22.534  24.273  1.00  0.00    -0.345 N 
ATOM     14  C   UNL A   1      32.375  21.623  23.946  1.00  0.00     0.253 C 
ATOM     15  O   UNL A   1      32.095  20.766  23.106  1.00  0.00    -0.269 OA
ATOM     16  H   UNL A   1      30.562  22.479  23.753  1.00  0.00     0.164 HD
BRANCH  14  17
ATOM     17  C   UNL A   1      33.777  21.694  24.476  1.00  0.00     0.062 A 
ATOM     18  C   UNL A   1      34.252  21.165  25.694  1.00  0.00     0.044 A 
ATOM     19  C   UNL A   1      35.556  21.494  26.106  1.00  0.00     0.026 A 
ATOM     20  C   UNL A   1      36.424  22.208  25.281  1.00  0.00     0.002 A 
ATOM     21  C   UNL A   1      34.678  22.381  23.636  1.00  0.00     0.016 A 
ATOM     22  C   UNL A   1      35.996  22.620  24.027  1.00  0.00     0.001 A 
BRANCH  18  23
ATOM     23  N   UNL A   1      33.527  20.315  26.520  1.00  0.00    -0.398 N 
ATOM     24  H   UNL A   1      33.193  20.638  27.389  1.00  0.00     0.156 HD
ATOM     25  H   UNL A   1      33.346  19.389  26.238  1.00  0.00     0.156 HD
ENDBRANCH  18  23
ENDBRANCH  14  17
ENDBRANCH  12  13
ENDBRANCH   8  12
ENDBRANCH   4   7
ENDBRANCH   2   3
ENDBRANCH   1   2
BRANCH   1  26
ATOM     26  C   UNL A   1      31.124  28.548  24.710  1.00  0.00     0.002 C 
BRANCH  26  27
ATOM     27  C   UNL A   1      31.742  29.342  25.869  1.00  0.00     0.002 C 
BRANCH  27  28
ATOM     28  C   UNL A   1      32.328  28.473  26.983  1.00  0.00     0.021 C 
BRANCH  28  29
ATOM     29  C   UNL A   1      33.721  28.908  27.418  1.00  0.00     0.116 C 
BRANCH  29  30
ATOM     30  N   UNL A   1      33.715  30.285  27.890  1.00  0.00    -0.352 N 
ATOM     31  C   UNL A   1      34.670  30.942  28.619  1.00  0.00     0.251 C 
ATOM     32  H   UNL A   1      32.920  30.814  27.654  1.00  0.00     0.163 HD
ATOM     33  O   UNL A   1      34.408  32.003  29.181  1.00  0.00    -0.269 OA
BRANCH  31  34
ATOM     34  C   UNL A   1      36.018  30.355  28.729  1.00  0.00     0.039 A 
ATOM     35  C   UNL A   1      36.859  30.366  27.616  1.00  0.00     0.014 A 
ATOM     36  C   UNL A   1      36.446  29.809  29.942  1.00  0.00     0.014 A 
ATOM     37  C   UNL A   1      38.157  29.871  27.737  1.00  0.00     0.010 A 
ATOM     38  C   UNL A   1      37.765  29.395  30.082  1.00  0.00     0.010 A 
ATOM     39  C   UNL A   1      38.630  29.413  28.978  1.00  0.00    -0.014 A 
BRANCH  39  40
ATOM     40  C   UNL A   1      40.027  28.946  29.142  1.00  0.00     0.031 A 
ATOM     41  C   UNL A   1      41.075  29.876  29.688  1.00  0.00     0.074 A 
ATOM     42  C   UNL A   1      40.361  27.703  28.745  1.00  0.00     0.049 A 
ATOM     43  N   UNL A   1      42.354  29.662  29.863  1.00  0.00    -0.248 NA
ATOM     44  C   UNL A   1      40.634  31.230  30.060  1.00  0.00     0.031 C 
ATOM     45  C   UNL A   1      39.443  26.722  28.161  1.00  0.00     0.029 A 
ATOM     46  N   UNL A   1      41.569  27.053  28.770  1.00  0.00    -0.354 N 
ATOM     47  C   UNL A   1      42.871  30.856  30.351  1.00  0.00     0.074 A 
ATOM     48  C   UNL A   1      41.781  31.806  30.388  1.00  0.00     0.031 C 
ATOM     49  C   UNL A   1      40.113  25.584  27.917  1.00  0.00     0.029 A 
ATOM     50  C   UNL A   1      41.514  25.770  28.282  1.00  0.00     0.049 A 
ATOM     51  H   UNL A   1      42.398  27.466  29.106  1.00  0.00     0.167 HD
ATOM     52  C   UNL A   1      44.134  31.132  30.753  1.00  0.00     0.031 A 
ATOM     53  C   UNL A   1      42.484  24.848  28.138  1.00  0.00     0.031 A 
ATOM     54  C   UNL A   1      45.214  30.184  30.719  1.00  0.00     0.049 A 
ATOM     55  C   UNL A   1      43.885  25.188  28.567  1.00  0.00     0.074 A 
ATOM     56  C   UNL A   1      46.517  30.347  31.155  1.00  0.00     0.029 A 
ATOM     57  N   UNL A   1      45.119  28.896  30.213  1.00  0.00    -0.354 N 
ATOM     58  N   UNL A   1      44.341  26.298  29.097  1.00  0.00    -0.248 NA
ATOM     59  C   UNL A   1      44.901  24.144  28.388  1.00  0.00     0.031 C 
ATOM     60  C   UNL A   1      47.226  29.180  30.855  1.00  0.00     0.029 A 
ATOM     61  C   UNL A   1      46.348  28.264  30.297  1.00  0.00     0.049 A 
ATOM     62  H   UNL A   1      44.299  28.491  29.849  1.00  0.00     0.167 HD
ATOM     63  C   UNL A   1      45.690  26.073  29.342  1.00  0.00     0.074 A 
ATOM     64  C   UNL A   1      45.972  24.717  28.920  1.00  0.00     0.031 C 
ATOM     65  C   UNL A   1      46.613  26.915  29.869  1.00  0.00     0.031 A 
BRANCH  52  66
ATOM     66  C   UNL A   1      44.414  32.522  31.257  1.00  0.00    -0.014 A 
ATOM     67  C   UNL A   1      44.822  33.546  30.386  1.00  0.00     0.009 A 
ATOM     68  C   UNL A   1      44.233  32.822  32.615  1.00  0.00     0.009 A 
ATOM     69  C   UNL A   1      45.083  34.828  30.873  1.00  0.00     0.001 A 
ATOM     70  C   UNL A   1      44.461  34.113  33.094  1.00  0.00     0.001 A 
ATOM     71  C   UNL A   1      44.897  35.112  32.226  1.00  0.00     0.000 A 
ENDBRANCH  52  66
BRANCH  53  72
ATOM     72  C   UNL A   1      42.166  23.512  27.571  1.00  0.00    -0.014 A 
ATOM     73  C   UNL A   1      41.708  22.475  28.400  1.00  0.00     0.009 A 
ATOM     74  C   UNL A   1      42.329  23.258  26.199  1.00  0.00     0.009 A 
ATOM     75  C   UNL A   1      41.451  21.208  27.874  1.00  0.00     0.001 A 
ATOM     76  C   UNL A   1      42.039  21.999  25.670  1.00  0.00     0.001 A 
ATOM     77  C   UNL A   1      41.612  20.972  26.509  1.00  0.00     0.000 A 
ENDBRANCH  53  72
BRANCH  65  78
ATOM     78  C   UNL A   1      48.006  26.379  30.053  1.00  0.00    -0.014 A 
ATOM     79  C   UNL A   1      49.002  26.582  29.085  1.00  0.00     0.009 A 
ATOM     80  C   UNL A   1      48.335  25.695  31.233  1.00  0.00     0.009 A 
ATOM     81  C   UNL A   1      50.290  26.079  29.282  1.00  0.00     0.001 A 
ATOM     82  C   UNL A   1      49.631  25.224  31.443  1.00  0.00     0.001 A 
ATOM     83  C   UNL A   1      50.604  25.405  30.462  1.00  0.00     0.000 A 
ENDBRANCH  65  78
ENDBRANCH  39  40
ENDBRANCH  31  34
ENDBRANCH  29  30
ENDBRANCH  28  29
ENDBRANCH  27  28
ENDBRANCH  26  27
ENDBRANCH   1  26
TORSDOF 17
ENDMDL
