MODEL 1
REMARK VINA RESULT:     -11.5      0.000      0.000
REMARK SMILES Cc1ncccc1C(=O)Nc1ccccc1C(=O)NCCCCCCNC(=O)c1ccc(-c2c3nc(c(-c4ccccc4)c4ccc([nH]4)c(-c4ccccc4)c4nc(c(-c5ccccc5)c5ccc2[nH]5)C=C4)C=C3)cc1
REMARK SMILES IDX 22 1 21 2 20 3 19 4 17 5 18 6 16 8 11 9 12 10 13 11 15 12
REMARK SMILES IDX 14 13 10 14 8 15 9 16 7 18 1 19 2 20 3 21 4 22 6 23 5 24
REMARK SMILES IDX 23 25 24 26 25 27 26 28 27 29 28 31 29 32 30 33 76 34 31 35
REMARK SMILES IDX 75 36 32 37 33 38 34 39 69 40 35 41 74 42 68 43 70 44 36 45
REMARK SMILES IDX 73 46 67 47 66 48 37 50 59 51 44 52 58 53 45 54 48 55 57 56
REMARK SMILES IDX 71 57 46 58 47 59 56 61 72 62 49 63 38 64 39 65 43 66 40 67
REMARK SMILES IDX 42 68 41 69 60 70 61 71 65 72 62 73 64 74 63 75 50 76 51 77
REMARK SMILES IDX 55 78 52 79 54 80 53 81
REMARK H PARENT 19 7 10 17 26 30 70 49 48 60
REMARK Flexibility Score: inf
ROOT
ATOM      1  C   UNL A   1      35.928  23.131  25.453  1.00  0.00     0.002 C 
ENDROOT
BRANCH   1   2
ATOM      2  C   UNL A   1      34.527  23.257  26.062  1.00  0.00     0.021 C 
BRANCH   2   3
ATOM      3  C   UNL A   1      33.801  24.576  25.815  1.00  0.00     0.116 C 
BRANCH   3   4
ATOM      4  N   UNL A   1      32.405  24.567  26.186  1.00  0.00    -0.352 N 
ATOM      5  C   UNL A   1      31.491  25.592  26.245  1.00  0.00     0.253 C 
ATOM      6  O   UNL A   1      30.346  25.307  26.602  1.00  0.00    -0.269 OA
ATOM      7  H   UNL A   1      32.050  23.683  26.437  1.00  0.00     0.163 HD
BRANCH   5   8
ATOM      8  C   UNL A   1      31.835  27.029  26.010  1.00  0.00     0.063 A 
ATOM      9  C   UNL A   1      32.259  27.641  24.820  1.00  0.00     0.054 A 
ATOM     10  C   UNL A   1      32.770  28.957  24.869  1.00  0.00     0.027 A 
ATOM     11  C   UNL A   1      32.683  29.728  26.025  1.00  0.00     0.002 A 
ATOM     12  C   UNL A   1      31.740  27.837  27.168  1.00  0.00     0.016 A 
ATOM     13  C   UNL A   1      32.126  29.179  27.169  1.00  0.00     0.001 A 
BRANCH   9  14
ATOM     14  N   UNL A   1      32.161  27.158  23.503  1.00  0.00    -0.321 N 
ATOM     15  C   UNL A   1      31.225  27.303  22.510  1.00  0.00     0.257 C 
ATOM     16  O   UNL A   1      31.394  26.649  21.477  1.00  0.00    -0.269 OA
ATOM     17  H   UNL A   1      32.925  26.598  23.237  1.00  0.00     0.170 HD
BRANCH  15  18
ATOM     18  C   UNL A   1      30.041  28.180  22.591  1.00  0.00     0.061 A 
ATOM     19  C   UNL A   1      28.507  26.575  23.874  1.00  0.00     0.067 C 
ATOM     20  C   UNL A   1      28.814  27.865  23.178  1.00  0.00     0.050 A 
ATOM     21  N   UNL A   1      27.785  28.759  23.214  1.00  0.00    -0.261 NA
ATOM     22  C   UNL A   1      27.988  29.994  22.707  1.00  0.00     0.111 A 
ATOM     23  C   UNL A   1      30.232  29.496  22.141  1.00  0.00     0.017 A 
ATOM     24  C   UNL A   1      29.194  30.416  22.189  1.00  0.00     0.021 A 
ENDBRANCH  15  18
ENDBRANCH   9  14
ENDBRANCH   5   8
ENDBRANCH   3   4
ENDBRANCH   2   3
ENDBRANCH   1   2
BRANCH   1  25
ATOM     25  C   UNL A   1      36.159  22.001  24.443  1.00  0.00     0.002 C 
BRANCH  25  26
ATOM     26  C   UNL A   1      36.972  20.797  24.920  1.00  0.00     0.021 C 
BRANCH  26  27
ATOM     27  C   UNL A   1      38.306  21.118  25.586  1.00  0.00     0.116 C 
BRANCH  27  28
ATOM     28  N   UNL A   1      39.234  19.999  25.573  1.00  0.00    -0.352 N 
ATOM     29  C   UNL A   1      40.554  19.943  25.950  1.00  0.00     0.251 C 
ATOM     30  H   UNL A   1      38.858  19.150  25.243  1.00  0.00     0.163 HD
ATOM     31  O   UNL A   1      41.213  18.934  25.745  1.00  0.00    -0.269 OA
BRANCH  29  32
ATOM     32  C   UNL A   1      41.187  21.123  26.577  1.00  0.00     0.039 A 
ATOM     33  C   UNL A   1      41.838  22.048  25.757  1.00  0.00     0.014 A 
ATOM     34  C   UNL A   1      41.123  21.325  27.957  1.00  0.00     0.014 A 
ATOM     35  C   UNL A   1      42.347  23.225  26.311  1.00  0.00     0.010 A 
ATOM     36  C   UNL A   1      41.567  22.528  28.497  1.00  0.00     0.010 A 
ATOM     37  C   UNL A   1      42.168  23.495  27.677  1.00  0.00    -0.014 A 
BRANCH  37  38
ATOM     38  C   UNL A   1      42.546  24.805  28.261  1.00  0.00     0.031 A 
ATOM     39  C   UNL A   1      41.518  25.882  28.447  1.00  0.00     0.074 A 
ATOM     40  C   UNL A   1      43.840  25.051  28.540  1.00  0.00     0.049 A 
ATOM     41  N   UNL A   1      41.679  27.114  28.864  1.00  0.00    -0.248 NA
ATOM     42  C   UNL A   1      40.133  25.540  28.095  1.00  0.00     0.031 C 
ATOM     43  C   UNL A   1      44.937  24.092  28.382  1.00  0.00     0.029 A 
ATOM     44  N   UNL A   1      44.455  26.184  29.008  1.00  0.00    -0.354 N 
ATOM     45  C   UNL A   1      40.420  27.696  28.811  1.00  0.00     0.074 A 
ATOM     46  C   UNL A   1      39.517  26.700  28.274  1.00  0.00     0.031 C 
ATOM     47  C   UNL A   1      46.082  24.667  28.780  1.00  0.00     0.029 A 
ATOM     48  C   UNL A   1      45.812  26.047  29.166  1.00  0.00     0.049 A 
ATOM     49  H   UNL A   1      43.969  27.016  29.210  1.00  0.00     0.167 HD
ATOM     50  C   UNL A   1      40.047  28.943  29.184  1.00  0.00     0.031 A 
ATOM     51  C   UNL A   1      46.740  26.937  29.565  1.00  0.00     0.031 A 
ATOM     52  C   UNL A   1      40.952  29.935  29.701  1.00  0.00     0.049 A 
ATOM     53  C   UNL A   1      46.314  28.337  29.905  1.00  0.00     0.074 A 
ATOM     54  C   UNL A   1      40.667  31.209  30.163  1.00  0.00     0.029 A 
ATOM     55  N   UNL A   1      42.326  29.772  29.808  1.00  0.00    -0.354 N 
ATOM     56  N   UNL A   1      45.109  28.853  29.920  1.00  0.00    -0.248 NA
ATOM     57  C   UNL A   1      47.378  29.279  30.276  1.00  0.00     0.031 C 
ATOM     58  C   UNL A   1      41.875  31.840  30.479  1.00  0.00     0.029 A 
ATOM     59  C   UNL A   1      42.907  30.937  30.279  1.00  0.00     0.049 A 
ATOM     60  H   UNL A   1      42.816  28.948  29.582  1.00  0.00     0.167 HD
ATOM     61  C   UNL A   1      45.266  30.171  30.325  1.00  0.00     0.074 A 
ATOM     62  C   UNL A   1      46.683  30.372  30.559  1.00  0.00     0.031 C 
ATOM     63  C   UNL A   1      44.321  31.129  30.490  1.00  0.00     0.031 A 
BRANCH  50  64
ATOM     64  C   UNL A   1      38.597  29.309  29.006  1.00  0.00    -0.014 A 
ATOM     65  C   UNL A   1      37.676  29.194  30.061  1.00  0.00     0.009 A 
ATOM     66  C   UNL A   1      38.145  29.777  27.762  1.00  0.00     0.009 A 
ATOM     67  C   UNL A   1      36.325  29.484  29.857  1.00  0.00     0.001 A 
ATOM     68  C   UNL A   1      36.801  30.101  27.572  1.00  0.00     0.001 A 
ATOM     69  C   UNL A   1      35.888  29.938  28.614  1.00  0.00     0.000 A 
ENDBRANCH  50  64
BRANCH  51  70
ATOM     70  C   UNL A   1      48.162  26.522  29.681  1.00  0.00    -0.014 A 
ATOM     71  C   UNL A   1      48.633  25.952  30.874  1.00  0.00     0.009 A 
ATOM     72  C   UNL A   1      49.048  26.666  28.602  1.00  0.00     0.009 A 
ATOM     73  C   UNL A   1      49.965  25.549  30.989  1.00  0.00     0.001 A 
ATOM     74  C   UNL A   1      50.372  26.235  28.710  1.00  0.00     0.001 A 
ATOM     75  C   UNL A   1      50.831  25.682  29.905  1.00  0.00     0.000 A 
ENDBRANCH  51  70
BRANCH  63  76
ATOM     76  C   UNL A   1      44.785  32.480  30.958  1.00  0.00    -0.014 A 
ATOM     77  C   UNL A   1      44.882  32.783  32.326  1.00  0.00     0.009 A 
ATOM     78  C   UNL A   1      45.181  33.445  30.019  1.00  0.00     0.009 A 
ATOM     79  C   UNL A   1      45.344  34.034  32.741  1.00  0.00     0.001 A 
ATOM     80  C   UNL A   1      45.672  34.683  30.438  1.00  0.00     0.001 A 
ATOM     81  C   UNL A   1      45.746  34.979  31.798  1.00  0.00     0.000 A 
ENDBRANCH  63  76
ENDBRANCH  37  38
ENDBRANCH  29  32
ENDBRANCH  27  28
ENDBRANCH  26  27
ENDBRANCH  25  26
ENDBRANCH   1  25
TORSDOF 15
ENDMDL
MODEL 2
REMARK VINA RESULT:     -11.3      0.959      2.063
REMARK SMILES Cc1ncccc1C(=O)Nc1ccccc1C(=O)NCCCCCCNC(=O)c1ccc(-c2c3nc(c(-c4ccccc4)c4ccc([nH]4)c(-c4ccccc4)c4nc(c(-c5ccccc5)c5ccc2[nH]5)C=C4)C=C3)cc1
REMARK SMILES IDX 22 1 21 2 20 3 19 4 17 5 18 6 16 8 11 9 12 10 13 11 15 12
REMARK SMILES IDX 14 13 10 14 8 15 9 16 7 18 1 19 2 20 3 21 4 22 6 23 5 24
REMARK SMILES IDX 23 25 24 26 25 27 26 28 27 29 28 31 29 32 30 33 76 34 31 35
REMARK SMILES IDX 75 36 32 37 33 38 34 39 69 40 35 41 74 42 68 43 70 44 36 45
REMARK SMILES IDX 73 46 67 47 66 48 37 50 59 51 44 52 58 53 45 54 48 55 57 56
REMARK SMILES IDX 71 57 46 58 47 59 56 61 72 62 49 63 38 64 39 65 43 66 40 67
REMARK SMILES IDX 42 68 41 69 60 70 61 71 65 72 62 73 64 74 63 75 50 76 51 77
REMARK SMILES IDX 55 78 52 79 54 80 53 81
REMARK H PARENT 19 7 10 17 26 30 70 49 48 60
REMARK Flexibility Score: inf
ROOT
ATOM      1  C   UNL A   1      35.766  23.482  25.372  1.00  0.00     0.002 C 
ENDROOT
BRANCH   1   2
ATOM      2  C   UNL A   1      34.301  23.600  25.807  1.00  0.00     0.021 C 
BRANCH   2   3
ATOM      3  C   UNL A   1      33.711  25.006  25.814  1.00  0.00     0.116 C 
BRANCH   3   4
ATOM      4  N   UNL A   1      32.302  25.061  26.124  1.00  0.00    -0.352 N 
ATOM      5  C   UNL A   1      31.460  26.140  26.264  1.00  0.00     0.253 C 
ATOM      6  O   UNL A   1      30.282  25.903  26.538  1.00  0.00    -0.269 OA
ATOM      7  H   UNL A   1      31.873  24.185  26.257  1.00  0.00     0.163 HD
BRANCH   5   8
ATOM      8  C   UNL A   1      31.915  27.563  26.210  1.00  0.00     0.063 A 
ATOM      9  C   UNL A   1      31.759  28.492  25.169  1.00  0.00     0.054 A 
ATOM     10  C   UNL A   1      32.477  29.707  25.218  1.00  0.00     0.027 A 
ATOM     11  C   UNL A   1      33.179  30.091  26.357  1.00  0.00     0.002 A 
ATOM     12  C   UNL A   1      32.619  27.982  27.365  1.00  0.00     0.016 A 
ATOM     13  C   UNL A   1      33.215  29.242  27.452  1.00  0.00     0.001 A 
BRANCH   9  14
ATOM     14  N   UNL A   1      30.878  28.438  24.074  1.00  0.00    -0.321 N 
ATOM     15  C   UNL A   1      30.844  27.691  22.923  1.00  0.00     0.257 C 
ATOM     16  O   UNL A   1      29.968  27.966  22.099  1.00  0.00    -0.269 OA
ATOM     17  H   UNL A   1      30.127  29.070  24.149  1.00  0.00     0.170 HD
BRANCH  15  18
ATOM     18  C   UNL A   1      31.774  26.589  22.607  1.00  0.00     0.061 A 
ATOM     19  C   UNL A   1      33.858  28.013  22.160  1.00  0.00     0.067 C 
ATOM     20  C   UNL A   1      33.116  26.715  22.246  1.00  0.00     0.050 A 
ATOM     21  N   UNL A   1      33.896  25.626  21.990  1.00  0.00    -0.261 NA
ATOM     22  C   UNL A   1      33.354  24.399  22.141  1.00  0.00     0.111 A 
ATOM     23  C   UNL A   1      31.273  25.296  22.822  1.00  0.00     0.017 A 
ATOM     24  C   UNL A   1      32.065  24.183  22.579  1.00  0.00     0.021 A 
ENDBRANCH  15  18
ENDBRANCH   9  14
ENDBRANCH   5   8
ENDBRANCH   3   4
ENDBRANCH   2   3
ENDBRANCH   1   2
BRANCH   1  25
ATOM     25  C   UNL A   1      36.104  22.429  24.311  1.00  0.00     0.002 C 
BRANCH  25  26
ATOM     26  C   UNL A   1      36.822  21.165  24.788  1.00  0.00     0.021 C 
BRANCH  26  27
ATOM     27  C   UNL A   1      38.119  21.388  25.556  1.00  0.00     0.116 C 
BRANCH  27  28
ATOM     28  N   UNL A   1      38.996  20.228  25.545  1.00  0.00    -0.352 N 
ATOM     29  C   UNL A   1      40.311  20.112  25.925  1.00  0.00     0.251 C 
ATOM     30  H   UNL A   1      38.583  19.397  25.213  1.00  0.00     0.163 HD
ATOM     31  O   UNL A   1      40.925  19.074  25.720  1.00  0.00    -0.269 OA
BRANCH  29  32
ATOM     32  C   UNL A   1      40.995  21.261  26.555  1.00  0.00     0.039 A 
ATOM     33  C   UNL A   1      41.647  22.185  25.734  1.00  0.00     0.014 A 
ATOM     34  C   UNL A   1      40.978  21.437  27.940  1.00  0.00     0.014 A 
ATOM     35  C   UNL A   1      42.205  23.335  26.295  1.00  0.00     0.010 A 
ATOM     36  C   UNL A   1      41.472  22.615  28.490  1.00  0.00     0.010 A 
ATOM     37  C   UNL A   1      42.074  23.583  27.671  1.00  0.00    -0.014 A 
BRANCH  37  38
ATOM     38  C   UNL A   1      42.506  24.869  28.268  1.00  0.00     0.031 A 
ATOM     39  C   UNL A   1      41.514  25.969  28.511  1.00  0.00     0.074 A 
ATOM     40  C   UNL A   1      43.815  25.076  28.508  1.00  0.00     0.049 A 
ATOM     41  N   UNL A   1      41.721  27.186  28.948  1.00  0.00    -0.248 NA
ATOM     42  C   UNL A   1      40.109  25.669  28.200  1.00  0.00     0.031 C 
ATOM     43  C   UNL A   1      44.880  24.094  28.293  1.00  0.00     0.029 A 
ATOM     44  N   UNL A   1      44.475  26.183  28.978  1.00  0.00    -0.354 N 
ATOM     45  C   UNL A   1      40.477  27.801  28.949  1.00  0.00     0.074 A 
ATOM     46  C   UNL A   1      39.530  26.841  28.423  1.00  0.00     0.031 C 
ATOM     47  C   UNL A   1      46.053  24.631  28.663  1.00  0.00     0.029 A 
ATOM     48  C   UNL A   1      45.833  26.008  29.087  1.00  0.00     0.049 A 
ATOM     49  H   UNL A   1      44.018  27.023  29.214  1.00  0.00     0.167 HD
ATOM     50  C   UNL A   1      40.149  29.050  29.361  1.00  0.00     0.031 A 
ATOM     51  C   UNL A   1      46.796  26.865  29.472  1.00  0.00     0.031 A 
ATOM     52  C   UNL A   1      41.097  30.007  29.868  1.00  0.00     0.049 A 
ATOM     53  C   UNL A   1      46.419  28.268  29.855  1.00  0.00     0.074 A 
ATOM     54  C   UNL A   1      40.861  31.277  30.365  1.00  0.00     0.029 A 
ATOM     55  N   UNL A   1      42.469  29.806  29.924  1.00  0.00    -0.354 N 
ATOM     56  N   UNL A   1      45.229  28.814  29.922  1.00  0.00    -0.248 NA
ATOM     57  C   UNL A   1      47.519  29.174  30.210  1.00  0.00     0.031 C 
ATOM     58  C   UNL A   1      42.095  31.870  30.652  1.00  0.00     0.029 A 
ATOM     59  C   UNL A   1      43.096  30.946  30.399  1.00  0.00     0.049 A 
ATOM     60  H   UNL A   1      42.929  28.975  29.664  1.00  0.00     0.167 HD
ATOM     61  C   UNL A   1      45.434  30.119  30.348  1.00  0.00     0.074 A 
ATOM     62  C   UNL A   1      46.863  30.279  30.538  1.00  0.00     0.031 C 
ATOM     63  C   UNL A   1      44.520  31.096  30.566  1.00  0.00     0.031 A 
BRANCH  50  64
ATOM     64  C   UNL A   1      38.704  29.456  29.240  1.00  0.00    -0.014 A 
ATOM     65  C   UNL A   1      38.197  30.022  28.058  1.00  0.00     0.009 A 
ATOM     66  C   UNL A   1      37.835  29.270  30.326  1.00  0.00     0.009 A 
ATOM     67  C   UNL A   1      36.868  30.445  27.988  1.00  0.00     0.001 A 
ATOM     68  C   UNL A   1      36.498  29.660  30.241  1.00  0.00     0.001 A 
ATOM     69  C   UNL A   1      36.019  30.262  29.078  1.00  0.00     0.000 A 
ENDBRANCH  50  64
BRANCH  51  70
ATOM     70  C   UNL A   1      48.209  26.411  29.532  1.00  0.00    -0.014 A 
ATOM     71  C   UNL A   1      49.056  26.601  28.428  1.00  0.00     0.009 A 
ATOM     72  C   UNL A   1      48.729  25.813  30.690  1.00  0.00     0.009 A 
ATOM     73  C   UNL A   1      50.389  26.187  28.479  1.00  0.00     0.001 A 
ATOM     74  C   UNL A   1      50.071  25.427  30.749  1.00  0.00     0.001 A 
ATOM     75  C   UNL A   1      50.897  25.609  29.641  1.00  0.00     0.000 A 
ENDBRANCH  51  70
BRANCH  63  76
ATOM     76  C   UNL A   1      45.035  32.425  31.045  1.00  0.00    -0.014 A 
ATOM     77  C   UNL A   1      45.354  33.452  30.142  1.00  0.00     0.009 A 
ATOM     78  C   UNL A   1      45.151  32.672  32.423  1.00  0.00     0.009 A 
ATOM     79  C   UNL A   1      45.802  34.689  30.609  1.00  0.00     0.001 A 
ATOM     80  C   UNL A   1      45.570  33.920  32.887  1.00  0.00     0.001 A 
ATOM     81  C   UNL A   1      45.901  34.925  31.980  1.00  0.00     0.000 A 
ENDBRANCH  63  76
ENDBRANCH  37  38
ENDBRANCH  29  32
ENDBRANCH  27  28
ENDBRANCH  26  27
ENDBRANCH  25  26
ENDBRANCH   1  25
TORSDOF 15
ENDMDL
MODEL 3
REMARK VINA RESULT:     -11.1      4.074      8.778
REMARK SMILES Cc1ncccc1C(=O)Nc1ccccc1C(=O)NCCCCCCNC(=O)c1ccc(-c2c3nc(c(-c4ccccc4)c4ccc([nH]4)c(-c4ccccc4)c4nc(c(-c5ccccc5)c5ccc2[nH]5)C=C4)C=C3)cc1
REMARK SMILES IDX 22 1 21 2 20 3 19 4 17 5 18 6 16 8 11 9 12 10 13 11 15 12
REMARK SMILES IDX 14 13 10 14 8 15 9 16 7 18 1 19 2 20 3 21 4 22 6 23 5 24
REMARK SMILES IDX 23 25 24 26 25 27 26 28 27 29 28 31 29 32 30 33 76 34 31 35
REMARK SMILES IDX 75 36 32 37 33 38 34 39 69 40 35 41 74 42 68 43 70 44 36 45
REMARK SMILES IDX 73 46 67 47 66 48 37 50 59 51 44 52 58 53 45 54 48 55 57 56
REMARK SMILES IDX 71 57 46 58 47 59 56 61 72 62 49 63 38 64 39 65 43 66 40 67
REMARK SMILES IDX 42 68 41 69 60 70 61 71 65 72 62 73 64 74 63 75 50 76 51 77
REMARK SMILES IDX 55 78 52 79 54 80 53 81
REMARK H PARENT 19 7 10 17 26 30 70 49 48 60
REMARK Flexibility Score: inf
ROOT
ATOM      1  C   UNL A   1      32.917  29.960  26.989  1.00  0.00     0.002 C 
ENDROOT
BRANCH   1   2
ATOM      2  C   UNL A   1      32.924  28.450  27.253  1.00  0.00     0.021 C 
BRANCH   2   3
ATOM      3  C   UNL A   1      31.559  27.789  27.423  1.00  0.00     0.116 C 
BRANCH   3   4
ATOM      4  N   UNL A   1      31.499  26.419  26.969  1.00  0.00    -0.352 N 
ATOM      5  C   UNL A   1      31.012  25.887  25.798  1.00  0.00     0.253 C 
ATOM      6  O   UNL A   1      31.081  24.664  25.663  1.00  0.00    -0.269 OA
ATOM      7  H   UNL A   1      31.866  25.758  27.600  1.00  0.00     0.163 HD
BRANCH   5   8
ATOM      8  C   UNL A   1      30.315  26.690  24.746  1.00  0.00     0.063 A 
ATOM      9  C   UNL A   1      30.805  27.785  24.017  1.00  0.00     0.054 A 
ATOM     10  C   UNL A   1      29.905  28.556  23.249  1.00  0.00     0.027 A 
ATOM     11  C   UNL A   1      28.591  28.146  23.040  1.00  0.00     0.002 A 
ATOM     12  C   UNL A   1      28.982  26.282  24.505  1.00  0.00     0.016 A 
ATOM     13  C   UNL A   1      28.139  26.980  23.637  1.00  0.00     0.001 A 
BRANCH   9  14
ATOM     14  N   UNL A   1      32.138  28.199  23.848  1.00  0.00    -0.321 N 
ATOM     15  C   UNL A   1      33.318  27.529  23.642  1.00  0.00     0.257 C 
ATOM     16  O   UNL A   1      34.353  28.201  23.636  1.00  0.00    -0.269 OA
ATOM     17  H   UNL A   1      32.248  29.177  23.884  1.00  0.00     0.170 HD
BRANCH  15  18
ATOM     18  C   UNL A   1      33.433  26.073  23.428  1.00  0.00     0.061 A 
ATOM     19  C   UNL A   1      32.228  25.961  21.168  1.00  0.00     0.067 C 
ATOM     20  C   UNL A   1      32.936  25.354  22.340  1.00  0.00     0.050 A 
ATOM     21  N   UNL A   1      33.111  24.006  22.229  1.00  0.00    -0.261 NA
ATOM     22  C   UNL A   1      33.829  23.372  23.182  1.00  0.00     0.111 A 
ATOM     23  C   UNL A   1      34.232  25.387  24.356  1.00  0.00     0.017 A 
ATOM     24  C   UNL A   1      34.429  24.018  24.241  1.00  0.00     0.021 A 
ENDBRANCH  15  18
ENDBRANCH   9  14
ENDBRANCH   5   8
ENDBRANCH   3   4
ENDBRANCH   2   3
ENDBRANCH   1   2
BRANCH   1  25
ATOM     25  C   UNL A   1      31.600  30.587  26.516  1.00  0.00     0.002 C 
BRANCH  25  26
ATOM     26  C   UNL A   1      31.443  32.097  26.703  1.00  0.00     0.021 C 
BRANCH  26  27
ATOM     27  C   UNL A   1      32.652  32.825  27.278  1.00  0.00     0.116 C 
BRANCH  27  28
ATOM     28  N   UNL A   1      32.369  34.206  27.637  1.00  0.00    -0.352 N 
ATOM     29  C   UNL A   1      32.965  35.014  28.574  1.00  0.00     0.251 C 
ATOM     30  H   UNL A   1      31.637  34.626  27.129  1.00  0.00     0.163 HD
ATOM     31  O   UNL A   1      32.501  36.117  28.826  1.00  0.00    -0.269 OA
BRANCH  29  32
ATOM     32  C   UNL A   1      34.155  34.530  29.307  1.00  0.00     0.039 A 
ATOM     33  C   UNL A   1      33.978  33.961  30.571  1.00  0.00     0.014 A 
ATOM     34  C   UNL A   1      35.431  34.619  28.747  1.00  0.00     0.014 A 
ATOM     35  C   UNL A   1      35.070  33.398  31.235  1.00  0.00     0.010 A 
ATOM     36  C   UNL A   1      36.504  33.997  29.375  1.00  0.00     0.010 A 
ATOM     37  C   UNL A   1      36.330  33.366  30.617  1.00  0.00    -0.014 A 
BRANCH  37  38
ATOM     38  C   UNL A   1      37.467  32.630  31.220  1.00  0.00     0.031 A 
ATOM     39  C   UNL A   1      38.090  33.103  32.500  1.00  0.00     0.074 A 
ATOM     40  C   UNL A   1      37.996  31.581  30.559  1.00  0.00     0.049 A 
ATOM     41  N   UNL A   1      39.139  32.636  33.130  1.00  0.00    -0.248 NA
ATOM     42  C   UNL A   1      37.467  34.268  33.145  1.00  0.00     0.031 C 
ATOM     43  C   UNL A   1      37.494  31.039  29.294  1.00  0.00     0.029 A 
ATOM     44  N   UNL A   1      39.076  30.790  30.854  1.00  0.00    -0.354 N 
ATOM     45  C   UNL A   1      39.310  33.459  34.235  1.00  0.00     0.074 A 
ATOM     46  C   UNL A   1      38.289  34.482  34.162  1.00  0.00     0.031 C 
ATOM     47  C   UNL A   1      38.244  29.983  28.942  1.00  0.00     0.029 A 
ATOM     48  C   UNL A   1      39.309  29.809  29.923  1.00  0.00     0.049 A 
ATOM     49  H   UNL A   1      39.632  30.915  31.657  1.00  0.00     0.167 HD
ATOM     50  C   UNL A   1      40.229  33.365  35.227  1.00  0.00     0.031 A 
ATOM     51  C   UNL A   1      40.281  28.880  29.856  1.00  0.00     0.031 A 
ATOM     52  C   UNL A   1      41.253  32.355  35.285  1.00  0.00     0.049 A 
ATOM     53  C   UNL A   1      41.332  28.840  30.929  1.00  0.00     0.074 A 
ATOM     54  C   UNL A   1      42.195  32.137  36.276  1.00  0.00     0.029 A 
ATOM     55  N   UNL A   1      41.482  31.404  34.301  1.00  0.00    -0.354 N 
ATOM     56  N   UNL A   1      41.439  29.578  32.007  1.00  0.00    -0.248 NA
ATOM     57  C   UNL A   1      42.399  27.843  30.771  1.00  0.00     0.031 C 
ATOM     58  C   UNL A   1      43.038  31.103  35.856  1.00  0.00     0.029 A 
ATOM     59  C   UNL A   1      42.580  30.631  34.636  1.00  0.00     0.049 A 
ATOM     60  H   UNL A   1      40.942  31.295  33.485  1.00  0.00     0.167 HD
ATOM     61  C   UNL A   1      42.571  29.120  32.669  1.00  0.00     0.074 A 
ATOM     62  C   UNL A   1      43.107  28.031  31.877  1.00  0.00     0.031 C 
ATOM     63  C   UNL A   1      43.114  29.561  33.829  1.00  0.00     0.031 A 
BRANCH  50  64
ATOM     64  C   UNL A   1      40.182  34.413  36.307  1.00  0.00    -0.014 A 
ATOM     65  C   UNL A   1      40.890  35.621  36.190  1.00  0.00     0.009 A 
ATOM     66  C   UNL A   1      39.416  34.188  37.462  1.00  0.00     0.009 A 
ATOM     67  C   UNL A   1      40.879  36.553  37.230  1.00  0.00     0.001 A 
ATOM     68  C   UNL A   1      39.378  35.138  38.484  1.00  0.00     0.001 A 
ATOM     69  C   UNL A   1      40.122  36.312  38.375  1.00  0.00     0.000 A 
ENDBRANCH  50  64
BRANCH  51  70
ATOM     70  C   UNL A   1      40.292  27.899  28.740  1.00  0.00    -0.014 A 
ATOM     71  C   UNL A   1      40.930  28.217  27.531  1.00  0.00     0.009 A 
ATOM     72  C   UNL A   1      39.692  26.638  28.879  1.00  0.00     0.009 A 
ATOM     73  C   UNL A   1      40.955  27.298  26.480  1.00  0.00     0.001 A 
ATOM     74  C   UNL A   1      39.744  25.709  27.837  1.00  0.00     0.001 A 
ATOM     75  C   UNL A   1      40.370  26.042  26.636  1.00  0.00     0.000 A 
ENDBRANCH  51  70
BRANCH  63  76
ATOM     76  C   UNL A   1      44.348  28.858  34.322  1.00  0.00    -0.014 A 
ATOM     77  C   UNL A   1      44.260  27.713  35.130  1.00  0.00     0.009 A 
ATOM     78  C   UNL A   1      45.616  29.316  33.928  1.00  0.00     0.009 A 
ATOM     79  C   UNL A   1      45.418  27.056  35.552  1.00  0.00     0.001 A 
ATOM     80  C   UNL A   1      46.770  28.639  34.327  1.00  0.00     0.001 A 
ATOM     81  C   UNL A   1      46.670  27.514  35.144  1.00  0.00     0.000 A 
ENDBRANCH  63  76
ENDBRANCH  37  38
ENDBRANCH  29  32
ENDBRANCH  27  28
ENDBRANCH  26  27
ENDBRANCH  25  26
ENDBRANCH   1  25
TORSDOF 15
ENDMDL
