MODEL 1
REMARK VINA RESULT:     -11.2      0.000      0.000
REMARK SMILES CC(C)Oc1ccc(/C=C(\NC(=O)c2ccccc2)C(=O)NCCCCCCNC(=O)c2ccc(-c3c4nc(c(-c5ccccc5)c5ccc([nH]5)c(-c5ccccc5)c5nc(c(-c6ccccc6)c6ccc3[nH]6)C=C5)C=C4)cc2)cc1
REMARK SMILES IDX 25 1 24 2 23 3 22 4 20 5 21 6 10 8 9 9 8 10 5 11 6 12 81 13
REMARK SMILES IDX 7 14 80 15 4 16 2 17 1 18 3 19 11 20 12 21 13 23 14 24 15 25
REMARK SMILES IDX 19 26 16 27 18 28 17 29 26 30 27 31 28 32 29 33 30 34 31 36
REMARK SMILES IDX 32 37 33 38 79 39 34 40 78 41 35 42 36 43 37 44 72 45 38 46
REMARK SMILES IDX 77 47 71 48 73 49 39 50 76 51 70 52 69 53 40 55 62 56 47 57
REMARK SMILES IDX 61 58 48 59 51 60 60 61 74 62 49 63 50 64 59 66 75 67 52 68
REMARK SMILES IDX 41 69 42 70 46 71 43 72 45 73 44 74 63 75 64 76 68 77 65 78
REMARK SMILES IDX 67 79 66 80 53 81 54 82 58 83 55 84 57 85 56 86
REMARK H PARENT 22 7 11 22 29 35 73 54 51 65
REMARK Flexibility Score: inf
ROOT
ATOM      1  C   UNL A   1      36.466  22.484  25.770  1.00  0.00     0.002 C 
ENDROOT
BRANCH   1   2
ATOM      2  C   UNL A   1      35.363  21.519  25.314  1.00  0.00     0.021 C 
BRANCH   2   3
ATOM      3  C   UNL A   1      33.961  22.071  25.030  1.00  0.00     0.116 C 
BRANCH   3   4
ATOM      4  N   UNL A   1      33.272  21.509  23.880  1.00  0.00    -0.351 N 
ATOM      5  C   UNL A   1      32.128  21.963  23.262  1.00  0.00     0.267 C 
ATOM      6  O   UNL A   1      31.622  21.295  22.360  1.00  0.00    -0.268 OA
ATOM      7  H   UNL A   1      33.674  20.698  23.493  1.00  0.00     0.163 HD
BRANCH   5   8
ATOM      8  C   UNL A   1      31.461  23.241  23.752  1.00  0.00     0.107 C 
ATOM      9  C   UNL A   1      31.579  24.297  22.916  1.00  0.00     0.040 C 
BRANCH   9  10
ATOM     10  C   UNL A   1      31.050  25.686  22.973  1.00  0.00    -0.023 A 
ATOM     11  C   UNL A   1      30.020  28.282  23.454  1.00  0.00     0.119 A 
ATOM     12  C   UNL A   1      31.291  28.116  22.923  1.00  0.00     0.047 A 
ATOM     13  C   UNL A   1      29.220  27.167  23.672  1.00  0.00     0.047 A 
ATOM     14  C   UNL A   1      31.810  26.834  22.718  1.00  0.00     0.012 A 
ATOM     15  C   UNL A   1      29.734  25.880  23.437  1.00  0.00     0.012 A 
BRANCH  11  16
ATOM     16  O   UNL A   1      29.603  29.562  23.663  1.00  0.00    -0.491 OA
BRANCH  16  17
ATOM     17  C   UNL A   1      28.400  29.987  22.996  1.00  0.00     0.167 C 
ATOM     18  C   UNL A   1      27.808  31.225  23.662  1.00  0.00     0.052 C 
ATOM     19  C   UNL A   1      28.487  30.125  21.475  1.00  0.00     0.052 C 
ENDBRANCH  16  17
ENDBRANCH  11  16
ENDBRANCH   9  10
BRANCH   8  20
ATOM     20  N   UNL A   1      30.777  23.294  24.947  1.00  0.00    -0.317 N 
ATOM     21  C   UNL A   1      31.035  23.947  26.127  1.00  0.00     0.255 C 
ATOM     22  H   UNL A   1      29.946  22.764  24.956  1.00  0.00     0.170 HD
ATOM     23  O   UNL A   1      30.436  23.623  27.150  1.00  0.00    -0.269 OA
BRANCH  21  24
ATOM     24  C   UNL A   1      32.032  25.030  26.170  1.00  0.00     0.040 A 
ATOM     25  C   UNL A   1      33.339  24.719  25.803  1.00  0.00     0.014 A 
ATOM     26  C   UNL A   1      31.675  26.344  26.471  1.00  0.00     0.014 A 
ATOM     27  C   UNL A   1      34.249  25.745  25.560  1.00  0.00     0.001 A 
ATOM     28  C   UNL A   1      32.598  27.366  26.259  1.00  0.00     0.001 A 
ATOM     29  C   UNL A   1      33.867  27.069  25.761  1.00  0.00     0.000 A 
ENDBRANCH  21  24
ENDBRANCH   8  20
ENDBRANCH   5   8
ENDBRANCH   3   4
ENDBRANCH   2   3
ENDBRANCH   1   2
BRANCH   1  30
ATOM     30  C   UNL A   1      37.926  22.102  25.533  1.00  0.00     0.002 C 
BRANCH  30  31
ATOM     31  C   UNL A   1      38.227  20.719  24.965  1.00  0.00     0.021 C 
BRANCH  31  32
ATOM     32  C   UNL A   1      38.644  19.682  26.002  1.00  0.00     0.116 C 
BRANCH  32  33
ATOM     33  N   UNL A   1      39.970  19.126  25.745  1.00  0.00    -0.352 N 
ATOM     34  C   UNL A   1      41.221  19.701  25.836  1.00  0.00     0.251 C 
ATOM     35  H   UNL A   1      39.971  18.183  25.460  1.00  0.00     0.163 HD
ATOM     36  O   UNL A   1      42.198  19.136  25.376  1.00  0.00    -0.269 OA
BRANCH  34  37
ATOM     37  C   UNL A   1      41.366  21.020  26.488  1.00  0.00     0.039 A 
ATOM     38  C   UNL A   1      41.244  21.129  27.876  1.00  0.00     0.014 A 
ATOM     39  C   UNL A   1      41.652  22.143  25.716  1.00  0.00     0.014 A 
ATOM     40  C   UNL A   1      41.520  22.351  28.496  1.00  0.00     0.010 A 
ATOM     41  C   UNL A   1      42.042  23.317  26.338  1.00  0.00     0.010 A 
ATOM     42  C   UNL A   1      41.981  23.437  27.735  1.00  0.00    -0.014 A 
BRANCH  42  43
ATOM     43  C   UNL A   1      42.411  24.719  28.347  1.00  0.00     0.031 A 
ATOM     44  C   UNL A   1      41.401  25.818  28.545  1.00  0.00     0.074 A 
ATOM     45  C   UNL A   1      43.717  24.938  28.595  1.00  0.00     0.049 A 
ATOM     46  N   UNL A   1      41.594  27.067  28.880  1.00  0.00    -0.248 NA
ATOM     47  C   UNL A   1      39.992  25.478  28.276  1.00  0.00     0.031 C 
ATOM     48  C   UNL A   1      44.798  23.969  28.394  1.00  0.00     0.029 A 
ATOM     49  N   UNL A   1      44.362  26.060  29.051  1.00  0.00    -0.354 N 
ATOM     50  C   UNL A   1      40.340  27.665  28.824  1.00  0.00     0.074 A 
ATOM     51  C   UNL A   1      39.408  26.663  28.362  1.00  0.00     0.031 C 
ATOM     52  C   UNL A   1      45.964  24.529  28.752  1.00  0.00     0.029 A 
ATOM     53  C   UNL A   1      45.725  25.910  29.153  1.00  0.00     0.049 A 
ATOM     54  H   UNL A   1      43.893  26.894  29.284  1.00  0.00     0.167 HD
ATOM     55  C   UNL A   1      39.992  28.931  29.152  1.00  0.00     0.031 A 
ATOM     56  C   UNL A   1      46.676  26.793  29.511  1.00  0.00     0.031 A 
ATOM     57  C   UNL A   1      40.921  29.912  29.641  1.00  0.00     0.049 A 
ATOM     58  C   UNL A   1      46.265  28.195  29.866  1.00  0.00     0.074 A 
ATOM     59  C   UNL A   1      40.665  31.198  30.081  1.00  0.00     0.029 A 
ATOM     60  N   UNL A   1      42.288  29.710  29.756  1.00  0.00    -0.354 N 
ATOM     61  N   UNL A   1      45.066  28.725  29.884  1.00  0.00    -0.248 NA
ATOM     62  C   UNL A   1      47.339  29.122  30.251  1.00  0.00     0.031 C 
ATOM     63  C   UNL A   1      41.886  31.794  30.407  1.00  0.00     0.029 A 
ATOM     64  C   UNL A   1      42.895  30.859  30.229  1.00  0.00     0.049 A 
ATOM     65  H   UNL A   1      42.757  28.873  29.535  1.00  0.00     0.167 HD
ATOM     66  C   UNL A   1      45.237  30.038  30.301  1.00  0.00     0.074 A 
ATOM     67  C   UNL A   1      46.654  30.217  30.547  1.00  0.00     0.031 C 
ATOM     68  C   UNL A   1      44.307  31.011  30.463  1.00  0.00     0.031 A 
BRANCH  55  69
ATOM     69  C   UNL A   1      38.548  29.319  28.993  1.00  0.00    -0.014 A 
ATOM     70  C   UNL A   1      38.032  29.720  27.748  1.00  0.00     0.009 A 
ATOM     71  C   UNL A   1      37.683  29.264  30.096  1.00  0.00     0.009 A 
ATOM     72  C   UNL A   1      36.694  30.100  27.624  1.00  0.00     0.001 A 
ATOM     73  C   UNL A   1      36.337  29.612  29.962  1.00  0.00     0.001 A 
ATOM     74  C   UNL A   1      35.847  30.042  28.730  1.00  0.00     0.000 A 
ENDBRANCH  55  69
BRANCH  56  75
ATOM     75  C   UNL A   1      48.104  26.380  29.560  1.00  0.00    -0.014 A 
ATOM     76  C   UNL A   1      48.928  26.539  28.435  1.00  0.00     0.009 A 
ATOM     77  C   UNL A   1      48.655  25.826  30.727  1.00  0.00     0.009 A 
ATOM     78  C   UNL A   1      50.263  26.127  28.468  1.00  0.00     0.001 A 
ATOM     79  C   UNL A   1      49.998  25.443  30.767  1.00  0.00     0.001 A 
ATOM     80  C   UNL A   1      50.798  25.585  29.635  1.00  0.00     0.000 A 
ENDBRANCH  56  75
BRANCH  68  81
ATOM     81  C   UNL A   1      44.789  32.349  30.946  1.00  0.00    -0.014 A 
ATOM     82  C   UNL A   1      45.128  33.367  30.042  1.00  0.00     0.009 A 
ATOM     83  C   UNL A   1      44.840  32.614  32.324  1.00  0.00     0.009 A 
ATOM     84  C   UNL A   1      45.531  34.618  30.510  1.00  0.00     0.001 A 
ATOM     85  C   UNL A   1      45.213  33.875  32.788  1.00  0.00     0.001 A 
ATOM     86  C   UNL A   1      45.565  34.873  31.881  1.00  0.00     0.000 A 
ENDBRANCH  68  81
ENDBRANCH  42  43
ENDBRANCH  34  37
ENDBRANCH  32  33
ENDBRANCH  31  32
ENDBRANCH  30  31
ENDBRANCH   1  30
TORSDOF 18
ENDMDL
MODEL 2
REMARK VINA RESULT:     -11.0      3.345      8.881
REMARK SMILES CC(C)Oc1ccc(/C=C(\NC(=O)c2ccccc2)C(=O)NCCCCCCNC(=O)c2ccc(-c3c4nc(c(-c5ccccc5)c5ccc([nH]5)c(-c5ccccc5)c5nc(c(-c6ccccc6)c6ccc3[nH]6)C=C5)C=C4)cc2)cc1
REMARK SMILES IDX 25 1 24 2 23 3 22 4 20 5 21 6 10 8 9 9 8 10 5 11 6 12 81 13
REMARK SMILES IDX 7 14 80 15 4 16 2 17 1 18 3 19 11 20 12 21 13 23 14 24 15 25
REMARK SMILES IDX 19 26 16 27 18 28 17 29 26 30 27 31 28 32 29 33 30 34 31 36
REMARK SMILES IDX 32 37 33 38 79 39 34 40 78 41 35 42 36 43 37 44 72 45 38 46
REMARK SMILES IDX 77 47 71 48 73 49 39 50 76 51 70 52 69 53 40 55 62 56 47 57
REMARK SMILES IDX 61 58 48 59 51 60 60 61 74 62 49 63 50 64 59 66 75 67 52 68
REMARK SMILES IDX 41 69 42 70 46 71 43 72 45 73 44 74 63 75 64 76 68 77 65 78
REMARK SMILES IDX 67 79 66 80 53 81 54 82 58 83 55 84 57 85 56 86
REMARK H PARENT 22 7 11 22 29 35 73 54 51 65
REMARK Flexibility Score: inf
ROOT
ATOM      1  C   UNL A   1      31.512  28.137  25.202  1.00  0.00     0.002 C 
ENDROOT
BRANCH   1   2
ATOM      2  C   UNL A   1      30.938  26.721  25.347  1.00  0.00     0.021 C 
BRANCH   2   3
ATOM      3  C   UNL A   1      30.906  25.801  24.120  1.00  0.00     0.116 C 
BRANCH   3   4
ATOM      4  N   UNL A   1      32.128  25.735  23.337  1.00  0.00    -0.351 N 
ATOM      5  C   UNL A   1      33.039  24.704  23.258  1.00  0.00     0.267 C 
ATOM      6  O   UNL A   1      34.081  24.866  22.621  1.00  0.00    -0.268 OA
ATOM      7  H   UNL A   1      32.333  26.529  22.792  1.00  0.00     0.163 HD
BRANCH   5   8
ATOM      8  C   UNL A   1      32.784  23.412  24.020  1.00  0.00     0.107 C 
ATOM      9  C   UNL A   1      32.637  22.315  23.242  1.00  0.00     0.040 C 
BRANCH   9  10
ATOM     10  C   UNL A   1      32.433  20.878  23.563  1.00  0.00    -0.023 A 
ATOM     11  C   UNL A   1      32.368  18.078  23.999  1.00  0.00     0.119 A 
ATOM     12  C   UNL A   1      32.451  18.956  25.070  1.00  0.00     0.047 A 
ATOM     13  C   UNL A   1      32.232  18.583  22.712  1.00  0.00     0.047 A 
ATOM     14  C   UNL A   1      32.517  20.336  24.851  1.00  0.00     0.012 A 
ATOM     15  C   UNL A   1      32.269  19.972  22.497  1.00  0.00     0.012 A 
BRANCH  11  16
ATOM     16  O   UNL A   1      32.350  16.748  24.294  1.00  0.00    -0.491 OA
BRANCH  16  17
ATOM     17  C   UNL A   1      33.292  16.271  25.273  1.00  0.00     0.167 C 
ATOM     18  C   UNL A   1      32.894  14.895  25.797  1.00  0.00     0.052 C 
ATOM     19  C   UNL A   1      34.769  16.343  24.877  1.00  0.00     0.052 C 
ENDBRANCH  16  17
ENDBRANCH  11  16
ENDBRANCH   9  10
BRANCH   8  20
ATOM     20  N   UNL A   1      32.732  23.375  25.397  1.00  0.00    -0.317 N 
ATOM     21  C   UNL A   1      33.649  22.984  26.342  1.00  0.00     0.255 C 
ATOM     22  H   UNL A   1      31.878  23.688  25.774  1.00  0.00     0.170 HD
ATOM     23  O   UNL A   1      33.284  22.770  27.495  1.00  0.00    -0.269 OA
BRANCH  21  24
ATOM     24  C   UNL A   1      35.065  22.816  25.973  1.00  0.00     0.040 A 
ATOM     25  C   UNL A   1      35.563  21.518  25.897  1.00  0.00     0.014 A 
ATOM     26  C   UNL A   1      35.863  23.904  25.616  1.00  0.00     0.014 A 
ATOM     27  C   UNL A   1      36.796  21.288  25.293  1.00  0.00     0.001 A 
ATOM     28  C   UNL A   1      37.111  23.672  25.042  1.00  0.00     0.001 A 
ATOM     29  C   UNL A   1      37.556  22.364  24.840  1.00  0.00     0.000 A 
ENDBRANCH  21  24
ENDBRANCH   8  20
ENDBRANCH   5   8
ENDBRANCH   3   4
ENDBRANCH   2   3
ENDBRANCH   1   2
BRANCH   1  30
ATOM     30  C   UNL A   1      32.088  28.829  26.436  1.00  0.00     0.002 C 
BRANCH  30  31
ATOM     31  C   UNL A   1      31.736  30.295  26.673  1.00  0.00     0.021 C 
BRANCH  31  32
ATOM     32  C   UNL A   1      32.903  31.164  27.125  1.00  0.00     0.116 C 
BRANCH  32  33
ATOM     33  N   UNL A   1      32.522  32.559  27.334  1.00  0.00    -0.352 N 
ATOM     34  C   UNL A   1      33.085  33.538  28.125  1.00  0.00     0.251 C 
ATOM     35  H   UNL A   1      31.730  32.848  26.824  1.00  0.00     0.163 HD
ATOM     36  O   UNL A   1      32.496  34.586  28.329  1.00  0.00    -0.269 OA
BRANCH  34  37
ATOM     37  C   UNL A   1      34.410  33.301  28.737  1.00  0.00     0.039 A 
ATOM     38  C   UNL A   1      34.500  32.662  29.976  1.00  0.00     0.014 A 
ATOM     39  C   UNL A   1      35.563  33.691  28.061  1.00  0.00     0.014 A 
ATOM     40  C   UNL A   1      35.757  32.317  30.482  1.00  0.00     0.010 A 
ATOM     41  C   UNL A   1      36.797  33.243  28.501  1.00  0.00     0.010 A 
ATOM     42  C   UNL A   1      36.910  32.551  29.717  1.00  0.00    -0.014 A 
BRANCH  42  43
ATOM     43  C   UNL A   1      38.258  32.095  30.139  1.00  0.00     0.031 A 
ATOM     44  C   UNL A   1      38.805  30.803  29.594  1.00  0.00     0.074 A 
ATOM     45  C   UNL A   1      38.922  32.766  31.100  1.00  0.00     0.049 A 
ATOM     46  N   UNL A   1      39.863  30.130  29.965  1.00  0.00    -0.248 NA
ATOM     47  C   UNL A   1      38.026  30.154  28.524  1.00  0.00     0.031 C 
ATOM     48  C   UNL A   1      38.471  34.003  31.745  1.00  0.00     0.029 A 
ATOM     49  N   UNL A   1      40.114  32.487  31.722  1.00  0.00    -0.354 N 
ATOM     50  C   UNL A   1      39.851  28.967  29.204  1.00  0.00     0.074 A 
ATOM     51  C   UNL A   1      38.652  28.995  28.398  1.00  0.00     0.031 C 
ATOM     52  C   UNL A   1      39.386  34.389  32.647  1.00  0.00     0.029 A 
ATOM     53  C   UNL A   1      40.459  33.403  32.688  1.00  0.00     0.049 A 
ATOM     54  H   UNL A   1      40.669  31.706  31.497  1.00  0.00     0.167 HD
ATOM     55  C   UNL A   1      40.771  27.976  29.161  1.00  0.00     0.031 A 
ATOM     56  C   UNL A   1      41.513  33.432  33.525  1.00  0.00     0.031 A 
ATOM     57  C   UNL A   1      41.976  27.972  29.942  1.00  0.00     0.049 A 
ATOM     58  C   UNL A   1      42.519  32.317  33.462  1.00  0.00     0.074 A 
ATOM     59  C   UNL A   1      43.017  27.061  29.919  1.00  0.00     0.029 A 
ATOM     60  N   UNL A   1      42.302  28.933  30.888  1.00  0.00    -0.354 N 
ATOM     61  N   UNL A   1      42.536  31.263  32.682  1.00  0.00    -0.248 NA
ATOM     62  C   UNL A   1      43.652  32.394  34.395  1.00  0.00     0.031 C 
ATOM     63  C   UNL A   1      43.945  27.440  30.892  1.00  0.00     0.029 A 
ATOM     64  C   UNL A   1      43.512  28.619  31.479  1.00  0.00     0.049 A 
ATOM     65  H   UNL A   1      41.754  29.721  31.106  1.00  0.00     0.167 HD
ATOM     66  C   UNL A   1      43.688  30.563  33.013  1.00  0.00     0.074 A 
ATOM     67  C   UNL A   1      44.356  31.325  34.051  1.00  0.00     0.031 C 
ATOM     68  C   UNL A   1      44.153  29.394  32.510  1.00  0.00     0.031 A 
BRANCH  55  69
ATOM     69  C   UNL A   1      40.504  26.819  28.237  1.00  0.00    -0.014 A 
ATOM     70  C   UNL A   1      39.753  25.708  28.658  1.00  0.00     0.009 A 
ATOM     71  C   UNL A   1      40.993  26.846  26.923  1.00  0.00     0.009 A 
ATOM     72  C   UNL A   1      39.536  24.631  27.794  1.00  0.00     0.001 A 
ATOM     73  C   UNL A   1      40.746  25.784  26.051  1.00  0.00     0.001 A 
ATOM     74  C   UNL A   1      40.029  24.672  26.491  1.00  0.00     0.000 A 
ENDBRANCH  55  69
BRANCH  56  75
ATOM     75  C   UNL A   1      41.677  34.556  34.487  1.00  0.00    -0.014 A 
ATOM     76  C   UNL A   1      42.482  35.658  34.160  1.00  0.00     0.009 A 
ATOM     77  C   UNL A   1      41.031  34.537  35.733  1.00  0.00     0.009 A 
ATOM     78  C   UNL A   1      42.660  36.702  35.071  1.00  0.00     0.001 A 
ATOM     79  C   UNL A   1      41.185  35.597  36.630  1.00  0.00     0.001 A 
ATOM     80  C   UNL A   1      42.007  36.673  36.303  1.00  0.00     0.000 A 
ENDBRANCH  56  75
BRANCH  68  81
ATOM     81  C   UNL A   1      45.452  28.877  33.058  1.00  0.00    -0.014 A 
ATOM     82  C   UNL A   1      46.680  29.271  32.507  1.00  0.00     0.009 A 
ATOM     83  C   UNL A   1      45.446  28.037  34.184  1.00  0.00     0.009 A 
ATOM     84  C   UNL A   1      47.878  28.815  33.058  1.00  0.00     0.001 A 
ATOM     85  C   UNL A   1      46.645  27.609  34.752  1.00  0.00     0.001 A 
ATOM     86  C   UNL A   1      47.860  27.992  34.184  1.00  0.00     0.000 A 
ENDBRANCH  68  81
ENDBRANCH  42  43
ENDBRANCH  34  37
ENDBRANCH  32  33
ENDBRANCH  31  32
ENDBRANCH  30  31
ENDBRANCH   1  30
TORSDOF 18
ENDMDL
MODEL 3
REMARK VINA RESULT:     -10.5      2.786      8.279
REMARK SMILES CC(C)Oc1ccc(/C=C(\NC(=O)c2ccccc2)C(=O)NCCCCCCNC(=O)c2ccc(-c3c4nc(c(-c5ccccc5)c5ccc([nH]5)c(-c5ccccc5)c5nc(c(-c6ccccc6)c6ccc3[nH]6)C=C5)C=C4)cc2)cc1
REMARK SMILES IDX 25 1 24 2 23 3 22 4 20 5 21 6 10 8 9 9 8 10 5 11 6 12 81 13
REMARK SMILES IDX 7 14 80 15 4 16 2 17 1 18 3 19 11 20 12 21 13 23 14 24 15 25
REMARK SMILES IDX 19 26 16 27 18 28 17 29 26 30 27 31 28 32 29 33 30 34 31 36
REMARK SMILES IDX 32 37 33 38 79 39 34 40 78 41 35 42 36 43 37 44 72 45 38 46
REMARK SMILES IDX 77 47 71 48 73 49 39 50 76 51 70 52 69 53 40 55 62 56 47 57
REMARK SMILES IDX 61 58 48 59 51 60 60 61 74 62 49 63 50 64 59 66 75 67 52 68
REMARK SMILES IDX 41 69 42 70 46 71 43 72 45 73 44 74 63 75 64 76 68 77 65 78
REMARK SMILES IDX 67 79 66 80 53 81 54 82 58 83 55 84 57 85 56 86
REMARK H PARENT 22 7 11 22 29 35 73 54 51 65
REMARK Flexibility Score: inf
ROOT
ATOM      1  C   UNL A   1      36.320  33.074  28.358  1.00  0.00     0.002 C 
ENDROOT
BRANCH   1   2
ATOM      2  C   UNL A   1      35.284  32.008  28.741  1.00  0.00     0.021 C 
BRANCH   2   3
ATOM      3  C   UNL A   1      34.558  31.241  27.628  1.00  0.00     0.116 C 
BRANCH   3   4
ATOM      4  N   UNL A   1      33.178  31.625  27.381  1.00  0.00    -0.351 N 
ATOM      5  C   UNL A   1      32.237  30.984  26.606  1.00  0.00     0.267 C 
ATOM      6  O   UNL A   1      31.141  31.515  26.424  1.00  0.00    -0.268 OA
ATOM      7  H   UNL A   1      32.877  32.451  27.825  1.00  0.00     0.163 HD
BRANCH   5   8
ATOM      8  C   UNL A   1      32.591  29.671  25.922  1.00  0.00     0.107 C 
ATOM      9  C   UNL A   1      32.486  28.577  26.711  1.00  0.00     0.040 C 
BRANCH   9  10
ATOM     10  C   UNL A   1      32.678  27.126  26.443  1.00  0.00    -0.023 A 
ATOM     11  C   UNL A   1      32.787  24.403  25.666  1.00  0.00     0.119 A 
ATOM     12  C   UNL A   1      33.897  25.222  25.519  1.00  0.00     0.047 A 
ATOM     13  C   UNL A   1      31.644  24.906  26.275  1.00  0.00     0.047 A 
ATOM     14  C   UNL A   1      33.831  26.573  25.872  1.00  0.00     0.012 A 
ATOM     15  C   UNL A   1      31.590  26.258  26.656  1.00  0.00     0.012 A 
BRANCH  11  16
ATOM     16  O   UNL A   1      32.918  23.110  25.260  1.00  0.00    -0.491 OA
BRANCH  16  17
ATOM     17  C   UNL A   1      33.304  22.137  26.249  1.00  0.00     0.167 C 
ATOM     18  C   UNL A   1      33.818  20.859  25.596  1.00  0.00     0.052 C 
ATOM     19  C   UNL A   1      34.227  22.639  27.362  1.00  0.00     0.052 C 
ENDBRANCH  16  17
ENDBRANCH  11  16
ENDBRANCH   9  10
BRANCH   8  20
ATOM     20  N   UNL A   1      32.964  29.616  24.597  1.00  0.00    -0.317 N 
ATOM     21  C   UNL A   1      32.325  29.133  23.481  1.00  0.00     0.255 C 
ATOM     22  H   UNL A   1      33.855  29.994  24.416  1.00  0.00     0.170 HD
ATOM     23  O   UNL A   1      32.964  28.931  22.450  1.00  0.00    -0.269 OA
BRANCH  21  24
ATOM     24  C   UNL A   1      30.881  28.852  23.519  1.00  0.00     0.040 A 
ATOM     25  C   UNL A   1      30.009  29.920  23.317  1.00  0.00     0.014 A 
ATOM     26  C   UNL A   1      30.390  27.553  23.655  1.00  0.00     0.014 A 
ATOM     27  C   UNL A   1      28.662  29.671  23.070  1.00  0.00     0.001 A 
ATOM     28  C   UNL A   1      29.034  27.312  23.440  1.00  0.00     0.001 A 
ATOM     29  C   UNL A   1      28.182  28.364  23.103  1.00  0.00     0.000 A 
ENDBRANCH  21  24
ENDBRANCH   8  20
ENDBRANCH   5   8
ENDBRANCH   3   4
ENDBRANCH   2   3
ENDBRANCH   1   2
BRANCH   1  30
ATOM     30  C   UNL A   1      37.039  33.836  29.469  1.00  0.00     0.002 C 
BRANCH  30  31
ATOM     31  C   UNL A   1      36.433  33.816  30.869  1.00  0.00     0.021 C 
BRANCH  31  32
ATOM     32  C   UNL A   1      37.166  32.927  31.867  1.00  0.00     0.116 C 
BRANCH  32  33
ATOM     33  N   UNL A   1      36.564  31.601  31.991  1.00  0.00    -0.352 N 
ATOM     34  C   UNL A   1      36.990  30.372  31.532  1.00  0.00     0.251 C 
ATOM     35  H   UNL A   1      35.713  31.582  32.486  1.00  0.00     0.163 HD
ATOM     36  O   UNL A   1      36.243  29.409  31.553  1.00  0.00    -0.269 OA
BRANCH  34  37
ATOM     37  C   UNL A   1      38.363  30.235  30.999  1.00  0.00     0.039 A 
ATOM     38  C   UNL A   1      39.406  29.860  31.849  1.00  0.00     0.014 A 
ATOM     39  C   UNL A   1      38.602  30.453  29.644  1.00  0.00     0.014 A 
ATOM     40  C   UNL A   1      40.669  29.597  31.312  1.00  0.00     0.010 A 
ATOM     41  C   UNL A   1      39.817  30.076  29.097  1.00  0.00     0.010 A 
ATOM     42  C   UNL A   1      40.866  29.644  29.923  1.00  0.00    -0.014 A 
BRANCH  42  43
ATOM     43  C   UNL A   1      42.146  29.253  29.280  1.00  0.00     0.031 A 
ATOM     44  C   UNL A   1      42.302  27.859  28.734  1.00  0.00     0.074 A 
ATOM     45  C   UNL A   1      43.195  30.097  29.309  1.00  0.00     0.049 A 
ATOM     46  N   UNL A   1      43.381  27.254  28.308  1.00  0.00    -0.248 NA
ATOM     47  C   UNL A   1      41.093  27.017  28.715  1.00  0.00     0.031 C 
ATOM     48  C   UNL A   1      43.183  31.456  29.860  1.00  0.00     0.029 A 
ATOM     49  N   UNL A   1      44.489  29.927  28.884  1.00  0.00    -0.354 N 
ATOM     50  C   UNL A   1      42.985  25.955  28.010  1.00  0.00     0.074 A 
ATOM     51  C   UNL A   1      41.589  25.841  28.363  1.00  0.00     0.031 C 
ATOM     52  C   UNL A   1      44.399  32.003  29.711  1.00  0.00     0.029 A 
ATOM     53  C   UNL A   1      45.293  31.019  29.110  1.00  0.00     0.049 A 
ATOM     54  H   UNL A   1      44.811  29.101  28.457  1.00  0.00     0.167 HD
ATOM     55  C   UNL A   1      43.715  24.953  27.468  1.00  0.00     0.031 A 
ATOM     56  C   UNL A   1      46.606  31.200  28.876  1.00  0.00     0.031 A 
ATOM     57  C   UNL A   1      45.095  25.085  27.092  1.00  0.00     0.049 A 
ATOM     58  C   UNL A   1      47.397  30.070  28.278  1.00  0.00     0.074 A 
ATOM     59  C   UNL A   1      45.910  24.163  26.459  1.00  0.00     0.029 A 
ATOM     60  N   UNL A   1      45.864  26.218  27.312  1.00  0.00    -0.354 N 
ATOM     61  N   UNL A   1      46.992  28.873  27.929  1.00  0.00    -0.248 NA
ATOM     62  C   UNL A   1      48.826  30.316  28.041  1.00  0.00     0.031 C 
ATOM     63  C   UNL A   1      47.188  24.717  26.350  1.00  0.00     0.029 A 
ATOM     64  C   UNL A   1      47.153  26.007  26.859  1.00  0.00     0.049 A 
ATOM     65  H   UNL A   1      45.541  27.049  27.729  1.00  0.00     0.167 HD
ATOM     66  C   UNL A   1      48.109  28.231  27.412  1.00  0.00     0.074 A 
ATOM     67  C   UNL A   1      49.203  29.179  27.473  1.00  0.00     0.031 C 
ATOM     68  C   UNL A   1      48.223  26.968  26.933  1.00  0.00     0.031 A 
BRANCH  55  69
ATOM     69  C   UNL A   1      43.030  23.632  27.251  1.00  0.00    -0.014 A 
ATOM     70  C   UNL A   1      42.503  23.280  25.997  1.00  0.00     0.009 A 
ATOM     71  C   UNL A   1      42.927  22.715  28.308  1.00  0.00     0.009 A 
ATOM     72  C   UNL A   1      41.848  22.059  25.820  1.00  0.00     0.001 A 
ATOM     73  C   UNL A   1      42.302  21.481  28.121  1.00  0.00     0.001 A 
ATOM     74  C   UNL A   1      41.753  21.158  26.880  1.00  0.00     0.000 A 
ENDBRANCH  55  69
BRANCH  56  75
ATOM     75  C   UNL A   1      47.254  32.500  29.200  1.00  0.00    -0.014 A 
ATOM     76  C   UNL A   1      47.343  33.510  28.229  1.00  0.00     0.009 A 
ATOM     77  C   UNL A   1      47.786  32.742  30.477  1.00  0.00     0.009 A 
ATOM     78  C   UNL A   1      47.975  34.721  28.520  1.00  0.00     0.001 A 
ATOM     79  C   UNL A   1      48.389  33.966  30.775  1.00  0.00     0.001 A 
ATOM     80  C   UNL A   1      48.493  34.951  29.794  1.00  0.00     0.000 A 
ENDBRANCH  56  75
BRANCH  68  81
ATOM     81  C   UNL A   1      49.570  26.546  26.420  1.00  0.00    -0.014 A 
ATOM     82  C   UNL A   1      50.421  25.743  27.193  1.00  0.00     0.009 A 
ATOM     83  C   UNL A   1      49.961  26.902  25.119  1.00  0.00     0.009 A 
ATOM     84  C   UNL A   1      51.651  25.324  26.682  1.00  0.00     0.001 A 
ATOM     85  C   UNL A   1      51.176  26.455  24.600  1.00  0.00     0.001 A 
ATOM     86  C   UNL A   1      52.022  25.673  25.384  1.00  0.00     0.000 A 
ENDBRANCH  68  81
ENDBRANCH  42  43
ENDBRANCH  34  37
ENDBRANCH  32  33
ENDBRANCH  31  32
ENDBRANCH  30  31
ENDBRANCH   1  30
TORSDOF 18
ENDMDL
