MODEL 1
REMARK VINA RESULT:     -11.0      0.000      0.000
REMARK SMILES O=C(Cc1cccn1-c1ccccc1F)NCCCCCCNC(=O)c1ccc(-c2c3nc(c(-c4ccccc4)c4ccc([nH]4)c(-c4ccccc4)c4nc(c(-c5ccccc5)c5ccc2[nH]5)C=C4)C=C3)cc1
REMARK SMILES IDX 19 1 18 2 17 3 16 4 1 5 2 6 3 8 4 9 5 10 8 11 6 12 7 13 9 14
REMARK SMILES IDX 10 15 14 16 11 17 13 18 15 19 12 20 20 21 21 22 22 23 23 24
REMARK SMILES IDX 24 25 25 27 26 28 27 29 73 30 28 31 72 32 29 33 30 34 31 35
REMARK SMILES IDX 66 36 32 37 71 38 65 39 67 40 33 41 70 42 64 43 63 44 34 46
REMARK SMILES IDX 56 47 41 48 55 49 42 50 45 51 54 52 68 53 43 54 44 55 53 57
REMARK SMILES IDX 69 58 46 59 35 60 36 61 40 62 37 63 39 64 38 65 57 66 58 67
REMARK SMILES IDX 62 68 59 69 61 70 60 71 47 72 48 73 52 74 49 75 51 76 50 77
REMARK H PARENT 16 7 23 26 67 45 45 56
REMARK Flexibility Score: inf
ROOT
ATOM      1  C   UNL A   1      37.058  21.507  24.377  1.00  0.00     0.002 C 
ENDROOT
BRANCH   1   2
ATOM      2  C   UNL A   1      36.321  22.641  25.102  1.00  0.00     0.021 C 
BRANCH   2   3
ATOM      3  C   UNL A   1      35.598  22.233  26.387  1.00  0.00     0.116 C 
BRANCH   3   4
ATOM      4  N   UNL A   1      34.400  23.018  26.602  1.00  0.00    -0.356 N 
ATOM      5  O   UNL A   1      32.898  21.358  26.098  1.00  0.00    -0.275 OA
ATOM      6  C   UNL A   1      33.127  22.514  26.442  1.00  0.00     0.225 C 
ATOM      7  H   UNL A   1      34.501  23.958  26.876  1.00  0.00     0.163 HD
BRANCH   6   8
ATOM      8  C   UNL A   1      32.021  23.535  26.690  1.00  0.00     0.154 C 
BRANCH   8   9
ATOM      9  C   UNL A   1      31.576  24.176  25.406  1.00  0.00     0.032 A 
ATOM     10  C   UNL A   1      30.978  23.529  24.334  1.00  0.00     0.024 A 
ATOM     11  N   UNL A   1      31.600  25.538  25.111  1.00  0.00    -0.318 N 
ATOM     12  C   UNL A   1      30.541  24.503  23.417  1.00  0.00     0.020 A 
ATOM     13  C   UNL A   1      30.882  25.726  23.943  1.00  0.00     0.091 A 
BRANCH  11  14
ATOM     14  C   UNL A   1      32.193  26.606  25.834  1.00  0.00     0.081 A 
ATOM     15  C   UNL A   1      31.420  27.309  26.771  1.00  0.00     0.030 A 
ATOM     16  C   UNL A   1      33.510  27.001  25.603  1.00  0.00     0.147 A 
ATOM     17  C   UNL A   1      31.984  28.365  27.490  1.00  0.00     0.002 A 
ATOM     18  C   UNL A   1      34.075  28.048  26.329  1.00  0.00     0.041 A 
ATOM     19  F   UNL A   1      34.249  26.443  24.635  1.00  0.00    -0.205 F 
ATOM     20  C   UNL A   1      33.314  28.727  27.280  1.00  0.00     0.003 A 
ENDBRANCH  11  14
ENDBRANCH   8   9
ENDBRANCH   6   8
ENDBRANCH   3   4
ENDBRANCH   2   3
ENDBRANCH   1   2
BRANCH   1  21
ATOM     21  C   UNL A   1      36.892  20.112  24.991  1.00  0.00     0.002 C 
BRANCH  21  22
ATOM     22  C   UNL A   1      38.142  19.228  24.981  1.00  0.00     0.021 C 
BRANCH  22  23
ATOM     23  C   UNL A   1      39.314  19.826  25.754  1.00  0.00     0.116 C 
BRANCH  23  24
ATOM     24  N   UNL A   1      40.385  18.856  25.946  1.00  0.00    -0.352 N 
ATOM     25  C   UNL A   1      41.734  19.080  26.087  1.00  0.00     0.251 C 
ATOM     26  H   UNL A   1      40.104  17.913  25.979  1.00  0.00     0.163 HD
ATOM     27  O   UNL A   1      42.537  18.179  25.906  1.00  0.00    -0.269 OA
BRANCH  25  28
ATOM     28  C   UNL A   1      42.209  20.426  26.452  1.00  0.00     0.039 A 
ATOM     29  C   UNL A   1      42.735  21.255  25.455  1.00  0.00     0.014 A 
ATOM     30  C   UNL A   1      42.161  20.846  27.786  1.00  0.00     0.014 A 
ATOM     31  C   UNL A   1      43.142  22.541  25.788  1.00  0.00     0.010 A 
ATOM     32  C   UNL A   1      42.521  22.141  28.114  1.00  0.00     0.010 A 
ATOM     33  C   UNL A   1      43.005  22.987  27.111  1.00  0.00    -0.014 A 
BRANCH  33  34
ATOM     34  C   UNL A   1      43.275  24.402  27.428  1.00  0.00     0.031 A 
ATOM     35  C   UNL A   1      41.974  25.212  27.575  1.00  0.00     0.074 A 
ATOM     36  C   UNL A   1      44.593  24.753  27.518  1.00  0.00     0.049 A 
ATOM     37  N   UNL A   1      41.748  26.467  27.348  1.00  0.00    -0.248 NA
ATOM     38  C   UNL A   1      40.720  24.509  27.970  1.00  0.00     0.031 C 
ATOM     39  C   UNL A   1      45.726  23.804  27.389  1.00  0.00     0.029 A 
ATOM     40  N   UNL A   1      45.262  25.938  27.731  1.00  0.00    -0.354 N 
ATOM     41  C   UNL A   1      40.402  26.740  27.685  1.00  0.00     0.074 A 
ATOM     42  C   UNL A   1      39.797  25.476  27.980  1.00  0.00     0.031 C 
ATOM     43  C   UNL A   1      46.910  24.449  27.447  1.00  0.00     0.029 A 
ATOM     44  C   UNL A   1      46.673  25.868  27.607  1.00  0.00     0.049 A 
ATOM     45  H   UNL A   1      44.793  26.774  27.952  1.00  0.00     0.167 HD
ATOM     46  C   UNL A   1      39.908  28.009  27.818  1.00  0.00     0.031 A 
ATOM     47  C   UNL A   1      47.585  26.887  27.563  1.00  0.00     0.031 A 
ATOM     48  C   UNL A   1      40.912  28.959  27.482  1.00  0.00     0.049 A 
ATOM     49  C   UNL A   1      46.815  28.119  27.774  1.00  0.00     0.074 A 
ATOM     50  C   UNL A   1      41.492  29.325  26.295  1.00  0.00     0.029 A 
ATOM     51  N   UNL A   1      41.703  29.384  28.520  1.00  0.00    -0.354 N 
ATOM     52  N   UNL A   1      46.305  28.502  28.903  1.00  0.00    -0.248 NA
ATOM     53  C   UNL A   1      46.503  28.953  26.605  1.00  0.00     0.031 C 
ATOM     54  C   UNL A   1      42.853  29.475  26.644  1.00  0.00     0.029 A 
ATOM     55  C   UNL A   1      42.986  29.430  28.036  1.00  0.00     0.049 A 
ATOM     56  H   UNL A   1      41.409  29.610  29.432  1.00  0.00     0.167 HD
ATOM     57  C   UNL A   1      45.322  29.368  28.496  1.00  0.00     0.074 A 
ATOM     58  C   UNL A   1      45.698  29.839  27.181  1.00  0.00     0.031 C 
ATOM     59  C   UNL A   1      44.061  29.228  28.974  1.00  0.00     0.031 A 
BRANCH  46  60
ATOM     60  C   UNL A   1      38.667  28.546  28.483  1.00  0.00    -0.014 A 
ATOM     61  C   UNL A   1      37.951  29.562  27.798  1.00  0.00     0.009 A 
ATOM     62  C   UNL A   1      38.375  28.364  29.837  1.00  0.00     0.009 A 
ATOM     63  C   UNL A   1      37.090  30.439  28.462  1.00  0.00     0.001 A 
ATOM     64  C   UNL A   1      37.478  29.220  30.497  1.00  0.00     0.001 A 
ATOM     65  C   UNL A   1      36.870  30.278  29.821  1.00  0.00     0.000 A 
ENDBRANCH  46  60
BRANCH  47  66
ATOM     66  C   UNL A   1      49.044  27.069  27.224  1.00  0.00    -0.014 A 
ATOM     67  C   UNL A   1      49.633  26.871  25.974  1.00  0.00     0.009 A 
ATOM     68  C   UNL A   1      49.913  27.562  28.237  1.00  0.00     0.009 A 
ATOM     69  C   UNL A   1      50.974  27.247  25.733  1.00  0.00     0.001 A 
ATOM     70  C   UNL A   1      51.223  27.981  27.995  1.00  0.00     0.001 A 
ATOM     71  C   UNL A   1      51.753  27.837  26.729  1.00  0.00     0.000 A 
ENDBRANCH  47  66
BRANCH  59  72
ATOM     72  C   UNL A   1      43.942  28.492  30.298  1.00  0.00    -0.014 A 
ATOM     73  C   UNL A   1      44.133  29.191  31.499  1.00  0.00     0.009 A 
ATOM     74  C   UNL A   1      43.746  27.101  30.391  1.00  0.00     0.009 A 
ATOM     75  C   UNL A   1      44.141  28.533  32.736  1.00  0.00     0.001 A 
ATOM     76  C   UNL A   1      43.753  26.436  31.626  1.00  0.00     0.001 A 
ATOM     77  C   UNL A   1      43.952  27.155  32.801  1.00  0.00     0.000 A 
ENDBRANCH  59  72
ENDBRANCH  33  34
ENDBRANCH  25  28
ENDBRANCH  23  24
ENDBRANCH  22  23
ENDBRANCH  21  22
ENDBRANCH   1  21
TORSDOF 15
ENDMDL
MODEL 2
REMARK VINA RESULT:     -10.9      2.641      7.740
REMARK SMILES O=C(Cc1cccn1-c1ccccc1F)NCCCCCCNC(=O)c1ccc(-c2c3nc(c(-c4ccccc4)c4ccc([nH]4)c(-c4ccccc4)c4nc(c(-c5ccccc5)c5ccc2[nH]5)C=C4)C=C3)cc1
REMARK SMILES IDX 19 1 18 2 17 3 16 4 1 5 2 6 3 8 4 9 5 10 8 11 6 12 7 13 9 14
REMARK SMILES IDX 10 15 14 16 11 17 13 18 15 19 12 20 20 21 21 22 22 23 23 24
REMARK SMILES IDX 24 25 25 27 26 28 27 29 73 30 28 31 72 32 29 33 30 34 31 35
REMARK SMILES IDX 66 36 32 37 71 38 65 39 67 40 33 41 70 42 64 43 63 44 34 46
REMARK SMILES IDX 56 47 41 48 55 49 42 50 45 51 54 52 68 53 43 54 44 55 53 57
REMARK SMILES IDX 69 58 46 59 35 60 36 61 40 62 37 63 39 64 38 65 57 66 58 67
REMARK SMILES IDX 62 68 59 69 61 70 60 71 47 72 48 73 52 74 49 75 51 76 50 77
REMARK H PARENT 16 7 23 26 67 45 45 56
REMARK Flexibility Score: inf
ROOT
ATOM      1  C   UNL A   1      33.877  28.364  23.934  1.00  0.00     0.002 C 
ENDROOT
BRANCH   1   2
ATOM      2  C   UNL A   1      32.736  28.018  22.967  1.00  0.00     0.021 C 
BRANCH   2   3
ATOM      3  C   UNL A   1      32.901  26.699  22.209  1.00  0.00     0.116 C 
BRANCH   3   4
ATOM      4  N   UNL A   1      33.673  25.736  22.967  1.00  0.00    -0.356 N 
ATOM      5  O   UNL A   1      33.338  23.956  21.559  1.00  0.00    -0.275 OA
ATOM      6  C   UNL A   1      33.837  24.424  22.578  1.00  0.00     0.225 C 
ATOM      7  H   UNL A   1      34.102  26.034  23.802  1.00  0.00     0.163 HD
BRANCH   6   8
ATOM      8  C   UNL A   1      34.661  23.587  23.551  1.00  0.00     0.154 C 
BRANCH   8   9
ATOM      9  C   UNL A   1      33.812  22.548  24.228  1.00  0.00     0.032 A 
ATOM     10  C   UNL A   1      34.065  21.184  24.265  1.00  0.00     0.024 A 
ATOM     11  N   UNL A   1      32.683  22.785  25.010  1.00  0.00    -0.318 N 
ATOM     12  C   UNL A   1      33.150  20.589  25.153  1.00  0.00     0.020 A 
ATOM     13  C   UNL A   1      32.354  21.596  25.639  1.00  0.00     0.091 A 
BRANCH  11  14
ATOM     14  C   UNL A   1      31.964  23.991  25.212  1.00  0.00     0.081 A 
ATOM     15  C   UNL A   1      32.338  24.842  26.265  1.00  0.00     0.030 A 
ATOM     16  C   UNL A   1      30.869  24.330  24.418  1.00  0.00     0.147 A 
ATOM     17  C   UNL A   1      31.640  26.032  26.481  1.00  0.00     0.002 A 
ATOM     18  C   UNL A   1      30.181  25.524  24.629  1.00  0.00     0.041 A 
ATOM     19  F   UNL A   1      30.399  23.496  23.482  1.00  0.00    -0.205 F 
ATOM     20  C   UNL A   1      30.571  26.381  25.657  1.00  0.00     0.003 A 
ENDBRANCH  11  14
ENDBRANCH   8   9
ENDBRANCH   6   8
ENDBRANCH   3   4
ENDBRANCH   2   3
ENDBRANCH   1   2
BRANCH   1  21
ATOM     21  C   UNL A   1      33.443  28.856  25.319  1.00  0.00     0.002 C 
BRANCH  21  22
ATOM     22  C   UNL A   1      34.512  29.597  26.126  1.00  0.00     0.021 C 
BRANCH  22  23
ATOM     23  C   UNL A   1      34.528  29.217  27.604  1.00  0.00     0.116 C 
BRANCH  23  24
ATOM     24  N   UNL A   1      34.774  30.374  28.457  1.00  0.00    -0.352 N 
ATOM     25  C   UNL A   1      35.863  30.641  29.252  1.00  0.00     0.251 C 
ATOM     26  H   UNL A   1      34.064  31.056  28.463  1.00  0.00     0.163 HD
ATOM     27  O   UNL A   1      35.791  31.463  30.151  1.00  0.00    -0.269 OA
BRANCH  25  28
ATOM     28  C   UNL A   1      37.125  29.918  29.016  1.00  0.00     0.039 A 
ATOM     29  C   UNL A   1      37.653  29.120  30.036  1.00  0.00     0.014 A 
ATOM     30  C   UNL A   1      37.795  30.062  27.796  1.00  0.00     0.014 A 
ATOM     31  C   UNL A   1      38.818  28.401  29.801  1.00  0.00     0.010 A 
ATOM     32  C   UNL A   1      38.930  29.313  27.541  1.00  0.00     0.010 A 
ATOM     33  C   UNL A   1      39.434  28.479  28.544  1.00  0.00    -0.014 A 
BRANCH  33  34
ATOM     34  C   UNL A   1      40.569  27.588  28.238  1.00  0.00     0.031 A 
ATOM     35  C   UNL A   1      41.909  28.346  28.249  1.00  0.00     0.074 A 
ATOM     36  C   UNL A   1      40.252  26.283  27.985  1.00  0.00     0.049 A 
ATOM     37  N   UNL A   1      42.998  28.116  27.586  1.00  0.00    -0.248 NA
ATOM     38  C   UNL A   1      42.038  29.583  29.070  1.00  0.00     0.031 C 
ATOM     39  C   UNL A   1      38.882  25.719  28.070  1.00  0.00     0.029 A 
ATOM     40  N   UNL A   1      40.975  25.170  27.615  1.00  0.00    -0.354 N 
ATOM     41  C   UNL A   1      43.967  29.066  27.987  1.00  0.00     0.074 A 
ATOM     42  C   UNL A   1      43.288  29.995  28.839  1.00  0.00     0.031 C 
ATOM     43  C   UNL A   1      38.865  24.423  27.693  1.00  0.00     0.029 A 
ATOM     44  C   UNL A   1      40.202  24.017  27.318  1.00  0.00     0.049 A 
ATOM     45  H   UNL A   1      41.957  25.175  27.558  1.00  0.00     0.167 HD
ATOM     46  C   UNL A   1      45.296  28.949  27.685  1.00  0.00     0.031 A 
ATOM     47  C   UNL A   1      40.598  22.841  26.743  1.00  0.00     0.031 A 
ATOM     48  C   UNL A   1      45.509  27.812  26.857  1.00  0.00     0.049 A 
ATOM     49  C   UNL A   1      42.052  22.953  26.567  1.00  0.00     0.074 A 
ATOM     50  C   UNL A   1      45.203  27.537  25.550  1.00  0.00     0.029 A 
ATOM     51  N   UNL A   1      45.770  26.636  27.516  1.00  0.00    -0.354 N 
ATOM     52  N   UNL A   1      42.931  22.889  27.520  1.00  0.00    -0.248 NA
ATOM     53  C   UNL A   1      42.569  23.259  25.227  1.00  0.00     0.031 C 
ATOM     54  C   UNL A   1      44.770  26.193  25.604  1.00  0.00     0.029 A 
ATOM     55  C   UNL A   1      45.057  25.661  26.866  1.00  0.00     0.049 A 
ATOM     56  H   UNL A   1      46.354  26.516  28.300  1.00  0.00     0.167 HD
ATOM     57  C   UNL A   1      44.010  23.523  26.958  1.00  0.00     0.074 A 
ATOM     58  C   UNL A   1      43.854  23.424  25.523  1.00  0.00     0.031 C 
ATOM     59  C   UNL A   1      44.634  24.519  27.636  1.00  0.00     0.031 A 
BRANCH  46  60
ATOM     60  C   UNL A   1      46.524  29.602  28.264  1.00  0.00    -0.014 A 
ATOM     61  C   UNL A   1      46.723  29.484  29.665  1.00  0.00     0.009 A 
ATOM     62  C   UNL A   1      47.271  30.574  27.595  1.00  0.00     0.009 A 
ATOM     63  C   UNL A   1      47.523  30.381  30.377  1.00  0.00     0.001 A 
ATOM     64  C   UNL A   1      48.107  31.450  28.307  1.00  0.00     0.001 A 
ATOM     65  C   UNL A   1      48.201  31.380  29.696  1.00  0.00     0.000 A 
ENDBRANCH  46  60
BRANCH  47  66
ATOM     66  C   UNL A   1      39.954  21.615  26.145  1.00  0.00    -0.014 A 
ATOM     67  C   UNL A   1      40.451  20.311  26.197  1.00  0.00     0.009 A 
ATOM     68  C   UNL A   1      38.680  21.758  25.528  1.00  0.00     0.009 A 
ATOM     69  C   UNL A   1      39.672  19.217  25.759  1.00  0.00     0.001 A 
ATOM     70  C   UNL A   1      37.884  20.679  25.138  1.00  0.00     0.001 A 
ATOM     71  C   UNL A   1      38.378  19.396  25.269  1.00  0.00     0.000 A 
ENDBRANCH  47  66
BRANCH  59  72
ATOM     72  C   UNL A   1      44.448  24.499  29.144  1.00  0.00    -0.014 A 
ATOM     73  C   UNL A   1      44.333  25.710  29.842  1.00  0.00     0.009 A 
ATOM     74  C   UNL A   1      44.484  23.319  29.909  1.00  0.00     0.009 A 
ATOM     75  C   UNL A   1      44.269  25.744  31.242  1.00  0.00     0.001 A 
ATOM     76  C   UNL A   1      44.422  23.347  31.311  1.00  0.00     0.001 A 
ATOM     77  C   UNL A   1      44.315  24.564  31.978  1.00  0.00     0.000 A 
ENDBRANCH  59  72
ENDBRANCH  33  34
ENDBRANCH  25  28
ENDBRANCH  23  24
ENDBRANCH  22  23
ENDBRANCH  21  22
ENDBRANCH   1  21
TORSDOF 15
ENDMDL
MODEL 3
REMARK VINA RESULT:     -10.8      1.385      2.172
REMARK SMILES O=C(Cc1cccn1-c1ccccc1F)NCCCCCCNC(=O)c1ccc(-c2c3nc(c(-c4ccccc4)c4ccc([nH]4)c(-c4ccccc4)c4nc(c(-c5ccccc5)c5ccc2[nH]5)C=C4)C=C3)cc1
REMARK SMILES IDX 19 1 18 2 17 3 16 4 1 5 2 6 3 8 4 9 5 10 8 11 6 12 7 13 9 14
REMARK SMILES IDX 10 15 14 16 11 17 13 18 15 19 12 20 20 21 21 22 22 23 23 24
REMARK SMILES IDX 24 25 25 27 26 28 27 29 73 30 28 31 72 32 29 33 30 34 31 35
REMARK SMILES IDX 66 36 32 37 71 38 65 39 67 40 33 41 70 42 64 43 63 44 34 46
REMARK SMILES IDX 56 47 41 48 55 49 42 50 45 51 54 52 68 53 43 54 44 55 53 57
REMARK SMILES IDX 69 58 46 59 35 60 36 61 40 62 37 63 39 64 38 65 57 66 58 67
REMARK SMILES IDX 62 68 59 69 61 70 60 71 47 72 48 73 52 74 49 75 51 76 50 77
REMARK H PARENT 16 7 23 26 67 45 45 56
REMARK Flexibility Score: inf
ROOT
ATOM      1  C   UNL A   1      36.397  22.017  24.555  1.00  0.00     0.002 C 
ENDROOT
BRANCH   1   2
ATOM      2  C   UNL A   1      34.970  22.445  24.185  1.00  0.00     0.021 C 
BRANCH   2   3
ATOM      3  C   UNL A   1      34.871  23.496  23.077  1.00  0.00     0.116 C 
BRANCH   3   4
ATOM      4  N   UNL A   1      34.342  24.750  23.572  1.00  0.00    -0.356 N 
ATOM      5  O   UNL A   1      33.544  25.515  21.561  1.00  0.00    -0.275 OA
ATOM      6  C   UNL A   1      33.709  25.673  22.768  1.00  0.00     0.225 C 
ATOM      7  H   UNL A   1      34.440  24.953  24.530  1.00  0.00     0.163 HD
BRANCH   6   8
ATOM      8  C   UNL A   1      33.266  26.935  23.502  1.00  0.00     0.154 C 
BRANCH   8   9
ATOM      9  C   UNL A   1      31.767  27.031  23.560  1.00  0.00     0.032 A 
ATOM     10  C   UNL A   1      30.990  28.028  22.987  1.00  0.00     0.024 A 
ATOM     11  N   UNL A   1      30.900  26.093  24.115  1.00  0.00    -0.318 N 
ATOM     12  C   UNL A   1      29.638  27.655  23.099  1.00  0.00     0.020 A 
ATOM     13  C   UNL A   1      29.613  26.440  23.741  1.00  0.00     0.091 A 
BRANCH  11  14
ATOM     14  C   UNL A   1      31.194  24.946  24.896  1.00  0.00     0.081 A 
ATOM     15  C   UNL A   1      30.998  23.671  24.341  1.00  0.00     0.030 A 
ATOM     16  C   UNL A   1      31.631  25.054  26.216  1.00  0.00     0.147 A 
ATOM     17  C   UNL A   1      31.279  22.530  25.096  1.00  0.00     0.002 A 
ATOM     18  C   UNL A   1      31.922  23.914  26.964  1.00  0.00     0.041 A 
ATOM     19  F   UNL A   1      31.717  26.242  26.830  1.00  0.00    -0.205 F 
ATOM     20  C   UNL A   1      31.754  22.650  26.402  1.00  0.00     0.003 A 
ENDBRANCH  11  14
ENDBRANCH   8   9
ENDBRANCH   6   8
ENDBRANCH   3   4
ENDBRANCH   2   3
ENDBRANCH   1   2
BRANCH   1  21
ATOM     21  C   UNL A   1      36.530  20.618  25.166  1.00  0.00     0.002 C 
BRANCH  21  22
ATOM     22  C   UNL A   1      37.833  19.877  24.855  1.00  0.00     0.021 C 
BRANCH  22  23
ATOM     23  C   UNL A   1      39.013  20.343  25.705  1.00  0.00     0.116 C 
BRANCH  23  24
ATOM     24  N   UNL A   1      39.982  19.274  25.913  1.00  0.00    -0.352 N 
ATOM     25  C   UNL A   1      41.344  19.367  26.072  1.00  0.00     0.251 C 
ATOM     26  H   UNL A   1      39.611  18.363  25.945  1.00  0.00     0.163 HD
ATOM     27  O   UNL A   1      42.059  18.393  25.904  1.00  0.00    -0.269 OA
BRANCH  25  28
ATOM     28  C   UNL A   1      41.942  20.663  26.440  1.00  0.00     0.039 A 
ATOM     29  C   UNL A   1      42.462  21.483  25.432  1.00  0.00     0.014 A 
ATOM     30  C   UNL A   1      42.015  21.042  27.785  1.00  0.00     0.014 A 
ATOM     31  C   UNL A   1      42.985  22.724  25.771  1.00  0.00     0.010 A 
ATOM     32  C   UNL A   1      42.492  22.296  28.122  1.00  0.00     0.010 A 
ATOM     33  C   UNL A   1      42.971  23.136  27.112  1.00  0.00    -0.014 A 
BRANCH  33  34
ATOM     34  C   UNL A   1      43.366  24.517  27.448  1.00  0.00     0.031 A 
ATOM     35  C   UNL A   1      42.143  25.436  27.617  1.00  0.00     0.074 A 
ATOM     36  C   UNL A   1      44.711  24.748  27.533  1.00  0.00     0.049 A 
ATOM     37  N   UNL A   1      42.028  26.710  27.410  1.00  0.00    -0.248 NA
ATOM     38  C   UNL A   1      40.835  24.841  28.010  1.00  0.00     0.031 C 
ATOM     39  C   UNL A   1      45.755  23.705  27.382  1.00  0.00     0.029 A 
ATOM     40  N   UNL A   1      45.483  25.866  27.759  1.00  0.00    -0.354 N 
ATOM     41  C   UNL A   1      40.713  27.096  27.761  1.00  0.00     0.074 A 
ATOM     42  C   UNL A   1      40.001  25.885  28.041  1.00  0.00     0.031 C 
ATOM     43  C   UNL A   1      46.992  24.242  27.441  1.00  0.00     0.029 A 
ATOM     44  C   UNL A   1      46.882  25.673  27.623  1.00  0.00     0.049 A 
ATOM     45  H   UNL A   1      45.092  26.737  27.996  1.00  0.00     0.167 HD
ATOM     46  C   UNL A   1      40.335  28.401  27.917  1.00  0.00     0.031 A 
ATOM     47  C   UNL A   1      47.881  26.608  27.587  1.00  0.00     0.031 A 
ATOM     48  C   UNL A   1      41.416  29.264  27.587  1.00  0.00     0.049 A 
ATOM     49  C   UNL A   1      47.224  27.901  27.822  1.00  0.00     0.074 A 
ATOM     50  C   UNL A   1      42.020  29.595  26.402  1.00  0.00     0.029 A 
ATOM     51  N   UNL A   1      42.249  29.601  28.626  1.00  0.00    -0.354 N 
ATOM     52  N   UNL A   1      46.757  28.310  28.962  1.00  0.00    -0.248 NA
ATOM     53  C   UNL A   1      46.980  28.776  26.669  1.00  0.00     0.031 C 
ATOM     54  C   UNL A   1      43.391  29.619  26.743  1.00  0.00     0.029 A 
ATOM     55  C   UNL A   1      43.527  29.541  28.133  1.00  0.00     0.049 A 
ATOM     56  H   UNL A   1      41.981  29.838  29.544  1.00  0.00     0.167 HD
ATOM     57  C   UNL A   1      45.852  29.266  28.575  1.00  0.00     0.074 A 
ATOM     58  C   UNL A   1      46.259  29.722  27.264  1.00  0.00     0.031 C 
ATOM     59  C   UNL A   1      44.586  29.230  29.060  1.00  0.00     0.031 A 
BRANCH  46  60
ATOM     60  C   UNL A   1      39.150  29.035  28.599  1.00  0.00    -0.014 A 
ATOM     61  C   UNL A   1      38.945  28.723  29.968  1.00  0.00     0.009 A 
ATOM     62  C   UNL A   1      38.080  29.612  27.910  1.00  0.00     0.009 A 
ATOM     63  C   UNL A   1      37.696  28.855  30.579  1.00  0.00     0.001 A 
ATOM     64  C   UNL A   1      36.834  29.782  28.537  1.00  0.00     0.001 A 
ATOM     65  C   UNL A   1      36.632  29.368  29.853  1.00  0.00     0.000 A 
ENDBRANCH  46  60
BRANCH  47  66
ATOM     66  C   UNL A   1      49.347  26.667  27.240  1.00  0.00    -0.014 A 
ATOM     67  C   UNL A   1      49.957  26.085  26.127  1.00  0.00     0.009 A 
ATOM     68  C   UNL A   1      50.205  27.444  28.069  1.00  0.00     0.009 A 
ATOM     69  C   UNL A   1      51.307  26.359  25.811  1.00  0.00     0.001 A 
ATOM     70  C   UNL A   1      51.524  27.758  27.737  1.00  0.00     0.001 A 
ATOM     71  C   UNL A   1      52.076  27.224  26.590  1.00  0.00     0.000 A 
ENDBRANCH  47  66
BRANCH  59  72
ATOM     72  C   UNL A   1      44.410  28.486  30.373  1.00  0.00    -0.014 A 
ATOM     73  C   UNL A   1      44.797  29.101  31.574  1.00  0.00     0.009 A 
ATOM     74  C   UNL A   1      43.968  27.153  30.450  1.00  0.00     0.009 A 
ATOM     75  C   UNL A   1      44.754  28.414  32.794  1.00  0.00     0.001 A 
ATOM     76  C   UNL A   1      43.924  26.459  31.669  1.00  0.00     0.001 A 
ATOM     77  C   UNL A   1      44.320  27.092  32.844  1.00  0.00     0.000 A 
ENDBRANCH  59  72
ENDBRANCH  33  34
ENDBRANCH  25  28
ENDBRANCH  23  24
ENDBRANCH  22  23
ENDBRANCH  21  22
ENDBRANCH   1  21
TORSDOF 15
ENDMDL
