MODEL 1
REMARK VINA RESULT:     -10.2      0.000      0.000
REMARK SMILES CC(C)c1nc(N(C)CCc2ccccn2)sc1C(=O)NCCCCCCNC(=O)c1ccc(-c2c3nc(c(-c4ccccc4)c4ccc([nH]4)c(-c4ccccc4)c4nc(c(-c5ccccc5)c5ccc2[nH]5)C=C4)C=C3)cc1
REMARK SMILES IDX 23 1 22 2 21 3 19 4 20 5 18 7 4 8 5 9 6 10 17 11 2 12 1 13
REMARK SMILES IDX 3 14 7 15 8 16 9 17 10 18 11 19 12 20 16 21 13 22 15 23
REMARK SMILES IDX 14 24 24 25 25 26 26 27 27 28 28 29 29 30 30 32 31 33 32 34
REMARK SMILES IDX 78 35 33 36 77 37 34 38 35 39 36 40 71 41 37 42 76 43 70 44
REMARK SMILES IDX 72 45 38 46 75 47 69 48 68 49 39 51 61 52 46 53 60 54 47 55
REMARK SMILES IDX 50 56 59 57 73 58 48 59 49 60 58 62 74 63 51 64 40 65 41 66
REMARK SMILES IDX 45 67 42 68 44 69 43 70 62 71 63 72 67 73 64 74 66 75 65 76
REMARK SMILES IDX 52 77 53 78 57 79 54 80 56 81 55 82
REMARK H PARENT 21 6 28 31 72 50 50 61
REMARK Flexibility Score: inf
ROOT
ATOM      1  C   UNL A   1      34.613  24.202  25.456  1.00  0.00     0.021 C 
ENDROOT
BRANCH   1   2
ATOM      2  C   UNL A   1      35.293  23.974  24.110  1.00  0.00     0.116 C 
BRANCH   2   3
ATOM      3  N   UNL A   1      34.455  23.308  23.154  1.00  0.00    -0.351 N 
ATOM      4  C   UNL A   1      33.150  23.394  22.755  1.00  0.00     0.263 C 
ATOM      5  O   UNL A   1      32.985  22.778  21.690  1.00  0.00    -0.268 OA
ATOM      6  H   UNL A   1      34.944  22.613  22.658  1.00  0.00     0.163 HD
BRANCH   4   7
ATOM      7  C   UNL A   1      32.040  24.051  23.447  1.00  0.00     0.117 A 
ATOM      8  C   UNL A   1      31.161  23.864  24.517  1.00  0.00     0.069 A 
ATOM      9  N   UNL A   1      30.234  24.897  24.685  1.00  0.00    -0.224 NA
ATOM     10  C   UNL A   1      30.357  25.867  23.814  1.00  0.00     0.186 A 
ATOM     11  S   UNL A   1      31.641  25.597  22.725  1.00  0.00    -0.091 S 
BRANCH   8  12
ATOM     12  C   UNL A   1      31.024  22.757  25.536  1.00  0.00     0.034 C 
ATOM     13  C   UNL A   1      31.860  21.507  25.216  1.00  0.00     0.014 C 
ATOM     14  C   UNL A   1      31.395  23.235  26.947  1.00  0.00     0.014 C 
ENDBRANCH   8  12
BRANCH  10  15
ATOM     15  N   UNL A   1      29.534  26.957  23.784  1.00  0.00    -0.351 N 
ATOM     16  C   UNL A   1      28.082  26.875  23.802  1.00  0.00     0.146 C 
BRANCH  15  17
ATOM     17  C   UNL A   1      30.124  28.301  23.705  1.00  0.00     0.125 C 
BRANCH  17  18
ATOM     18  C   UNL A   1      30.080  28.878  22.286  1.00  0.00     0.077 C 
BRANCH  18  19
ATOM     19  C   UNL A   1      29.310  30.169  22.205  1.00  0.00     0.042 A 
ATOM     20  C   UNL A   1      29.100  30.943  23.344  1.00  0.00     0.024 A 
ATOM     21  N   UNL A   1      28.864  30.537  20.978  1.00  0.00    -0.261 NA
ATOM     22  C   UNL A   1      28.421  32.150  23.218  1.00  0.00     0.003 A 
ATOM     23  C   UNL A   1      28.215  31.717  20.887  1.00  0.00     0.111 A 
ATOM     24  C   UNL A   1      27.966  32.545  21.967  1.00  0.00     0.020 A 
ENDBRANCH  18  19
ENDBRANCH  17  18
ENDBRANCH  15  17
ENDBRANCH  10  15
ENDBRANCH   4   7
ENDBRANCH   2   3
ENDBRANCH   1   2
BRANCH   1  25
ATOM     25  C   UNL A   1      34.659  25.658  25.927  1.00  0.00     0.002 C 
BRANCH  25  26
ATOM     26  C   UNL A   1      33.928  26.684  25.052  1.00  0.00     0.002 C 
BRANCH  26  27
ATOM     27  C   UNL A   1      33.067  27.715  25.785  1.00  0.00     0.021 C 
BRANCH  27  28
ATOM     28  C   UNL A   1      33.565  28.121  27.171  1.00  0.00     0.116 C 
BRANCH  28  29
ATOM     29  N   UNL A   1      33.498  29.558  27.383  1.00  0.00    -0.352 N 
ATOM     30  C   UNL A   1      34.400  30.432  27.925  1.00  0.00     0.251 C 
ATOM     31  H   UNL A   1      32.659  29.975  27.082  1.00  0.00     0.163 HD
ATOM     32  O   UNL A   1      34.041  31.582  28.186  1.00  0.00    -0.269 OA
BRANCH  30  33
ATOM     33  C   UNL A   1      35.791  30.026  28.211  1.00  0.00     0.039 A 
ATOM     34  C   UNL A   1      36.103  29.571  29.496  1.00  0.00     0.014 A 
ATOM     35  C   UNL A   1      36.803  30.156  27.256  1.00  0.00     0.014 A 
ATOM     36  C   UNL A   1      37.412  29.200  29.809  1.00  0.00     0.010 A 
ATOM     37  C   UNL A   1      38.097  29.725  27.549  1.00  0.00     0.010 A 
ATOM     38  C   UNL A   1      38.415  29.248  28.829  1.00  0.00    -0.014 A 
BRANCH  38  39
ATOM     39  C   UNL A   1      39.798  28.798  29.126  1.00  0.00     0.031 A 
ATOM     40  C   UNL A   1      40.776  29.726  29.794  1.00  0.00     0.074 A 
ATOM     41  C   UNL A   1      40.192  27.567  28.745  1.00  0.00     0.049 A 
ATOM     42  N   UNL A   1      42.040  29.528  30.078  1.00  0.00    -0.248 NA
ATOM     43  C   UNL A   1      40.276  31.057  30.173  1.00  0.00     0.031 C 
ATOM     44  C   UNL A   1      39.350  26.580  28.065  1.00  0.00     0.029 A 
ATOM     45  N   UNL A   1      41.406  26.939  28.870  1.00  0.00    -0.354 N 
ATOM     46  C   UNL A   1      42.488  30.710  30.652  1.00  0.00     0.074 A 
ATOM     47  C   UNL A   1      41.375  31.635  30.637  1.00  0.00     0.031 C 
ATOM     48  C   UNL A   1      40.066  25.464  27.852  1.00  0.00     0.029 A 
ATOM     49  C   UNL A   1      41.425  25.671  28.341  1.00  0.00     0.049 A 
ATOM     50  H   UNL A   1      42.188  27.357  29.296  1.00  0.00     0.167 HD
ATOM     51  C   UNL A   1      43.711  30.997  31.160  1.00  0.00     0.031 A 
ATOM     52  C   UNL A   1      42.427  24.775  28.252  1.00  0.00     0.031 A 
ATOM     53  C   UNL A   1      44.816  30.076  31.183  1.00  0.00     0.049 A 
ATOM     54  C   UNL A   1      43.779  25.126  28.805  1.00  0.00     0.074 A 
ATOM     55  C   UNL A   1      46.078  30.258  31.723  1.00  0.00     0.029 A 
ATOM     56  N   UNL A   1      44.793  28.800  30.642  1.00  0.00    -0.354 N 
ATOM     57  N   UNL A   1      44.170  26.228  29.399  1.00  0.00    -0.248 NA
ATOM     58  C   UNL A   1      44.829  24.103  28.683  1.00  0.00     0.031 C 
ATOM     59  C   UNL A   1      46.834  29.110  31.463  1.00  0.00     0.029 A 
ATOM     60  C   UNL A   1      46.025  28.192  30.813  1.00  0.00     0.049 A 
ATOM     61  H   UNL A   1      44.015  28.387  30.202  1.00  0.00     0.167 HD
ATOM     62  C   UNL A   1      45.497  26.019  29.748  1.00  0.00     0.074 A 
ATOM     63  C   UNL A   1      45.841  24.681  29.313  1.00  0.00     0.031 C 
ATOM     64  C   UNL A   1      46.353  26.860  30.377  1.00  0.00     0.031 A 
BRANCH  51  65
ATOM     65  C   UNL A   1      43.922  32.374  31.726  1.00  0.00    -0.014 A 
ATOM     66  C   UNL A   1      43.759  32.632  33.097  1.00  0.00     0.009 A 
ATOM     67  C   UNL A   1      44.333  33.420  30.885  1.00  0.00     0.009 A 
ATOM     68  C   UNL A   1      43.969  33.915  33.606  1.00  0.00     0.001 A 
ATOM     69  C   UNL A   1      44.570  34.695  31.401  1.00  0.00     0.001 A 
ATOM     70  C   UNL A   1      44.380  34.944  32.759  1.00  0.00     0.000 A 
ENDBRANCH  51  65
BRANCH  52  71
ATOM     71  C   UNL A   1      42.188  23.451  27.620  1.00  0.00    -0.014 A 
ATOM     72  C   UNL A   1      42.553  23.226  26.283  1.00  0.00     0.009 A 
ATOM     73  C   UNL A   1      41.586  22.411  28.344  1.00  0.00     0.009 A 
ATOM     74  C   UNL A   1      42.294  21.994  25.677  1.00  0.00     0.001 A 
ATOM     75  C   UNL A   1      41.356  21.171  27.745  1.00  0.00     0.001 A 
ATOM     76  C   UNL A   1      41.699  20.966  26.410  1.00  0.00     0.000 A 
ENDBRANCH  52  71
BRANCH  64  77
ATOM     77  C   UNL A   1      47.734  26.345  30.668  1.00  0.00    -0.014 A 
ATOM     78  C   UNL A   1      48.062  25.795  31.916  1.00  0.00     0.009 A 
ATOM     79  C   UNL A   1      48.712  26.377  29.660  1.00  0.00     0.009 A 
ATOM     80  C   UNL A   1      49.351  25.316  32.160  1.00  0.00     0.001 A 
ATOM     81  C   UNL A   1      49.991  25.871  29.898  1.00  0.00     0.001 A 
ATOM     82  C   UNL A   1      50.312  25.350  31.149  1.00  0.00     0.000 A 
ENDBRANCH  64  77
ENDBRANCH  38  39
ENDBRANCH  30  33
ENDBRANCH  28  29
ENDBRANCH  27  28
ENDBRANCH  26  27
ENDBRANCH  25  26
ENDBRANCH   1  25
TORSDOF 18
ENDMDL
MODEL 2
REMARK VINA RESULT:      -9.9      5.827     10.957
REMARK SMILES CC(C)c1nc(N(C)CCc2ccccn2)sc1C(=O)NCCCCCCNC(=O)c1ccc(-c2c3nc(c(-c4ccccc4)c4ccc([nH]4)c(-c4ccccc4)c4nc(c(-c5ccccc5)c5ccc2[nH]5)C=C4)C=C3)cc1
REMARK SMILES IDX 23 1 22 2 21 3 19 4 20 5 18 7 4 8 5 9 6 10 17 11 2 12 1 13
REMARK SMILES IDX 3 14 7 15 8 16 9 17 10 18 11 19 12 20 16 21 13 22 15 23
REMARK SMILES IDX 14 24 24 25 25 26 26 27 27 28 28 29 29 30 30 32 31 33 32 34
REMARK SMILES IDX 78 35 33 36 77 37 34 38 35 39 36 40 71 41 37 42 76 43 70 44
REMARK SMILES IDX 72 45 38 46 75 47 69 48 68 49 39 51 61 52 46 53 60 54 47 55
REMARK SMILES IDX 50 56 59 57 73 58 48 59 49 60 58 62 74 63 51 64 40 65 41 66
REMARK SMILES IDX 45 67 42 68 44 69 43 70 62 71 63 72 67 73 64 74 66 75 65 76
REMARK SMILES IDX 52 77 53 78 57 79 54 80 56 81 55 82
REMARK H PARENT 21 6 28 31 72 50 50 61
REMARK Flexibility Score: inf
ROOT
ATOM      1  C   UNL A   1      35.250  34.141  34.126  1.00  0.00     0.021 C 
ENDROOT
BRANCH   1   2
ATOM      2  C   UNL A   1      36.507  33.531  34.738  1.00  0.00     0.116 C 
BRANCH   2   3
ATOM      3  N   UNL A   1      36.925  32.320  34.092  1.00  0.00    -0.351 N 
ATOM      4  C   UNL A   1      37.855  31.345  34.326  1.00  0.00     0.263 C 
ATOM      5  O   UNL A   1      37.630  30.356  33.610  1.00  0.00    -0.268 OA
ATOM      6  H   UNL A   1      36.411  32.146  33.271  1.00  0.00     0.163 HD
BRANCH   4   7
ATOM      7  C   UNL A   1      39.004  31.397  35.231  1.00  0.00     0.117 A 
ATOM      8  C   UNL A   1      39.481  32.092  36.346  1.00  0.00     0.069 A 
ATOM      9  N   UNL A   1      40.746  31.683  36.778  1.00  0.00    -0.224 NA
ATOM     10  C   UNL A   1      41.261  30.712  36.068  1.00  0.00     0.186 A 
ATOM     11  S   UNL A   1      40.220  30.206  34.817  1.00  0.00    -0.091 S 
BRANCH   8  12
ATOM     12  C   UNL A   1      38.885  33.201  37.181  1.00  0.00     0.034 C 
ATOM     13  C   UNL A   1      37.691  32.761  38.043  1.00  0.00     0.014 C 
ATOM     14  C   UNL A   1      39.931  33.843  38.103  1.00  0.00     0.014 C 
ENDBRANCH   8  12
BRANCH  10  15
ATOM     15  N   UNL A   1      42.500  30.187  36.303  1.00  0.00    -0.351 N 
ATOM     16  C   UNL A   1      42.973  28.941  35.722  1.00  0.00     0.146 C 
BRANCH  15  17
ATOM     17  C   UNL A   1      43.418  30.891  37.210  1.00  0.00     0.125 C 
BRANCH  17  18
ATOM     18  C   UNL A   1      44.647  30.048  37.570  1.00  0.00     0.077 C 
BRANCH  18  19
ATOM     19  C   UNL A   1      45.911  30.558  36.932  1.00  0.00     0.042 A 
ATOM     20  C   UNL A   1      46.820  29.675  36.354  1.00  0.00     0.024 A 
ATOM     21  N   UNL A   1      46.096  31.902  36.934  1.00  0.00    -0.261 NA
ATOM     22  C   UNL A   1      47.956  30.190  35.738  1.00  0.00     0.003 A 
ATOM     23  C   UNL A   1      47.203  32.372  36.322  1.00  0.00     0.111 A 
ATOM     24  C   UNL A   1      48.155  31.565  35.723  1.00  0.00     0.020 A 
ENDBRANCH  18  19
ENDBRANCH  17  18
ENDBRANCH  15  17
ENDBRANCH  10  15
ENDBRANCH   4   7
ENDBRANCH   2   3
ENDBRANCH   1   2
BRANCH   1  25
ATOM     25  C   UNL A   1      35.537  35.283  33.148  1.00  0.00     0.002 C 
BRANCH  25  26
ATOM     26  C   UNL A   1      34.511  36.422  33.105  1.00  0.00     0.002 C 
BRANCH  26  27
ATOM     27  C   UNL A   1      33.652  36.520  31.841  1.00  0.00     0.021 C 
BRANCH  27  28
ATOM     28  C   UNL A   1      32.690  35.356  31.610  1.00  0.00     0.116 C 
BRANCH  28  29
ATOM     29  N   UNL A   1      32.460  35.102  30.197  1.00  0.00    -0.352 N 
ATOM     30  C   UNL A   1      33.283  34.601  29.226  1.00  0.00     0.251 C 
ATOM     31  H   UNL A   1      31.554  35.328  29.885  1.00  0.00     0.163 HD
ATOM     32  O   UNL A   1      32.929  34.663  28.046  1.00  0.00    -0.269 OA
BRANCH  30  33
ATOM     33  C   UNL A   1      34.588  33.993  29.558  1.00  0.00     0.039 A 
ATOM     34  C   UNL A   1      34.623  32.964  30.504  1.00  0.00     0.014 A 
ATOM     35  C   UNL A   1      35.780  34.473  29.007  1.00  0.00     0.014 A 
ATOM     36  C   UNL A   1      35.841  32.382  30.859  1.00  0.00     0.010 A 
ATOM     37  C   UNL A   1      36.988  33.848  29.314  1.00  0.00     0.010 A 
ATOM     38  C   UNL A   1      37.032  32.800  30.246  1.00  0.00    -0.014 A 
BRANCH  38  39
ATOM     39  C   UNL A   1      38.328  32.150  30.566  1.00  0.00     0.031 A 
ATOM     40  C   UNL A   1      39.319  32.826  31.473  1.00  0.00     0.074 A 
ATOM     41  C   UNL A   1      38.637  30.970  29.994  1.00  0.00     0.049 A 
ATOM     42  N   UNL A   1      40.522  32.438  31.818  1.00  0.00    -0.248 NA
ATOM     43  C   UNL A   1      38.915  34.117  32.054  1.00  0.00     0.031 C 
ATOM     44  C   UNL A   1      37.776  30.223  29.074  1.00  0.00     0.029 A 
ATOM     45  N   UNL A   1      39.765  30.195  30.097  1.00  0.00    -0.354 N 
ATOM     46  C   UNL A   1      41.022  33.441  32.639  1.00  0.00     0.074 A 
ATOM     47  C   UNL A   1      40.011  34.474  32.707  1.00  0.00     0.031 C 
ATOM     48  C   UNL A   1      38.398  29.088  28.714  1.00  0.00     0.029 A 
ATOM     49  C   UNL A   1      39.714  29.048  29.343  1.00  0.00     0.049 A 
ATOM     50  H   UNL A   1      40.537  30.439  30.657  1.00  0.00     0.167 HD
ATOM     51  C   UNL A   1      42.209  33.490  33.289  1.00  0.00     0.031 A 
ATOM     52  C   UNL A   1      40.629  28.074  29.169  1.00  0.00     0.031 A 
ATOM     53  C   UNL A   1      43.211  32.460  33.229  1.00  0.00     0.049 A 
ATOM     54  C   UNL A   1      41.945  28.164  29.887  1.00  0.00     0.074 A 
ATOM     55  C   UNL A   1      44.424  32.398  33.896  1.00  0.00     0.029 A 
ATOM     56  N   UNL A   1      43.119  31.312  32.458  1.00  0.00    -0.354 N 
ATOM     57  N   UNL A   1      42.379  29.091  30.707  1.00  0.00    -0.248 NA
ATOM     58  C   UNL A   1      42.897  27.066  29.661  1.00  0.00     0.031 C 
ATOM     59  C   UNL A   1      45.087  31.236  33.487  1.00  0.00     0.029 A 
ATOM     60  C   UNL A   1      44.264  30.547  32.612  1.00  0.00     0.049 A 
ATOM     61  H   UNL A   1      42.354  31.076  31.886  1.00  0.00     0.167 HD
ATOM     62  C   UNL A   1      43.637  28.673  31.118  1.00  0.00     0.074 A 
ATOM     63  C   UNL A   1      43.892  27.404  30.470  1.00  0.00     0.031 C 
ATOM     64  C   UNL A   1      44.503  29.285  31.962  1.00  0.00     0.031 A 
BRANCH  51  65
ATOM     65  C   UNL A   1      42.494  34.712  34.119  1.00  0.00    -0.014 A 
ATOM     66  C   UNL A   1      42.220  34.738  35.497  1.00  0.00     0.009 A 
ATOM     67  C   UNL A   1      43.088  35.837  33.526  1.00  0.00     0.009 A 
ATOM     68  C   UNL A   1      42.501  35.878  36.253  1.00  0.00     0.001 A 
ATOM     69  C   UNL A   1      43.394  36.964  34.290  1.00  0.00     0.001 A 
ATOM     70  C   UNL A   1      43.093  36.987  35.651  1.00  0.00     0.000 A 
ENDBRANCH  51  65
BRANCH  52  71
ATOM     71  C   UNL A   1      40.327  26.920  28.282  1.00  0.00    -0.014 A 
ATOM     72  C   UNL A   1      40.837  26.877  26.975  1.00  0.00     0.009 A 
ATOM     73  C   UNL A   1      39.523  25.862  28.733  1.00  0.00     0.009 A 
ATOM     74  C   UNL A   1      40.522  25.810  26.128  1.00  0.00     0.001 A 
ATOM     75  C   UNL A   1      39.235  24.784  27.894  1.00  0.00     0.001 A 
ATOM     76  C   UNL A   1      39.726  24.763  26.590  1.00  0.00     0.000 A 
ENDBRANCH  52  71
BRANCH  64  77
ATOM     77  C   UNL A   1      45.791  28.572  32.263  1.00  0.00    -0.014 A 
ATOM     78  C   UNL A   1      45.897  27.675  33.336  1.00  0.00     0.009 A 
ATOM     79  C   UNL A   1      46.905  28.775  31.432  1.00  0.00     0.009 A 
ATOM     80  C   UNL A   1      47.103  27.019  33.591  1.00  0.00     0.001 A 
ATOM     81  C   UNL A   1      48.100  28.096  31.672  1.00  0.00     0.001 A 
ATOM     82  C   UNL A   1      48.201  27.226  32.756  1.00  0.00     0.000 A 
ENDBRANCH  64  77
ENDBRANCH  38  39
ENDBRANCH  30  33
ENDBRANCH  28  29
ENDBRANCH  27  28
ENDBRANCH  26  27
ENDBRANCH  25  26
ENDBRANCH   1  25
TORSDOF 18
ENDMDL
MODEL 3
REMARK VINA RESULT:      -9.7      0.849      5.911
REMARK SMILES CC(C)c1nc(N(C)CCc2ccccn2)sc1C(=O)NCCCCCCNC(=O)c1ccc(-c2c3nc(c(-c4ccccc4)c4ccc([nH]4)c(-c4ccccc4)c4nc(c(-c5ccccc5)c5ccc2[nH]5)C=C4)C=C3)cc1
REMARK SMILES IDX 23 1 22 2 21 3 19 4 20 5 18 7 4 8 5 9 6 10 17 11 2 12 1 13
REMARK SMILES IDX 3 14 7 15 8 16 9 17 10 18 11 19 12 20 16 21 13 22 15 23
REMARK SMILES IDX 14 24 24 25 25 26 26 27 27 28 28 29 29 30 30 32 31 33 32 34
REMARK SMILES IDX 78 35 33 36 77 37 34 38 35 39 36 40 71 41 37 42 76 43 70 44
REMARK SMILES IDX 72 45 38 46 75 47 69 48 68 49 39 51 61 52 46 53 60 54 47 55
REMARK SMILES IDX 50 56 59 57 73 58 48 59 49 60 58 62 74 63 51 64 40 65 41 66
REMARK SMILES IDX 45 67 42 68 44 69 43 70 62 71 63 72 67 73 64 74 66 75 65 76
REMARK SMILES IDX 52 77 53 78 57 79 54 80 56 81 55 82
REMARK H PARENT 21 6 28 31 72 50 50 61
REMARK Flexibility Score: inf
ROOT
ATOM      1  C   UNL A   1      34.366  24.593  25.481  1.00  0.00     0.021 C 
ENDROOT
BRANCH   1   2
ATOM      2  C   UNL A   1      35.300  24.067  24.396  1.00  0.00     0.116 C 
BRANCH   2   3
ATOM      3  N   UNL A   1      34.607  23.531  23.259  1.00  0.00    -0.351 N 
ATOM      4  C   UNL A   1      33.483  23.848  22.548  1.00  0.00     0.263 C 
ATOM      5  O   UNL A   1      33.466  23.227  21.473  1.00  0.00    -0.268 OA
ATOM      6  H   UNL A   1      35.055  22.732  22.899  1.00  0.00     0.163 HD
BRANCH   4   7
ATOM      7  C   UNL A   1      32.390  24.737  22.942  1.00  0.00     0.117 A 
ATOM      8  C   UNL A   1      31.281  24.789  23.792  1.00  0.00     0.069 A 
ATOM      9  N   UNL A   1      30.547  25.975  23.704  1.00  0.00    -0.224 NA
ATOM     10  C   UNL A   1      31.031  26.837  22.846  1.00  0.00     0.186 A 
ATOM     11  S   UNL A   1      32.447  26.266  22.088  1.00  0.00    -0.091 S 
BRANCH   8  12
ATOM     12  C   UNL A   1      30.726  23.806  24.797  1.00  0.00     0.034 C 
ATOM     13  C   UNL A   1      31.517  22.491  24.884  1.00  0.00     0.014 C 
ATOM     14  C   UNL A   1      30.650  24.415  26.203  1.00  0.00     0.014 C 
ENDBRANCH   8  12
BRANCH  10  15
ATOM     15  N   UNL A   1      30.448  28.045  22.585  1.00  0.00    -0.351 N 
ATOM     16  C   UNL A   1      31.193  29.245  22.241  1.00  0.00     0.146 C 
BRANCH  15  17
ATOM     17  C   UNL A   1      28.986  28.169  22.671  1.00  0.00     0.125 C 
BRANCH  17  18
ATOM     18  C   UNL A   1      28.549  29.436  23.415  1.00  0.00     0.077 C 
BRANCH  18  19
ATOM     19  C   UNL A   1      28.309  30.601  22.493  1.00  0.00     0.042 A 
ATOM     20  C   UNL A   1      28.359  31.908  22.972  1.00  0.00     0.024 A 
ATOM     21  N   UNL A   1      28.072  30.308  21.189  1.00  0.00    -0.261 NA
ATOM     22  C   UNL A   1      28.174  32.957  22.078  1.00  0.00     0.003 A 
ATOM     23  C   UNL A   1      27.904  31.348  20.345  1.00  0.00     0.111 A 
ATOM     24  C   UNL A   1      27.938  32.674  20.739  1.00  0.00     0.020 A 
ENDBRANCH  18  19
ENDBRANCH  17  18
ENDBRANCH  15  17
ENDBRANCH  10  15
ENDBRANCH   4   7
ENDBRANCH   2   3
ENDBRANCH   1   2
BRANCH   1  25
ATOM     25  C   UNL A   1      34.651  26.042  25.885  1.00  0.00     0.002 C 
BRANCH  25  26
ATOM     26  C   UNL A   1      33.730  27.114  25.290  1.00  0.00     0.002 C 
BRANCH  26  27
ATOM     27  C   UNL A   1      32.725  27.758  26.247  1.00  0.00     0.021 C 
BRANCH  27  28
ATOM     28  C   UNL A   1      33.321  28.362  27.517  1.00  0.00     0.116 C 
BRANCH  28  29
ATOM     29  N   UNL A   1      33.401  29.812  27.456  1.00  0.00    -0.352 N 
ATOM     30  C   UNL A   1      34.384  30.678  27.848  1.00  0.00     0.251 C 
ATOM     31  H   UNL A   1      32.610  30.246  27.061  1.00  0.00     0.163 HD
ATOM     32  O   UNL A   1      34.143  31.887  27.882  1.00  0.00    -0.269 OA
BRANCH  30  33
ATOM     33  C   UNL A   1      35.724  30.197  28.240  1.00  0.00     0.039 A 
ATOM     34  C   UNL A   1      36.739  30.190  27.277  1.00  0.00     0.014 A 
ATOM     35  C   UNL A   1      35.975  29.686  29.517  1.00  0.00     0.014 A 
ATOM     36  C   UNL A   1      38.012  29.722  27.606  1.00  0.00     0.010 A 
ATOM     37  C   UNL A   1      37.262  29.278  29.863  1.00  0.00     0.010 A 
ATOM     38  C   UNL A   1      38.292  29.287  28.910  1.00  0.00    -0.014 A 
BRANCH  38  39
ATOM     39  C   UNL A   1      39.657  28.845  29.294  1.00  0.00     0.031 A 
ATOM     40  C   UNL A   1      40.180  27.508  28.845  1.00  0.00     0.074 A 
ATOM     41  C   UNL A   1      40.408  29.626  30.094  1.00  0.00     0.049 A 
ATOM     42  N   UNL A   1      41.321  26.930  29.131  1.00  0.00    -0.248 NA
ATOM     43  C   UNL A   1      39.300  26.705  27.981  1.00  0.00     0.031 C 
ATOM     44  C   UNL A   1      40.007  30.933  30.621  1.00  0.00     0.029 A 
ATOM     45  N   UNL A   1      41.664  29.431  30.610  1.00  0.00    -0.354 N 
ATOM     46  C   UNL A   1      41.288  25.694  28.497  1.00  0.00     0.074 A 
ATOM     47  C   UNL A   1      39.999  25.588  27.847  1.00  0.00     0.031 C 
ATOM     48  C   UNL A   1      41.006  31.431  31.367  1.00  0.00     0.029 A 
ATOM     49  C   UNL A   1      42.098  30.464  31.406  1.00  0.00     0.049 A 
ATOM     50  H   UNL A   1      42.203  28.628  30.429  1.00  0.00     0.167 HD
ATOM     51  C   UNL A   1      42.249  24.741  28.446  1.00  0.00     0.031 A 
ATOM     52  C   UNL A   1      43.244  30.613  32.097  1.00  0.00     0.031 A 
ATOM     53  C   UNL A   1      43.534  24.849  29.083  1.00  0.00     0.049 A 
ATOM     54  C   UNL A   1      44.285  29.532  32.040  1.00  0.00     0.074 A 
ATOM     55  C   UNL A   1      44.592  23.957  29.045  1.00  0.00     0.029 A 
ATOM     56  N   UNL A   1      43.936  25.913  29.876  1.00  0.00    -0.354 N 
ATOM     57  N   UNL A   1      44.262  28.395  31.386  1.00  0.00    -0.248 NA
ATOM     58  C   UNL A   1      45.517  29.759  32.811  1.00  0.00     0.031 C 
ATOM     59  C   UNL A   1      45.616  24.459  29.857  1.00  0.00     0.029 A 
ATOM     60  C   UNL A   1      45.216  25.689  30.353  1.00  0.00     0.049 A 
ATOM     61  H   UNL A   1      43.391  26.710  30.071  1.00  0.00     0.167 HD
ATOM     62  C   UNL A   1      45.484  27.788  31.641  1.00  0.00     0.074 A 
ATOM     63  C   UNL A   1      46.231  28.687  32.497  1.00  0.00     0.031 C 
ATOM     64  C   UNL A   1      45.948  26.593  31.202  1.00  0.00     0.031 A 
BRANCH  51  65
ATOM     65  C   UNL A   1      41.940  23.485  27.678  1.00  0.00    -0.014 A 
ATOM     66  C   UNL A   1      42.361  23.322  26.348  1.00  0.00     0.009 A 
ATOM     67  C   UNL A   1      41.259  22.431  28.307  1.00  0.00     0.009 A 
ATOM     68  C   UNL A   1      42.073  22.144  25.654  1.00  0.00     0.001 A 
ATOM     69  C   UNL A   1      40.998  21.244  27.620  1.00  0.00     0.001 A 
ATOM     70  C   UNL A   1      41.398  21.105  26.292  1.00  0.00     0.000 A 
ENDBRANCH  51  65
BRANCH  52  71
ATOM     71  C   UNL A   1      43.474  31.844  32.899  1.00  0.00    -0.014 A 
ATOM     72  C   UNL A   1      44.099  32.961  32.324  1.00  0.00     0.009 A 
ATOM     73  C   UNL A   1      43.079  31.905  34.244  1.00  0.00     0.009 A 
ATOM     74  C   UNL A   1      44.349  34.104  33.088  1.00  0.00     0.001 A 
ATOM     75  C   UNL A   1      43.303  33.059  34.997  1.00  0.00     0.001 A 
ATOM     76  C   UNL A   1      43.947  34.153  34.422  1.00  0.00     0.000 A 
ENDBRANCH  52  71
BRANCH  64  77
ATOM     77  C   UNL A   1      47.342  26.205  31.607  1.00  0.00    -0.014 A 
ATOM     78  C   UNL A   1      48.449  26.510  30.801  1.00  0.00     0.009 A 
ATOM     79  C   UNL A   1      47.551  25.556  32.835  1.00  0.00     0.009 A 
ATOM     80  C   UNL A   1      49.736  26.145  31.202  1.00  0.00     0.001 A 
ATOM     81  C   UNL A   1      48.841  25.219  33.246  1.00  0.00     0.001 A 
ATOM     82  C   UNL A   1      49.931  25.505  32.427  1.00  0.00     0.000 A 
ENDBRANCH  64  77
ENDBRANCH  38  39
ENDBRANCH  30  33
ENDBRANCH  28  29
ENDBRANCH  27  28
ENDBRANCH  26  27
ENDBRANCH  25  26
ENDBRANCH   1  25
TORSDOF 18
ENDMDL
