MODEL 1
REMARK VINA RESULT:     -10.3      0.000      0.000
REMARK SMILES CC(C)[C@H](NC(N)=O)C(=O)N[C@H](C)C(=O)NCCCCCCNC(=O)c1ccc(-c2c3nc(c(-c4ccccc4)c4ccc([nH]4)c(-c4ccccc4)c4nc(c(-c5ccccc5)c5ccc2[nH]5)C=C4)C=C3)cc1
REMARK SMILES IDX 19 1 18 2 17 3 16 4 14 5 15 6 12 8 13 9 11 10 9 11 10 12
REMARK SMILES IDX 4 14 2 15 1 16 3 17 5 18 6 19 7 21 8 22 20 25 21 26 22 27
REMARK SMILES IDX 23 28 24 29 25 31 26 32 27 33 73 34 28 35 72 36 29 37 30 38
REMARK SMILES IDX 31 39 66 40 32 41 71 42 65 43 67 44 33 45 70 46 64 47 63 48
REMARK SMILES IDX 34 50 56 51 41 52 55 53 42 54 45 55 54 56 68 57 43 58 44 59
REMARK SMILES IDX 53 61 69 62 46 63 35 64 36 65 40 66 37 67 39 68 38 69 57 70
REMARK SMILES IDX 58 71 62 72 59 73 61 74 60 75 47 76 48 77 52 78 49 79 51 80
REMARK SMILES IDX 50 81
REMARK H PARENT 16 7 11 13 5 20 7 23 7 24 23 30 67 49 45 60
REMARK Flexibility Score: inf
ROOT
ATOM      1  C   UNL A   1      34.834  19.625  24.888  1.00  0.00     0.002 C 
ENDROOT
BRANCH   1   2
ATOM      2  C   UNL A   1      33.651  20.385  24.289  1.00  0.00     0.021 C 
BRANCH   2   3
ATOM      3  C   UNL A   1      32.434  20.518  25.205  1.00  0.00     0.116 C 
BRANCH   3   4
ATOM      4  N   UNL A   1      32.686  21.348  26.373  1.00  0.00    -0.354 N 
ATOM      5  C   UNL A   1      32.034  22.446  26.865  1.00  0.00     0.242 C 
ATOM      6  O   UNL A   1      32.519  22.996  27.859  1.00  0.00    -0.273 OA
ATOM      7  H   UNL A   1      33.467  21.070  26.905  1.00  0.00     0.163 HD
BRANCH   5   8
ATOM      8  C   UNL A   1      30.855  23.108  26.100  1.00  0.00     0.168 C 
ATOM      9  C   UNL A   1      29.642  22.950  27.002  1.00  0.00     0.041 C 
BRANCH   8  10
ATOM     10  N   UNL A   1      31.298  24.410  25.568  1.00  0.00    -0.343 N 
ATOM     11  C   UNL A   1      32.156  24.957  24.676  1.00  0.00     0.243 C 
ATOM     12  O   UNL A   1      32.187  26.197  24.693  1.00  0.00    -0.273 OA
ATOM     13  H   UNL A   1      30.795  25.129  26.014  1.00  0.00     0.164 HD
BRANCH  11  14
ATOM     14  C   UNL A   1      32.910  24.207  23.556  1.00  0.00     0.175 C 
BRANCH  14  15
ATOM     15  C   UNL A   1      34.442  24.270  23.844  1.00  0.00     0.015 C 
ATOM     16  C   UNL A   1      34.765  24.217  25.342  1.00  0.00     0.010 C 
ATOM     17  C   UNL A   1      35.332  23.296  23.085  1.00  0.00     0.010 C 
ENDBRANCH  14  15
BRANCH  14  18
ATOM     18  N   UNL A   1      32.342  24.576  22.269  1.00  0.00    -0.326 N 
ATOM     19  C   UNL A   1      32.777  25.530  21.410  1.00  0.00     0.312 C 
ATOM     20  H   UNL A   1      31.546  24.072  21.988  1.00  0.00     0.166 HD
ATOM     21  N   UNL A   1      31.993  25.621  20.308  1.00  0.00    -0.352 N 
ATOM     22  O   UNL A   1      33.713  26.294  21.573  1.00  0.00    -0.249 OA
ATOM     23  H   UNL A   1      31.240  24.999  20.187  1.00  0.00     0.161 HD
ATOM     24  H   UNL A   1      32.176  26.309  19.629  1.00  0.00     0.161 HD
ENDBRANCH  14  18
ENDBRANCH  11  14
ENDBRANCH   8  10
ENDBRANCH   5   8
ENDBRANCH   3   4
ENDBRANCH   2   3
ENDBRANCH   1   2
BRANCH   1  25
ATOM     25  C   UNL A   1      36.138  20.420  24.982  1.00  0.00     0.002 C 
BRANCH  25  26
ATOM     26  C   UNL A   1      37.422  19.584  24.947  1.00  0.00     0.021 C 
BRANCH  26  27
ATOM     27  C   UNL A   1      38.671  20.296  25.460  1.00  0.00     0.116 C 
BRANCH  27  28
ATOM     28  N   UNL A   1      39.768  19.372  25.692  1.00  0.00    -0.352 N 
ATOM     29  C   UNL A   1      41.054  19.609  26.101  1.00  0.00     0.251 C 
ATOM     30  H   UNL A   1      39.554  18.426  25.528  1.00  0.00     0.163 HD
ATOM     31  O   UNL A   1      41.890  18.714  26.020  1.00  0.00    -0.269 OA
BRANCH  29  32
ATOM     32  C   UNL A   1      41.449  20.930  26.638  1.00  0.00     0.039 A 
ATOM     33  C   UNL A   1      41.945  21.889  25.749  1.00  0.00     0.014 A 
ATOM     34  C   UNL A   1      41.395  21.212  28.006  1.00  0.00     0.014 A 
ATOM     35  C   UNL A   1      42.352  23.135  26.228  1.00  0.00     0.010 A 
ATOM     36  C   UNL A   1      41.727  22.484  28.472  1.00  0.00     0.010 A 
ATOM     37  C   UNL A   1      42.226  23.453  27.591  1.00  0.00    -0.014 A 
BRANCH  37  38
ATOM     38  C   UNL A   1      42.626  24.793  28.092  1.00  0.00     0.031 A 
ATOM     39  C   UNL A   1      41.599  25.875  28.297  1.00  0.00     0.074 A 
ATOM     40  C   UNL A   1      43.924  25.042  28.349  1.00  0.00     0.049 A 
ATOM     41  N   UNL A   1      41.760  27.086  28.767  1.00  0.00    -0.248 NA
ATOM     42  C   UNL A   1      40.214  25.565  27.904  1.00  0.00     0.031 C 
ATOM     43  C   UNL A   1      45.024  24.095  28.150  1.00  0.00     0.029 A 
ATOM     44  N   UNL A   1      44.539  26.164  28.847  1.00  0.00    -0.354 N 
ATOM     45  C   UNL A   1      40.506  27.682  28.720  1.00  0.00     0.074 A 
ATOM     46  C   UNL A   1      39.605  26.721  28.121  1.00  0.00     0.031 C 
ATOM     47  C   UNL A   1      46.170  24.658  28.564  1.00  0.00     0.029 A 
ATOM     48  C   UNL A   1      45.894  26.016  29.022  1.00  0.00     0.049 A 
ATOM     49  H   UNL A   1      44.056  26.995  29.059  1.00  0.00     0.167 HD
ATOM     50  C   UNL A   1      40.130  28.908  29.156  1.00  0.00     0.031 A 
ATOM     51  C   UNL A   1      46.812  26.874  29.503  1.00  0.00     0.031 A 
ATOM     52  C   UNL A   1      41.025  29.865  29.751  1.00  0.00     0.049 A 
ATOM     53  C   UNL A   1      46.371  28.233  29.972  1.00  0.00     0.074 A 
ATOM     54  C   UNL A   1      40.733  31.116  30.267  1.00  0.00     0.029 A 
ATOM     55  N   UNL A   1      42.391  29.679  29.903  1.00  0.00    -0.354 N 
ATOM     56  N   UNL A   1      45.167  28.751  29.991  1.00  0.00    -0.248 NA
ATOM     57  C   UNL A   1      47.417  29.117  30.506  1.00  0.00     0.031 C 
ATOM     58  C   UNL A   1      41.931  31.709  30.679  1.00  0.00     0.029 A 
ATOM     59  C   UNL A   1      42.959  30.800  30.485  1.00  0.00     0.049 A 
ATOM     60  H   UNL A   1      42.884  28.870  29.638  1.00  0.00     0.167 HD
ATOM     61  C   UNL A   1      45.304  30.007  30.571  1.00  0.00     0.074 A 
ATOM     62  C   UNL A   1      46.706  30.162  30.904  1.00  0.00     0.031 C 
ATOM     63  C   UNL A   1      44.355  30.944  30.810  1.00  0.00     0.031 A 
BRANCH  50  64
ATOM     64  C   UNL A   1      38.682  29.288  28.995  1.00  0.00    -0.014 A 
ATOM     65  C   UNL A   1      38.195  29.811  27.785  1.00  0.00     0.009 A 
ATOM     66  C   UNL A   1      37.783  29.085  30.053  1.00  0.00     0.009 A 
ATOM     67  C   UNL A   1      36.849  30.161  27.654  1.00  0.00     0.001 A 
ATOM     68  C   UNL A   1      36.430  29.404  29.908  1.00  0.00     0.001 A 
ATOM     69  C   UNL A   1      35.967  29.951  28.713  1.00  0.00     0.000 A 
ENDBRANCH  50  64
BRANCH  51  70
ATOM     70  C   UNL A   1      48.239  26.465  29.595  1.00  0.00    -0.014 A 
ATOM     71  C   UNL A   1      49.124  26.710  28.534  1.00  0.00     0.009 A 
ATOM     72  C   UNL A   1      48.722  25.818  30.744  1.00  0.00     0.009 A 
ATOM     73  C   UNL A   1      50.453  26.290  28.609  1.00  0.00     0.001 A 
ATOM     74  C   UNL A   1      50.060  25.428  30.829  1.00  0.00     0.001 A 
ATOM     75  C   UNL A   1      50.921  25.654  29.757  1.00  0.00     0.000 A 
ENDBRANCH  51  70
BRANCH  63  76
ATOM     76  C   UNL A   1      44.793  32.203  31.508  1.00  0.00    -0.014 A 
ATOM     77  C   UNL A   1      45.217  33.333  30.793  1.00  0.00     0.009 A 
ATOM     78  C   UNL A   1      44.759  32.259  32.911  1.00  0.00     0.009 A 
ATOM     79  C   UNL A   1      45.643  34.478  31.470  1.00  0.00     0.001 A 
ATOM     80  C   UNL A   1      45.151  33.417  33.584  1.00  0.00     0.001 A 
ATOM     81  C   UNL A   1      45.606  34.520  32.864  1.00  0.00     0.000 A 
ENDBRANCH  63  76
ENDBRANCH  37  38
ENDBRANCH  29  32
ENDBRANCH  27  28
ENDBRANCH  26  27
ENDBRANCH  25  26
ENDBRANCH   1  25
TORSDOF 17
ENDMDL
MODEL 2
REMARK VINA RESULT:     -10.2      5.109      9.942
REMARK SMILES CC(C)[C@H](NC(N)=O)C(=O)N[C@H](C)C(=O)NCCCCCCNC(=O)c1ccc(-c2c3nc(c(-c4ccccc4)c4ccc([nH]4)c(-c4ccccc4)c4nc(c(-c5ccccc5)c5ccc2[nH]5)C=C4)C=C3)cc1
REMARK SMILES IDX 19 1 18 2 17 3 16 4 14 5 15 6 12 8 13 9 11 10 9 11 10 12
REMARK SMILES IDX 4 14 2 15 1 16 3 17 5 18 6 19 7 21 8 22 20 25 21 26 22 27
REMARK SMILES IDX 23 28 24 29 25 31 26 32 27 33 73 34 28 35 72 36 29 37 30 38
REMARK SMILES IDX 31 39 66 40 32 41 71 42 65 43 67 44 33 45 70 46 64 47 63 48
REMARK SMILES IDX 34 50 56 51 41 52 55 53 42 54 45 55 54 56 68 57 43 58 44 59
REMARK SMILES IDX 53 61 69 62 46 63 35 64 36 65 40 66 37 67 39 68 38 69 57 70
REMARK SMILES IDX 58 71 62 72 59 73 61 74 60 75 47 76 48 77 52 78 49 79 51 80
REMARK SMILES IDX 50 81
REMARK H PARENT 16 7 11 13 5 20 7 23 7 24 23 30 67 49 45 60
REMARK Flexibility Score: inf
ROOT
ATOM      1  C   UNL A   1      34.439  32.063  28.899  1.00  0.00     0.002 C 
ENDROOT
BRANCH   1   2
ATOM      2  C   UNL A   1      34.569  31.120  27.704  1.00  0.00     0.021 C 
BRANCH   2   3
ATOM      3  C   UNL A   1      33.260  30.811  26.976  1.00  0.00     0.116 C 
BRANCH   3   4
ATOM      4  N   UNL A   1      32.481  29.765  27.621  1.00  0.00    -0.354 N 
ATOM      5  C   UNL A   1      32.130  28.508  27.207  1.00  0.00     0.242 C 
ATOM      6  O   UNL A   1      31.396  27.851  27.951  1.00  0.00    -0.273 OA
ATOM      7  H   UNL A   1      32.147  30.004  28.516  1.00  0.00     0.163 HD
BRANCH   5   8
ATOM      8  C   UNL A   1      32.460  27.996  25.778  1.00  0.00     0.168 C 
ATOM      9  C   UNL A   1      33.788  27.267  25.901  1.00  0.00     0.041 C 
BRANCH   8  10
ATOM     10  N   UNL A   1      31.254  27.377  25.199  1.00  0.00    -0.343 N 
ATOM     11  C   UNL A   1      30.567  27.269  24.038  1.00  0.00     0.243 C 
ATOM     12  O   UNL A   1      29.494  26.656  24.135  1.00  0.00    -0.273 OA
ATOM     13  H   UNL A   1      30.787  26.865  25.898  1.00  0.00     0.164 HD
BRANCH  11  14
ATOM     14  C   UNL A   1      31.085  27.650  22.633  1.00  0.00     0.175 C 
BRANCH  14  15
ATOM     15  C   UNL A   1      32.457  26.949  22.390  1.00  0.00     0.015 C 
ATOM     16  C   UNL A   1      32.395  25.896  21.278  1.00  0.00     0.010 C 
ATOM     17  C   UNL A   1      33.670  27.847  22.189  1.00  0.00     0.010 C 
ENDBRANCH  14  15
BRANCH  14  18
ATOM     18  N   UNL A   1      30.889  29.076  22.423  1.00  0.00    -0.326 N 
ATOM     19  C   UNL A   1      29.753  29.714  22.051  1.00  0.00     0.312 C 
ATOM     20  H   UNL A   1      31.677  29.646  22.569  1.00  0.00     0.166 HD
ATOM     21  N   UNL A   1      29.936  31.052  21.926  1.00  0.00    -0.352 N 
ATOM     22  O   UNL A   1      28.679  29.206  21.779  1.00  0.00    -0.249 OA
ATOM     23  H   UNL A   1      30.808  31.452  22.148  1.00  0.00     0.161 HD
ATOM     24  H   UNL A   1      29.197  31.623  21.615  1.00  0.00     0.161 HD
ENDBRANCH  14  18
ENDBRANCH  11  14
ENDBRANCH   8  10
ENDBRANCH   5   8
ENDBRANCH   3   4
ENDBRANCH   2   3
ENDBRANCH   1   2
BRANCH   1  25
ATOM     25  C   UNL A   1      34.531  33.554  28.565  1.00  0.00     0.002 C 
BRANCH  25  26
ATOM     26  C   UNL A   1      33.216  34.334  28.666  1.00  0.00     0.021 C 
BRANCH  26  27
ATOM     27  C   UNL A   1      33.351  35.763  29.187  1.00  0.00     0.116 C 
BRANCH  27  28
ATOM     28  N   UNL A   1      32.607  35.966  30.418  1.00  0.00    -0.352 N 
ATOM     29  C   UNL A   1      32.790  35.425  31.664  1.00  0.00     0.251 C 
ATOM     30  H   UNL A   1      31.850  36.592  30.346  1.00  0.00     0.163 HD
ATOM     31  O   UNL A   1      31.915  35.554  32.515  1.00  0.00    -0.269 OA
BRANCH  29  32
ATOM     32  C   UNL A   1      34.027  34.684  31.996  1.00  0.00     0.039 A 
ATOM     33  C   UNL A   1      35.255  35.330  31.830  1.00  0.00     0.014 A 
ATOM     34  C   UNL A   1      33.994  33.348  32.407  1.00  0.00     0.014 A 
ATOM     35  C   UNL A   1      36.441  34.650  32.107  1.00  0.00     0.010 A 
ATOM     36  C   UNL A   1      35.175  32.695  32.760  1.00  0.00     0.010 A 
ATOM     37  C   UNL A   1      36.412  33.333  32.597  1.00  0.00    -0.014 A 
BRANCH  37  38
ATOM     38  C   UNL A   1      37.675  32.624  32.927  1.00  0.00     0.031 A 
ATOM     39  C   UNL A   1      38.395  32.898  34.220  1.00  0.00     0.074 A 
ATOM     40  C   UNL A   1      38.184  31.737  32.050  1.00  0.00     0.049 A 
ATOM     41  N   UNL A   1      39.483  32.342  34.692  1.00  0.00    -0.248 NA
ATOM     42  C   UNL A   1      37.835  33.947  35.087  1.00  0.00     0.031 C 
ATOM     43  C   UNL A   1      37.607  31.414  30.742  1.00  0.00     0.029 A 
ATOM     44  N   UNL A   1      39.295  30.936  32.130  1.00  0.00    -0.354 N 
ATOM     45  C   UNL A   1      39.739  32.975  35.902  1.00  0.00     0.074 A 
ATOM     46  C   UNL A   1      38.729  33.998  36.064  1.00  0.00     0.031 C 
ATOM     47  C   UNL A   1      38.342  30.451  30.164  1.00  0.00     0.029 A 
ATOM     48  C   UNL A   1      39.460  30.115  31.040  1.00  0.00     0.049 A 
ATOM     49  H   UNL A   1      39.914  30.946  32.895  1.00  0.00     0.167 HD
ATOM     50  C   UNL A   1      40.713  32.716  36.808  1.00  0.00     0.031 A 
ATOM     51  C   UNL A   1      40.403  29.191  30.776  1.00  0.00     0.031 A 
ATOM     52  C   UNL A   1      41.718  31.699  36.647  1.00  0.00     0.049 A 
ATOM     53  C   UNL A   1      41.478  28.929  31.793  1.00  0.00     0.074 A 
ATOM     54  C   UNL A   1      42.719  31.328  37.528  1.00  0.00     0.029 A 
ATOM     55  N   UNL A   1      41.855  30.897  35.525  1.00  0.00    -0.354 N 
ATOM     56  N   UNL A   1      41.660  29.485  32.966  1.00  0.00    -0.248 NA
ATOM     57  C   UNL A   1      42.465  27.894  31.456  1.00  0.00     0.031 C 
ATOM     58  C   UNL A   1      43.496  30.339  36.916  1.00  0.00     0.029 A 
ATOM     59  C   UNL A   1      42.937  30.045  35.682  1.00  0.00     0.049 A 
ATOM     60  H   UNL A   1      41.270  30.925  34.734  1.00  0.00     0.167 HD
ATOM     61  C   UNL A   1      42.760  28.843  33.522  1.00  0.00     0.074 A 
ATOM     62  C   UNL A   1      43.190  27.846  32.564  1.00  0.00     0.031 C 
ATOM     63  C   UNL A   1      43.356  29.058  34.720  1.00  0.00     0.031 A 
BRANCH  50  64
ATOM     64  C   UNL A   1      40.740  33.558  38.056  1.00  0.00    -0.014 A 
ATOM     65  C   UNL A   1      40.056  33.163  39.218  1.00  0.00     0.009 A 
ATOM     66  C   UNL A   1      41.491  34.743  38.084  1.00  0.00     0.009 A 
ATOM     67  C   UNL A   1      40.089  33.958  40.366  1.00  0.00     0.001 A 
ATOM     68  C   UNL A   1      41.551  35.520  39.244  1.00  0.00     0.001 A 
ATOM     69  C   UNL A   1      40.842  35.132  40.380  1.00  0.00     0.000 A 
ENDBRANCH  50  64
BRANCH  51  70
ATOM     70  C   UNL A   1      40.356  28.422  29.504  1.00  0.00    -0.014 A 
ATOM     71  C   UNL A   1      39.705  27.180  29.442  1.00  0.00     0.009 A 
ATOM     72  C   UNL A   1      40.970  28.923  28.345  1.00  0.00     0.009 A 
ATOM     73  C   UNL A   1      39.696  26.443  28.256  1.00  0.00     0.001 A 
ATOM     74  C   UNL A   1      40.932  28.198  27.151  1.00  0.00     0.001 A 
ATOM     75  C   UNL A   1      40.305  26.954  27.111  1.00  0.00     0.000 A 
ENDBRANCH  51  70
BRANCH  63  76
ATOM     76  C   UNL A   1      44.511  28.163  35.083  1.00  0.00    -0.014 A 
ATOM     77  C   UNL A   1      44.314  26.928  35.719  1.00  0.00     0.009 A 
ATOM     78  C   UNL A   1      45.818  28.561  34.760  1.00  0.00     0.009 A 
ATOM     79  C   UNL A   1      45.407  26.131  36.066  1.00  0.00     0.001 A 
ATOM     80  C   UNL A   1      46.906  27.747  35.077  1.00  0.00     0.001 A 
ATOM     81  C   UNL A   1      46.701  26.539  35.742  1.00  0.00     0.000 A 
ENDBRANCH  63  76
ENDBRANCH  37  38
ENDBRANCH  29  32
ENDBRANCH  27  28
ENDBRANCH  26  27
ENDBRANCH  25  26
ENDBRANCH   1  25
TORSDOF 17
ENDMDL
MODEL 3
REMARK VINA RESULT:     -10.1      5.308     10.258
REMARK SMILES CC(C)[C@H](NC(N)=O)C(=O)N[C@H](C)C(=O)NCCCCCCNC(=O)c1ccc(-c2c3nc(c(-c4ccccc4)c4ccc([nH]4)c(-c4ccccc4)c4nc(c(-c5ccccc5)c5ccc2[nH]5)C=C4)C=C3)cc1
REMARK SMILES IDX 19 1 18 2 17 3 16 4 14 5 15 6 12 8 13 9 11 10 9 11 10 12
REMARK SMILES IDX 4 14 2 15 1 16 3 17 5 18 6 19 7 21 8 22 20 25 21 26 22 27
REMARK SMILES IDX 23 28 24 29 25 31 26 32 27 33 73 34 28 35 72 36 29 37 30 38
REMARK SMILES IDX 31 39 66 40 32 41 71 42 65 43 67 44 33 45 70 46 64 47 63 48
REMARK SMILES IDX 34 50 56 51 41 52 55 53 42 54 45 55 54 56 68 57 43 58 44 59
REMARK SMILES IDX 53 61 69 62 46 63 35 64 36 65 40 66 37 67 39 68 38 69 57 70
REMARK SMILES IDX 58 71 62 72 59 73 61 74 60 75 47 76 48 77 52 78 49 79 51 80
REMARK SMILES IDX 50 81
REMARK H PARENT 16 7 11 13 5 20 7 23 7 24 23 30 67 49 45 60
REMARK Flexibility Score: inf
ROOT
ATOM      1  C   UNL A   1      34.518  32.060  28.906  1.00  0.00     0.002 C 
ENDROOT
BRANCH   1   2
ATOM      2  C   UNL A   1      34.381  31.402  27.533  1.00  0.00     0.021 C 
BRANCH   2   3
ATOM      3  C   UNL A   1      32.945  31.164  27.068  1.00  0.00     0.116 C 
BRANCH   3   4
ATOM      4  N   UNL A   1      32.331  29.999  27.685  1.00  0.00    -0.354 N 
ATOM      5  C   UNL A   1      32.135  28.724  27.224  1.00  0.00     0.242 C 
ATOM      6  O   UNL A   1      31.517  27.945  27.956  1.00  0.00    -0.273 OA
ATOM      7  H   UNL A   1      31.996  30.154  28.598  1.00  0.00     0.163 HD
BRANCH   5   8
ATOM      8  C   UNL A   1      32.485  28.319  25.766  1.00  0.00     0.168 C 
ATOM      9  C   UNL A   1      33.891  27.745  25.827  1.00  0.00     0.041 C 
BRANCH   8  10
ATOM     10  N   UNL A   1      31.343  27.592  25.182  1.00  0.00    -0.343 N 
ATOM     11  C   UNL A   1      30.697  27.392  24.010  1.00  0.00     0.243 C 
ATOM     12  O   UNL A   1      29.669  26.705  24.105  1.00  0.00    -0.273 OA
ATOM     13  H   UNL A   1      30.896  27.072  25.888  1.00  0.00     0.164 HD
BRANCH  11  14
ATOM     14  C   UNL A   1      31.222  27.760  22.605  1.00  0.00     0.175 C 
BRANCH  14  15
ATOM     15  C   UNL A   1      32.619  27.101  22.396  1.00  0.00     0.015 C 
ATOM     16  C   UNL A   1      32.587  25.955  21.378  1.00  0.00     0.010 C 
ATOM     17  C   UNL A   1      33.788  28.029  22.097  1.00  0.00     0.010 C 
ENDBRANCH  14  15
BRANCH  14  18
ATOM     18  N   UNL A   1      30.982  29.174  22.361  1.00  0.00    -0.326 N 
ATOM     19  C   UNL A   1      29.821  29.771  21.995  1.00  0.00     0.312 C 
ATOM     20  H   UNL A   1      31.756  29.769  22.476  1.00  0.00     0.166 HD
ATOM     21  N   UNL A   1      29.964  31.109  21.832  1.00  0.00    -0.352 N 
ATOM     22  O   UNL A   1      28.757  29.225  21.759  1.00  0.00    -0.249 OA
ATOM     23  H   UNL A   1      30.828  31.538  22.025  1.00  0.00     0.161 HD
ATOM     24  H   UNL A   1      29.204  31.651  21.520  1.00  0.00     0.161 HD
ENDBRANCH  14  18
ENDBRANCH  11  14
ENDBRANCH   8  10
ENDBRANCH   5   8
ENDBRANCH   3   4
ENDBRANCH   2   3
ENDBRANCH   1   2
BRANCH   1  25
ATOM     25  C   UNL A   1      34.584  33.589  28.891  1.00  0.00     0.002 C 
BRANCH  25  26
ATOM     26  C   UNL A   1      33.230  34.306  28.919  1.00  0.00     0.021 C 
BRANCH  26  27
ATOM     27  C   UNL A   1      33.293  35.794  29.255  1.00  0.00     0.116 C 
BRANCH  27  28
ATOM     28  N   UNL A   1      32.528  36.115  30.448  1.00  0.00    -0.352 N 
ATOM     29  C   UNL A   1      32.684  35.691  31.742  1.00  0.00     0.251 C 
ATOM     30  H   UNL A   1      31.778  36.736  30.304  1.00  0.00     0.163 HD
ATOM     31  O   UNL A   1      31.794  35.904  32.561  1.00  0.00    -0.269 OA
BRANCH  29  32
ATOM     32  C   UNL A   1      33.909  34.977  32.165  1.00  0.00     0.039 A 
ATOM     33  C   UNL A   1      33.788  33.664  32.631  1.00  0.00     0.014 A 
ATOM     34  C   UNL A   1      35.159  35.603  32.165  1.00  0.00     0.014 A 
ATOM     35  C   UNL A   1      34.920  32.974  33.063  1.00  0.00     0.010 A 
ATOM     36  C   UNL A   1      36.300  34.885  32.522  1.00  0.00     0.010 A 
ATOM     37  C   UNL A   1      36.191  33.569  32.992  1.00  0.00    -0.014 A 
BRANCH  37  38
ATOM     38  C   UNL A   1      37.400  32.818  33.418  1.00  0.00     0.031 A 
ATOM     39  C   UNL A   1      38.016  31.779  32.518  1.00  0.00     0.074 A 
ATOM     40  C   UNL A   1      37.938  33.063  34.628  1.00  0.00     0.049 A 
ATOM     41  N   UNL A   1      39.094  31.060  32.708  1.00  0.00    -0.248 NA
ATOM     42  C   UNL A   1      37.321  31.494  31.252  1.00  0.00     0.031 C 
ATOM     43  C   UNL A   1      37.411  34.011  35.612  1.00  0.00     0.029 A 
ATOM     44  N   UNL A   1      39.055  32.543  35.233  1.00  0.00    -0.354 N 
ATOM     45  C   UNL A   1      39.202  30.237  31.593  1.00  0.00     0.074 A 
ATOM     46  C   UNL A   1      38.049  30.502  30.760  1.00  0.00     0.031 C 
ATOM     47  C   UNL A   1      38.228  34.040  36.676  1.00  0.00     0.029 A 
ATOM     48  C   UNL A   1      39.314  33.087  36.468  1.00  0.00     0.049 A 
ATOM     49  H   UNL A   1      39.617  31.848  34.821  1.00  0.00     0.167 HD
ATOM     50  C   UNL A   1      40.182  29.357  31.278  1.00  0.00     0.031 A 
ATOM     51  C   UNL A   1      40.316  32.850  37.335  1.00  0.00     0.031 A 
ATOM     52  C   UNL A   1      41.329  29.092  32.106  1.00  0.00     0.049 A 
ATOM     53  C   UNL A   1      41.386  31.861  36.966  1.00  0.00     0.074 A 
ATOM     54  C   UNL A   1      42.400  28.252  31.854  1.00  0.00     0.029 A 
ATOM     55  N   UNL A   1      41.549  29.657  33.353  1.00  0.00    -0.354 N 
ATOM     56  N   UNL A   1      41.513  31.148  35.873  1.00  0.00    -0.248 NA
ATOM     57  C   UNL A   1      42.464  31.662  37.944  1.00  0.00     0.031 C 
ATOM     58  C   UNL A   1      43.240  28.267  32.972  1.00  0.00     0.029 A 
ATOM     59  C   UNL A   1      42.728  29.169  33.891  1.00  0.00     0.049 A 
ATOM     60  H   UNL A   1      40.957  30.310  33.790  1.00  0.00     0.167 HD
ATOM     61  C   UNL A   1      42.702  30.443  36.017  1.00  0.00     0.074 A 
ATOM     62  C   UNL A   1      43.265  30.829  37.295  1.00  0.00     0.031 C 
ATOM     63  C   UNL A   1      43.277  29.560  35.165  1.00  0.00     0.031 A 
BRANCH  50  64
ATOM     64  C   UNL A   1      40.049  28.606  29.980  1.00  0.00    -0.014 A 
ATOM     65  C   UNL A   1      40.544  29.135  28.776  1.00  0.00     0.009 A 
ATOM     66  C   UNL A   1      39.454  27.335  29.964  1.00  0.00     0.009 A 
ATOM     67  C   UNL A   1      40.409  28.427  27.580  1.00  0.00     0.001 A 
ATOM     68  C   UNL A   1      39.349  26.613  28.772  1.00  0.00     0.001 A 
ATOM     69  C   UNL A   1      39.818  27.163  27.580  1.00  0.00     0.000 A 
ENDBRANCH  50  64
BRANCH  51  70
ATOM     70  C   UNL A   1      40.373  33.584  38.627  1.00  0.00    -0.014 A 
ATOM     71  C   UNL A   1      41.076  34.795  38.732  1.00  0.00     0.009 A 
ATOM     72  C   UNL A   1      39.729  33.075  39.765  1.00  0.00     0.009 A 
ATOM     73  C   UNL A   1      41.159  35.462  39.955  1.00  0.00     0.001 A 
ATOM     74  C   UNL A   1      39.787  33.761  40.981  1.00  0.00     0.001 A 
ATOM     75  C   UNL A   1      40.511  34.948  41.077  1.00  0.00     0.000 A 
ENDBRANCH  51  70
BRANCH  63  76
ATOM     76  C   UNL A   1      44.609  28.986  35.567  1.00  0.00    -0.014 A 
ATOM     77  C   UNL A   1      44.707  27.791  36.296  1.00  0.00     0.009 A 
ATOM     78  C   UNL A   1      45.787  29.649  35.189  1.00  0.00     0.009 A 
ATOM     79  C   UNL A   1      45.956  27.297  36.677  1.00  0.00     0.001 A 
ATOM     80  C   UNL A   1      47.035  29.135  35.540  1.00  0.00     0.001 A 
ATOM     81  C   UNL A   1      47.119  27.967  36.296  1.00  0.00     0.000 A 
ENDBRANCH  63  76
ENDBRANCH  37  38
ENDBRANCH  29  32
ENDBRANCH  27  28
ENDBRANCH  26  27
ENDBRANCH  25  26
ENDBRANCH   1  25
TORSDOF 17
ENDMDL
