MODEL 1
REMARK VINA RESULT:     -11.7      0.000      0.000
REMARK SMILES C[NH+](C)CCc1nc(Nc2ccc(O)c(C(=O)NCCCCCCNC(=O)c3ccc(-c4c5nc(c(-c6ccccc6)c6ccc([nH]6)c(-c6ccccc6)c6nc(c(-c7ccccc7)c7ccc4[nH]7)C=C6)C=C5)cc3)c2)c2ccccc2n1
REMARK SMILES IDX 20 1 19 2 18 3 16 4 17 5 15 7 10 8 11 9 76 10 12 11 13 12
REMARK SMILES IDX 9 13 8 15 6 16 7 17 83 18 82 19 77 20 81 21 78 22 80 23
REMARK SMILES IDX 79 24 5 25 4 26 2 27 1 28 3 29 14 31 21 33 22 34 23 35 24 36
REMARK SMILES IDX 25 37 26 38 27 40 28 41 29 42 75 43 30 44 74 45 31 46 32 47
REMARK SMILES IDX 33 48 68 49 34 50 73 51 67 52 69 53 35 54 72 55 66 56 65 57
REMARK SMILES IDX 36 59 58 60 43 61 57 62 44 63 47 64 56 65 70 66 45 67 46 68
REMARK SMILES IDX 55 70 71 71 48 72 37 73 38 74 42 75 39 76 41 77 40 78 59 79
REMARK SMILES IDX 60 80 64 81 61 82 63 83 62 84 49 85 50 86 54 87 51 88 53 89
REMARK SMILES IDX 52 90
REMARK H PARENT 18 6 9 14 2 30 14 32 25 39 69 58 47 69
REMARK Flexibility Score: inf
ROOT
ATOM      1  C   UNL A   1      37.361  23.108  25.173  1.00  0.00     0.021 C 
ENDROOT
BRANCH   1   2
ATOM      2  C   UNL A   1      36.177  23.929  25.696  1.00  0.00     0.116 C 
BRANCH   2   3
ATOM      3  N   UNL A   1      35.418  23.153  26.654  1.00  0.00    -0.352 N 
ATOM      4  C   UNL A   1      34.098  22.798  26.733  1.00  0.00     0.255 C 
ATOM      5  O   UNL A   1      33.776  22.160  27.742  1.00  0.00    -0.269 OA
ATOM      6  H   UNL A   1      35.961  22.812  27.401  1.00  0.00     0.163 HD
BRANCH   4   7
ATOM      7  C   UNL A   1      33.053  23.031  25.689  1.00  0.00     0.083 A 
ATOM      8  C   UNL A   1      31.239  24.581  25.052  1.00  0.00     0.041 A 
ATOM      9  C   UNL A   1      30.963  23.790  23.940  1.00  0.00     0.030 A 
ATOM     10  C   UNL A   1      32.279  24.194  25.909  1.00  0.00     0.043 A 
ATOM     11  C   UNL A   1      31.730  22.656  23.677  1.00  0.00     0.049 A 
ATOM     12  C   UNL A   1      32.766  22.278  24.544  1.00  0.00     0.128 A 
BRANCH   8  13
ATOM     13  N   UNL A   1      30.416  25.668  25.394  1.00  0.00    -0.340 N 
ATOM     14  H   UNL A   1      29.679  25.492  26.022  1.00  0.00     0.168 HD
BRANCH  13  15
ATOM     15  C   UNL A   1      30.555  26.996  24.917  1.00  0.00     0.142 A 
ATOM     16  C   UNL A   1      29.876  28.640  23.451  1.00  0.00     0.137 A 
ATOM     17  N   UNL A   1      29.859  27.357  23.820  1.00  0.00    -0.215 NA
ATOM     18  N   UNL A   1      30.597  29.585  24.079  1.00  0.00    -0.233 NA
ATOM     19  C   UNL A   1      31.328  29.219  25.138  1.00  0.00     0.076 A 
ATOM     20  C   UNL A   1      31.354  27.908  25.624  1.00  0.00     0.043 A 
ATOM     21  C   UNL A   1      32.071  30.186  25.804  1.00  0.00     0.029 A 
ATOM     22  C   UNL A   1      32.140  27.597  26.765  1.00  0.00     0.014 A 
ATOM     23  C   UNL A   1      32.835  29.886  26.936  1.00  0.00     0.002 A 
ATOM     24  C   UNL A   1      32.873  28.586  27.417  1.00  0.00     0.001 A 
BRANCH  16  25
ATOM     25  C   UNL A   1      28.916  29.129  22.393  1.00  0.00     0.138 C 
BRANCH  25  26
ATOM     26  C   UNL A   1      29.219  30.454  21.662  1.00  0.00     0.269 C 
BRANCH  26  27
ATOM     27  N   UNL A   1      28.281  31.595  21.715  1.00  0.00    -0.339 N 
ATOM     28  C   UNL A   1      28.683  32.605  22.681  1.00  0.00     0.332 C 
ATOM     29  C   UNL A   1      28.005  32.211  20.424  1.00  0.00     0.332 C 
ATOM     30  H   UNL A   1      27.406  31.175  22.029  1.00  0.00     0.347 HD
ENDBRANCH  26  27
ENDBRANCH  25  26
ENDBRANCH  16  25
ENDBRANCH  13  15
ENDBRANCH   8  13
BRANCH  12  31
ATOM     31  O   UNL A   1      33.477  21.171  24.189  1.00  0.00    -0.507 OA
ATOM     32  H   UNL A   1      33.307  20.351  24.610  1.00  0.00     0.293 HD
ENDBRANCH  12  31
ENDBRANCH   4   7
ENDBRANCH   2   3
ENDBRANCH   1   2
BRANCH   1  33
ATOM     33  C   UNL A   1      36.961  21.961  24.238  1.00  0.00     0.002 C 
BRANCH  33  34
ATOM     34  C   UNL A   1      36.850  20.589  24.910  1.00  0.00     0.002 C 
BRANCH  34  35
ATOM     35  C   UNL A   1      38.124  19.740  24.872  1.00  0.00     0.021 C 
BRANCH  35  36
ATOM     36  C   UNL A   1      39.116  20.034  25.994  1.00  0.00     0.116 C 
BRANCH  36  37
ATOM     37  N   UNL A   1      40.315  19.216  25.883  1.00  0.00    -0.352 N 
ATOM     38  C   UNL A   1      41.631  19.582  25.985  1.00  0.00     0.251 C 
ATOM     39  H   UNL A   1      40.156  18.260  25.712  1.00  0.00     0.163 HD
ATOM     40  O   UNL A   1      42.518  18.803  25.632  1.00  0.00    -0.269 OA
BRANCH  38  41
ATOM     41  C   UNL A   1      41.995  20.915  26.506  1.00  0.00     0.039 A 
ATOM     42  C   UNL A   1      42.389  21.911  25.610  1.00  0.00     0.014 A 
ATOM     43  C   UNL A   1      41.971  21.175  27.879  1.00  0.00     0.014 A 
ATOM     44  C   UNL A   1      42.705  23.185  26.086  1.00  0.00     0.010 A 
ATOM     45  C   UNL A   1      42.217  22.464  28.345  1.00  0.00     0.010 A 
ATOM     46  C   UNL A   1      42.592  23.481  27.455  1.00  0.00    -0.014 A 
BRANCH  46  47
ATOM     47  C   UNL A   1      42.860  24.847  27.971  1.00  0.00     0.031 A 
ATOM     48  C   UNL A   1      44.247  25.239  28.399  1.00  0.00     0.074 A 
ATOM     49  C   UNL A   1      41.838  25.714  28.117  1.00  0.00     0.049 A 
ATOM     50  N   UNL A   1      44.661  26.364  28.928  1.00  0.00    -0.248 NA
ATOM     51  C   UNL A   1      45.306  24.229  28.236  1.00  0.00     0.031 C 
ATOM     52  C   UNL A   1      40.438  25.440  27.784  1.00  0.00     0.029 A 
ATOM     53  N   UNL A   1      41.817  27.000  28.598  1.00  0.00    -0.354 N 
ATOM     54  C   UNL A   1      46.015  26.188  29.182  1.00  0.00     0.074 A 
ATOM     55  C   UNL A   1      46.347  24.836  28.788  1.00  0.00     0.031 C 
ATOM     56  C   UNL A   1      39.701  26.530  28.051  1.00  0.00     0.029 A 
ATOM     57  C   UNL A   1      40.564  27.563  28.612  1.00  0.00     0.049 A 
ATOM     58  H   UNL A   1      42.625  27.474  28.902  1.00  0.00     0.167 HD
ATOM     59  C   UNL A   1      46.906  27.075  29.684  1.00  0.00     0.031 A 
ATOM     60  C   UNL A   1      40.152  28.771  29.043  1.00  0.00     0.031 A 
ATOM     61  C   UNL A   1      46.578  28.426  30.056  1.00  0.00     0.049 A 
ATOM     62  C   UNL A   1      41.164  29.737  29.594  1.00  0.00     0.074 A 
ATOM     63  C   UNL A   1      47.427  29.425  30.501  1.00  0.00     0.029 A 
ATOM     64  N   UNL A   1      45.302  28.964  30.034  1.00  0.00    -0.354 N 
ATOM     65  N   UNL A   1      42.456  29.584  29.744  1.00  0.00    -0.248 NA
ATOM     66  C   UNL A   1      40.659  31.049  30.025  1.00  0.00     0.031 C 
ATOM     67  C   UNL A   1      46.655  30.549  30.807  1.00  0.00     0.029 A 
ATOM     68  C   UNL A   1      45.335  30.271  30.490  1.00  0.00     0.049 A 
ATOM     69  H   UNL A   1      44.492  28.489  29.739  1.00  0.00     0.167 HD
ATOM     70  C   UNL A   1      42.924  30.788  30.256  1.00  0.00     0.074 A 
ATOM     71  C   UNL A   1      41.779  31.666  30.374  1.00  0.00     0.031 C 
ATOM     72  C   UNL A   1      44.187  31.134  30.600  1.00  0.00     0.031 A 
BRANCH  59  73
ATOM     73  C   UNL A   1      48.324  26.614  29.873  1.00  0.00    -0.014 A 
ATOM     74  C   UNL A   1      48.730  25.953  31.044  1.00  0.00     0.009 A 
ATOM     75  C   UNL A   1      49.255  26.787  28.836  1.00  0.00     0.009 A 
ATOM     76  C   UNL A   1      50.045  25.504  31.184  1.00  0.00     0.001 A 
ATOM     77  C   UNL A   1      50.561  26.311  28.966  1.00  0.00     0.001 A 
ATOM     78  C   UNL A   1      50.956  25.678  30.142  1.00  0.00     0.000 A 
ENDBRANCH  59  73
BRANCH  60  79
ATOM     79  C   UNL A   1      38.711  29.138  28.977  1.00  0.00    -0.014 A 
ATOM     80  C   UNL A   1      38.158  29.661  27.799  1.00  0.00     0.009 A 
ATOM     81  C   UNL A   1      37.887  28.988  30.104  1.00  0.00     0.009 A 
ATOM     82  C   UNL A   1      36.820  30.061  27.762  1.00  0.00     0.001 A 
ATOM     83  C   UNL A   1      36.541  29.357  30.053  1.00  0.00     0.001 A 
ATOM     84  C   UNL A   1      36.012  29.905  28.887  1.00  0.00     0.000 A 
ENDBRANCH  60  79
BRANCH  72  85
ATOM     85  C   UNL A   1      44.406  32.535  31.100  1.00  0.00    -0.014 A 
ATOM     86  C   UNL A   1      44.674  33.593  30.218  1.00  0.00     0.009 A 
ATOM     87  C   UNL A   1      44.299  32.804  32.474  1.00  0.00     0.009 A 
ATOM     88  C   UNL A   1      44.866  34.887  30.706  1.00  0.00     0.001 A 
ATOM     89  C   UNL A   1      44.459  34.105  32.955  1.00  0.00     0.001 A 
ATOM     90  C   UNL A   1      44.752  35.142  32.072  1.00  0.00     0.000 A 
ENDBRANCH  72  85
ENDBRANCH  46  47
ENDBRANCH  38  41
ENDBRANCH  36  37
ENDBRANCH  35  36
ENDBRANCH  34  35
ENDBRANCH  33  34
ENDBRANCH   1  33
TORSDOF 19
ENDMDL
MODEL 2
REMARK VINA RESULT:     -11.6      0.796      5.651
REMARK SMILES C[NH+](C)CCc1nc(Nc2ccc(O)c(C(=O)NCCCCCCNC(=O)c3ccc(-c4c5nc(c(-c6ccccc6)c6ccc([nH]6)c(-c6ccccc6)c6nc(c(-c7ccccc7)c7ccc4[nH]7)C=C6)C=C5)cc3)c2)c2ccccc2n1
REMARK SMILES IDX 20 1 19 2 18 3 16 4 17 5 15 7 10 8 11 9 76 10 12 11 13 12
REMARK SMILES IDX 9 13 8 15 6 16 7 17 83 18 82 19 77 20 81 21 78 22 80 23
REMARK SMILES IDX 79 24 5 25 4 26 2 27 1 28 3 29 14 31 21 33 22 34 23 35 24 36
REMARK SMILES IDX 25 37 26 38 27 40 28 41 29 42 75 43 30 44 74 45 31 46 32 47
REMARK SMILES IDX 33 48 68 49 34 50 73 51 67 52 69 53 35 54 72 55 66 56 65 57
REMARK SMILES IDX 36 59 58 60 43 61 57 62 44 63 47 64 56 65 70 66 45 67 46 68
REMARK SMILES IDX 55 70 71 71 48 72 37 73 38 74 42 75 39 76 41 77 40 78 59 79
REMARK SMILES IDX 60 80 64 81 61 82 63 83 62 84 49 85 50 86 54 87 51 88 53 89
REMARK SMILES IDX 52 90
REMARK H PARENT 18 6 9 14 2 30 14 32 25 39 69 58 47 69
REMARK Flexibility Score: inf
ROOT
ATOM      1  C   UNL A   1      37.296  23.137  25.340  1.00  0.00     0.021 C 
ENDROOT
BRANCH   1   2
ATOM      2  C   UNL A   1      36.118  23.778  26.083  1.00  0.00     0.116 C 
BRANCH   2   3
ATOM      3  N   UNL A   1      35.395  22.772  26.832  1.00  0.00    -0.352 N 
ATOM      4  C   UNL A   1      34.105  22.319  26.785  1.00  0.00     0.255 C 
ATOM      5  O   UNL A   1      33.805  21.467  27.629  1.00  0.00    -0.269 OA
ATOM      6  H   UNL A   1      35.944  22.323  27.515  1.00  0.00     0.163 HD
BRANCH   4   7
ATOM      7  C   UNL A   1      33.071  22.689  25.768  1.00  0.00     0.083 A 
ATOM      8  C   UNL A   1      31.375  24.405  25.243  1.00  0.00     0.041 A 
ATOM      9  C   UNL A   1      31.030  23.703  24.092  1.00  0.00     0.030 A 
ATOM     10  C   UNL A   1      32.390  23.893  26.063  1.00  0.00     0.043 A 
ATOM     11  C   UNL A   1      31.708  22.531  23.755  1.00  0.00     0.049 A 
ATOM     12  C   UNL A   1      32.719  22.027  24.586  1.00  0.00     0.128 A 
BRANCH   8  13
ATOM     13  N   UNL A   1      30.640  25.530  25.656  1.00  0.00    -0.340 N 
ATOM     14  H   UNL A   1      30.002  25.402  26.395  1.00  0.00     0.168 HD
BRANCH  13  15
ATOM     15  C   UNL A   1      30.737  26.833  25.106  1.00  0.00     0.142 A 
ATOM     16  C   UNL A   1      29.969  28.389  23.588  1.00  0.00     0.137 A 
ATOM     17  N   UNL A   1      29.989  27.126  24.023  1.00  0.00    -0.215 NA
ATOM     18  N   UNL A   1      30.702  29.375  24.134  1.00  0.00    -0.233 NA
ATOM     19  C   UNL A   1      31.484  29.074  25.177  1.00  0.00     0.076 A 
ATOM     20  C   UNL A   1      31.551  27.791  25.729  1.00  0.00     0.043 A 
ATOM     21  C   UNL A   1      32.240  30.085  25.759  1.00  0.00     0.029 A 
ATOM     22  C   UNL A   1      32.391  27.551  26.848  1.00  0.00     0.014 A 
ATOM     23  C   UNL A   1      33.057  29.855  26.870  1.00  0.00     0.002 A 
ATOM     24  C   UNL A   1      33.136  28.582  27.415  1.00  0.00     0.001 A 
BRANCH  16  25
ATOM     25  C   UNL A   1      28.958  28.809  22.549  1.00  0.00     0.138 C 
BRANCH  25  26
ATOM     26  C   UNL A   1      28.978  30.261  22.028  1.00  0.00     0.269 C 
BRANCH  26  27
ATOM     27  N   UNL A   1      28.718  31.405  22.925  1.00  0.00    -0.339 N 
ATOM     28  C   UNL A   1      28.785  32.684  22.235  1.00  0.00     0.332 C 
ATOM     29  C   UNL A   1      27.479  31.307  23.686  1.00  0.00     0.332 C 
ATOM     30  H   UNL A   1      29.478  31.361  23.602  1.00  0.00     0.347 HD
ENDBRANCH  26  27
ENDBRANCH  25  26
ENDBRANCH  16  25
ENDBRANCH  13  15
ENDBRANCH   8  13
BRANCH  12  31
ATOM     31  O   UNL A   1      33.341  20.892  24.161  1.00  0.00    -0.507 OA
ATOM     32  H   UNL A   1      34.211  20.935  23.815  1.00  0.00     0.293 HD
ENDBRANCH  12  31
ENDBRANCH   4   7
ENDBRANCH   2   3
ENDBRANCH   1   2
BRANCH   1  33
ATOM     33  C   UNL A   1      36.881  22.115  24.275  1.00  0.00     0.002 C 
BRANCH  33  34
ATOM     34  C   UNL A   1      36.785  20.668  24.772  1.00  0.00     0.002 C 
BRANCH  34  35
ATOM     35  C   UNL A   1      38.091  19.871  24.712  1.00  0.00     0.021 C 
BRANCH  35  36
ATOM     36  C   UNL A   1      39.063  20.159  25.853  1.00  0.00     0.116 C 
BRANCH  36  37
ATOM     37  N   UNL A   1      40.162  19.205  25.881  1.00  0.00    -0.352 N 
ATOM     38  C   UNL A   1      41.502  19.427  26.058  1.00  0.00     0.251 C 
ATOM     39  H   UNL A   1      39.904  18.264  25.755  1.00  0.00     0.163 HD
ATOM     40  O   UNL A   1      42.313  18.531  25.818  1.00  0.00    -0.269 OA
BRANCH  38  41
ATOM     41  C   UNL A   1      41.983  20.743  26.525  1.00  0.00     0.039 A 
ATOM     42  C   UNL A   1      42.372  21.698  25.583  1.00  0.00     0.014 A 
ATOM     43  C   UNL A   1      42.075  21.025  27.891  1.00  0.00     0.014 A 
ATOM     44  C   UNL A   1      42.801  22.957  26.010  1.00  0.00     0.010 A 
ATOM     45  C   UNL A   1      42.433  22.303  28.313  1.00  0.00     0.010 A 
ATOM     46  C   UNL A   1      42.805  23.281  27.377  1.00  0.00    -0.014 A 
BRANCH  46  47
ATOM     47  C   UNL A   1      43.192  24.635  27.845  1.00  0.00     0.031 A 
ATOM     48  C   UNL A   1      42.137  25.664  28.149  1.00  0.00     0.074 A 
ATOM     49  C   UNL A   1      44.497  24.961  27.931  1.00  0.00     0.049 A 
ATOM     50  N   UNL A   1      42.285  26.914  28.512  1.00  0.00    -0.248 NA
ATOM     51  C   UNL A   1      40.734  25.244  28.004  1.00  0.00     0.031 C 
ATOM     52  C   UNL A   1      45.617  24.068  27.619  1.00  0.00     0.029 A 
ATOM     53  N   UNL A   1      45.104  26.137  28.296  1.00  0.00    -0.354 N 
ATOM     54  C   UNL A   1      41.000  27.433  28.613  1.00  0.00     0.074 A 
ATOM     55  C   UNL A   1      40.086  26.376  28.235  1.00  0.00     0.031 C 
ATOM     56  C   UNL A   1      46.771  24.723  27.825  1.00  0.00     0.029 A 
ATOM     57  C   UNL A   1      46.476  26.090  28.241  1.00  0.00     0.049 A 
ATOM     58  H   UNL A   1      44.603  26.938  28.572  1.00  0.00     0.167 HD
ATOM     59  C   UNL A   1      40.614  28.671  28.999  1.00  0.00     0.031 A 
ATOM     60  C   UNL A   1      47.395  27.044  28.484  1.00  0.00     0.031 A 
ATOM     61  C   UNL A   1      41.523  29.715  29.394  1.00  0.00     0.049 A 
ATOM     62  C   UNL A   1      46.938  28.410  28.914  1.00  0.00     0.074 A 
ATOM     63  C   UNL A   1      41.225  30.978  29.877  1.00  0.00     0.029 A 
ATOM     64  N   UNL A   1      42.904  29.619  29.346  1.00  0.00    -0.354 N 
ATOM     65  N   UNL A   1      45.718  28.856  29.090  1.00  0.00    -0.248 NA
ATOM     66  C   UNL A   1      47.987  29.402  29.190  1.00  0.00     0.031 C 
ATOM     67  C   UNL A   1      42.427  31.668  30.062  1.00  0.00     0.029 A 
ATOM     68  C   UNL A   1      43.473  30.812  29.757  1.00  0.00     0.049 A 
ATOM     69  H   UNL A   1      43.407  28.821  29.062  1.00  0.00     0.167 HD
ATOM     70  C   UNL A   1      45.853  30.168  29.526  1.00  0.00     0.074 A 
ATOM     71  C   UNL A   1      47.273  30.439  29.605  1.00  0.00     0.031 C 
ATOM     72  C   UNL A   1      44.888  31.067  29.832  1.00  0.00     0.031 A 
BRANCH  59  73
ATOM     73  C   UNL A   1      39.142  28.978  29.005  1.00  0.00    -0.014 A 
ATOM     74  C   UNL A   1      38.370  28.844  30.171  1.00  0.00     0.009 A 
ATOM     75  C   UNL A   1      38.530  29.469  27.841  1.00  0.00     0.009 A 
ATOM     76  C   UNL A   1      37.012  29.167  30.161  1.00  0.00     0.001 A 
ATOM     77  C   UNL A   1      37.179  29.819  27.841  1.00  0.00     0.001 A 
ATOM     78  C   UNL A   1      36.419  29.659  28.999  1.00  0.00     0.000 A 
ENDBRANCH  59  73
BRANCH  60  79
ATOM     79  C   UNL A   1      48.844  26.746  28.323  1.00  0.00    -0.014 A 
ATOM     80  C   UNL A   1      49.475  26.902  27.080  1.00  0.00     0.009 A 
ATOM     81  C   UNL A   1      49.600  26.282  29.412  1.00  0.00     0.009 A 
ATOM     82  C   UNL A   1      50.820  26.564  26.920  1.00  0.00     0.001 A 
ATOM     83  C   UNL A   1      50.954  25.977  29.257  1.00  0.00     0.001 A 
ATOM     84  C   UNL A   1      51.560  26.105  28.009  1.00  0.00     0.000 A 
ENDBRANCH  60  79
BRANCH  72  85
ATOM     85  C   UNL A   1      45.334  32.418  30.319  1.00  0.00    -0.014 A 
ATOM     86  C   UNL A   1      45.575  32.663  31.679  1.00  0.00     0.009 A 
ATOM     87  C   UNL A   1      45.559  33.448  29.391  1.00  0.00     0.009 A 
ATOM     88  C   UNL A   1      45.996  33.925  32.105  1.00  0.00     0.001 A 
ATOM     89  C   UNL A   1      46.012  34.698  29.817  1.00  0.00     0.001 A 
ATOM     90  C   UNL A   1      46.220  34.938  31.173  1.00  0.00     0.000 A 
ENDBRANCH  72  85
ENDBRANCH  46  47
ENDBRANCH  38  41
ENDBRANCH  36  37
ENDBRANCH  35  36
ENDBRANCH  34  35
ENDBRANCH  33  34
ENDBRANCH   1  33
TORSDOF 19
ENDMDL
MODEL 3
REMARK VINA RESULT:     -11.2      3.584      9.226
REMARK SMILES C[NH+](C)CCc1nc(Nc2ccc(O)c(C(=O)NCCCCCCNC(=O)c3ccc(-c4c5nc(c(-c6ccccc6)c6ccc([nH]6)c(-c6ccccc6)c6nc(c(-c7ccccc7)c7ccc4[nH]7)C=C6)C=C5)cc3)c2)c2ccccc2n1
REMARK SMILES IDX 20 1 19 2 18 3 16 4 17 5 15 7 10 8 11 9 76 10 12 11 13 12
REMARK SMILES IDX 9 13 8 15 6 16 7 17 83 18 82 19 77 20 81 21 78 22 80 23
REMARK SMILES IDX 79 24 5 25 4 26 2 27 1 28 3 29 14 31 21 33 22 34 23 35 24 36
REMARK SMILES IDX 25 37 26 38 27 40 28 41 29 42 75 43 30 44 74 45 31 46 32 47
REMARK SMILES IDX 33 48 68 49 34 50 73 51 67 52 69 53 35 54 72 55 66 56 65 57
REMARK SMILES IDX 36 59 58 60 43 61 57 62 44 63 47 64 56 65 70 66 45 67 46 68
REMARK SMILES IDX 55 70 71 71 48 72 37 73 38 74 42 75 39 76 41 77 40 78 59 79
REMARK SMILES IDX 60 80 64 81 61 82 63 83 62 84 49 85 50 86 54 87 51 88 53 89
REMARK SMILES IDX 52 90
REMARK H PARENT 18 6 9 14 2 30 14 32 25 39 69 58 47 69
REMARK Flexibility Score: inf
ROOT
ATOM      1  C   UNL A   1      32.360  27.204  26.034  1.00  0.00     0.021 C 
ENDROOT
BRANCH   1   2
ATOM      2  C   UNL A   1      31.476  25.987  26.330  1.00  0.00     0.116 C 
BRANCH   2   3
ATOM      3  N   UNL A   1      30.252  26.062  25.561  1.00  0.00    -0.352 N 
ATOM      4  C   UNL A   1      29.986  26.022  24.219  1.00  0.00     0.255 C 
ATOM      5  O   UNL A   1      28.800  26.172  23.904  1.00  0.00    -0.269 OA
ATOM      6  H   UNL A   1      29.446  26.161  26.118  1.00  0.00     0.163 HD
BRANCH   4   7
ATOM      7  C   UNL A   1      30.969  25.731  23.129  1.00  0.00     0.083 A 
ATOM      8  C   UNL A   1      32.370  23.927  22.191  1.00  0.00     0.041 A 
ATOM      9  C   UNL A   1      32.855  24.811  21.232  1.00  0.00     0.030 A 
ATOM     10  C   UNL A   1      31.434  24.396  23.124  1.00  0.00     0.043 A 
ATOM     11  C   UNL A   1      32.389  26.125  21.189  1.00  0.00     0.049 A 
ATOM     12  C   UNL A   1      31.455  26.583  22.130  1.00  0.00     0.128 A 
BRANCH   8  13
ATOM     13  N   UNL A   1      32.897  22.630  22.319  1.00  0.00    -0.340 N 
ATOM     14  H   UNL A   1      33.045  22.123  21.489  1.00  0.00     0.168 HD
BRANCH  13  15
ATOM     15  C   UNL A   1      33.236  21.988  23.537  1.00  0.00     0.142 A 
ATOM     16  C   UNL A   1      33.005  20.167  24.930  1.00  0.00     0.137 A 
ATOM     17  N   UNL A   1      32.592  20.848  23.859  1.00  0.00    -0.215 NA
ATOM     18  N   UNL A   1      33.992  20.584  25.742  1.00  0.00    -0.233 NA
ATOM     19  C   UNL A   1      34.598  21.741  25.452  1.00  0.00     0.076 A 
ATOM     20  C   UNL A   1      34.262  22.514  24.336  1.00  0.00     0.043 A 
ATOM     21  C   UNL A   1      35.627  22.182  26.277  1.00  0.00     0.029 A 
ATOM     22  C   UNL A   1      34.963  23.723  24.082  1.00  0.00     0.014 A 
ATOM     23  C   UNL A   1      36.328  23.364  26.021  1.00  0.00     0.002 A 
ATOM     24  C   UNL A   1      35.993  24.139  24.922  1.00  0.00     0.001 A 
BRANCH  16  25
ATOM     25  C   UNL A   1      32.487  18.770  25.177  1.00  0.00     0.138 C 
BRANCH  25  26
ATOM     26  C   UNL A   1      33.293  17.567  24.645  1.00  0.00     0.269 C 
BRANCH  26  27
ATOM     27  N   UNL A   1      33.686  16.451  25.529  1.00  0.00    -0.339 N 
ATOM     28  C   UNL A   1      32.723  15.361  25.516  1.00  0.00     0.332 C 
ATOM     29  C   UNL A   1      35.031  15.940  25.297  1.00  0.00     0.332 C 
ATOM     30  H   UNL A   1      33.691  16.869  26.459  1.00  0.00     0.347 HD
ENDBRANCH  26  27
ENDBRANCH  25  26
ENDBRANCH  16  25
ENDBRANCH  13  15
ENDBRANCH   8  13
BRANCH  12  31
ATOM     31  O   UNL A   1      31.041  27.874  21.992  1.00  0.00    -0.507 OA
ATOM     32  H   UNL A   1      31.667  28.571  22.017  1.00  0.00     0.293 HD
ENDBRANCH  12  31
ENDBRANCH   4   7
ENDBRANCH   2   3
ENDBRANCH   1   2
BRANCH   1  33
ATOM     33  C   UNL A   1      31.815  28.523  26.596  1.00  0.00     0.002 C 
BRANCH  33  34
ATOM     34  C   UNL A   1      31.667  29.651  25.569  1.00  0.00     0.002 C 
BRANCH  34  35
ATOM     35  C   UNL A   1      31.383  31.035  26.159  1.00  0.00     0.021 C 
BRANCH  35  36
ATOM     36  C   UNL A   1      32.502  31.593  27.034  1.00  0.00     0.116 C 
BRANCH  36  37
ATOM     37  N   UNL A   1      32.298  33.002  27.338  1.00  0.00    -0.352 N 
ATOM     38  C   UNL A   1      33.028  33.833  28.147  1.00  0.00     0.251 C 
ATOM     39  H   UNL A   1      31.523  33.419  26.897  1.00  0.00     0.163 HD
ATOM     40  O   UNL A   1      32.576  34.932  28.473  1.00  0.00    -0.269 OA
BRANCH  38  41
ATOM     41  C   UNL A   1      34.354  33.412  28.642  1.00  0.00     0.039 A 
ATOM     42  C   UNL A   1      34.441  32.737  29.862  1.00  0.00     0.014 A 
ATOM     43  C   UNL A   1      35.513  33.703  27.917  1.00  0.00     0.014 A 
ATOM     44  C   UNL A   1      35.686  32.306  30.328  1.00  0.00     0.010 A 
ATOM     45  C   UNL A   1      36.742  33.211  28.346  1.00  0.00     0.010 A 
ATOM     46  C   UNL A   1      36.843  32.512  29.558  1.00  0.00    -0.014 A 
BRANCH  46  47
ATOM     47  C   UNL A   1      38.164  32.002  30.005  1.00  0.00     0.031 A 
ATOM     48  C   UNL A   1      38.684  30.688  29.488  1.00  0.00     0.074 A 
ATOM     49  C   UNL A   1      38.864  32.690  30.928  1.00  0.00     0.049 A 
ATOM     50  N   UNL A   1      39.785  30.055  29.807  1.00  0.00    -0.248 NA
ATOM     51  C   UNL A   1      37.849  29.980  28.504  1.00  0.00     0.031 C 
ATOM     52  C   UNL A   1      38.447  33.952  31.543  1.00  0.00     0.029 A 
ATOM     53  N   UNL A   1      40.072  32.416  31.521  1.00  0.00    -0.354 N 
ATOM     54  C   UNL A   1      39.762  28.868  29.084  1.00  0.00     0.074 A 
ATOM     55  C   UNL A   1      38.521  28.849  28.342  1.00  0.00     0.031 C 
ATOM     56  C   UNL A   1      39.391  34.353  32.409  1.00  0.00     0.029 A 
ATOM     57  C   UNL A   1      40.458  33.358  32.444  1.00  0.00     0.049 A 
ATOM     58  H   UNL A   1      40.611  31.622  31.305  1.00  0.00     0.167 HD
ATOM     59  C   UNL A   1      40.696  27.889  29.033  1.00  0.00     0.031 A 
ATOM     60  C   UNL A   1      41.543  33.409  33.241  1.00  0.00     0.031 A 
ATOM     61  C   UNL A   1      41.939  27.919  29.756  1.00  0.00     0.049 A 
ATOM     62  C   UNL A   1      42.565  32.309  33.160  1.00  0.00     0.074 A 
ATOM     63  C   UNL A   1      42.985  27.012  29.708  1.00  0.00     0.029 A 
ATOM     64  N   UNL A   1      42.302  28.902  30.663  1.00  0.00    -0.354 N 
ATOM     65  N   UNL A   1      42.568  31.239  32.405  1.00  0.00    -0.248 NA
ATOM     66  C   UNL A   1      43.739  32.432  34.035  1.00  0.00     0.031 C 
ATOM     67  C   UNL A   1      43.953  27.414  30.632  1.00  0.00     0.029 A 
ATOM     68  C   UNL A   1      43.540  28.606  31.207  1.00  0.00     0.049 A 
ATOM     69  H   UNL A   1      41.761  29.693  30.887  1.00  0.00     0.167 HD
ATOM     70  C   UNL A   1      43.756  30.577  32.690  1.00  0.00     0.074 A 
ATOM     71  C   UNL A   1      44.455  31.377  33.674  1.00  0.00     0.031 C 
ATOM     72  C   UNL A   1      44.225  29.412  32.184  1.00  0.00     0.031 A 
BRANCH  59  73
ATOM     73  C   UNL A   1      40.409  26.691  28.171  1.00  0.00    -0.014 A 
ATOM     74  C   UNL A   1      39.649  25.611  28.647  1.00  0.00     0.009 A 
ATOM     75  C   UNL A   1      40.852  26.672  26.838  1.00  0.00     0.009 A 
ATOM     76  C   UNL A   1      39.366  24.524  27.818  1.00  0.00     0.001 A 
ATOM     77  C   UNL A   1      40.543  25.598  26.002  1.00  0.00     0.001 A 
ATOM     78  C   UNL A   1      39.808  24.521  26.495  1.00  0.00     0.000 A 
ENDBRANCH  59  73
BRANCH  60  79
ATOM     79  C   UNL A   1      41.721  34.540  34.192  1.00  0.00    -0.014 A 
ATOM     80  C   UNL A   1      41.177  34.482  35.484  1.00  0.00     0.009 A 
ATOM     81  C   UNL A   1      42.419  35.694  33.802  1.00  0.00     0.009 A 
ATOM     82  C   UNL A   1      41.296  35.571  36.352  1.00  0.00     0.001 A 
ATOM     83  C   UNL A   1      42.565  36.767  34.684  1.00  0.00     0.001 A 
ATOM     84  C   UNL A   1      41.992  36.710  35.953  1.00  0.00     0.000 A 
ENDBRANCH  60  79
BRANCH  72  85
ATOM     85  C   UNL A   1      45.575  28.950  32.655  1.00  0.00    -0.014 A 
ATOM     86  C   UNL A   1      46.755  29.364  32.017  1.00  0.00     0.009 A 
ATOM     87  C   UNL A   1      45.668  28.120  33.785  1.00  0.00     0.009 A 
ATOM     88  C   UNL A   1      47.998  28.926  32.479  1.00  0.00     0.001 A 
ATOM     89  C   UNL A   1      46.913  27.712  34.264  1.00  0.00     0.001 A 
ATOM     90  C   UNL A   1      48.075  28.106  33.605  1.00  0.00     0.000 A 
ENDBRANCH  72  85
ENDBRANCH  46  47
ENDBRANCH  38  41
ENDBRANCH  36  37
ENDBRANCH  35  36
ENDBRANCH  34  35
ENDBRANCH  33  34
ENDBRANCH   1  33
TORSDOF 19
ENDMDL
