MODEL 1
REMARK VINA RESULT:     -12.4      0.000      0.000
REMARK SMILES O=C(NCCCCCCNC(=O)c1ccc(-c2c3nc(c(-c4ccccc4)c4ccc([nH]4)c(-c4ccccc4)c4nc(c(-c5ccccc5)c5ccc2[nH]5)C=C4)C=C3)cc1)C1=Cc2cc(Cl)cc(-c3ccc(Cl)cc3)c2O[C@@H]1C(F)(F)F
REMARK SMILES IDX 7 1 6 2 5 3 4 4 3 5 1 6 2 7 61 9 62 10 78 11 63 12 77 13
REMARK SMILES IDX 64 14 76 15 65 16 68 17 66 18 67 19 79 20 80 21 81 22 82 23
REMARK SMILES IDX 69 24 70 25 75 26 71 27 74 28 72 29 73 30 8 31 9 32 10 33
REMARK SMILES IDX 11 34 12 36 13 37 14 38 60 39 15 40 59 41 16 42 17 43 18 44
REMARK SMILES IDX 53 45 19 46 58 47 52 48 54 49 20 50 57 51 51 52 50 53 21 55
REMARK SMILES IDX 43 56 28 57 42 58 29 59 32 60 41 61 55 62 30 63 31 64 40 66
REMARK SMILES IDX 56 67 33 68 22 69 23 70 27 71 24 72 26 73 25 74 44 75 45 76
REMARK SMILES IDX 49 77 46 78 48 79 47 80 34 81 35 82 39 83 36 84 38 85 37 86
REMARK H PARENT 3 8 10 35 54 54 32 65
REMARK Flexibility Score: inf
ROOT
ATOM      1  C   UNL A   1      32.339  28.633  25.027  1.00  0.00     0.002 C 
ENDROOT
BRANCH   1   2
ATOM      2  C   UNL A   1      31.338  27.485  24.859  1.00  0.00     0.002 C 
BRANCH   2   3
ATOM      3  C   UNL A   1      30.681  26.947  26.131  1.00  0.00     0.021 C 
BRANCH   3   4
ATOM      4  C   UNL A   1      30.093  25.539  26.061  1.00  0.00     0.116 C 
BRANCH   4   5
ATOM      5  N   UNL A   1      30.760  24.547  26.883  1.00  0.00    -0.352 N 
ATOM      6  O   UNL A   1      32.370  23.133  27.545  1.00  0.00    -0.270 OA
ATOM      7  C   UNL A   1      31.908  23.839  26.650  1.00  0.00     0.251 C 
ATOM      8  H   UNL A   1      30.321  24.353  27.742  1.00  0.00     0.163 HD
BRANCH   7   9
ATOM      9  C   UNL A   1      32.682  23.950  25.375  1.00  0.00     0.067 C 
ATOM     10  C   UNL A   1      33.977  24.310  25.343  1.00  0.00     0.025 C 
ATOM     11  C   UNL A   1      32.200  22.967  24.331  1.00  0.00     0.314 C 
ATOM     12  C   UNL A   1      34.868  23.155  25.059  1.00  0.00     0.019 A 
ATOM     13  O   UNL A   1      32.994  21.750  24.380  1.00  0.00    -0.475 OA
ATOM     14  C   UNL A   1      36.215  23.278  25.414  1.00  0.00     0.032 A 
ATOM     15  C   UNL A   1      34.318  21.895  24.735  1.00  0.00     0.135 A 
ATOM     16  C   UNL A   1      36.993  22.133  25.524  1.00  0.00     0.042 A 
ATOM     17  C   UNL A   1      35.086  20.728  24.911  1.00  0.00     0.026 A 
ATOM     18  Cl  UNL A   1      38.607  22.255  26.108  1.00  0.00    -0.084 Cl
ATOM     19  C   UNL A   1      36.437  20.876  25.288  1.00  0.00     0.033 A 
BRANCH  11  20
ATOM     20  C   UNL A   1      32.154  23.588  22.922  1.00  0.00     0.429 C 
ATOM     21  F   UNL A   1      32.505  22.691  21.971  1.00  0.00    -0.167 F 
ATOM     22  F   UNL A   1      30.908  24.025  22.613  1.00  0.00    -0.167 F 
ATOM     23  F   UNL A   1      32.985  24.651  22.793  1.00  0.00    -0.167 F 
ENDBRANCH  11  20
BRANCH  17  24
ATOM     24  C   UNL A   1      34.491  19.376  24.933  1.00  0.00    -0.015 A 
ATOM     25  C   UNL A   1      33.243  19.195  25.559  1.00  0.00     0.010 A 
ATOM     26  C   UNL A   1      35.100  18.253  24.362  1.00  0.00     0.010 A 
ATOM     27  C   UNL A   1      32.627  17.947  25.644  1.00  0.00     0.021 A 
ATOM     28  C   UNL A   1      34.489  16.993  24.444  1.00  0.00     0.021 A 
ATOM     29  C   UNL A   1      33.261  16.845  25.091  1.00  0.00     0.041 A 
ATOM     30  Cl  UNL A   1      32.525  15.296  25.213  1.00  0.00    -0.084 Cl
ENDBRANCH  17  24
ENDBRANCH   7   9
ENDBRANCH   4   5
ENDBRANCH   3   4
ENDBRANCH   2   3
ENDBRANCH   1   2
BRANCH   1  31
ATOM     31  C   UNL A   1      33.656  28.303  25.732  1.00  0.00     0.021 C 
BRANCH  31  32
ATOM     32  C   UNL A   1      33.680  28.482  27.244  1.00  0.00     0.116 C 
BRANCH  32  33
ATOM     33  N   UNL A   1      33.668  29.884  27.625  1.00  0.00    -0.352 N 
ATOM     34  C   UNL A   1      34.619  30.655  28.250  1.00  0.00     0.251 C 
ATOM     35  H   UNL A   1      32.839  30.363  27.397  1.00  0.00     0.163 HD
ATOM     36  O   UNL A   1      34.305  31.769  28.662  1.00  0.00    -0.269 OA
BRANCH  34  37
ATOM     37  C   UNL A   1      36.009  30.172  28.445  1.00  0.00     0.039 A 
ATOM     38  C   UNL A   1      36.371  29.660  29.698  1.00  0.00     0.014 A 
ATOM     39  C   UNL A   1      36.978  30.281  27.446  1.00  0.00     0.014 A 
ATOM     40  C   UNL A   1      37.679  29.222  29.929  1.00  0.00     0.010 A 
ATOM     41  C   UNL A   1      38.256  29.760  27.646  1.00  0.00     0.010 A 
ATOM     42  C   UNL A   1      38.629  29.244  28.895  1.00  0.00    -0.014 A 
BRANCH  42  43
ATOM     43  C   UNL A   1      40.021  28.769  29.108  1.00  0.00     0.031 A 
ATOM     44  C   UNL A   1      41.048  29.688  29.721  1.00  0.00     0.074 A 
ATOM     45  C   UNL A   1      40.382  27.537  28.699  1.00  0.00     0.049 A 
ATOM     46  N   UNL A   1      42.327  29.487  29.919  1.00  0.00    -0.248 NA
ATOM     47  C   UNL A   1      40.581  31.021  30.140  1.00  0.00     0.031 C 
ATOM     48  C   UNL A   1      39.497  26.560  28.063  1.00  0.00     0.029 A 
ATOM     49  N   UNL A   1      41.596  26.898  28.754  1.00  0.00    -0.354 N 
ATOM     50  C   UNL A   1      42.820  30.671  30.450  1.00  0.00     0.074 A 
ATOM     51  C   UNL A   1      41.714  31.602  30.507  1.00  0.00     0.031 C 
ATOM     52  C   UNL A   1      40.188  25.435  27.817  1.00  0.00     0.029 A 
ATOM     53  C   UNL A   1      41.573  25.626  28.236  1.00  0.00     0.049 A 
ATOM     54  H   UNL A   1      42.406  27.312  29.128  1.00  0.00     0.167 HD
ATOM     55  C   UNL A   1      44.074  30.957  30.873  1.00  0.00     0.031 A 
ATOM     56  C   UNL A   1      42.557  24.716  28.106  1.00  0.00     0.031 A 
ATOM     57  C   UNL A   1      45.166  30.021  30.850  1.00  0.00     0.049 A 
ATOM     58  C   UNL A   1      43.941  25.059  28.583  1.00  0.00     0.074 A 
ATOM     59  C   UNL A   1      46.455  30.190  31.326  1.00  0.00     0.029 A 
ATOM     60  N   UNL A   1      45.096  28.740  30.327  1.00  0.00    -0.354 N 
ATOM     61  N   UNL A   1      44.373  26.160  29.148  1.00  0.00    -0.248 NA
ATOM     62  C   UNL A   1      44.973  24.025  28.411  1.00  0.00     0.031 C 
ATOM     63  C   UNL A   1      47.180  29.028  31.045  1.00  0.00     0.029 A 
ATOM     64  C   UNL A   1      46.326  28.117  30.443  1.00  0.00     0.049 A 
ATOM     65  H   UNL A   1      44.292  28.334  29.929  1.00  0.00     0.167 HD
ATOM     66  C   UNL A   1      45.715  25.941  29.427  1.00  0.00     0.074 A 
ATOM     67  C   UNL A   1      46.024  24.597  28.984  1.00  0.00     0.031 C 
ATOM     68  C   UNL A   1      46.614  26.777  30.002  1.00  0.00     0.031 A 
BRANCH  55  69
ATOM     69  C   UNL A   1      44.338  32.343  31.391  1.00  0.00    -0.014 A 
ATOM     70  C   UNL A   1      44.199  32.654  32.752  1.00  0.00     0.009 A 
ATOM     71  C   UNL A   1      44.780  33.344  30.509  1.00  0.00     0.009 A 
ATOM     72  C   UNL A   1      44.461  33.945  33.215  1.00  0.00     0.001 A 
ATOM     73  C   UNL A   1      45.069  34.626  30.979  1.00  0.00     0.001 A 
ATOM     74  C   UNL A   1      44.901  34.928  32.330  1.00  0.00     0.000 A 
ENDBRANCH  55  69
BRANCH  56  75
ATOM     75  C   UNL A   1      42.272  23.380  27.519  1.00  0.00    -0.014 A 
ATOM     76  C   UNL A   1      41.781  22.342  28.325  1.00  0.00     0.009 A 
ATOM     77  C   UNL A   1      42.507  23.129  26.159  1.00  0.00     0.009 A 
ATOM     78  C   UNL A   1      41.560  21.071  27.789  1.00  0.00     0.001 A 
ATOM     79  C   UNL A   1      42.258  21.865  25.619  1.00  0.00     0.001 A 
ATOM     80  C   UNL A   1      41.796  20.835  26.436  1.00  0.00     0.000 A 
ENDBRANCH  56  75
BRANCH  68  81
ATOM     81  C   UNL A   1      48.002  26.248  30.223  1.00  0.00    -0.014 A 
ATOM     82  C   UNL A   1      48.967  26.286  29.205  1.00  0.00     0.009 A 
ATOM     83  C   UNL A   1      48.358  25.740  31.482  1.00  0.00     0.009 A 
ATOM     84  C   UNL A   1      50.254  25.796  29.436  1.00  0.00     0.001 A 
ATOM     85  C   UNL A   1      49.653  25.279  31.719  1.00  0.00     0.001 A 
ATOM     86  C   UNL A   1      50.597  25.298  30.693  1.00  0.00     0.000 A 
ENDBRANCH  68  81
ENDBRANCH  42  43
ENDBRANCH  34  37
ENDBRANCH  32  33
ENDBRANCH  31  32
ENDBRANCH   1  31
TORSDOF 15
ENDMDL
MODEL 2
REMARK VINA RESULT:     -12.1      3.340      8.425
REMARK SMILES O=C(NCCCCCCNC(=O)c1ccc(-c2c3nc(c(-c4ccccc4)c4ccc([nH]4)c(-c4ccccc4)c4nc(c(-c5ccccc5)c5ccc2[nH]5)C=C4)C=C3)cc1)C1=Cc2cc(Cl)cc(-c3ccc(Cl)cc3)c2O[C@@H]1C(F)(F)F
REMARK SMILES IDX 7 1 6 2 5 3 4 4 3 5 1 6 2 7 61 9 62 10 78 11 63 12 77 13
REMARK SMILES IDX 64 14 76 15 65 16 68 17 66 18 67 19 79 20 80 21 81 22 82 23
REMARK SMILES IDX 69 24 70 25 75 26 71 27 74 28 72 29 73 30 8 31 9 32 10 33
REMARK SMILES IDX 11 34 12 36 13 37 14 38 60 39 15 40 59 41 16 42 17 43 18 44
REMARK SMILES IDX 53 45 19 46 58 47 52 48 54 49 20 50 57 51 51 52 50 53 21 55
REMARK SMILES IDX 43 56 28 57 42 58 29 59 32 60 41 61 55 62 30 63 31 64 40 66
REMARK SMILES IDX 56 67 33 68 22 69 23 70 27 71 24 72 26 73 25 74 44 75 45 76
REMARK SMILES IDX 49 77 46 78 48 79 47 80 34 81 35 82 39 83 36 84 38 85 37 86
REMARK H PARENT 3 8 10 35 54 54 32 65
REMARK Flexibility Score: inf
ROOT
ATOM      1  C   UNL A   1      35.213  22.204  26.281  1.00  0.00     0.002 C 
ENDROOT
BRANCH   1   2
ATOM      2  C   UNL A   1      33.903  21.931  25.533  1.00  0.00     0.002 C 
BRANCH   2   3
ATOM      3  C   UNL A   1      33.985  21.827  24.009  1.00  0.00     0.021 C 
BRANCH   3   4
ATOM      4  C   UNL A   1      32.986  22.657  23.207  1.00  0.00     0.116 C 
BRANCH   4   5
ATOM      5  N   UNL A   1      33.472  23.949  22.758  1.00  0.00    -0.352 N 
ATOM      6  O   UNL A   1      34.034  26.116  22.872  1.00  0.00    -0.270 OA
ATOM      7  C   UNL A   1      33.448  25.164  23.385  1.00  0.00     0.251 C 
ATOM      8  H   UNL A   1      33.884  23.951  21.863  1.00  0.00     0.163 HD
BRANCH   7   9
ATOM      9  C   UNL A   1      32.809  25.373  24.721  1.00  0.00     0.067 C 
ATOM     10  C   UNL A   1      33.435  25.997  25.734  1.00  0.00     0.025 C 
ATOM     11  C   UNL A   1      31.310  25.540  24.613  1.00  0.00     0.314 C 
ATOM     12  C   UNL A   1      32.903  27.366  25.958  1.00  0.00     0.019 A 
ATOM     13  O   UNL A   1      30.963  26.950  24.540  1.00  0.00    -0.475 OA
ATOM     14  C   UNL A   1      33.713  28.266  26.656  1.00  0.00     0.032 A 
ATOM     15  C   UNL A   1      31.778  27.819  25.235  1.00  0.00     0.135 A 
ATOM     16  C   UNL A   1      33.447  29.626  26.568  1.00  0.00     0.042 A 
ATOM     17  C   UNL A   1      31.546  29.200  25.088  1.00  0.00     0.026 A 
ATOM     18  Cl  UNL A   1      34.525  30.753  27.295  1.00  0.00    -0.084 Cl
ATOM     19  C   UNL A   1      32.389  30.089  25.788  1.00  0.00     0.033 A 
BRANCH  11  20
ATOM     20  C   UNL A   1      30.558  24.802  25.738  1.00  0.00     0.429 C 
ATOM     21  F   UNL A   1      29.423  25.453  26.087  1.00  0.00    -0.167 F 
ATOM     22  F   UNL A   1      30.196  23.553  25.356  1.00  0.00    -0.167 F 
ATOM     23  F   UNL A   1      31.302  24.669  26.863  1.00  0.00    -0.167 F 
ENDBRANCH  11  20
BRANCH  17  24
ATOM     24  C   UNL A   1      30.618  29.752  24.080  1.00  0.00    -0.015 A 
ATOM     25  C   UNL A   1      30.651  29.233  22.772  1.00  0.00     0.010 A 
ATOM     26  C   UNL A   1      29.698  30.770  24.352  1.00  0.00     0.010 A 
ATOM     27  C   UNL A   1      29.827  29.717  21.758  1.00  0.00     0.021 A 
ATOM     28  C   UNL A   1      28.865  31.265  23.337  1.00  0.00     0.021 A 
ATOM     29  C   UNL A   1      28.938  30.743  22.044  1.00  0.00     0.041 A 
ATOM     30  Cl  UNL A   1      27.935  31.368  20.797  1.00  0.00    -0.084 Cl
ENDBRANCH  17  24
ENDBRANCH   7   9
ENDBRANCH   4   5
ENDBRANCH   3   4
ENDBRANCH   2   3
ENDBRANCH   1   2
BRANCH   1  31
ATOM     31  C   UNL A   1      35.831  23.593  26.106  1.00  0.00     0.021 C 
BRANCH  31  32
ATOM     32  C   UNL A   1      37.016  23.692  25.155  1.00  0.00     0.116 C 
BRANCH  32  33
ATOM     33  N   UNL A   1      38.063  22.742  25.489  1.00  0.00    -0.352 N 
ATOM     34  C   UNL A   1      39.281  22.922  26.098  1.00  0.00     0.251 C 
ATOM     35  H   UNL A   1      37.865  21.811  25.236  1.00  0.00     0.163 HD
ATOM     36  O   UNL A   1      40.094  22.001  26.086  1.00  0.00    -0.269 OA
BRANCH  34  37
ATOM     37  C   UNL A   1      39.640  24.200  26.761  1.00  0.00     0.039 A 
ATOM     38  C   UNL A   1      39.212  24.416  28.078  1.00  0.00     0.014 A 
ATOM     39  C   UNL A   1      40.324  25.216  26.091  1.00  0.00     0.014 A 
ATOM     40  C   UNL A   1      39.507  25.619  28.727  1.00  0.00     0.010 A 
ATOM     41  C   UNL A   1      40.698  26.377  26.767  1.00  0.00     0.010 A 
ATOM     42  C   UNL A   1      40.276  26.602  28.085  1.00  0.00    -0.014 A 
BRANCH  42  43
ATOM     43  C   UNL A   1      40.618  27.883  28.757  1.00  0.00     0.031 A 
ATOM     44  C   UNL A   1      41.992  28.083  29.348  1.00  0.00     0.074 A 
ATOM     45  C   UNL A   1      39.684  28.844  28.892  1.00  0.00     0.049 A 
ATOM     46  N   UNL A   1      42.457  29.095  30.036  1.00  0.00    -0.248 NA
ATOM     47  C   UNL A   1      42.960  26.989  29.165  1.00  0.00     0.031 C 
ATOM     48  C   UNL A   1      38.308  28.766  28.396  1.00  0.00     0.029 A 
ATOM     49  N   UNL A   1      39.749  30.077  29.494  1.00  0.00    -0.354 N 
ATOM     50  C   UNL A   1      43.753  28.746  30.395  1.00  0.00     0.074 A 
ATOM     51  C   UNL A   1      43.988  27.413  29.885  1.00  0.00     0.031 C 
ATOM     52  C   UNL A   1      37.671  29.912  28.685  1.00  0.00     0.029 A 
ATOM     53  C   UNL A   1      38.576  30.788  29.423  1.00  0.00     0.049 A 
ATOM     54  H   UNL A   1      40.560  30.418  29.935  1.00  0.00     0.167 HD
ATOM     55  C   UNL A   1      44.674  29.473  31.071  1.00  0.00     0.031 A 
ATOM     56  C   UNL A   1      38.261  32.005  29.903  1.00  0.00     0.031 A 
ATOM     57  C   UNL A   1      44.454  30.812  31.548  1.00  0.00     0.049 A 
ATOM     58  C   UNL A   1      39.302  32.792  30.651  1.00  0.00     0.074 A 
ATOM     59  C   UNL A   1      45.349  31.661  32.176  1.00  0.00     0.029 A 
ATOM     60  N   UNL A   1      43.255  31.498  31.445  1.00  0.00    -0.354 N 
ATOM     61  N   UNL A   1      40.545  32.473  30.919  1.00  0.00    -0.248 NA
ATOM     62  C   UNL A   1      38.896  34.113  31.154  1.00  0.00     0.031 C 
ATOM     63  C   UNL A   1      44.676  32.843  32.499  1.00  0.00     0.029 A 
ATOM     64  C   UNL A   1      43.378  32.750  32.023  1.00  0.00     0.049 A 
ATOM     65  H   UNL A   1      42.436  31.147  31.026  1.00  0.00     0.167 HD
ATOM     66  C   UNL A   1      41.078  33.564  31.593  1.00  0.00     0.074 A 
ATOM     67  C   UNL A   1      40.029  34.559  31.680  1.00  0.00     0.031 C 
ATOM     68  C   UNL A   1      42.326  33.730  32.094  1.00  0.00     0.031 A 
BRANCH  55  69
ATOM     69  C   UNL A   1      46.007  28.833  31.343  1.00  0.00    -0.014 A 
ATOM     70  C   UNL A   1      46.231  28.074  32.502  1.00  0.00     0.009 A 
ATOM     71  C   UNL A   1      47.042  28.953  30.400  1.00  0.00     0.009 A 
ATOM     72  C   UNL A   1      47.473  27.478  32.730  1.00  0.00     0.001 A 
ATOM     73  C   UNL A   1      48.273  28.332  30.616  1.00  0.00     0.001 A 
ATOM     74  C   UNL A   1      48.491  27.602  31.785  1.00  0.00     0.000 A 
ENDBRANCH  55  69
BRANCH  56  75
ATOM     75  C   UNL A   1      36.906  32.574  29.678  1.00  0.00    -0.014 A 
ATOM     76  C   UNL A   1      36.667  33.424  28.588  1.00  0.00     0.009 A 
ATOM     77  C   UNL A   1      35.852  32.288  30.558  1.00  0.00     0.009 A 
ATOM     78  C   UNL A   1      35.408  34.002  28.401  1.00  0.00     0.001 A 
ATOM     79  C   UNL A   1      34.587  32.843  30.352  1.00  0.00     0.001 A 
ATOM     80  C   UNL A   1      34.369  33.708  29.281  1.00  0.00     0.000 A 
ENDBRANCH  56  75
BRANCH  68  81
ATOM     81  C   UNL A   1      42.638  35.048  32.742  1.00  0.00    -0.014 A 
ATOM     82  C   UNL A   1      42.262  35.317  34.067  1.00  0.00     0.009 A 
ATOM     83  C   UNL A   1      43.354  36.020  32.025  1.00  0.00     0.009 A 
ATOM     84  C   UNL A   1      42.571  36.548  34.650  1.00  0.00     0.001 A 
ATOM     85  C   UNL A   1      43.686  37.237  32.621  1.00  0.00     0.001 A 
ATOM     86  C   UNL A   1      43.286  37.503  33.930  1.00  0.00     0.000 A 
ENDBRANCH  68  81
ENDBRANCH  42  43
ENDBRANCH  34  37
ENDBRANCH  32  33
ENDBRANCH  31  32
ENDBRANCH   1  31
TORSDOF 15
ENDMDL
MODEL 3
REMARK VINA RESULT:     -12.0      2.590      7.766
REMARK SMILES O=C(NCCCCCCNC(=O)c1ccc(-c2c3nc(c(-c4ccccc4)c4ccc([nH]4)c(-c4ccccc4)c4nc(c(-c5ccccc5)c5ccc2[nH]5)C=C4)C=C3)cc1)C1=Cc2cc(Cl)cc(-c3ccc(Cl)cc3)c2O[C@@H]1C(F)(F)F
REMARK SMILES IDX 7 1 6 2 5 3 4 4 3 5 1 6 2 7 61 9 62 10 78 11 63 12 77 13
REMARK SMILES IDX 64 14 76 15 65 16 68 17 66 18 67 19 79 20 80 21 81 22 82 23
REMARK SMILES IDX 69 24 70 25 75 26 71 27 74 28 72 29 73 30 8 31 9 32 10 33
REMARK SMILES IDX 11 34 12 36 13 37 14 38 60 39 15 40 59 41 16 42 17 43 18 44
REMARK SMILES IDX 53 45 19 46 58 47 52 48 54 49 20 50 57 51 51 52 50 53 21 55
REMARK SMILES IDX 43 56 28 57 42 58 29 59 32 60 41 61 55 62 30 63 31 64 40 66
REMARK SMILES IDX 56 67 33 68 22 69 23 70 27 71 24 72 26 73 25 74 44 75 45 76
REMARK SMILES IDX 49 77 46 78 48 79 47 80 34 81 35 82 39 83 36 84 38 85 37 86
REMARK H PARENT 3 8 10 35 54 54 32 65
REMARK Flexibility Score: inf
ROOT
ATOM      1  C   UNL A   1      35.799  20.003  25.065  1.00  0.00     0.002 C 
ENDROOT
BRANCH   1   2
ATOM      2  C   UNL A   1      34.666  19.071  24.620  1.00  0.00     0.002 C 
BRANCH   2   3
ATOM      3  C   UNL A   1      33.349  19.165  25.392  1.00  0.00     0.021 C 
BRANCH   3   4
ATOM      4  C   UNL A   1      32.268  20.070  24.805  1.00  0.00     0.116 C 
BRANCH   4   5
ATOM      5  N   UNL A   1      31.903  21.211  25.623  1.00  0.00    -0.352 N 
ATOM      6  O   UNL A   1      31.922  23.322  26.379  1.00  0.00    -0.270 OA
ATOM      7  C   UNL A   1      32.473  22.452  25.706  1.00  0.00     0.251 C 
ATOM      8  H   UNL A   1      31.124  21.073  26.209  1.00  0.00     0.163 HD
BRANCH   7   9
ATOM      9  C   UNL A   1      33.701  22.832  24.941  1.00  0.00     0.067 C 
ATOM     10  C   UNL A   1      33.766  22.772  23.600  1.00  0.00     0.025 C 
ATOM     11  C   UNL A   1      34.487  23.922  25.635  1.00  0.00     0.314 C 
ATOM     12  C   UNL A   1      33.717  24.121  22.980  1.00  0.00     0.019 A 
ATOM     13  O   UNL A   1      34.104  25.226  25.118  1.00  0.00    -0.475 OA
ATOM     14  C   UNL A   1      33.347  24.198  21.634  1.00  0.00     0.032 A 
ATOM     15  C   UNL A   1      33.741  25.277  23.790  1.00  0.00     0.135 A 
ATOM     16  C   UNL A   1      32.923  25.416  21.117  1.00  0.00     0.042 A 
ATOM     17  C   UNL A   1      33.247  26.497  23.287  1.00  0.00     0.026 A 
ATOM     18  Cl  UNL A   1      32.319  25.492  19.507  1.00  0.00    -0.084 Cl
ATOM     19  C   UNL A   1      32.862  26.545  21.931  1.00  0.00     0.033 A 
BRANCH  11  20
ATOM     20  C   UNL A   1      36.008  23.680  25.564  1.00  0.00     0.429 C 
ATOM     21  F   UNL A   1      36.704  24.817  25.802  1.00  0.00    -0.167 F 
ATOM     22  F   UNL A   1      36.408  22.771  26.487  1.00  0.00    -0.167 F 
ATOM     23  F   UNL A   1      36.406  23.214  24.356  1.00  0.00    -0.167 F 
ENDBRANCH  11  20
BRANCH  17  24
ATOM     24  C   UNL A   1      32.916  27.644  24.157  1.00  0.00    -0.015 A 
ATOM     25  C   UNL A   1      31.603  28.153  24.136  1.00  0.00     0.010 A 
ATOM     26  C   UNL A   1      33.837  28.261  25.010  1.00  0.00     0.010 A 
ATOM     27  C   UNL A   1      31.217  29.248  24.906  1.00  0.00     0.021 A 
ATOM     28  C   UNL A   1      33.458  29.365  25.788  1.00  0.00     0.021 A 
ATOM     29  C   UNL A   1      32.153  29.858  25.727  1.00  0.00     0.041 A 
ATOM     30  Cl  UNL A   1      31.698  31.226  26.662  1.00  0.00    -0.084 Cl
ENDBRANCH  17  24
ENDBRANCH   7   9
ENDBRANCH   4   5
ENDBRANCH   3   4
ENDBRANCH   2   3
ENDBRANCH   1   2
BRANCH   1  31
ATOM     31  C   UNL A   1      37.213  19.637  24.610  1.00  0.00     0.021 C 
BRANCH  31  32
ATOM     32  C   UNL A   1      38.360  20.283  25.374  1.00  0.00     0.116 C 
BRANCH  32  33
ATOM     33  N   UNL A   1      39.452  19.354  25.607  1.00  0.00    -0.352 N 
ATOM     34  C   UNL A   1      40.744  19.568  26.021  1.00  0.00     0.251 C 
ATOM     35  H   UNL A   1      39.227  18.409  25.440  1.00  0.00     0.163 HD
ATOM     36  O   UNL A   1      41.554  18.647  25.944  1.00  0.00    -0.269 OA
BRANCH  34  37
ATOM     37  C   UNL A   1      41.186  20.882  26.550  1.00  0.00     0.039 A 
ATOM     38  C   UNL A   1      41.099  21.113  27.929  1.00  0.00     0.014 A 
ATOM     39  C   UNL A   1      41.614  21.913  25.711  1.00  0.00     0.014 A 
ATOM     40  C   UNL A   1      41.480  22.349  28.462  1.00  0.00     0.010 A 
ATOM     41  C   UNL A   1      42.079  23.111  26.251  1.00  0.00     0.010 A 
ATOM     42  C   UNL A   1      41.998  23.353  27.629  1.00  0.00    -0.014 A 
BRANCH  42  43
ATOM     43  C   UNL A   1      42.426  24.669  28.171  1.00  0.00     0.031 A 
ATOM     44  C   UNL A   1      41.412  25.766  28.379  1.00  0.00     0.074 A 
ATOM     45  C   UNL A   1      43.729  24.904  28.420  1.00  0.00     0.049 A 
ATOM     46  N   UNL A   1      41.598  27.002  28.769  1.00  0.00    -0.248 NA
ATOM     47  C   UNL A   1      40.007  25.439  28.081  1.00  0.00     0.031 C 
ATOM     48  C   UNL A   1      44.816  23.941  28.232  1.00  0.00     0.029 A 
ATOM     49  N   UNL A   1      44.361  26.031  28.883  1.00  0.00    -0.354 N 
ATOM     50  C   UNL A   1      40.347  27.605  28.731  1.00  0.00     0.074 A 
ATOM     51  C   UNL A   1      39.415  26.613  28.241  1.00  0.00     0.031 C 
ATOM     52  C   UNL A   1      45.974  24.507  28.606  1.00  0.00     0.029 A 
ATOM     53  C   UNL A   1      45.721  25.885  29.018  1.00  0.00     0.049 A 
ATOM     54  H   UNL A   1      43.886  26.866  29.096  1.00  0.00     0.167 HD
ATOM     55  C   UNL A   1      39.997  28.863  29.088  1.00  0.00     0.031 A 
ATOM     56  C   UNL A   1      46.659  26.761  29.423  1.00  0.00     0.031 A 
ATOM     57  C   UNL A   1      40.916  29.839  29.609  1.00  0.00     0.049 A 
ATOM     58  C   UNL A   1      46.243  28.153  29.814  1.00  0.00     0.074 A 
ATOM     59  C   UNL A   1      40.646  31.116  30.072  1.00  0.00     0.029 A 
ATOM     60  N   UNL A   1      42.282  29.645  29.740  1.00  0.00    -0.354 N 
ATOM     61  N   UNL A   1      45.045  28.682  29.838  1.00  0.00    -0.248 NA
ATOM     62  C   UNL A   1      47.315  29.064  30.243  1.00  0.00     0.031 C 
ATOM     63  C   UNL A   1      41.857  31.712  30.436  1.00  0.00     0.029 A 
ATOM     64  C   UNL A   1      42.873  30.788  30.251  1.00  0.00     0.049 A 
ATOM     65  H   UNL A   1      42.761  28.818  29.503  1.00  0.00     0.167 HD
ATOM     66  C   UNL A   1      45.213  29.976  30.314  1.00  0.00     0.074 A 
ATOM     67  C   UNL A   1      46.626  30.147  30.580  1.00  0.00     0.031 C 
ATOM     68  C   UNL A   1      44.279  30.938  30.515  1.00  0.00     0.031 A 
BRANCH  55  69
ATOM     69  C   UNL A   1      38.557  29.262  28.923  1.00  0.00    -0.014 A 
ATOM     70  C   UNL A   1      38.063  29.723  27.693  1.00  0.00     0.009 A 
ATOM     71  C   UNL A   1      37.669  29.129  30.003  1.00  0.00     0.009 A 
ATOM     72  C   UNL A   1      36.719  30.077  27.557  1.00  0.00     0.001 A 
ATOM     73  C   UNL A   1      36.320  29.456  29.857  1.00  0.00     0.001 A 
ATOM     74  C   UNL A   1      35.847  29.938  28.637  1.00  0.00     0.000 A 
ENDBRANCH  55  69
BRANCH  56  75
ATOM     75  C   UNL A   1      48.085  26.351  29.503  1.00  0.00    -0.014 A 
ATOM     76  C   UNL A   1      48.929  26.500  28.391  1.00  0.00     0.009 A 
ATOM     77  C   UNL A   1      48.607  25.793  30.679  1.00  0.00     0.009 A 
ATOM     78  C   UNL A   1      50.257  26.069  28.445  1.00  0.00     0.001 A 
ATOM     79  C   UNL A   1      49.943  25.390  30.740  1.00  0.00     0.001 A 
ATOM     80  C   UNL A   1      50.763  25.518  29.620  1.00  0.00     0.000 A 
ENDBRANCH  56  75
BRANCH  68  81
ATOM     81  C   UNL A   1      44.751  32.243  31.089  1.00  0.00    -0.014 A 
ATOM     82  C   UNL A   1      45.134  33.309  30.259  1.00  0.00     0.009 A 
ATOM     83  C   UNL A   1      44.771  32.422  32.481  1.00  0.00     0.009 A 
ATOM     84  C   UNL A   1      45.561  34.516  30.815  1.00  0.00     0.001 A 
ATOM     85  C   UNL A   1      45.169  33.640  33.033  1.00  0.00     0.001 A 
ATOM     86  C   UNL A   1      45.573  34.682  32.200  1.00  0.00     0.000 A 
ENDBRANCH  68  81
ENDBRANCH  42  43
ENDBRANCH  34  37
ENDBRANCH  32  33
ENDBRANCH  31  32
ENDBRANCH   1  31
TORSDOF 15
ENDMDL
