MODEL 1
REMARK VINA RESULT:     -10.3      0.000      0.000
REMARK SMILES CC(=O)N[C@@H](Cc1cc(Br)c(O)c(Br)c1)C(=O)NCCCCCCNC(=O)c1ccc(-c2c3nc(c(-c4ccccc4)c4ccc([nH]4)c(-c4ccccc4)c4nc(c(-c5ccccc5)c5ccc2[nH]5)C=C4)C=C3)cc1
REMARK SMILES IDX 21 1 20 2 19 3 18 4 16 5 17 6 5 8 4 9 1 10 2 11 3 12 6 14
REMARK SMILES IDX 7 15 8 16 15 17 9 18 13 19 10 20 11 21 14 22 12 23 22 25
REMARK SMILES IDX 23 26 24 27 25 28 26 29 27 31 28 32 29 33 75 34 30 35 74 36
REMARK SMILES IDX 31 37 32 38 33 39 68 40 34 41 73 42 67 43 69 44 35 45 72 46
REMARK SMILES IDX 66 47 65 48 36 50 58 51 43 52 57 53 44 54 47 55 56 56 70 57
REMARK SMILES IDX 45 58 46 59 55 61 71 62 48 63 37 64 38 65 42 66 39 67 41 68
REMARK SMILES IDX 40 69 59 70 60 71 64 72 61 73 63 74 62 75 49 76 50 77 54 78
REMARK SMILES IDX 51 79 53 80 52 81
REMARK H PARENT 18 7 4 13 12 24 25 30 69 49 47 60
REMARK Flexibility Score: inf
ROOT
ATOM      1  C   UNL A   1      34.311  24.955  23.624  1.00  0.00     0.002 C 
ENDROOT
BRANCH   1   2
ATOM      2  C   UNL A   1      34.100  25.531  25.040  1.00  0.00     0.021 C 
BRANCH   2   3
ATOM      3  C   UNL A   1      33.875  27.033  25.161  1.00  0.00     0.116 C 
BRANCH   3   4
ATOM      4  N   UNL A   1      33.021  27.523  26.231  1.00  0.00    -0.354 N 
ATOM      5  C   UNL A   1      31.694  27.301  26.514  1.00  0.00     0.242 C 
ATOM      6  O   UNL A   1      31.370  27.456  27.701  1.00  0.00    -0.273 OA
ATOM      7  H   UNL A   1      33.475  28.121  26.868  1.00  0.00     0.163 HD
BRANCH   5   8
ATOM      8  C   UNL A   1      30.594  26.816  25.502  1.00  0.00     0.175 C 
BRANCH   8   9
ATOM      9  N   UNL A   1      30.842  27.113  24.093  1.00  0.00    -0.344 N 
ATOM     10  C   UNL A   1      28.471  27.542  23.492  1.00  0.00     0.114 C 
ATOM     11  C   UNL A   1      29.942  27.548  23.159  1.00  0.00     0.217 C 
ATOM     12  O   UNL A   1      30.352  27.914  22.059  1.00  0.00    -0.275 OA
ATOM     13  H   UNL A   1      31.766  26.985  23.778  1.00  0.00     0.164 HD
ENDBRANCH   8   9
BRANCH   8  14
ATOM     14  C   UNL A   1      29.970  25.395  25.756  1.00  0.00     0.070 C 
BRANCH  14  15
ATOM     15  C   UNL A   1      30.803  24.139  25.578  1.00  0.00    -0.043 A 
ATOM     16  C   UNL A   1      31.383  23.532  26.672  1.00  0.00     0.023 A 
ATOM     17  C   UNL A   1      31.027  23.528  24.335  1.00  0.00     0.023 A 
ATOM     18  C   UNL A   1      32.351  22.548  26.531  1.00  0.00     0.061 A 
ATOM     19  C   UNL A   1      31.786  22.341  24.239  1.00  0.00     0.061 A 
ATOM     20  Br  UNL A   1      33.877  22.578  27.665  1.00  0.00    -0.047 Br
ATOM     21  C   UNL A   1      32.446  21.840  25.353  1.00  0.00     0.143 A 
ATOM     22  Br  UNL A   1      31.980  21.498  22.555  1.00  0.00    -0.047 Br
BRANCH  21  23
ATOM     23  O   UNL A   1      33.198  20.699  25.305  1.00  0.00    -0.506 OA
ATOM     24  H   UNL A   1      32.846  19.922  24.916  1.00  0.00     0.293 HD
ENDBRANCH  21  23
ENDBRANCH  14  15
ENDBRANCH   8  14
ENDBRANCH   5   8
ENDBRANCH   3   4
ENDBRANCH   2   3
ENDBRANCH   1   2
BRANCH   1  25
ATOM     25  C   UNL A   1      35.083  23.640  23.398  1.00  0.00     0.002 C 
BRANCH  25  26
ATOM     26  C   UNL A   1      35.881  23.017  24.541  1.00  0.00     0.021 C 
BRANCH  26  27
ATOM     27  C   UNL A   1      37.176  23.688  24.984  1.00  0.00     0.116 C 
BRANCH  27  28
ATOM     28  N   UNL A   1      38.148  22.724  25.476  1.00  0.00    -0.352 N 
ATOM     29  C   UNL A   1      39.279  22.929  26.217  1.00  0.00     0.251 C 
ATOM     30  H   UNL A   1      37.963  21.785  25.241  1.00  0.00     0.163 HD
ATOM     31  O   UNL A   1      40.091  21.993  26.358  1.00  0.00    -0.269 OA
BRANCH  29  32
ATOM     32  C   UNL A   1      39.578  24.234  26.849  1.00  0.00     0.039 A 
ATOM     33  C   UNL A   1      39.120  24.490  28.147  1.00  0.00     0.014 A 
ATOM     34  C   UNL A   1      40.260  25.235  26.150  1.00  0.00     0.014 A 
ATOM     35  C   UNL A   1      39.389  25.718  28.764  1.00  0.00     0.010 A 
ATOM     36  C   UNL A   1      40.576  26.437  26.785  1.00  0.00     0.010 A 
ATOM     37  C   UNL A   1      40.143  26.695  28.097  1.00  0.00    -0.014 A 
BRANCH  37  38
ATOM     38  C   UNL A   1      40.479  28.002  28.724  1.00  0.00     0.031 A 
ATOM     39  C   UNL A   1      41.814  28.189  29.397  1.00  0.00     0.074 A 
ATOM     40  C   UNL A   1      39.563  28.989  28.778  1.00  0.00     0.049 A 
ATOM     41  N   UNL A   1      42.232  29.177  30.149  1.00  0.00    -0.248 NA
ATOM     42  C   UNL A   1      42.797  27.109  29.221  1.00  0.00     0.031 C 
ATOM     43  C   UNL A   1      38.231  28.945  28.174  1.00  0.00     0.029 A 
ATOM     44  N   UNL A   1      39.608  30.217  29.394  1.00  0.00    -0.354 N 
ATOM     45  C   UNL A   1      43.510  28.820  30.562  1.00  0.00     0.074 A 
ATOM     46  C   UNL A   1      43.785  27.513  30.005  1.00  0.00     0.031 C 
ATOM     47  C   UNL A   1      37.587  30.092  28.445  1.00  0.00     0.029 A 
ATOM     48  C   UNL A   1      38.439  30.932  29.283  1.00  0.00     0.049 A 
ATOM     49  H   UNL A   1      40.402  30.553  29.869  1.00  0.00     0.167 HD
ATOM     50  C   UNL A   1      44.381  29.519  31.330  1.00  0.00     0.031 A 
ATOM     51  C   UNL A   1      38.080  32.116  29.816  1.00  0.00     0.031 A 
ATOM     52  C   UNL A   1      44.120  30.827  31.869  1.00  0.00     0.049 A 
ATOM     53  C   UNL A   1      39.052  32.860  30.692  1.00  0.00     0.074 A 
ATOM     54  C   UNL A   1      44.961  31.634  32.614  1.00  0.00     0.029 A 
ATOM     55  N   UNL A   1      42.929  31.517  31.719  1.00  0.00    -0.354 N 
ATOM     56  N   UNL A   1      40.271  32.527  31.041  1.00  0.00    -0.248 NA
ATOM     57  C   UNL A   1      38.599  34.145  31.246  1.00  0.00     0.031 C 
ATOM     58  C   UNL A   1      44.260  32.795  32.957  1.00  0.00     0.029 A 
ATOM     59  C   UNL A   1      43.003  32.733  32.376  1.00  0.00     0.049 A 
ATOM     60  H   UNL A   1      42.145  31.192  31.220  1.00  0.00     0.167 HD
ATOM     61  C   UNL A   1      40.742  33.575  31.823  1.00  0.00     0.074 A 
ATOM     62  C   UNL A   1      39.680  34.557  31.894  1.00  0.00     0.031 C 
ATOM     63  C   UNL A   1      41.948  33.711  32.424  1.00  0.00     0.031 A 
BRANCH  50  64
ATOM     64  C   UNL A   1      45.701  28.872  31.646  1.00  0.00    -0.014 A 
ATOM     65  C   UNL A   1      45.898  28.158  32.838  1.00  0.00     0.009 A 
ATOM     66  C   UNL A   1      46.753  28.945  30.718  1.00  0.00     0.009 A 
ATOM     67  C   UNL A   1      47.133  27.567  33.113  1.00  0.00     0.001 A 
ATOM     68  C   UNL A   1      47.976  28.327  30.981  1.00  0.00     0.001 A 
ATOM     69  C   UNL A   1      48.169  27.648  32.183  1.00  0.00     0.000 A 
ENDBRANCH  50  64
BRANCH  51  70
ATOM     70  C   UNL A   1      36.731  32.679  29.542  1.00  0.00    -0.014 A 
ATOM     71  C   UNL A   1      36.494  33.416  28.371  1.00  0.00     0.009 A 
ATOM     72  C   UNL A   1      35.679  32.494  30.451  1.00  0.00     0.009 A 
ATOM     73  C   UNL A   1      35.237  33.976  28.129  1.00  0.00     0.001 A 
ATOM     74  C   UNL A   1      34.415  33.030  30.191  1.00  0.00     0.001 A 
ATOM     75  C   UNL A   1      34.198  33.778  29.036  1.00  0.00     0.000 A 
ENDBRANCH  51  70
BRANCH  63  76
ATOM     76  C   UNL A   1      42.217  34.986  33.169  1.00  0.00    -0.014 A 
ATOM     77  C   UNL A   1      41.752  35.181  34.479  1.00  0.00     0.009 A 
ATOM     78  C   UNL A   1      43.017  35.977  32.576  1.00  0.00     0.009 A 
ATOM     79  C   UNL A   1      42.071  36.352  35.172  1.00  0.00     0.001 A 
ATOM     80  C   UNL A   1      43.355  37.133  33.281  1.00  0.00     0.001 A 
ATOM     81  C   UNL A   1      42.877  37.322  34.576  1.00  0.00     0.000 A 
ENDBRANCH  63  76
ENDBRANCH  37  38
ENDBRANCH  29  32
ENDBRANCH  27  28
ENDBRANCH  26  27
ENDBRANCH  25  26
ENDBRANCH   1  25
TORSDOF 17
ENDMDL
MODEL 2
REMARK VINA RESULT:     -10.2      3.112      7.564
REMARK SMILES CC(=O)N[C@@H](Cc1cc(Br)c(O)c(Br)c1)C(=O)NCCCCCCNC(=O)c1ccc(-c2c3nc(c(-c4ccccc4)c4ccc([nH]4)c(-c4ccccc4)c4nc(c(-c5ccccc5)c5ccc2[nH]5)C=C4)C=C3)cc1
REMARK SMILES IDX 21 1 20 2 19 3 18 4 16 5 17 6 5 8 4 9 1 10 2 11 3 12 6 14
REMARK SMILES IDX 7 15 8 16 15 17 9 18 13 19 10 20 11 21 14 22 12 23 22 25
REMARK SMILES IDX 23 26 24 27 25 28 26 29 27 31 28 32 29 33 75 34 30 35 74 36
REMARK SMILES IDX 31 37 32 38 33 39 68 40 34 41 73 42 67 43 69 44 35 45 72 46
REMARK SMILES IDX 66 47 65 48 36 50 58 51 43 52 57 53 44 54 47 55 56 56 70 57
REMARK SMILES IDX 45 58 46 59 55 61 71 62 48 63 37 64 38 65 42 66 39 67 41 68
REMARK SMILES IDX 40 69 59 70 60 71 64 72 61 73 63 74 62 75 49 76 50 77 54 78
REMARK SMILES IDX 51 79 53 80 52 81
REMARK H PARENT 18 7 4 13 12 24 25 30 69 49 47 60
REMARK Flexibility Score: inf
ROOT
ATOM      1  C   UNL A   1      35.916  21.848  25.220  1.00  0.00     0.002 C 
ENDROOT
BRANCH   1   2
ATOM      2  C   UNL A   1      35.040  22.494  26.313  1.00  0.00     0.021 C 
BRANCH   2   3
ATOM      3  C   UNL A   1      33.873  21.676  26.852  1.00  0.00     0.116 C 
BRANCH   3   4
ATOM      4  N   UNL A   1      32.741  22.381  27.433  1.00  0.00    -0.354 N 
ATOM      5  C   UNL A   1      31.650  22.986  26.856  1.00  0.00     0.242 C 
ATOM      6  O   UNL A   1      30.650  23.084  27.583  1.00  0.00    -0.273 OA
ATOM      7  H   UNL A   1      32.759  22.433  28.416  1.00  0.00     0.163 HD
BRANCH   5   8
ATOM      8  C   UNL A   1      31.541  23.492  25.372  1.00  0.00     0.175 C 
BRANCH   8   9
ATOM      9  N   UNL A   1      31.602  22.463  24.337  1.00  0.00    -0.344 N 
ATOM     10  C   UNL A   1      33.402  23.536  23.005  1.00  0.00     0.114 C 
ATOM     11  C   UNL A   1      32.490  22.372  23.300  1.00  0.00     0.217 C 
ATOM     12  O   UNL A   1      32.509  21.349  22.618  1.00  0.00    -0.275 OA
ATOM     13  H   UNL A   1      30.925  21.750  24.392  1.00  0.00     0.164 HD
ENDBRANCH   8   9
BRANCH   8  14
ATOM     14  C   UNL A   1      30.492  24.628  25.083  1.00  0.00     0.070 C 
BRANCH  14  15
ATOM     15  C   UNL A   1      30.900  26.089  25.121  1.00  0.00    -0.043 A 
ATOM     16  C   UNL A   1      30.227  27.015  24.352  1.00  0.00     0.023 A 
ATOM     17  C   UNL A   1      31.947  26.582  25.914  1.00  0.00     0.023 A 
ATOM     18  C   UNL A   1      30.720  28.297  24.156  1.00  0.00     0.061 A 
ATOM     19  C   UNL A   1      32.257  27.959  25.929  1.00  0.00     0.061 A 
ATOM     20  Br  UNL A   1      30.635  29.071  22.421  1.00  0.00    -0.047 Br
ATOM     21  C   UNL A   1      31.628  28.828  25.047  1.00  0.00     0.143 A 
ATOM     22  Br  UNL A   1      33.613  28.592  27.089  1.00  0.00    -0.047 Br
BRANCH  21  23
ATOM     23  O   UNL A   1      31.902  30.167  25.020  1.00  0.00    -0.506 OA
ATOM     24  H   UNL A   1      31.829  30.676  25.803  1.00  0.00     0.293 HD
ENDBRANCH  21  23
ENDBRANCH  14  15
ENDBRANCH   8  14
ENDBRANCH   5   8
ENDBRANCH   3   4
ENDBRANCH   2   3
ENDBRANCH   1   2
BRANCH   1  25
ATOM     25  C   UNL A   1      35.920  20.324  24.989  1.00  0.00     0.002 C 
BRANCH  25  26
ATOM     26  C   UNL A   1      37.244  19.575  24.858  1.00  0.00     0.021 C 
BRANCH  26  27
ATOM     27  C   UNL A   1      38.515  20.233  25.382  1.00  0.00     0.116 C 
BRANCH  27  28
ATOM     28  N   UNL A   1      39.578  19.265  25.601  1.00  0.00    -0.352 N 
ATOM     29  C   UNL A   1      40.869  19.467  26.009  1.00  0.00     0.251 C 
ATOM     30  H   UNL A   1      39.333  18.326  25.431  1.00  0.00     0.163 HD
ATOM     31  O   UNL A   1      41.683  18.526  25.933  1.00  0.00    -0.269 OA
BRANCH  29  32
ATOM     32  C   UNL A   1      41.333  20.773  26.528  1.00  0.00     0.039 A 
ATOM     33  C   UNL A   1      41.430  20.967  27.911  1.00  0.00     0.014 A 
ATOM     34  C   UNL A   1      41.621  21.832  25.663  1.00  0.00     0.014 A 
ATOM     35  C   UNL A   1      41.864  22.195  28.425  1.00  0.00     0.010 A 
ATOM     36  C   UNL A   1      42.107  23.037  26.173  1.00  0.00     0.010 A 
ATOM     37  C   UNL A   1      42.232  23.235  27.558  1.00  0.00    -0.014 A 
BRANCH  37  38
ATOM     38  C   UNL A   1      42.728  24.546  28.059  1.00  0.00     0.031 A 
ATOM     39  C   UNL A   1      41.748  25.640  28.394  1.00  0.00     0.074 A 
ATOM     40  C   UNL A   1      44.051  24.795  28.125  1.00  0.00     0.049 A 
ATOM     41  N   UNL A   1      41.975  26.900  28.674  1.00  0.00    -0.248 NA
ATOM     42  C   UNL A   1      40.324  25.272  28.389  1.00  0.00     0.031 C 
ATOM     43  C   UNL A   1      45.112  23.832  27.827  1.00  0.00     0.029 A 
ATOM     44  N   UNL A   1      44.728  25.948  28.442  1.00  0.00    -0.354 N 
ATOM     45  C   UNL A   1      40.723  27.479  28.841  1.00  0.00     0.074 A 
ATOM     46  C   UNL A   1      39.742  26.443  28.601  1.00  0.00     0.031 C 
ATOM     47  C   UNL A   1      46.304  24.432  27.979  1.00  0.00     0.029 A 
ATOM     48  C   UNL A   1      46.094  25.833  28.335  1.00  0.00     0.049 A 
ATOM     49  H   UNL A   1      44.278  26.778  28.721  1.00  0.00     0.167 HD
ATOM     50  C   UNL A   1      40.415  28.756  29.173  1.00  0.00     0.031 A 
ATOM     51  C   UNL A   1      47.067  26.753  28.480  1.00  0.00     0.031 A 
ATOM     52  C   UNL A   1      41.388  29.784  29.433  1.00  0.00     0.049 A 
ATOM     53  C   UNL A   1      46.700  28.173  28.817  1.00  0.00     0.074 A 
ATOM     54  C   UNL A   1      41.172  31.094  29.826  1.00  0.00     0.029 A 
ATOM     55  N   UNL A   1      42.758  29.617  29.326  1.00  0.00    -0.354 N 
ATOM     56  N   UNL A   1      45.514  28.696  29.011  1.00  0.00    -0.248 NA
ATOM     57  C   UNL A   1      47.808  29.130  28.957  1.00  0.00     0.031 C 
ATOM     58  C   UNL A   1      42.412  31.734  29.910  1.00  0.00     0.029 A 
ATOM     59  C   UNL A   1      43.402  30.806  29.625  1.00  0.00     0.049 A 
ATOM     60  H   UNL A   1      43.208  28.779  29.075  1.00  0.00     0.167 HD
ATOM     61  C   UNL A   1      45.734  30.030  29.331  1.00  0.00     0.074 A 
ATOM     62  C   UNL A   1      47.167  30.237  29.310  1.00  0.00     0.031 C 
ATOM     63  C   UNL A   1      44.829  30.995  29.619  1.00  0.00     0.031 A 
BRANCH  50  64
ATOM     64  C   UNL A   1      38.959  29.119  29.261  1.00  0.00    -0.014 A 
ATOM     65  C   UNL A   1      38.241  28.976  30.459  1.00  0.00     0.009 A 
ATOM     66  C   UNL A   1      38.303  29.649  28.138  1.00  0.00     0.009 A 
ATOM     67  C   UNL A   1      36.888  29.317  30.519  1.00  0.00     0.001 A 
ATOM     68  C   UNL A   1      36.960  30.019  28.208  1.00  0.00     0.001 A 
ATOM     69  C   UNL A   1      36.250  29.842  29.395  1.00  0.00     0.000 A 
ENDBRANCH  50  64
BRANCH  51  70
ATOM     70  C   UNL A   1      48.492  26.366  28.302  1.00  0.00    -0.014 A 
ATOM     71  C   UNL A   1      49.245  25.912  29.396  1.00  0.00     0.009 A 
ATOM     72  C   UNL A   1      49.109  26.457  27.046  1.00  0.00     0.009 A 
ATOM     73  C   UNL A   1      50.594  25.582  29.239  1.00  0.00     0.001 A 
ATOM     74  C   UNL A   1      50.449  26.097  26.886  1.00  0.00     0.001 A 
ATOM     75  C   UNL A   1      51.193  25.669  27.984  1.00  0.00     0.000 A 
ENDBRANCH  51  70
BRANCH  63  76
ATOM     76  C   UNL A   1      45.350  32.353  29.992  1.00  0.00    -0.014 A 
ATOM     77  C   UNL A   1      45.492  33.370  29.036  1.00  0.00     0.009 A 
ATOM     78  C   UNL A   1      45.629  32.640  31.338  1.00  0.00     0.009 A 
ATOM     79  C   UNL A   1      45.919  34.644  29.420  1.00  0.00     0.001 A 
ATOM     80  C   UNL A   1      46.031  33.920  31.722  1.00  0.00     0.001 A 
ATOM     81  C   UNL A   1      46.180  34.919  30.763  1.00  0.00     0.000 A 
ENDBRANCH  63  76
ENDBRANCH  37  38
ENDBRANCH  29  32
ENDBRANCH  27  28
ENDBRANCH  26  27
ENDBRANCH  25  26
ENDBRANCH   1  25
TORSDOF 17
ENDMDL
MODEL 3
REMARK VINA RESULT:     -10.2      2.837      7.160
REMARK SMILES CC(=O)N[C@@H](Cc1cc(Br)c(O)c(Br)c1)C(=O)NCCCCCCNC(=O)c1ccc(-c2c3nc(c(-c4ccccc4)c4ccc([nH]4)c(-c4ccccc4)c4nc(c(-c5ccccc5)c5ccc2[nH]5)C=C4)C=C3)cc1
REMARK SMILES IDX 21 1 20 2 19 3 18 4 16 5 17 6 5 8 4 9 1 10 2 11 3 12 6 14
REMARK SMILES IDX 7 15 8 16 15 17 9 18 13 19 10 20 11 21 14 22 12 23 22 25
REMARK SMILES IDX 23 26 24 27 25 28 26 29 27 31 28 32 29 33 75 34 30 35 74 36
REMARK SMILES IDX 31 37 32 38 33 39 68 40 34 41 73 42 67 43 69 44 35 45 72 46
REMARK SMILES IDX 66 47 65 48 36 50 58 51 43 52 57 53 44 54 47 55 56 56 70 57
REMARK SMILES IDX 45 58 46 59 55 61 71 62 48 63 37 64 38 65 42 66 39 67 41 68
REMARK SMILES IDX 40 69 59 70 60 71 64 72 61 73 63 74 62 75 49 76 50 77 54 78
REMARK SMILES IDX 51 79 53 80 52 81
REMARK H PARENT 18 7 4 13 12 24 25 30 69 49 47 60
REMARK Flexibility Score: inf
ROOT
ATOM      1  C   UNL A   1      32.160  29.422  25.652  1.00  0.00     0.002 C 
ENDROOT
BRANCH   1   2
ATOM      2  C   UNL A   1      31.809  28.142  26.438  1.00  0.00     0.021 C 
BRANCH   2   3
ATOM      3  C   UNL A   1      32.216  26.808  25.825  1.00  0.00     0.116 C 
BRANCH   3   4
ATOM      4  N   UNL A   1      31.721  26.473  24.499  1.00  0.00    -0.354 N 
ATOM      5  C   UNL A   1      31.179  25.315  23.994  1.00  0.00     0.242 C 
ATOM      6  O   UNL A   1      30.438  25.460  23.010  1.00  0.00    -0.273 OA
ATOM      7  H   UNL A   1      31.784  27.208  23.846  1.00  0.00     0.163 HD
BRANCH   5   8
ATOM      8  C   UNL A   1      31.358  23.868  24.580  1.00  0.00     0.175 C 
BRANCH   8   9
ATOM      9  N   UNL A   1      30.367  23.449  25.568  1.00  0.00    -0.344 N 
ATOM     10  C   UNL A   1      31.994  22.934  27.372  1.00  0.00     0.114 C 
ATOM     11  C   UNL A   1      30.581  23.116  26.878  1.00  0.00     0.217 C 
ATOM     12  O   UNL A   1      29.613  22.951  27.619  1.00  0.00    -0.275 OA
ATOM     13  H   UNL A   1      29.434  23.401  25.255  1.00  0.00     0.164 HD
ENDBRANCH   8   9
BRANCH   8  14
ATOM     14  C   UNL A   1      31.771  22.737  23.568  1.00  0.00     0.070 C 
BRANCH  14  15
ATOM     15  C   UNL A   1      32.811  21.699  23.947  1.00  0.00    -0.043 A 
ATOM     16  C   UNL A   1      32.513  20.356  23.852  1.00  0.00     0.023 A 
ATOM     17  C   UNL A   1      34.100  22.021  24.397  1.00  0.00     0.023 A 
ATOM     18  C   UNL A   1      33.327  19.387  24.423  1.00  0.00     0.061 A 
ATOM     19  C   UNL A   1      35.034  21.008  24.703  1.00  0.00     0.061 A 
ATOM     20  Br  UNL A   1      32.528  17.930  25.347  1.00  0.00    -0.047 Br
ATOM     21  C   UNL A   1      34.645  19.675  24.706  1.00  0.00     0.143 A 
ATOM     22  Br  UNL A   1      36.792  21.490  25.212  1.00  0.00    -0.047 Br
BRANCH  21  23
ATOM     23  O   UNL A   1      35.512  18.661  25.003  1.00  0.00    -0.506 OA
ATOM     24  H   UNL A   1      35.224  17.936  25.524  1.00  0.00     0.293 HD
ENDBRANCH  21  23
ENDBRANCH  14  15
ENDBRANCH   8  14
ENDBRANCH   5   8
ENDBRANCH   3   4
ENDBRANCH   2   3
ENDBRANCH   1   2
BRANCH   1  25
ATOM     25  C   UNL A   1      31.115  30.530  25.410  1.00  0.00     0.002 C 
BRANCH  25  26
ATOM     26  C   UNL A   1      31.072  31.752  26.325  1.00  0.00     0.021 C 
BRANCH  26  27
ATOM     27  C   UNL A   1      32.384  32.312  26.863  1.00  0.00     0.116 C 
BRANCH  27  28
ATOM     28  N   UNL A   1      32.247  33.692  27.300  1.00  0.00    -0.352 N 
ATOM     29  C   UNL A   1      32.937  34.372  28.267  1.00  0.00     0.251 C 
ATOM     30  H   UNL A   1      31.557  34.215  26.830  1.00  0.00     0.163 HD
ATOM     31  O   UNL A   1      32.524  35.490  28.634  1.00  0.00    -0.269 OA
BRANCH  29  32
ATOM     32  C   UNL A   1      34.152  33.815  28.903  1.00  0.00     0.039 A 
ATOM     33  C   UNL A   1      35.408  34.313  28.536  1.00  0.00     0.014 A 
ATOM     34  C   UNL A   1      34.070  32.762  29.818  1.00  0.00     0.014 A 
ATOM     35  C   UNL A   1      36.572  33.800  29.122  1.00  0.00     0.010 A 
ATOM     36  C   UNL A   1      35.226  32.290  30.444  1.00  0.00     0.010 A 
ATOM     37  C   UNL A   1      36.490  32.800  30.102  1.00  0.00    -0.014 A 
BRANCH  37  38
ATOM     38  C   UNL A   1      37.697  32.246  30.773  1.00  0.00     0.031 A 
ATOM     39  C   UNL A   1      38.470  31.128  30.124  1.00  0.00     0.074 A 
ATOM     40  C   UNL A   1      38.051  32.674  32.001  1.00  0.00     0.049 A 
ATOM     41  N   UNL A   1      39.436  30.392  30.616  1.00  0.00    -0.248 NA
ATOM     42  C   UNL A   1      38.086  30.775  28.748  1.00  0.00     0.031 C 
ATOM     43  C   UNL A   1      37.393  33.745  32.750  1.00  0.00     0.029 A 
ATOM     44  N   UNL A   1      39.042  32.237  32.848  1.00  0.00    -0.354 N 
ATOM     45  C   UNL A   1      39.747  29.469  29.625  1.00  0.00     0.074 A 
ATOM     46  C   UNL A   1      38.849  29.717  28.518  1.00  0.00     0.031 C 
ATOM     47  C   UNL A   1      37.999  33.885  33.941  1.00  0.00     0.029 A 
ATOM     48  C   UNL A   1      39.054  32.882  34.062  1.00  0.00     0.049 A 
ATOM     49  H   UNL A   1      39.683  31.529  32.608  1.00  0.00     0.167 HD
ATOM     50  C   UNL A   1      40.701  28.507  29.630  1.00  0.00     0.031 A 
ATOM     51  C   UNL A   1      39.808  32.675  35.159  1.00  0.00     0.031 A 
ATOM     52  C   UNL A   1      41.610  28.271  30.720  1.00  0.00     0.049 A 
ATOM     53  C   UNL A   1      40.839  31.579  35.153  1.00  0.00     0.074 A 
ATOM     54  C   UNL A   1      42.643  27.353  30.796  1.00  0.00     0.029 A 
ATOM     55  N   UNL A   1      41.594  28.958  31.922  1.00  0.00    -0.354 N 
ATOM     56  N   UNL A   1      41.149  30.742  34.194  1.00  0.00    -0.248 NA
ATOM     57  C   UNL A   1      41.628  31.403  36.383  1.00  0.00     0.031 C 
ATOM     58  C   UNL A   1      43.222  27.452  32.065  1.00  0.00     0.029 A 
ATOM     59  C   UNL A   1      42.586  28.471  32.756  1.00  0.00     0.049 A 
ATOM     60  H   UNL A   1      40.971  29.684  32.151  1.00  0.00     0.167 HD
ATOM     61  C   UNL A   1      42.189  29.965  34.690  1.00  0.00     0.074 A 
ATOM     62  C   UNL A   1      42.462  30.433  36.032  1.00  0.00     0.031 C 
ATOM     63  C   UNL A   1      42.860  28.956  34.083  1.00  0.00     0.031 A 
BRANCH  50  64
ATOM     64  C   UNL A   1      40.802  27.623  28.418  1.00  0.00    -0.014 A 
ATOM     65  C   UNL A   1      40.131  26.391  28.355  1.00  0.00     0.009 A 
ATOM     66  C   UNL A   1      41.548  28.046  27.307  1.00  0.00     0.009 A 
ATOM     67  C   UNL A   1      40.240  25.584  27.220  1.00  0.00     0.001 A 
ATOM     68  C   UNL A   1      41.630  27.252  26.162  1.00  0.00     0.001 A 
ATOM     69  C   UNL A   1      40.985  26.017  26.124  1.00  0.00     0.000 A 
ENDBRANCH  50  64
BRANCH  51  70
ATOM     70  C   UNL A   1      39.617  33.523  36.366  1.00  0.00    -0.014 A 
ATOM     71  C   UNL A   1      40.310  34.736  36.498  1.00  0.00     0.009 A 
ATOM     72  C   UNL A   1      38.751  33.122  37.394  1.00  0.00     0.009 A 
ATOM     73  C   UNL A   1      40.160  35.516  37.647  1.00  0.00     0.001 A 
ATOM     74  C   UNL A   1      38.579  33.920  38.528  1.00  0.00     0.001 A 
ATOM     75  C   UNL A   1      39.291  35.110  38.658  1.00  0.00     0.000 A 
ENDBRANCH  51  70
BRANCH  63  76
ATOM     76  C   UNL A   1      43.993  28.319  34.836  1.00  0.00    -0.014 A 
ATOM     77  C   UNL A   1      45.291  28.849  34.791  1.00  0.00     0.009 A 
ATOM     78  C   UNL A   1      43.736  27.214  35.664  1.00  0.00     0.009 A 
ATOM     79  C   UNL A   1      46.313  28.273  35.550  1.00  0.00     0.001 A 
ATOM     80  C   UNL A   1      44.753  26.658  36.441  1.00  0.00     0.001 A 
ATOM     81  C   UNL A   1      46.041  27.184  36.379  1.00  0.00     0.000 A 
ENDBRANCH  63  76
ENDBRANCH  37  38
ENDBRANCH  29  32
ENDBRANCH  27  28
ENDBRANCH  26  27
ENDBRANCH  25  26
ENDBRANCH   1  25
TORSDOF 17
ENDMDL
