MODEL 1
REMARK VINA RESULT:      -9.7      0.000      0.000
REMARK SMILES C=C[C@@H]1[C@@H](O)C[C@@H]2[C@@]3(CC[C@@]4(C)[C@@H]([C@H](C)CCC=C(C)C)CC[C@@]24C)C[C@@]13CCC(=O)NCCCCCCNC(=O)c1ccc(-c2c3nc(c(-c4ccccc4)c4ccc([nH]4)c(-c4ccccc4)c4nc(c(-c5ccccc5)c5ccc2[nH]5)C=C4)C=C3)cc1
REMARK SMILES IDX 33 1 32 2 30 3 31 4 29 6 28 7 27 8 3 9 4 10 6 11 8 12 26 13
REMARK SMILES IDX 7 14 9 15 24 16 10 17 11 18 23 19 25 20 12 21 13 22 22 23
REMARK SMILES IDX 2 24 1 25 5 26 14 28 15 29 16 30 17 31 18 32 19 33 20 34
REMARK SMILES IDX 21 35 34 36 35 37 36 38 37 39 38 40 39 41 40 42 41 44 42 45
REMARK SMILES IDX 43 46 89 47 44 48 88 49 45 50 46 51 47 52 82 53 48 54 87 55
REMARK SMILES IDX 81 56 83 57 49 58 86 59 80 60 79 61 50 63 72 64 57 65 71 66
REMARK SMILES IDX 58 67 61 68 70 69 84 70 59 71 60 72 69 74 85 75 62 76 51 77
REMARK SMILES IDX 52 78 56 79 53 80 55 81 54 82 73 83 74 84 78 85 75 86 77 87
REMARK SMILES IDX 76 88 63 89 64 90 68 91 65 92 67 93 66 94
REMARK H PARENT 32 5 5 27 39 43 83 62 61 73
REMARK Flexibility Score: inf
ROOT
ATOM      1  C   UNL A   1      42.265  35.943  28.929  1.00  0.00     0.116 C 
ENDROOT
BRANCH   1   2
ATOM      2  N   UNL A   1      42.363  36.657  27.571  1.00  0.00    -0.356 N 
ATOM      3  C   UNL A   1      43.563  36.681  26.873  1.00  0.00     0.220 C 
ATOM      4  O   UNL A   1      43.762  35.809  26.022  1.00  0.00    -0.275 OA
ATOM      5  H   UNL A   1      41.569  37.100  27.195  1.00  0.00     0.163 HD
BRANCH   3   6
ATOM      6  C   UNL A   1      44.636  37.735  27.096  1.00  0.00     0.100 C 
BRANCH   6   7
ATOM      7  C   UNL A   1      44.560  39.174  26.602  1.00  0.00     0.018 C 
BRANCH   7   8
ATOM      8  C   UNL A   1      45.523  40.136  27.268  1.00  0.00    -0.014 C 
ATOM      9  C   UNL A   1      45.056  40.843  28.599  1.00  0.00     0.047 C 
ATOM     10  C   UNL A   1      45.376  42.370  28.734  1.00  0.00     0.122 C 
ATOM     11  C   UNL A   1      46.647  42.884  28.035  1.00  0.00     0.037 C 
ATOM     12  C   UNL A   1      46.536  40.748  26.285  1.00  0.00    -0.019 C 
ATOM     13  C   UNL A   1      46.996  39.791  27.349  1.00  0.00     0.016 C 
ATOM     14  C   UNL A   1      46.467  42.654  26.523  1.00  0.00     0.005 C 
ATOM     15  C   UNL A   1      46.806  39.933  24.573  1.00  0.00     0.008 C 
ATOM     16  C   UNL A   1      47.117  43.766  25.065  1.00  0.00    -0.023 C 
ATOM     17  C   UNL A   1      47.098  41.064  23.031  1.00  0.00     0.008 C 
ATOM     18  C   UNL A   1      47.197  42.988  23.201  1.00  0.00    -0.024 C 
ATOM     19  C   UNL A   1      46.197  45.000  24.763  1.00  0.00     0.008 C 
ATOM     20  C   UNL A   1      48.168  44.326  26.112  1.00  0.00     0.012 C 
ATOM     21  C   UNL A   1      48.279  43.165  22.024  1.00  0.00     0.012 C 
ATOM     22  C   UNL A   1      46.033  43.892  22.437  1.00  0.00    -0.002 C 
ATOM     23  C   UNL A   1      46.071  45.218  23.248  1.00  0.00     0.005 C 
BRANCH   9  24
ATOM     24  C   UNL A   1      43.640  40.500  29.059  1.00  0.00    -0.028 C 
ATOM     25  C   UNL A   1      43.257  39.624  29.999  1.00  0.00     0.004 C 
ENDBRANCH   9  24
BRANCH  10  26
ATOM     26  O   UNL A   1      45.486  42.742  30.117  1.00  0.00    -0.392 OA
ATOM     27  H   UNL A   1      45.451  43.708  30.196  1.00  0.00     0.210 HD
ENDBRANCH  10  26
BRANCH  22  28
ATOM     28  C   UNL A   1      44.609  43.465  21.855  1.00  0.00    -0.010 C 
ATOM     29  C   UNL A   1      44.585  43.106  20.370  1.00  0.00     0.008 C 
BRANCH  28  30
ATOM     30  C   UNL A   1      43.268  43.952  22.539  1.00  0.00     0.008 C 
BRANCH  30  31
ATOM     31  C   UNL A   1      41.846  43.295  22.516  1.00  0.00     0.027 C 
BRANCH  31  32
ATOM     32  C   UNL A   1      41.479  42.213  23.503  1.00  0.00    -0.028 C 
ATOM     33  C   UNL A   1      42.169  41.833  24.606  1.00  0.00    -0.080 C 
ATOM     34  C   UNL A   1      41.707  40.672  25.456  1.00  0.00     0.039 C 
ATOM     35  C   UNL A   1      43.440  42.458  25.121  1.00  0.00     0.039 C 
ENDBRANCH  31  32
ENDBRANCH  30  31
ENDBRANCH  28  30
ENDBRANCH  22  28
ENDBRANCH   7   8
ENDBRANCH   6   7
ENDBRANCH   3   6
ENDBRANCH   1   2
BRANCH   1  36
ATOM     36  C   UNL A   1      40.993  34.573  29.885  1.00  0.00     0.021 C 
BRANCH  36  37
ATOM     37  C   UNL A   1      40.623  33.906  31.557  1.00  0.00     0.002 C 
BRANCH  37  38
ATOM     38  C   UNL A   1      39.304  33.904  32.549  1.00  0.00     0.002 C 
BRANCH  38  39
ATOM     39  C   UNL A   1      37.820  34.205  32.148  1.00  0.00     0.021 C 
BRANCH  39  40
ATOM     40  C   UNL A   1      37.259  33.363  31.025  1.00  0.00     0.116 C 
BRANCH  40  41
ATOM     41  N   UNL A   1      36.557  32.233  31.595  1.00  0.00    -0.352 N 
ATOM     42  C   UNL A   1      36.767  30.928  31.262  1.00  0.00     0.251 C 
ATOM     43  H   UNL A   1      35.873  32.422  32.278  1.00  0.00     0.163 HD
ATOM     44  O   UNL A   1      35.904  30.063  31.458  1.00  0.00    -0.269 OA
BRANCH  42  45
ATOM     45  C   UNL A   1      38.071  30.575  30.679  1.00  0.00     0.039 A 
ATOM     46  C   UNL A   1      38.264  30.616  29.298  1.00  0.00     0.014 A 
ATOM     47  C   UNL A   1      39.114  30.231  31.546  1.00  0.00     0.014 A 
ATOM     48  C   UNL A   1      39.512  30.276  28.778  1.00  0.00     0.010 A 
ATOM     49  C   UNL A   1      40.371  29.960  31.030  1.00  0.00     0.010 A 
ATOM     50  C   UNL A   1      40.564  29.928  29.641  1.00  0.00    -0.014 A 
BRANCH  50  51
ATOM     51  C   UNL A   1      41.838  29.383  29.118  1.00  0.00     0.031 A 
ATOM     52  C   UNL A   1      43.019  30.309  28.992  1.00  0.00     0.074 A 
ATOM     53  C   UNL A   1      41.919  28.101  28.715  1.00  0.00     0.049 A 
ATOM     54  N   UNL A   1      44.203  30.080  28.485  1.00  0.00    -0.248 NA
ATOM     55  C   UNL A   1      42.825  31.696  29.454  1.00  0.00     0.031 C 
ATOM     56  C   UNL A   1      40.824  27.130  28.741  1.00  0.00     0.029 A 
ATOM     57  N   UNL A   1      42.977  27.401  28.197  1.00  0.00    -0.354 N 
ATOM     58  C   UNL A   1      44.869  31.299  28.528  1.00  0.00     0.074 A 
ATOM     59  C   UNL A   1      43.942  32.277  29.049  1.00  0.00     0.031 C 
ATOM     60  C   UNL A   1      41.278  25.949  28.286  1.00  0.00     0.029 A 
ATOM     61  C   UNL A   1      42.683  26.089  27.914  1.00  0.00     0.049 A 
ATOM     62  H   UNL A   1      43.864  27.799  28.043  1.00  0.00     0.167 HD
ATOM     63  C   UNL A   1      46.151  31.575  28.197  1.00  0.00     0.031 A 
ATOM     64  C   UNL A   1      43.468  25.116  27.418  1.00  0.00     0.031 A 
ATOM     65  C   UNL A   1      47.084  30.583  27.746  1.00  0.00     0.049 A 
ATOM     66  C   UNL A   1      44.908  25.431  27.115  1.00  0.00     0.074 A 
ATOM     67  C   UNL A   1      48.431  30.725  27.471  1.00  0.00     0.029 A 
ATOM     68  N   UNL A   1      46.762  29.252  27.523  1.00  0.00    -0.354 N 
ATOM     69  N   UNL A   1      45.548  26.570  27.236  1.00  0.00    -0.248 NA
ATOM     70  C   UNL A   1      45.739  24.322  26.625  1.00  0.00     0.031 C 
ATOM     71  C   UNL A   1      48.917  29.483  27.047  1.00  0.00     0.029 A 
ATOM     72  C   UNL A   1      47.882  28.562  27.101  1.00  0.00     0.049 A 
ATOM     73  H   UNL A   1      45.868  28.859  27.649  1.00  0.00     0.167 HD
ATOM     74  C   UNL A   1      46.859  26.310  26.859  1.00  0.00     0.074 A 
ATOM     75  C   UNL A   1      46.928  24.902  26.528  1.00  0.00     0.031 C 
ATOM     76  C   UNL A   1      47.915  27.158  26.788  1.00  0.00     0.031 A 
BRANCH  63  77
ATOM     77  C   UNL A   1      46.609  33.001  28.325  1.00  0.00    -0.014 A 
ATOM     78  C   UNL A   1      47.046  33.521  29.555  1.00  0.00     0.009 A 
ATOM     79  C   UNL A   1      46.608  33.838  27.199  1.00  0.00     0.009 A 
ATOM     80  C   UNL A   1      47.426  34.860  29.665  1.00  0.00     0.001 A 
ATOM     81  C   UNL A   1      47.020  35.169  27.304  1.00  0.00     0.001 A 
ATOM     82  C   UNL A   1      47.415  35.682  28.538  1.00  0.00     0.000 A 
ENDBRANCH  63  77
BRANCH  64  83
ATOM     83  C   UNL A   1      42.925  23.747  27.207  1.00  0.00    -0.014 A 
ATOM     84  C   UNL A   1      42.464  23.351  25.941  1.00  0.00     0.009 A 
ATOM     85  C   UNL A   1      42.852  22.833  28.269  1.00  0.00     0.009 A 
ATOM     86  C   UNL A   1      41.911  22.082  25.752  1.00  0.00     0.001 A 
ATOM     87  C   UNL A   1      42.324  21.555  28.070  1.00  0.00     0.001 A 
ATOM     88  C   UNL A   1      41.844  21.185  26.815  1.00  0.00     0.000 A 
ENDBRANCH  64  83
BRANCH  76  89
ATOM     89  C   UNL A   1      49.232  26.578  26.362  1.00  0.00    -0.014 A 
ATOM     90  C   UNL A   1      49.729  26.788  25.067  1.00  0.00     0.009 A 
ATOM     91  C   UNL A   1      50.009  25.867  27.289  1.00  0.00     0.009 A 
ATOM     92  C   UNL A   1      50.972  26.271  24.701  1.00  0.00     0.001 A 
ATOM     93  C   UNL A   1      51.264  25.377  26.927  1.00  0.00     0.001 A 
ATOM     94  C   UNL A   1      51.740  25.572  25.631  1.00  0.00     0.000 A 
ENDBRANCH  76  89
ENDBRANCH  50  51
ENDBRANCH  42  45
ENDBRANCH  40  41
ENDBRANCH  39  40
ENDBRANCH  38  39
ENDBRANCH  37  38
ENDBRANCH  36  37
ENDBRANCH   1  36
TORSDOF 21
ENDMDL
MODEL 2
REMARK VINA RESULT:      -9.5      4.889     13.877
REMARK SMILES C=C[C@@H]1[C@@H](O)C[C@@H]2[C@@]3(CC[C@@]4(C)[C@@H]([C@H](C)CCC=C(C)C)CC[C@@]24C)C[C@@]13CCC(=O)NCCCCCCNC(=O)c1ccc(-c2c3nc(c(-c4ccccc4)c4ccc([nH]4)c(-c4ccccc4)c4nc(c(-c5ccccc5)c5ccc2[nH]5)C=C4)C=C3)cc1
REMARK SMILES IDX 33 1 32 2 30 3 31 4 29 6 28 7 27 8 3 9 4 10 6 11 8 12 26 13
REMARK SMILES IDX 7 14 9 15 24 16 10 17 11 18 23 19 25 20 12 21 13 22 22 23
REMARK SMILES IDX 2 24 1 25 5 26 14 28 15 29 16 30 17 31 18 32 19 33 20 34
REMARK SMILES IDX 21 35 34 36 35 37 36 38 37 39 38 40 39 41 40 42 41 44 42 45
REMARK SMILES IDX 43 46 89 47 44 48 88 49 45 50 46 51 47 52 82 53 48 54 87 55
REMARK SMILES IDX 81 56 83 57 49 58 86 59 80 60 79 61 50 63 72 64 57 65 71 66
REMARK SMILES IDX 58 67 61 68 70 69 84 70 59 71 60 72 69 74 85 75 62 76 51 77
REMARK SMILES IDX 52 78 56 79 53 80 55 81 54 82 73 83 74 84 78 85 75 86 77 87
REMARK SMILES IDX 76 88 63 89 64 90 68 91 65 92 67 93 66 94
REMARK H PARENT 32 5 5 27 39 43 83 62 61 73
REMARK Flexibility Score: inf
ROOT
ATOM      1  C   UNL A   1      47.352  33.488  31.688  1.00  0.00     0.116 C 
ENDROOT
BRANCH   1   2
ATOM      2  N   UNL A   1      45.995  32.969  32.190  1.00  0.00    -0.356 N 
ATOM      3  C   UNL A   1      45.874  31.678  32.688  1.00  0.00     0.220 C 
ATOM      4  O   UNL A   1      45.983  31.509  33.906  1.00  0.00    -0.275 OA
ATOM      5  H   UNL A   1      45.205  33.557  32.159  1.00  0.00     0.163 HD
BRANCH   3   6
ATOM      6  C   UNL A   1      45.603  30.468  31.808  1.00  0.00     0.100 C 
BRANCH   6   7
ATOM      7  C   UNL A   1      44.456  29.486  32.008  1.00  0.00     0.018 C 
BRANCH   7   8
ATOM      8  C   UNL A   1      43.067  30.082  31.885  1.00  0.00    -0.014 C 
ATOM      9  C   UNL A   1      42.166  30.126  33.178  1.00  0.00     0.047 C 
ATOM     10  C   UNL A   1      40.663  29.722  33.003  1.00  0.00     0.122 C 
ATOM     11  C   UNL A   1      40.012  30.025  31.642  1.00  0.00     0.037 C 
ATOM     12  C   UNL A   1      42.507  30.005  30.454  1.00  0.00    -0.019 C 
ATOM     13  C   UNL A   1      42.858  31.336  31.060  1.00  0.00     0.016 C 
ATOM     14  C   UNL A   1      40.764  29.205  30.578  1.00  0.00     0.005 C 
ATOM     15  C   UNL A   1      43.693  29.669  28.988  1.00  0.00     0.008 C 
ATOM     16  C   UNL A   1      40.033  28.387  28.970  1.00  0.00    -0.023 C 
ATOM     17  C   UNL A   1      43.092  28.544  27.534  1.00  0.00     0.008 C 
ATOM     18  C   UNL A   1      41.299  27.818  27.501  1.00  0.00    -0.024 C 
ATOM     19  C   UNL A   1      39.343  27.004  29.232  1.00  0.00     0.008 C 
ATOM     20  C   UNL A   1      38.850  29.433  29.114  1.00  0.00     0.012 C 
ATOM     21  C   UNL A   1      41.163  27.888  25.899  1.00  0.00     0.012 C 
ATOM     22  C   UNL A   1      41.131  26.168  27.567  1.00  0.00    -0.002 C 
ATOM     23  C   UNL A   1      39.682  26.014  28.107  1.00  0.00     0.005 C 
BRANCH   9  24
ATOM     24  C   UNL A   1      42.792  29.516  34.431  1.00  0.00    -0.028 C 
ATOM     25  C   UNL A   1      43.037  30.102  35.613  1.00  0.00     0.004 C 
ENDBRANCH   9  24
BRANCH  10  26
ATOM     26  O   UNL A   1      39.850  30.360  34.001  1.00  0.00    -0.392 OA
ATOM     27  H   UNL A   1      38.913  30.231  33.786  1.00  0.00     0.210 HD
ENDBRANCH  10  26
BRANCH  22  28
ATOM     28  C   UNL A   1      42.171  25.041  28.011  1.00  0.00    -0.010 C 
ATOM     29  C   UNL A   1      43.071  25.403  29.190  1.00  0.00     0.008 C 
BRANCH  28  30
ATOM     30  C   UNL A   1      42.664  23.937  26.990  1.00  0.00     0.008 C 
BRANCH  30  31
ATOM     31  C   UNL A   1      43.609  24.084  25.749  1.00  0.00     0.027 C 
BRANCH  31  32
ATOM     32  C   UNL A   1      44.047  25.447  25.270  1.00  0.00    -0.028 C 
ATOM     33  C   UNL A   1      45.238  26.056  25.487  1.00  0.00    -0.080 C 
ATOM     34  C   UNL A   1      45.496  27.464  25.002  1.00  0.00     0.039 C 
ATOM     35  C   UNL A   1      46.419  25.469  26.216  1.00  0.00     0.039 C 
ENDBRANCH  31  32
ENDBRANCH  30  31
ENDBRANCH  28  30
ENDBRANCH  22  28
ENDBRANCH   7   8
ENDBRANCH   6   7
ENDBRANCH   3   6
ENDBRANCH   1   2
BRANCH   1  36
ATOM     36  C   UNL A   1      48.384  33.652  29.867  1.00  0.00     0.021 C 
BRANCH  36  37
ATOM     37  C   UNL A   1      48.489  32.851  28.217  1.00  0.00     0.002 C 
BRANCH  37  38
ATOM     38  C   UNL A   1      47.853  33.158  26.725  1.00  0.00     0.002 C 
BRANCH  38  39
ATOM     39  C   UNL A   1      48.072  34.439  25.851  1.00  0.00     0.021 C 
BRANCH  39  40
ATOM     40  C   UNL A   1      46.894  35.382  25.759  1.00  0.00     0.116 C 
BRANCH  40  41
ATOM     41  N   UNL A   1      45.962  34.868  24.778  1.00  0.00    -0.352 N 
ATOM     42  C   UNL A   1      44.818  34.185  25.063  1.00  0.00     0.251 C 
ATOM     43  H   UNL A   1      46.171  35.025  23.828  1.00  0.00     0.163 HD
ATOM     44  O   UNL A   1      44.285  33.439  24.232  1.00  0.00    -0.269 OA
BRANCH  42  45
ATOM     45  C   UNL A   1      44.219  34.384  26.393  1.00  0.00     0.039 A 
ATOM     46  C   UNL A   1      43.459  35.521  26.664  1.00  0.00     0.014 A 
ATOM     47  C   UNL A   1      44.407  33.390  27.360  1.00  0.00     0.014 A 
ATOM     48  C   UNL A   1      42.906  35.678  27.934  1.00  0.00     0.010 A 
ATOM     49  C   UNL A   1      43.798  33.517  28.598  1.00  0.00     0.010 A 
ATOM     50  C   UNL A   1      43.090  34.687  28.912  1.00  0.00    -0.014 A 
BRANCH  50  51
ATOM     51  C   UNL A   1      42.678  34.908  30.317  1.00  0.00     0.031 A 
ATOM     52  C   UNL A   1      41.313  34.440  30.750  1.00  0.00     0.074 A 
ATOM     53  C   UNL A   1      43.488  35.559  31.172  1.00  0.00     0.049 A 
ATOM     54  N   UNL A   1      40.707  34.599  31.897  1.00  0.00    -0.248 NA
ATOM     55  C   UNL A   1      40.499  33.744  29.735  1.00  0.00     0.031 C 
ATOM     56  C   UNL A   1      44.808  36.103  30.848  1.00  0.00     0.029 A 
ATOM     57  N   UNL A   1      43.309  35.878  32.493  1.00  0.00    -0.354 N 
ATOM     58  C   UNL A   1      39.435  34.065  31.724  1.00  0.00     0.074 A 
ATOM     59  C   UNL A   1      39.333  33.636  30.349  1.00  0.00     0.031 C 
ATOM     60  C   UNL A   1      45.332  36.664  31.951  1.00  0.00     0.029 A 
ATOM     61  C   UNL A   1      44.376  36.542  33.048  1.00  0.00     0.049 A 
ATOM     62  H   UNL A   1      42.494  35.654  32.996  1.00  0.00     0.167 HD
ATOM     63  C   UNL A   1      38.450  33.910  32.639  1.00  0.00     0.031 A 
ATOM     64  C   UNL A   1      44.556  36.990  34.304  1.00  0.00     0.031 A 
ATOM     65  C   UNL A   1      38.587  34.276  34.020  1.00  0.00     0.049 A 
ATOM     66  C   UNL A   1      43.471  36.752  35.320  1.00  0.00     0.074 A 
ATOM     67  C   UNL A   1      37.695  34.082  35.057  1.00  0.00     0.029 A 
ATOM     68  N   UNL A   1      39.705  34.897  34.556  1.00  0.00    -0.354 N 
ATOM     69  N   UNL A   1      42.304  36.173  35.163  1.00  0.00    -0.248 NA
ATOM     70  C   UNL A   1      43.735  37.212  36.689  1.00  0.00     0.031 C 
ATOM     71  C   UNL A   1      38.261  34.620  36.218  1.00  0.00     0.029 A 
ATOM     72  C   UNL A   1      39.522  35.107  35.909  1.00  0.00     0.049 A 
ATOM     73  H   UNL A   1      40.510  35.149  34.047  1.00  0.00     0.167 HD
ATOM     74  C   UNL A   1      41.705  36.179  36.415  1.00  0.00     0.074 A 
ATOM     75  C   UNL A   1      42.647  36.799  37.326  1.00  0.00     0.031 C 
ATOM     76  C   UNL A   1      40.485  35.720  36.786  1.00  0.00     0.031 A 
BRANCH  63  77
ATOM     77  C   UNL A   1      37.154  33.312  32.168  1.00  0.00    -0.014 A 
ATOM     78  C   UNL A   1      36.922  31.928  32.233  1.00  0.00     0.009 A 
ATOM     79  C   UNL A   1      36.148  34.144  31.654  1.00  0.00     0.009 A 
ATOM     80  C   UNL A   1      35.729  31.385  31.750  1.00  0.00     0.001 A 
ATOM     81  C   UNL A   1      34.943  33.602  31.202  1.00  0.00     0.001 A 
ATOM     82  C   UNL A   1      34.739  32.223  31.238  1.00  0.00     0.000 A 
ENDBRANCH  63  77
BRANCH  64  83
ATOM     83  C   UNL A   1      45.819  37.677  34.683  1.00  0.00    -0.014 A 
ATOM     84  C   UNL A   1      46.915  36.939  35.159  1.00  0.00     0.009 A 
ATOM     85  C   UNL A   1      45.935  39.072  34.583  1.00  0.00     0.009 A 
ATOM     86  C   UNL A   1      48.087  37.588  35.559  1.00  0.00     0.001 A 
ATOM     87  C   UNL A   1      47.118  39.714  34.958  1.00  0.00     0.001 A 
ATOM     88  C   UNL A   1      48.188  38.973  35.455  1.00  0.00     0.000 A 
ENDBRANCH  64  83
BRANCH  76  89
ATOM     89  C   UNL A   1      40.115  35.846  38.234  1.00  0.00    -0.014 A 
ATOM     90  C   UNL A   1      40.424  34.831  39.151  1.00  0.00     0.009 A 
ATOM     91  C   UNL A   1      39.506  37.024  38.694  1.00  0.00     0.009 A 
ATOM     92  C   UNL A   1      40.104  34.982  40.500  1.00  0.00     0.001 A 
ATOM     93  C   UNL A   1      39.214  37.183  40.049  1.00  0.00     0.001 A 
ATOM     94  C   UNL A   1      39.505  36.158  40.949  1.00  0.00     0.000 A 
ENDBRANCH  76  89
ENDBRANCH  50  51
ENDBRANCH  42  45
ENDBRANCH  40  41
ENDBRANCH  39  40
ENDBRANCH  38  39
ENDBRANCH  37  38
ENDBRANCH  36  37
ENDBRANCH   1  36
TORSDOF 21
ENDMDL
MODEL 3
REMARK VINA RESULT:      -9.3      6.706     12.670
REMARK SMILES C=C[C@@H]1[C@@H](O)C[C@@H]2[C@@]3(CC[C@@]4(C)[C@@H]([C@H](C)CCC=C(C)C)CC[C@@]24C)C[C@@]13CCC(=O)NCCCCCCNC(=O)c1ccc(-c2c3nc(c(-c4ccccc4)c4ccc([nH]4)c(-c4ccccc4)c4nc(c(-c5ccccc5)c5ccc2[nH]5)C=C4)C=C3)cc1
REMARK SMILES IDX 33 1 32 2 30 3 31 4 29 6 28 7 27 8 3 9 4 10 6 11 8 12 26 13
REMARK SMILES IDX 7 14 9 15 24 16 10 17 11 18 23 19 25 20 12 21 13 22 22 23
REMARK SMILES IDX 2 24 1 25 5 26 14 28 15 29 16 30 17 31 18 32 19 33 20 34
REMARK SMILES IDX 21 35 34 36 35 37 36 38 37 39 38 40 39 41 40 42 41 44 42 45
REMARK SMILES IDX 43 46 89 47 44 48 88 49 45 50 46 51 47 52 82 53 48 54 87 55
REMARK SMILES IDX 81 56 83 57 49 58 86 59 80 60 79 61 50 63 72 64 57 65 71 66
REMARK SMILES IDX 58 67 61 68 70 69 84 70 59 71 60 72 69 74 85 75 62 76 51 77
REMARK SMILES IDX 52 78 56 79 53 80 55 81 54 82 73 83 74 84 78 85 75 86 77 87
REMARK SMILES IDX 76 88 63 89 64 90 68 91 65 92 67 93 66 94
REMARK H PARENT 32 5 5 27 39 43 83 62 61 73
REMARK Flexibility Score: inf
ROOT
ATOM      1  C   UNL A   1      40.968  30.594  34.532  1.00  0.00     0.116 C 
ENDROOT
BRANCH   1   2
ATOM      2  N   UNL A   1      41.194  29.079  34.660  1.00  0.00    -0.356 N 
ATOM      3  C   UNL A   1      41.880  28.557  35.749  1.00  0.00     0.220 C 
ATOM      4  O   UNL A   1      41.226  28.177  36.724  1.00  0.00    -0.275 OA
ATOM      5  H   UNL A   1      40.850  28.474  33.963  1.00  0.00     0.163 HD
BRANCH   3   6
ATOM      6  C   UNL A   1      43.394  28.421  35.793  1.00  0.00     0.100 C 
BRANCH   6   7
ATOM      7  C   UNL A   1      44.145  27.239  36.391  1.00  0.00     0.018 C 
BRANCH   7   8
ATOM      8  C   UNL A   1      44.498  26.137  35.411  1.00  0.00    -0.014 C 
ATOM      9  C   UNL A   1      43.483  24.942  35.248  1.00  0.00     0.047 C 
ATOM     10  C   UNL A   1      44.096  23.502  35.182  1.00  0.00     0.122 C 
ATOM     11  C   UNL A   1      45.497  23.366  34.561  1.00  0.00     0.037 C 
ATOM     12  C   UNL A   1      46.013  26.011  35.171  1.00  0.00    -0.019 C 
ATOM     13  C   UNL A   1      45.108  26.491  34.070  1.00  0.00     0.016 C 
ATOM     14  C   UNL A   1      46.472  24.165  35.445  1.00  0.00     0.005 C 
ATOM     15  C   UNL A   1      47.175  27.448  35.675  1.00  0.00     0.008 C 
ATOM     16  C   UNL A   1      48.332  23.751  35.841  1.00  0.00    -0.023 C 
ATOM     17  C   UNL A   1      48.912  27.033  36.418  1.00  0.00     0.008 C 
ATOM     18  C   UNL A   1      49.520  25.205  36.590  1.00  0.00    -0.024 C 
ATOM     19  C   UNL A   1      48.505  22.695  36.988  1.00  0.00     0.008 C 
ATOM     20  C   UNL A   1      48.299  22.874  34.521  1.00  0.00     0.012 C 
ATOM     21  C   UNL A   1      51.065  25.558  36.313  1.00  0.00     0.012 C 
ATOM     22  C   UNL A   1      49.798  24.623  38.119  1.00  0.00    -0.002 C 
ATOM     23  C   UNL A   1      49.671  23.088  37.907  1.00  0.00     0.005 C 
BRANCH   9  24
ATOM     24  C   UNL A   1      42.246  25.008  36.143  1.00  0.00    -0.028 C 
ATOM     25  C   UNL A   1      40.956  24.901  35.793  1.00  0.00     0.004 C 
ENDBRANCH   9  24
BRANCH  10  26
ATOM     26  O   UNL A   1      43.232  22.619  34.447  1.00  0.00    -0.392 OA
ATOM     27  H   UNL A   1      42.344  22.637  34.836  1.00  0.00     0.210 HD
ENDBRANCH  10  26
BRANCH  22  28
ATOM     28  C   UNL A   1      49.322  25.178  39.539  1.00  0.00    -0.010 C 
ATOM     29  C   UNL A   1      47.860  25.615  39.619  1.00  0.00     0.008 C 
BRANCH  28  30
ATOM     30  C   UNL A   1      50.357  25.801  40.561  1.00  0.00     0.008 C 
BRANCH  30  31
ATOM     31  C   UNL A   1      50.849  27.282  40.699  1.00  0.00     0.027 C 
BRANCH  31  32
ATOM     32  C   UNL A   1      50.983  28.166  39.483  1.00  0.00    -0.028 C 
ATOM     33  C   UNL A   1      52.011  28.206  38.600  1.00  0.00    -0.080 C 
ATOM     34  C   UNL A   1      52.032  29.209  37.469  1.00  0.00     0.039 C 
ATOM     35  C   UNL A   1      53.231  27.321  38.612  1.00  0.00     0.039 C 
ENDBRANCH  31  32
ENDBRANCH  30  31
ENDBRANCH  28  30
ENDBRANCH  22  28
ENDBRANCH   7   8
ENDBRANCH   6   7
ENDBRANCH   3   6
ENDBRANCH   1   2
BRANCH   1  36
ATOM     36  C   UNL A   1      39.418  31.901  33.987  1.00  0.00     0.021 C 
BRANCH  36  37
ATOM     37  C   UNL A   1      37.901  31.951  32.952  1.00  0.00     0.002 C 
BRANCH  37  38
ATOM     38  C   UNL A   1      36.425  32.680  33.075  1.00  0.00     0.002 C 
BRANCH  38  39
ATOM     39  C   UNL A   1      35.212  32.529  32.095  1.00  0.00     0.021 C 
BRANCH  39  40
ATOM     40  C   UNL A   1      35.487  32.879  30.651  1.00  0.00     0.116 C 
BRANCH  40  41
ATOM     41  N   UNL A   1      34.556  32.155  29.811  1.00  0.00    -0.352 N 
ATOM     42  C   UNL A   1      34.900  31.229  28.873  1.00  0.00     0.251 C 
ATOM     43  H   UNL A   1      33.597  32.347  29.927  1.00  0.00     0.163 HD
ATOM     44  O   UNL A   1      34.146  30.946  27.934  1.00  0.00    -0.269 OA
BRANCH  42  45
ATOM     45  C   UNL A   1      36.198  30.553  29.027  1.00  0.00     0.039 A 
ATOM     46  C   UNL A   1      36.415  29.667  30.082  1.00  0.00     0.014 A 
ATOM     47  C   UNL A   1      37.192  30.798  28.073  1.00  0.00     0.014 A 
ATOM     48  C   UNL A   1      37.656  29.043  30.200  1.00  0.00     0.010 A 
ATOM     49  C   UNL A   1      38.400  30.124  28.154  1.00  0.00     0.010 A 
ATOM     50  C   UNL A   1      38.659  29.284  29.247  1.00  0.00    -0.014 A 
BRANCH  50  51
ATOM     51  C   UNL A   1      40.041  28.789  29.444  1.00  0.00     0.031 A 
ATOM     52  C   UNL A   1      41.037  29.688  30.128  1.00  0.00     0.074 A 
ATOM     53  C   UNL A   1      40.409  27.583  28.976  1.00  0.00     0.049 A 
ATOM     54  N   UNL A   1      42.315  29.505  30.335  1.00  0.00    -0.248 NA
ATOM     55  C   UNL A   1      40.537  30.994  30.599  1.00  0.00     0.031 C 
ATOM     56  C   UNL A   1      39.542  26.650  28.251  1.00  0.00     0.029 A 
ATOM     57  N   UNL A   1      41.617  26.939  29.036  1.00  0.00    -0.354 N 
ATOM     58  C   UNL A   1      42.772  30.684  30.914  1.00  0.00     0.074 A 
ATOM     59  C   UNL A   1      41.654  31.597  30.968  1.00  0.00     0.031 C 
ATOM     60  C   UNL A   1      40.242  25.541  27.959  1.00  0.00     0.029 A 
ATOM     61  C   UNL A   1      41.608  25.695  28.453  1.00  0.00     0.049 A 
ATOM     62  H   UNL A   1      42.416  27.330  29.457  1.00  0.00     0.167 HD
ATOM     63  C   UNL A   1      44.005  30.970  31.392  1.00  0.00     0.031 A 
ATOM     64  C   UNL A   1      42.594  24.787  28.340  1.00  0.00     0.031 A 
ATOM     65  C   UNL A   1      45.090  30.032  31.396  1.00  0.00     0.049 A 
ATOM     66  C   UNL A   1      43.941  25.102  28.934  1.00  0.00     0.074 A 
ATOM     67  C   UNL A   1      46.354  30.175  31.936  1.00  0.00     0.029 A 
ATOM     68  N   UNL A   1      45.025  28.761  30.844  1.00  0.00    -0.354 N 
ATOM     69  N   UNL A   1      44.337  26.191  29.551  1.00  0.00    -0.248 NA
ATOM     70  C   UNL A   1      44.969  24.058  28.833  1.00  0.00     0.031 C 
ATOM     71  C   UNL A   1      47.068  28.999  31.679  1.00  0.00     0.029 A 
ATOM     72  C   UNL A   1      46.232  28.112  31.018  1.00  0.00     0.049 A 
ATOM     73  H   UNL A   1      44.236  28.379  30.395  1.00  0.00     0.167 HD
ATOM     74  C   UNL A   1      45.651  25.954  29.931  1.00  0.00     0.074 A 
ATOM     75  C   UNL A   1      45.977  24.611  29.495  1.00  0.00     0.031 C 
ATOM     76  C   UNL A   1      46.518  26.771  30.578  1.00  0.00     0.031 A 
BRANCH  63  77
ATOM     77  C   UNL A   1      44.229  32.346  31.955  1.00  0.00    -0.014 A 
ATOM     78  C   UNL A   1      43.986  32.629  33.310  1.00  0.00     0.009 A 
ATOM     79  C   UNL A   1      44.692  33.374  31.120  1.00  0.00     0.009 A 
ATOM     80  C   UNL A   1      44.158  33.923  33.805  1.00  0.00     0.001 A 
ATOM     81  C   UNL A   1      44.893  34.660  31.626  1.00  0.00     0.001 A 
ATOM     82  C   UNL A   1      44.614  34.937  32.964  1.00  0.00     0.000 A 
ENDBRANCH  63  77
BRANCH  64  83
ATOM     83  C   UNL A   1      42.342  23.483  27.670  1.00  0.00    -0.014 A 
ATOM     84  C   UNL A   1      42.623  23.318  26.304  1.00  0.00     0.009 A 
ATOM     85  C   UNL A   1      41.808  22.401  28.386  1.00  0.00     0.009 A 
ATOM     86  C   UNL A   1      42.343  22.109  25.663  1.00  0.00     0.001 A 
ATOM     87  C   UNL A   1      41.555  21.184  27.747  1.00  0.00     0.001 A 
ATOM     88  C   UNL A   1      41.813  21.043  26.385  1.00  0.00     0.000 A 
ENDBRANCH  64  83
BRANCH  76  89
ATOM     89  C   UNL A   1      47.884  26.226  30.874  1.00  0.00    -0.014 A 
ATOM     90  C   UNL A   1      48.177  25.644  32.116  1.00  0.00     0.009 A 
ATOM     91  C   UNL A   1      48.869  26.239  29.874  1.00  0.00     0.009 A 
ATOM     92  C   UNL A   1      49.442  25.110  32.361  1.00  0.00     0.001 A 
ATOM     93  C   UNL A   1      50.123  25.678  30.113  1.00  0.00     0.001 A 
ATOM     94  C   UNL A   1      50.411  25.122  31.359  1.00  0.00     0.000 A 
ENDBRANCH  76  89
ENDBRANCH  50  51
ENDBRANCH  42  45
ENDBRANCH  40  41
ENDBRANCH  39  40
ENDBRANCH  38  39
ENDBRANCH  37  38
ENDBRANCH  36  37
ENDBRANCH   1  36
TORSDOF 21
ENDMDL
