MODEL 1
REMARK VINA RESULT:     -12.7      0.000      0.000
REMARK SMILES CS(=O)(=O)c1ccc(/C=C(/C(=O)NCCCCCCNC(=O)c2ccc(-c3c4nc(c(-c5ccccc5)c5ccc([nH]5)c(-c5ccccc5)c5nc(c(-c6ccccc6)c6ccc3[nH]6)C=C5)C=C4)cc2)c2ccc(-c3ccc(F)cc3F)cc2)cc1
REMARK SMILES IDX 16 1 15 2 14 3 13 4 11 5 12 6 10 8 9 9 8 10 5 11 6 12 86 13
REMARK SMILES IDX 7 14 85 15 2 16 1 17 3 18 4 19 71 20 72 21 84 22 73 23 83 24
REMARK SMILES IDX 74 25 75 26 76 27 81 28 77 29 80 30 82 31 78 32 79 33 17 34
REMARK SMILES IDX 18 35 19 36 20 37 21 38 22 40 23 41 24 42 70 43 25 44 69 45
REMARK SMILES IDX 26 46 27 47 28 48 63 49 29 50 68 51 62 52 64 53 30 54 67 55
REMARK SMILES IDX 61 56 60 57 31 59 53 60 38 61 52 62 39 63 42 64 51 65 65 66
REMARK SMILES IDX 40 67 41 68 50 70 66 71 43 72 32 73 33 74 37 75 34 76 36 77
REMARK SMILES IDX 35 78 54 79 55 80 59 81 56 82 58 83 57 84 44 85 45 86 49 87
REMARK SMILES IDX 46 88 48 89 47 90
REMARK H PARENT 13 7 20 39 64 58 42 69
REMARK Flexibility Score: inf
ROOT
ATOM      1  C   UNL A   1      31.451  25.770  25.714  1.00  0.00     0.002 C 
ENDROOT
BRANCH   1   2
ATOM      2  C   UNL A   1      30.361  26.069  24.670  1.00  0.00     0.021 C 
BRANCH   2   3
ATOM      3  C   UNL A   1      30.338  25.069  23.511  1.00  0.00     0.116 C 
BRANCH   3   4
ATOM      4  N   UNL A   1      31.434  25.353  22.612  1.00  0.00    -0.352 N 
ATOM      5  C   UNL A   1      32.658  24.807  22.403  1.00  0.00     0.251 C 
ATOM      6  O   UNL A   1      33.389  25.432  21.628  1.00  0.00    -0.269 OA
ATOM      7  H   UNL A   1      31.252  26.117  22.018  1.00  0.00     0.163 HD
BRANCH   5   8
ATOM      8  C   UNL A   1      33.100  23.476  22.973  1.00  0.00     0.047 C 
ATOM      9  C   UNL A   1      32.288  22.396  23.029  1.00  0.00     0.022 C 
BRANCH   9  10
ATOM     10  C   UNL A   1      32.598  21.000  23.415  1.00  0.00    -0.025 A 
ATOM     11  C   UNL A   1      33.240  18.308  23.923  1.00  0.00     0.067 A 
ATOM     12  C   UNL A   1      33.618  19.296  24.832  1.00  0.00     0.021 A 
ATOM     13  C   UNL A   1      32.509  18.647  22.783  1.00  0.00     0.021 A 
ATOM     14  C   UNL A   1      33.272  20.632  24.585  1.00  0.00     0.009 A 
ATOM     15  C   UNL A   1      32.191  19.985  22.535  1.00  0.00     0.009 A 
BRANCH  11  16
ATOM     16  S   UNL A   1      33.680  16.600  24.140  1.00  0.00     0.175 S 
ATOM     17  C   UNL A   1      35.136  16.550  25.144  1.00  0.00     0.163 C 
ATOM     18  O   UNL A   1      34.051  16.102  22.830  1.00  0.00    -0.224 OA
ATOM     19  O   UNL A   1      32.598  15.993  24.892  1.00  0.00    -0.224 OA
ENDBRANCH  11  16
ENDBRANCH   9  10
BRANCH   8  20
ATOM     20  C   UNL A   1      34.421  23.469  23.650  1.00  0.00    -0.013 A 
ATOM     21  C   UNL A   1      34.470  23.909  24.979  1.00  0.00     0.009 A 
ATOM     22  C   UNL A   1      35.593  22.992  23.058  1.00  0.00     0.009 A 
ATOM     23  C   UNL A   1      35.655  23.853  25.709  1.00  0.00     0.009 A 
ATOM     24  C   UNL A   1      36.778  22.908  23.810  1.00  0.00     0.009 A 
ATOM     25  C   UNL A   1      36.829  23.321  25.154  1.00  0.00    -0.015 A 
BRANCH  25  26
ATOM     26  C   UNL A   1      38.047  23.203  25.985  1.00  0.00     0.018 A 
ATOM     27  C   UNL A   1      38.491  24.299  26.757  1.00  0.00     0.015 A 
ATOM     28  C   UNL A   1      38.824  22.033  26.032  1.00  0.00     0.133 A 
ATOM     29  C   UNL A   1      39.668  24.234  27.505  1.00  0.00     0.040 A 
ATOM     30  C   UNL A   1      39.995  21.956  26.783  1.00  0.00     0.079 A 
ATOM     31  F   UNL A   1      38.465  20.948  25.327  1.00  0.00    -0.206 F 
ATOM     32  C   UNL A   1      40.411  23.063  27.507  1.00  0.00     0.126 A 
ATOM     33  F   UNL A   1      41.543  23.003  28.219  1.00  0.00    -0.207 F 
ENDBRANCH  25  26
ENDBRANCH   8  20
ENDBRANCH   5   8
ENDBRANCH   3   4
ENDBRANCH   2   3
ENDBRANCH   1   2
BRANCH   1  34
ATOM     34  C   UNL A   1      32.378  26.948  26.036  1.00  0.00     0.002 C 
BRANCH  34  35
ATOM     35  C   UNL A   1      33.195  27.464  24.849  1.00  0.00     0.021 C 
BRANCH  35  36
ATOM     36  C   UNL A   1      33.998  28.724  25.148  1.00  0.00     0.116 C 
BRANCH  36  37
ATOM     37  N   UNL A   1      33.140  29.833  25.533  1.00  0.00    -0.352 N 
ATOM     38  C   UNL A   1      33.233  30.647  26.634  1.00  0.00     0.251 C 
ATOM     39  H   UNL A   1      32.393  30.027  24.921  1.00  0.00     0.163 HD
ATOM     40  O   UNL A   1      32.318  31.406  26.931  1.00  0.00    -0.269 OA
BRANCH  38  41
ATOM     41  C   UNL A   1      34.448  30.587  27.473  1.00  0.00     0.039 A 
ATOM     42  C   UNL A   1      34.799  29.379  28.077  1.00  0.00     0.014 A 
ATOM     43  C   UNL A   1      35.239  31.726  27.649  1.00  0.00     0.014 A 
ATOM     44  C   UNL A   1      35.981  29.296  28.817  1.00  0.00     0.010 A 
ATOM     45  C   UNL A   1      36.445  31.626  28.331  1.00  0.00     0.010 A 
ATOM     46  C   UNL A   1      36.825  30.413  28.926  1.00  0.00    -0.014 A 
BRANCH  46  47
ATOM     47  C   UNL A   1      38.105  30.350  29.672  1.00  0.00     0.031 A 
ATOM     48  C   UNL A   1      39.279  29.625  29.075  1.00  0.00     0.074 A 
ATOM     49  C   UNL A   1      38.186  30.864  30.914  1.00  0.00     0.049 A 
ATOM     50  N   UNL A   1      40.440  29.351  29.612  1.00  0.00    -0.248 NA
ATOM     51  C   UNL A   1      39.115  29.120  27.703  1.00  0.00     0.031 C 
ATOM     52  C   UNL A   1      37.111  31.571  31.613  1.00  0.00     0.029 A 
ATOM     53  N   UNL A   1      39.221  30.858  31.814  1.00  0.00    -0.354 N 
ATOM     54  C   UNL A   1      41.133  28.620  28.655  1.00  0.00     0.074 A 
ATOM     55  C   UNL A   1      40.248  28.459  27.522  1.00  0.00     0.031 C 
ATOM     56  C   UNL A   1      37.549  31.944  32.827  1.00  0.00     0.029 A 
ATOM     57  C   UNL A   1      38.916  31.465  33.008  1.00  0.00     0.049 A 
ATOM     58  H   UNL A   1      40.099  30.456  31.624  1.00  0.00     0.167 HD
ATOM     59  C   UNL A   1      42.398  28.140  28.706  1.00  0.00     0.031 A 
ATOM     60  C   UNL A   1      39.650  31.609  34.127  1.00  0.00     0.031 A 
ATOM     61  C   UNL A   1      43.282  28.315  29.827  1.00  0.00     0.049 A 
ATOM     62  C   UNL A   1      41.044  31.049  34.169  1.00  0.00     0.074 A 
ATOM     63  C   UNL A   1      44.599  27.911  29.957  1.00  0.00     0.029 A 
ATOM     64  N   UNL A   1      42.936  28.946  31.011  1.00  0.00    -0.354 N 
ATOM     65  N   UNL A   1      41.703  30.403  33.237  1.00  0.00    -0.248 NA
ATOM     66  C   UNL A   1      41.798  31.240  35.416  1.00  0.00     0.031 C 
ATOM     67  C   UNL A   1      45.038  28.259  31.237  1.00  0.00     0.029 A 
ATOM     68  C   UNL A   1      44.009  28.926  31.885  1.00  0.00     0.049 A 
ATOM     69  H   UNL A   1      42.059  29.350  31.202  1.00  0.00     0.167 HD
ATOM     70  C   UNL A   1      42.957  30.142  33.773  1.00  0.00     0.074 A 
ATOM     71  C   UNL A   1      42.970  30.703  35.108  1.00  0.00     0.031 C 
ATOM     72  C   UNL A   1      44.007  29.497  33.206  1.00  0.00     0.031 A 
BRANCH  59  73
ATOM     73  C   UNL A   1      42.893  27.370  27.515  1.00  0.00    -0.014 A 
ATOM     74  C   UNL A   1      42.819  25.969  27.472  1.00  0.00     0.009 A 
ATOM     75  C   UNL A   1      43.417  28.057  26.409  1.00  0.00     0.009 A 
ATOM     76  C   UNL A   1      43.299  25.269  26.362  1.00  0.00     0.001 A 
ATOM     77  C   UNL A   1      43.869  27.356  25.290  1.00  0.00     0.001 A 
ATOM     78  C   UNL A   1      43.820  25.963  25.272  1.00  0.00     0.000 A 
ENDBRANCH  59  73
BRANCH  60  79
ATOM     79  C   UNL A   1      39.086  32.326  35.299  1.00  0.00    -0.014 A 
ATOM     80  C   UNL A   1      38.409  31.619  36.304  1.00  0.00     0.009 A 
ATOM     81  C   UNL A   1      39.220  33.718  35.421  1.00  0.00     0.009 A 
ATOM     82  C   UNL A   1      37.858  32.292  37.396  1.00  0.00     0.001 A 
ATOM     83  C   UNL A   1      38.691  34.386  36.528  1.00  0.00     0.001 A 
ATOM     84  C   UNL A   1      38.004  33.674  37.509  1.00  0.00     0.000 A 
ENDBRANCH  60  79
BRANCH  72  85
ATOM     85  C   UNL A   1      45.273  29.403  34.008  1.00  0.00    -0.014 A 
ATOM     86  C   UNL A   1      45.521  28.312  34.855  1.00  0.00     0.009 A 
ATOM     87  C   UNL A   1      46.258  30.393  33.862  1.00  0.00     0.009 A 
ATOM     88  C   UNL A   1      46.723  28.226  35.558  1.00  0.00     0.001 A 
ATOM     89  C   UNL A   1      47.470  30.291  34.547  1.00  0.00     0.001 A 
ATOM     90  C   UNL A   1      47.698  29.211  35.399  1.00  0.00     0.000 A 
ENDBRANCH  72  85
ENDBRANCH  46  47
ENDBRANCH  38  41
ENDBRANCH  36  37
ENDBRANCH  35  36
ENDBRANCH  34  35
ENDBRANCH   1  34
TORSDOF 17
ENDMDL
MODEL 2
REMARK VINA RESULT:     -12.2      0.508      5.557
REMARK SMILES CS(=O)(=O)c1ccc(/C=C(/C(=O)NCCCCCCNC(=O)c2ccc(-c3c4nc(c(-c5ccccc5)c5ccc([nH]5)c(-c5ccccc5)c5nc(c(-c6ccccc6)c6ccc3[nH]6)C=C5)C=C4)cc2)c2ccc(-c3ccc(F)cc3F)cc2)cc1
REMARK SMILES IDX 16 1 15 2 14 3 13 4 11 5 12 6 10 8 9 9 8 10 5 11 6 12 86 13
REMARK SMILES IDX 7 14 85 15 2 16 1 17 3 18 4 19 71 20 72 21 84 22 73 23 83 24
REMARK SMILES IDX 74 25 75 26 76 27 81 28 77 29 80 30 82 31 78 32 79 33 17 34
REMARK SMILES IDX 18 35 19 36 20 37 21 38 22 40 23 41 24 42 70 43 25 44 69 45
REMARK SMILES IDX 26 46 27 47 28 48 63 49 29 50 68 51 62 52 64 53 30 54 67 55
REMARK SMILES IDX 61 56 60 57 31 59 53 60 38 61 52 62 39 63 42 64 51 65 65 66
REMARK SMILES IDX 40 67 41 68 50 70 66 71 43 72 32 73 33 74 37 75 34 76 36 77
REMARK SMILES IDX 35 78 54 79 55 80 59 81 56 82 58 83 57 84 44 85 45 86 49 87
REMARK SMILES IDX 46 88 48 89 47 90
REMARK H PARENT 13 7 20 39 64 58 42 69
REMARK Flexibility Score: inf
ROOT
ATOM      1  C   UNL A   1      30.817  26.481  25.632  1.00  0.00     0.002 C 
ENDROOT
BRANCH   1   2
ATOM      2  C   UNL A   1      30.037  26.597  24.311  1.00  0.00     0.021 C 
BRANCH   2   3
ATOM      3  C   UNL A   1      30.345  25.469  23.322  1.00  0.00     0.116 C 
BRANCH   3   4
ATOM      4  N   UNL A   1      31.552  25.790  22.592  1.00  0.00    -0.352 N 
ATOM      5  C   UNL A   1      32.794  25.248  22.524  1.00  0.00     0.251 C 
ATOM      6  O   UNL A   1      33.621  25.905  21.885  1.00  0.00    -0.269 OA
ATOM      7  H   UNL A   1      31.450  26.582  22.016  1.00  0.00     0.163 HD
BRANCH   5   8
ATOM      8  C   UNL A   1      33.157  23.890  23.085  1.00  0.00     0.047 C 
ATOM      9  C   UNL A   1      32.276  22.866  23.155  1.00  0.00     0.022 C 
BRANCH   9  10
ATOM     10  C   UNL A   1      32.500  21.452  23.535  1.00  0.00    -0.025 A 
ATOM     11  C   UNL A   1      33.004  18.729  24.036  1.00  0.00     0.067 A 
ATOM     12  C   UNL A   1      33.298  19.681  25.012  1.00  0.00     0.021 A 
ATOM     13  C   UNL A   1      32.423  19.119  22.828  1.00  0.00     0.021 A 
ATOM     14  C   UNL A   1      33.020  21.033  24.765  1.00  0.00     0.009 A 
ATOM     15  C   UNL A   1      32.173  20.472  22.583  1.00  0.00     0.009 A 
BRANCH  11  16
ATOM     16  S   UNL A   1      33.369  17.003  24.253  1.00  0.00     0.175 S 
ATOM     17  C   UNL A   1      34.990  16.887  24.951  1.00  0.00     0.163 C 
ATOM     18  O   UNL A   1      33.437  16.428  22.924  1.00  0.00    -0.224 OA
ATOM     19  O   UNL A   1      32.423  16.508  25.236  1.00  0.00    -0.224 OA
ENDBRANCH  11  16
ENDBRANCH   9  10
BRANCH   8  20
ATOM     20  C   UNL A   1      34.487  23.793  23.738  1.00  0.00    -0.013 A 
ATOM     21  C   UNL A   1      34.607  24.297  25.039  1.00  0.00     0.009 A 
ATOM     22  C   UNL A   1      35.595  23.178  23.152  1.00  0.00     0.009 A 
ATOM     23  C   UNL A   1      35.798  24.168  25.749  1.00  0.00     0.009 A 
ATOM     24  C   UNL A   1      36.784  23.022  23.885  1.00  0.00     0.009 A 
ATOM     25  C   UNL A   1      36.905  23.499  25.204  1.00  0.00    -0.015 A 
BRANCH  25  26
ATOM     26  C   UNL A   1      38.125  23.310  26.018  1.00  0.00     0.018 A 
ATOM     27  C   UNL A   1      38.675  24.394  26.737  1.00  0.00     0.015 A 
ATOM     28  C   UNL A   1      38.802  22.082  26.099  1.00  0.00     0.133 A 
ATOM     29  C   UNL A   1      39.858  24.259  27.467  1.00  0.00     0.040 A 
ATOM     30  C   UNL A   1      39.978  21.935  26.832  1.00  0.00     0.079 A 
ATOM     31  F   UNL A   1      38.339  21.005  25.444  1.00  0.00    -0.206 F 
ATOM     32  C   UNL A   1      40.499  23.030  27.503  1.00  0.00     0.126 A 
ATOM     33  F   UNL A   1      41.637  22.902  28.198  1.00  0.00    -0.207 F 
ENDBRANCH  25  26
ENDBRANCH   8  20
ENDBRANCH   5   8
ENDBRANCH   3   4
ENDBRANCH   2   3
ENDBRANCH   1   2
BRANCH   1  34
ATOM     34  C   UNL A   1      31.658  27.711  25.996  1.00  0.00     0.002 C 
BRANCH  34  35
ATOM     35  C   UNL A   1      33.140  27.604  25.630  1.00  0.00     0.021 C 
BRANCH  35  36
ATOM     36  C   UNL A   1      33.769  28.922  25.195  1.00  0.00     0.116 C 
BRANCH  36  37
ATOM     37  N   UNL A   1      33.088  30.066  25.783  1.00  0.00    -0.352 N 
ATOM     38  C   UNL A   1      33.425  30.780  26.906  1.00  0.00     0.251 C 
ATOM     39  H   UNL A   1      32.277  30.367  25.312  1.00  0.00     0.163 HD
ATOM     40  O   UNL A   1      32.643  31.586  27.394  1.00  0.00    -0.269 OA
BRANCH  38  41
ATOM     41  C   UNL A   1      34.743  30.554  27.533  1.00  0.00     0.039 A 
ATOM     42  C   UNL A   1      35.633  31.623  27.653  1.00  0.00     0.014 A 
ATOM     43  C   UNL A   1      35.088  29.286  28.009  1.00  0.00     0.014 A 
ATOM     44  C   UNL A   1      36.854  31.433  28.304  1.00  0.00     0.010 A 
ATOM     45  C   UNL A   1      36.275  29.114  28.712  1.00  0.00     0.010 A 
ATOM     46  C   UNL A   1      37.171  30.184  28.861  1.00  0.00    -0.014 A 
BRANCH  46  47
ATOM     47  C   UNL A   1      38.442  29.958  29.592  1.00  0.00     0.031 A 
ATOM     48  C   UNL A   1      38.633  30.561  30.955  1.00  0.00     0.074 A 
ATOM     49  C   UNL A   1      39.449  29.289  28.999  1.00  0.00     0.049 A 
ATOM     50  N   UNL A   1      39.706  30.587  31.704  1.00  0.00    -0.248 NA
ATOM     51  C   UNL A   1      37.472  31.250  31.542  1.00  0.00     0.031 C 
ATOM     52  C   UNL A   1      39.395  28.676  27.671  1.00  0.00     0.029 A 
ATOM     53  N   UNL A   1      40.722  29.027  29.437  1.00  0.00    -0.354 N 
ATOM     54  C   UNL A   1      39.356  31.314  32.835  1.00  0.00     0.074 A 
ATOM     55  C   UNL A   1      37.987  31.746  32.656  1.00  0.00     0.031 C 
ATOM     56  C   UNL A   1      40.578  28.094  27.410  1.00  0.00     0.029 A 
ATOM     57  C   UNL A   1      41.483  28.332  28.529  1.00  0.00     0.049 A 
ATOM     58  H   UNL A   1      41.059  29.310  30.318  1.00  0.00     0.167 HD
ATOM     59  C   UNL A   1      40.102  31.585  33.933  1.00  0.00     0.031 A 
ATOM     60  C   UNL A   1      42.771  27.941  28.587  1.00  0.00     0.031 A 
ATOM     61  C   UNL A   1      41.458  31.140  34.116  1.00  0.00     0.049 A 
ATOM     62  C   UNL A   1      43.586  28.272  29.806  1.00  0.00     0.074 A 
ATOM     63  C   UNL A   1      42.281  31.318  35.214  1.00  0.00     0.029 A 
ATOM     64  N   UNL A   1      42.187  30.429  33.177  1.00  0.00    -0.354 N 
ATOM     65  N   UNL A   1      43.226  28.917  30.889  1.00  0.00    -0.248 NA
ATOM     66  C   UNL A   1      44.983  27.816  29.813  1.00  0.00     0.031 C 
ATOM     67  C   UNL A   1      43.526  30.753  34.921  1.00  0.00     0.029 A 
ATOM     68  C   UNL A   1      43.459  30.177  33.662  1.00  0.00     0.049 A 
ATOM     69  H   UNL A   1      41.851  30.145  32.297  1.00  0.00     0.167 HD
ATOM     70  C   UNL A   1      44.341  28.916  31.717  1.00  0.00     0.074 A 
ATOM     71  C   UNL A   1      45.386  28.200  31.016  1.00  0.00     0.031 C 
ATOM     72  C   UNL A   1      44.483  29.456  32.952  1.00  0.00     0.031 A 
BRANCH  59  73
ATOM     73  C   UNL A   1      39.464  32.409  35.015  1.00  0.00    -0.014 A 
ATOM     74  C   UNL A   1      38.758  31.807  36.067  1.00  0.00     0.009 A 
ATOM     75  C   UNL A   1      39.592  33.806  34.994  1.00  0.00     0.009 A 
ATOM     76  C   UNL A   1      38.157  32.591  37.055  1.00  0.00     0.001 A 
ATOM     77  C   UNL A   1      39.016  34.585  35.999  1.00  0.00     0.001 A 
ATOM     78  C   UNL A   1      38.290  33.978  37.022  1.00  0.00     0.000 A 
ENDBRANCH  59  73
BRANCH  60  79
ATOM     79  C   UNL A   1      43.368  27.181  27.459  1.00  0.00    -0.014 A 
ATOM     80  C   UNL A   1      43.294  25.780  27.431  1.00  0.00     0.009 A 
ATOM     81  C   UNL A   1      44.012  27.848  26.406  1.00  0.00     0.009 A 
ATOM     82  C   UNL A   1      43.873  25.061  26.384  1.00  0.00     0.001 A 
ATOM     83  C   UNL A   1      44.568  27.128  25.346  1.00  0.00     0.001 A 
ATOM     84  C   UNL A   1      44.505  25.736  25.340  1.00  0.00     0.000 A 
ENDBRANCH  60  79
BRANCH  72  85
ATOM     85  C   UNL A   1      45.800  29.256  33.646  1.00  0.00    -0.014 A 
ATOM     86  C   UNL A   1      46.781  30.260  33.651  1.00  0.00     0.009 A 
ATOM     87  C   UNL A   1      46.034  28.068  34.355  1.00  0.00     0.009 A 
ATOM     88  C   UNL A   1      47.981  30.066  34.338  1.00  0.00     0.001 A 
ATOM     89  C   UNL A   1      47.224  27.887  35.061  1.00  0.00     0.001 A 
ATOM     90  C   UNL A   1      48.199  28.885  35.047  1.00  0.00     0.000 A 
ENDBRANCH  72  85
ENDBRANCH  46  47
ENDBRANCH  38  41
ENDBRANCH  36  37
ENDBRANCH  35  36
ENDBRANCH  34  35
ENDBRANCH   1  34
TORSDOF 17
ENDMDL
MODEL 3
REMARK VINA RESULT:     -11.3      1.421      5.872
REMARK SMILES CS(=O)(=O)c1ccc(/C=C(/C(=O)NCCCCCCNC(=O)c2ccc(-c3c4nc(c(-c5ccccc5)c5ccc([nH]5)c(-c5ccccc5)c5nc(c(-c6ccccc6)c6ccc3[nH]6)C=C5)C=C4)cc2)c2ccc(-c3ccc(F)cc3F)cc2)cc1
REMARK SMILES IDX 16 1 15 2 14 3 13 4 11 5 12 6 10 8 9 9 8 10 5 11 6 12 86 13
REMARK SMILES IDX 7 14 85 15 2 16 1 17 3 18 4 19 71 20 72 21 84 22 73 23 83 24
REMARK SMILES IDX 74 25 75 26 76 27 81 28 77 29 80 30 82 31 78 32 79 33 17 34
REMARK SMILES IDX 18 35 19 36 20 37 21 38 22 40 23 41 24 42 70 43 25 44 69 45
REMARK SMILES IDX 26 46 27 47 28 48 63 49 29 50 68 51 62 52 64 53 30 54 67 55
REMARK SMILES IDX 61 56 60 57 31 59 53 60 38 61 52 62 39 63 42 64 51 65 65 66
REMARK SMILES IDX 40 67 41 68 50 70 66 71 43 72 32 73 33 74 37 75 34 76 36 77
REMARK SMILES IDX 35 78 54 79 55 80 59 81 56 82 58 83 57 84 44 85 45 86 49 87
REMARK SMILES IDX 46 88 48 89 47 90
REMARK H PARENT 13 7 20 39 64 58 42 69
REMARK Flexibility Score: inf
ROOT
ATOM      1  C   UNL A   1      31.198  27.546  26.255  1.00  0.00     0.002 C 
ENDROOT
BRANCH   1   2
ATOM      2  C   UNL A   1      30.684  26.971  24.923  1.00  0.00     0.021 C 
BRANCH   2   3
ATOM      3  C   UNL A   1      31.141  25.532  24.666  1.00  0.00     0.116 C 
BRANCH   3   4
ATOM      4  N   UNL A   1      31.792  25.462  23.376  1.00  0.00    -0.352 N 
ATOM      5  C   UNL A   1      32.674  24.606  22.802  1.00  0.00     0.251 C 
ATOM      6  O   UNL A   1      33.124  24.966  21.710  1.00  0.00    -0.269 OA
ATOM      7  H   UNL A   1      31.539  26.204  22.781  1.00  0.00     0.163 HD
BRANCH   5   8
ATOM      8  C   UNL A   1      33.028  23.248  23.370  1.00  0.00     0.047 C 
ATOM      9  C   UNL A   1      32.186  22.191  23.324  1.00  0.00     0.022 C 
BRANCH   9  10
ATOM     10  C   UNL A   1      32.424  20.777  23.697  1.00  0.00    -0.025 A 
ATOM     11  C   UNL A   1      33.001  18.070  24.204  1.00  0.00     0.067 A 
ATOM     12  C   UNL A   1      33.015  18.991  25.251  1.00  0.00     0.021 A 
ATOM     13  C   UNL A   1      32.661  18.480  22.913  1.00  0.00     0.021 A 
ATOM     14  C   UNL A   1      32.701  20.334  24.995  1.00  0.00     0.009 A 
ATOM     15  C   UNL A   1      32.374  19.825  22.665  1.00  0.00     0.009 A 
BRANCH  11  16
ATOM     16  S   UNL A   1      33.431  16.362  24.438  1.00  0.00     0.175 S 
ATOM     17  C   UNL A   1      34.911  16.315  25.406  1.00  0.00     0.163 C 
ATOM     18  O   UNL A   1      33.766  15.840  23.127  1.00  0.00    -0.224 OA
ATOM     19  O   UNL A   1      32.363  15.777  25.226  1.00  0.00    -0.224 OA
ENDBRANCH  11  16
ENDBRANCH   9  10
BRANCH   8  20
ATOM     20  C   UNL A   1      34.284  23.185  24.160  1.00  0.00    -0.013 A 
ATOM     21  C   UNL A   1      35.464  22.868  23.477  1.00  0.00     0.009 A 
ATOM     22  C   UNL A   1      34.357  23.482  25.523  1.00  0.00     0.009 A 
ATOM     23  C   UNL A   1      36.694  22.872  24.131  1.00  0.00     0.009 A 
ATOM     24  C   UNL A   1      35.604  23.515  26.170  1.00  0.00     0.009 A 
ATOM     25  C   UNL A   1      36.799  23.227  25.485  1.00  0.00    -0.015 A 
BRANCH  25  26
ATOM     26  C   UNL A   1      38.130  23.298  26.124  1.00  0.00     0.018 A 
ATOM     27  C   UNL A   1      38.573  24.503  26.715  1.00  0.00     0.015 A 
ATOM     28  C   UNL A   1      39.017  22.209  26.156  1.00  0.00     0.133 A 
ATOM     29  C   UNL A   1      39.847  24.616  27.274  1.00  0.00     0.040 A 
ATOM     30  C   UNL A   1      40.288  22.310  26.721  1.00  0.00     0.079 A 
ATOM     31  F   UNL A   1      38.668  21.030  25.618  1.00  0.00    -0.206 F 
ATOM     32  C   UNL A   1      40.693  23.517  27.267  1.00  0.00     0.126 A 
ATOM     33  F   UNL A   1      41.918  23.627  27.798  1.00  0.00    -0.207 F 
ENDBRANCH  25  26
ENDBRANCH   8  20
ENDBRANCH   5   8
ENDBRANCH   3   4
ENDBRANCH   2   3
ENDBRANCH   1   2
BRANCH   1  34
ATOM     34  C   UNL A   1      32.266  28.638  26.117  1.00  0.00     0.002 C 
BRANCH  34  35
ATOM     35  C   UNL A   1      33.701  28.119  26.001  1.00  0.00     0.021 C 
BRANCH  35  36
ATOM     36  C   UNL A   1      34.699  28.847  26.893  1.00  0.00     0.116 C 
BRANCH  36  37
ATOM     37  N   UNL A   1      34.447  30.279  26.929  1.00  0.00    -0.352 N 
ATOM     38  C   UNL A   1      35.003  31.227  27.751  1.00  0.00     0.251 C 
ATOM     39  H   UNL A   1      33.790  30.613  26.275  1.00  0.00     0.163 HD
ATOM     40  O   UNL A   1      34.541  32.361  27.803  1.00  0.00    -0.269 OA
BRANCH  38  41
ATOM     41  C   UNL A   1      36.161  30.861  28.591  1.00  0.00     0.039 A 
ATOM     42  C   UNL A   1      37.313  31.648  28.545  1.00  0.00     0.014 A 
ATOM     43  C   UNL A   1      36.098  29.744  29.429  1.00  0.00     0.014 A 
ATOM     44  C   UNL A   1      38.388  31.347  29.384  1.00  0.00     0.010 A 
ATOM     45  C   UNL A   1      37.142  29.484  30.309  1.00  0.00     0.010 A 
ATOM     46  C   UNL A   1      38.299  30.279  30.291  1.00  0.00    -0.014 A 
BRANCH  46  47
ATOM     47  C   UNL A   1      39.406  29.955  31.222  1.00  0.00     0.031 A 
ATOM     48  C   UNL A   1      39.496  30.663  32.545  1.00  0.00     0.074 A 
ATOM     49  C   UNL A   1      40.372  29.096  30.846  1.00  0.00     0.049 A 
ATOM     50  N   UNL A   1      40.446  30.616  33.444  1.00  0.00    -0.248 NA
ATOM     51  C   UNL A   1      38.383  31.562  32.890  1.00  0.00     0.031 C 
ATOM     52  C   UNL A   1      40.411  28.363  29.579  1.00  0.00     0.029 A 
ATOM     53  N   UNL A   1      41.517  28.706  31.492  1.00  0.00    -0.354 N 
ATOM     54  C   UNL A   1      40.058  31.497  34.446  1.00  0.00     0.074 A 
ATOM     55  C   UNL A   1      38.809  32.094  34.026  1.00  0.00     0.031 C 
ATOM     56  C   UNL A   1      41.516  27.599  29.549  1.00  0.00     0.029 A 
ATOM     57  C   UNL A   1      42.283  27.823  30.771  1.00  0.00     0.049 A 
ATOM     58  H   UNL A   1      41.768  29.028  32.388  1.00  0.00     0.167 HD
ATOM     59  C   UNL A   1      40.676  31.772  35.619  1.00  0.00     0.031 A 
ATOM     60  C   UNL A   1      43.476  27.265  31.056  1.00  0.00     0.031 A 
ATOM     61  C   UNL A   1      41.910  31.166  36.042  1.00  0.00     0.049 A 
ATOM     62  C   UNL A   1      44.154  27.603  32.354  1.00  0.00     0.074 A 
ATOM     63  C   UNL A   1      42.590  31.339  37.234  1.00  0.00     0.029 A 
ATOM     64  N   UNL A   1      42.645  30.268  35.286  1.00  0.00    -0.354 N 
ATOM     65  N   UNL A   1      43.750  28.400  33.314  1.00  0.00    -0.248 NA
ATOM     66  C   UNL A   1      45.450  26.961  32.610  1.00  0.00     0.031 C 
ATOM     67  C   UNL A   1      43.763  30.580  37.182  1.00  0.00     0.029 A 
ATOM     68  C   UNL A   1      43.784  29.893  35.977  1.00  0.00     0.049 A 
ATOM     69  H   UNL A   1      42.396  29.944  34.390  1.00  0.00     0.167 HD
ATOM     70  C   UNL A   1      44.725  28.329  34.299  1.00  0.00     0.074 A 
ATOM     71  C   UNL A   1      45.737  27.407  33.825  1.00  0.00     0.031 C 
ATOM     72  C   UNL A   1      44.775  28.968  35.494  1.00  0.00     0.031 A 
BRANCH  59  73
ATOM     73  C   UNL A   1      40.027  32.784  36.520  1.00  0.00    -0.014 A 
ATOM     74  C   UNL A   1      40.378  34.142  36.461  1.00  0.00     0.009 A 
ATOM     75  C   UNL A   1      39.033  32.378  37.424  1.00  0.00     0.009 A 
ATOM     76  C   UNL A   1      39.775  35.066  37.318  1.00  0.00     0.001 A 
ATOM     77  C   UNL A   1      38.412  33.308  38.258  1.00  0.00     0.001 A 
ATOM     78  C   UNL A   1      38.791  34.649  38.213  1.00  0.00     0.000 A 
ENDBRANCH  59  73
BRANCH  60  79
ATOM     79  C   UNL A   1      44.101  26.318  30.098  1.00  0.00    -0.014 A 
ATOM     80  C   UNL A   1      44.812  26.799  28.988  1.00  0.00     0.009 A 
ATOM     81  C   UNL A   1      43.993  24.931  30.285  1.00  0.00     0.009 A 
ATOM     82  C   UNL A   1      45.382  25.912  28.073  1.00  0.00     0.001 A 
ATOM     83  C   UNL A   1      44.587  24.047  29.383  1.00  0.00     0.001 A 
ATOM     84  C   UNL A   1      45.273  24.537  28.274  1.00  0.00     0.000 A 
ENDBRANCH  60  79
BRANCH  72  85
ATOM     85  C   UNL A   1      45.938  28.659  36.393  1.00  0.00    -0.014 A 
ATOM     86  C   UNL A   1      47.144  29.370  36.296  1.00  0.00     0.009 A 
ATOM     87  C   UNL A   1      45.797  27.684  37.394  1.00  0.00     0.009 A 
ATOM     88  C   UNL A   1      48.195  29.093  37.171  1.00  0.00     0.001 A 
ATOM     89  C   UNL A   1      46.841  27.427  38.282  1.00  0.00     0.001 A 
ATOM     90  C   UNL A   1      48.041  28.128  38.167  1.00  0.00     0.000 A 
ENDBRANCH  72  85
ENDBRANCH  46  47
ENDBRANCH  38  41
ENDBRANCH  36  37
ENDBRANCH  35  36
ENDBRANCH  34  35
ENDBRANCH   1  34
TORSDOF 17
ENDMDL
