MODEL 1
REMARK VINA RESULT:     -11.8      0.000      0.000
REMARK SMILES O=C(CCC(=O)/[NH+]=C1\S[C@H]2CS(=O)(=O)C[C@@H]2N1c1ccc2c(c1)OCO2)NCCCCCCNC(=O)c1ccc(-c2c3nc(c(-c4ccccc4)c4ccc([nH]4)c(-c4ccccc4)c4nc(c(-c5ccccc5)c5ccc2[nH]5)C=C4)C=C3)cc1
REMARK SMILES IDX 30 1 29 2 28 3 27 4 2 5 1 6 3 8 4 9 5 10 6 11 7 12 8 13 9 15
REMARK SMILES IDX 17 16 10 17 16 18 11 19 15 20 12 21 13 22 14 23 18 24 19 25
REMARK SMILES IDX 23 26 20 27 22 28 21 29 24 30 26 31 25 32 31 33 32 34 33 35
REMARK SMILES IDX 34 36 35 37 36 39 37 40 38 41 84 42 39 43 83 44 40 45 41 46
REMARK SMILES IDX 42 47 77 48 43 49 82 50 76 51 78 52 44 53 81 54 75 55 74 56
REMARK SMILES IDX 45 58 67 59 52 60 66 61 53 62 56 63 65 64 79 65 54 66 55 67
REMARK SMILES IDX 64 69 80 70 57 71 46 72 47 73 51 74 48 75 50 76 49 77 68 78
REMARK SMILES IDX 69 79 73 80 70 81 72 82 71 83 58 84 59 85 63 86 60 87 62 88
REMARK SMILES IDX 61 89
REMARK H PARENT 27 7 7 14 34 38 78 57 56 68
REMARK Flexibility Score: inf
ROOT
ATOM      1  C   UNL A   1      35.613  21.311  25.177  1.00  0.00     0.002 C 
ENDROOT
BRANCH   1   2
ATOM      2  C   UNL A   1      35.626  22.142  26.461  1.00  0.00     0.021 C 
BRANCH   2   3
ATOM      3  C   UNL A   1      34.351  22.952  26.690  1.00  0.00     0.116 C 
BRANCH   3   4
ATOM      4  N   UNL A   1      33.136  22.208  26.401  1.00  0.00    -0.356 N 
ATOM      5  C   UNL A   1      32.250  22.320  25.380  1.00  0.00     0.220 C 
ATOM      6  O   UNL A   1      31.243  21.608  25.386  1.00  0.00    -0.275 OA
ATOM      7  H   UNL A   1      32.921  21.504  27.054  1.00  0.00     0.163 HD
BRANCH   5   8
ATOM      8  C   UNL A   1      32.517  23.278  24.252  1.00  0.00     0.112 C 
BRANCH   8   9
ATOM      9  C   UNL A   1      32.131  24.740  24.428  1.00  0.00     0.138 C 
BRANCH   9  10
ATOM     10  C   UNL A   1      33.138  25.855  24.696  1.00  0.00     0.308 C 
ATOM     11  O   UNL A   1      34.334  25.604  24.547  1.00  0.00    -0.247 OA
ATOM     12  N   UNL A   1      32.737  27.082  25.147  1.00  0.00    -0.204 N 
ATOM     13  C   UNL A   1      32.000  27.885  24.460  1.00  0.00     0.319 C 
ATOM     14  H   UNL A   1      33.026  27.367  26.044  1.00  0.00     0.316 HD
ATOM     15  S   UNL A   1      31.321  27.511  22.849  1.00  0.00    -0.029 SA
ATOM     16  N   UNL A   1      31.529  29.129  24.884  1.00  0.00    -0.216 N 
ATOM     17  C   UNL A   1      30.492  29.112  22.791  1.00  0.00     0.120 C 
ATOM     18  C   UNL A   1      30.260  29.470  24.265  1.00  0.00     0.212 C 
ATOM     19  C   UNL A   1      29.140  29.261  22.149  1.00  0.00     0.156 C 
ATOM     20  C   UNL A   1      29.759  30.895  24.226  1.00  0.00     0.188 C 
ATOM     21  S   UNL A   1      28.628  30.852  22.824  1.00  0.00     0.155 S 
ATOM     22  O   UNL A   1      29.030  31.889  21.893  1.00  0.00    -0.229 OA
ATOM     23  O   UNL A   1      27.277  30.734  23.318  1.00  0.00    -0.229 OA
BRANCH  16  24
ATOM     24  C   UNL A   1      32.165  29.968  25.798  1.00  0.00     0.132 A 
ATOM     25  C   UNL A   1      33.405  29.623  26.392  1.00  0.00     0.056 A 
ATOM     26  C   UNL A   1      31.584  31.203  26.132  1.00  0.00     0.102 A 
ATOM     27  C   UNL A   1      34.078  30.504  27.250  1.00  0.00     0.055 A 
ATOM     28  C   UNL A   1      32.265  32.053  26.978  1.00  0.00     0.170 A 
ATOM     29  C   UNL A   1      33.489  31.720  27.505  1.00  0.00     0.166 A 
ATOM     30  O   UNL A   1      31.861  33.296  27.355  1.00  0.00    -0.453 OA
ATOM     31  O   UNL A   1      34.026  32.731  28.237  1.00  0.00    -0.454 OA
ATOM     32  C   UNL A   1      33.064  33.779  27.990  1.00  0.00     0.468 C 
ENDBRANCH  16  24
ENDBRANCH   9  10
ENDBRANCH   8   9
ENDBRANCH   5   8
ENDBRANCH   3   4
ENDBRANCH   2   3
ENDBRANCH   1   2
BRANCH   1  33
ATOM     33  C   UNL A   1      36.970  21.144  24.499  1.00  0.00     0.002 C 
BRANCH  33  34
ATOM     34  C   UNL A   1      37.775  19.960  25.016  1.00  0.00     0.021 C 
BRANCH  34  35
ATOM     35  C   UNL A   1      39.086  20.351  25.687  1.00  0.00     0.116 C 
BRANCH  35  36
ATOM     36  N   UNL A   1      39.991  19.218  25.829  1.00  0.00    -0.352 N 
ATOM     37  C   UNL A   1      41.346  19.255  26.058  1.00  0.00     0.251 C 
ATOM     38  H   UNL A   1      39.587  18.324  25.751  1.00  0.00     0.163 HD
ATOM     39  O   UNL A   1      42.044  18.253  25.975  1.00  0.00    -0.269 OA
BRANCH  37  40
ATOM     40  C   UNL A   1      41.946  20.558  26.399  1.00  0.00     0.039 A 
ATOM     41  C   UNL A   1      42.170  21.496  25.391  1.00  0.00     0.014 A 
ATOM     42  C   UNL A   1      42.178  20.874  27.741  1.00  0.00     0.014 A 
ATOM     43  C   UNL A   1      42.572  22.784  25.740  1.00  0.00     0.010 A 
ATOM     44  C   UNL A   1      42.483  22.183  28.090  1.00  0.00     0.010 A 
ATOM     45  C   UNL A   1      42.694  23.148  27.093  1.00  0.00    -0.014 A 
BRANCH  45  46
ATOM     46  C   UNL A   1      43.060  24.530  27.488  1.00  0.00     0.031 A 
ATOM     47  C   UNL A   1      44.504  24.949  27.486  1.00  0.00     0.074 A 
ATOM     48  C   UNL A   1      42.104  25.387  27.898  1.00  0.00     0.049 A 
ATOM     49  N   UNL A   1      45.030  26.096  27.832  1.00  0.00    -0.248 NA
ATOM     50  C   UNL A   1      45.489  23.938  27.069  1.00  0.00     0.031 C 
ATOM     51  C   UNL A   1      40.673  25.086  27.989  1.00  0.00     0.029 A 
ATOM     52  N   UNL A   1      42.195  26.690  28.317  1.00  0.00    -0.354 N 
ATOM     53  C   UNL A   1      46.403  25.937  27.684  1.00  0.00     0.074 A 
ATOM     54  C   UNL A   1      46.633  24.567  27.286  1.00  0.00     0.031 C 
ATOM     55  C   UNL A   1      40.019  26.183  28.400  1.00  0.00     0.029 A 
ATOM     56  C   UNL A   1      40.984  27.249  28.645  1.00  0.00     0.049 A 
ATOM     57  H   UNL A   1      43.047  27.180  28.377  1.00  0.00     0.167 HD
ATOM     58  C   UNL A   1      47.384  26.856  27.840  1.00  0.00     0.031 A 
ATOM     59  C   UNL A   1      40.685  28.482  29.098  1.00  0.00     0.031 A 
ATOM     60  C   UNL A   1      47.154  28.218  28.236  1.00  0.00     0.049 A 
ATOM     61  C   UNL A   1      41.796  29.479  29.288  1.00  0.00     0.074 A 
ATOM     62  C   UNL A   1      48.073  29.242  28.377  1.00  0.00     0.029 A 
ATOM     63  N   UNL A   1      45.912  28.745  28.560  1.00  0.00    -0.354 N 
ATOM     64  N   UNL A   1      43.081  29.336  29.072  1.00  0.00    -0.248 NA
ATOM     65  C   UNL A   1      41.411  30.813  29.771  1.00  0.00     0.031 C 
ATOM     66  C   UNL A   1      47.397  30.373  28.846  1.00  0.00     0.029 A 
ATOM     67  C   UNL A   1      46.045  30.073  28.928  1.00  0.00     0.049 A 
ATOM     68  H   UNL A   1      45.062  28.248  28.532  1.00  0.00     0.167 HD
ATOM     69  C   UNL A   1      43.654  30.567  29.364  1.00  0.00     0.074 A 
ATOM     70  C   UNL A   1      42.573  31.449  29.753  1.00  0.00     0.031 C 
ATOM     71  C   UNL A   1      44.958  30.935  29.314  1.00  0.00     0.031 A 
BRANCH  58  72
ATOM     72  C   UNL A   1      48.798  26.407  27.586  1.00  0.00    -0.014 A 
ATOM     73  C   UNL A   1      49.619  25.953  28.633  1.00  0.00     0.009 A 
ATOM     74  C   UNL A   1      49.311  26.419  26.280  1.00  0.00     0.009 A 
ATOM     75  C   UNL A   1      50.935  25.562  28.383  1.00  0.00     0.001 A 
ATOM     76  C   UNL A   1      50.617  25.994  26.029  1.00  0.00     0.001 A 
ATOM     77  C   UNL A   1      51.431  25.577  27.081  1.00  0.00     0.000 A 
ENDBRANCH  58  72
BRANCH  59  78
ATOM     78  C   UNL A   1      39.273  28.849  29.393  1.00  0.00    -0.014 A 
ATOM     79  C   UNL A   1      38.458  29.417  28.401  1.00  0.00     0.009 A 
ATOM     80  C   UNL A   1      38.735  28.643  30.673  1.00  0.00     0.009 A 
ATOM     81  C   UNL A   1      37.146  29.796  28.694  1.00  0.00     0.001 A 
ATOM     82  C   UNL A   1      37.413  28.993  30.954  1.00  0.00     0.001 A 
ATOM     83  C   UNL A   1      36.623  29.580  29.968  1.00  0.00     0.000 A 
ENDBRANCH  59  78
BRANCH  71  84
ATOM     84  C   UNL A   1      45.284  32.364  29.653  1.00  0.00    -0.014 A 
ATOM     85  C   UNL A   1      45.277  33.369  28.675  1.00  0.00     0.009 A 
ATOM     86  C   UNL A   1      45.557  32.712  30.986  1.00  0.00     0.009 A 
ATOM     87  C   UNL A   1      45.575  34.690  29.019  1.00  0.00     0.001 A 
ATOM     88  C   UNL A   1      45.820  34.038  31.332  1.00  0.00     0.001 A 
ATOM     89  C   UNL A   1      45.839  35.023  30.348  1.00  0.00     0.000 A 
ENDBRANCH  71  84
ENDBRANCH  45  46
ENDBRANCH  37  40
ENDBRANCH  35  36
ENDBRANCH  34  35
ENDBRANCH  33  34
ENDBRANCH   1  33
TORSDOF 16
ENDMDL
MODEL 2
REMARK VINA RESULT:     -11.7      0.815      5.672
REMARK SMILES O=C(CCC(=O)/[NH+]=C1\S[C@H]2CS(=O)(=O)C[C@@H]2N1c1ccc2c(c1)OCO2)NCCCCCCNC(=O)c1ccc(-c2c3nc(c(-c4ccccc4)c4ccc([nH]4)c(-c4ccccc4)c4nc(c(-c5ccccc5)c5ccc2[nH]5)C=C4)C=C3)cc1
REMARK SMILES IDX 30 1 29 2 28 3 27 4 2 5 1 6 3 8 4 9 5 10 6 11 7 12 8 13 9 15
REMARK SMILES IDX 17 16 10 17 16 18 11 19 15 20 12 21 13 22 14 23 18 24 19 25
REMARK SMILES IDX 23 26 20 27 22 28 21 29 24 30 26 31 25 32 31 33 32 34 33 35
REMARK SMILES IDX 34 36 35 37 36 39 37 40 38 41 84 42 39 43 83 44 40 45 41 46
REMARK SMILES IDX 42 47 77 48 43 49 82 50 76 51 78 52 44 53 81 54 75 55 74 56
REMARK SMILES IDX 45 58 67 59 52 60 66 61 53 62 56 63 65 64 79 65 54 66 55 67
REMARK SMILES IDX 64 69 80 70 57 71 46 72 47 73 51 74 48 75 50 76 49 77 68 78
REMARK SMILES IDX 69 79 73 80 70 81 72 82 71 83 58 84 59 85 63 86 60 87 62 88
REMARK SMILES IDX 61 89
REMARK H PARENT 27 7 7 14 34 38 78 57 56 68
REMARK Flexibility Score: inf
ROOT
ATOM      1  C   UNL A   1      35.518  21.755  24.384  1.00  0.00     0.002 C 
ENDROOT
BRANCH   1   2
ATOM      2  C   UNL A   1      34.755  21.239  25.605  1.00  0.00     0.021 C 
BRANCH   2   3
ATOM      3  C   UNL A   1      33.324  20.796  25.302  1.00  0.00     0.116 C 
BRANCH   3   4
ATOM      4  N   UNL A   1      32.952  20.966  23.907  1.00  0.00    -0.356 N 
ATOM      5  C   UNL A   1      32.174  21.900  23.304  1.00  0.00     0.220 C 
ATOM      6  O   UNL A   1      31.948  21.794  22.096  1.00  0.00    -0.275 OA
ATOM      7  H   UNL A   1      33.329  20.291  23.297  1.00  0.00     0.163 HD
BRANCH   5   8
ATOM      8  C   UNL A   1      31.629  23.053  24.099  1.00  0.00     0.112 C 
BRANCH   8   9
ATOM      9  C   UNL A   1      31.715  24.454  23.509  1.00  0.00     0.138 C 
BRANCH   9  10
ATOM     10  C   UNL A   1      32.822  25.449  23.849  1.00  0.00     0.308 C 
ATOM     11  O   UNL A   1      33.984  25.133  23.593  1.00  0.00    -0.247 OA
ATOM     12  N   UNL A   1      32.545  26.634  24.473  1.00  0.00    -0.204 N 
ATOM     13  C   UNL A   1      31.840  27.570  23.939  1.00  0.00     0.319 C 
ATOM     14  H   UNL A   1      32.905  26.779  25.378  1.00  0.00     0.316 HD
ATOM     15  S   UNL A   1      31.047  27.456  22.341  1.00  0.00    -0.029 SA
ATOM     16  N   UNL A   1      31.493  28.780  24.543  1.00  0.00    -0.216 N 
ATOM     17  C   UNL A   1      30.347  29.107  22.535  1.00  0.00     0.120 C 
ATOM     18  C   UNL A   1      30.224  29.289  24.053  1.00  0.00     0.212 C 
ATOM     19  C   UNL A   1      28.978  29.436  22.004  1.00  0.00     0.156 C 
ATOM     20  C   UNL A   1      29.838  30.740  24.224  1.00  0.00     0.188 C 
ATOM     21  S   UNL A   1      28.633  30.960  22.903  1.00  0.00     0.155 S 
ATOM     22  O   UNL A   1      29.065  32.075  22.084  1.00  0.00    -0.229 OA
ATOM     23  O   UNL A   1      27.306  30.877  23.463  1.00  0.00    -0.229 OA
BRANCH  16  24
ATOM     24  C   UNL A   1      32.244  29.446  25.511  1.00  0.00     0.132 A 
ATOM     25  C   UNL A   1      33.477  28.932  25.986  1.00  0.00     0.056 A 
ATOM     26  C   UNL A   1      31.788  30.673  26.024  1.00  0.00     0.102 A 
ATOM     27  C   UNL A   1      34.264  29.644  26.902  1.00  0.00     0.055 A 
ATOM     28  C   UNL A   1      32.580  31.354  26.924  1.00  0.00     0.170 A 
ATOM     29  C   UNL A   1      33.795  30.862  27.335  1.00  0.00     0.166 A 
ATOM     30  O   UNL A   1      32.305  32.569  27.469  1.00  0.00    -0.453 OA
ATOM     31  O   UNL A   1      34.453  31.728  28.149  1.00  0.00    -0.454 OA
ATOM     32  C   UNL A   1      33.574  32.873  28.086  1.00  0.00     0.468 C 
ENDBRANCH  16  24
ENDBRANCH   9  10
ENDBRANCH   8   9
ENDBRANCH   5   8
ENDBRANCH   3   4
ENDBRANCH   2   3
ENDBRANCH   1   2
BRANCH   1  33
ATOM     33  C   UNL A   1      37.029  21.876  24.567  1.00  0.00     0.002 C 
BRANCH  33  34
ATOM     34  C   UNL A   1      37.691  20.602  25.074  1.00  0.00     0.021 C 
BRANCH  34  35
ATOM     35  C   UNL A   1      39.021  20.836  25.777  1.00  0.00     0.116 C 
BRANCH  35  36
ATOM     36  N   UNL A   1      39.844  19.634  25.812  1.00  0.00    -0.352 N 
ATOM     37  C   UNL A   1      41.208  19.560  25.973  1.00  0.00     0.251 C 
ATOM     38  H   UNL A   1      39.371  18.777  25.709  1.00  0.00     0.163 HD
ATOM     39  O   UNL A   1      41.824  18.516  25.801  1.00  0.00    -0.269 OA
BRANCH  37  40
ATOM     40  C   UNL A   1      41.920  20.795  26.350  1.00  0.00     0.039 A 
ATOM     41  C   UNL A   1      42.314  21.690  25.356  1.00  0.00     0.014 A 
ATOM     42  C   UNL A   1      42.089  21.101  27.704  1.00  0.00     0.014 A 
ATOM     43  C   UNL A   1      42.828  22.932  25.727  1.00  0.00     0.010 A 
ATOM     44  C   UNL A   1      42.508  22.373  28.067  1.00  0.00     0.010 A 
ATOM     45  C   UNL A   1      42.893  23.297  27.083  1.00  0.00    -0.014 A 
BRANCH  45  46
ATOM     46  C   UNL A   1      43.377  24.637  27.497  1.00  0.00     0.031 A 
ATOM     47  C   UNL A   1      42.389  25.689  27.922  1.00  0.00     0.074 A 
ATOM     48  C   UNL A   1      44.692  24.925  27.438  1.00  0.00     0.049 A 
ATOM     49  N   UNL A   1      42.607  26.927  28.283  1.00  0.00    -0.248 NA
ATOM     50  C   UNL A   1      40.967  25.307  27.914  1.00  0.00     0.031 C 
ATOM     51  C   UNL A   1      45.745  24.006  26.997  1.00  0.00     0.029 A 
ATOM     52  N   UNL A   1      45.367  26.077  27.750  1.00  0.00    -0.354 N 
ATOM     53  C   UNL A   1      41.352  27.470  28.532  1.00  0.00     0.074 A 
ATOM     54  C   UNL A   1      40.377  26.452  28.216  1.00  0.00     0.031 C 
ATOM     55  C   UNL A   1      46.934  24.619  27.101  1.00  0.00     0.029 A 
ATOM     56  C   UNL A   1      46.727  25.984  27.572  1.00  0.00     0.049 A 
ATOM     57  H   UNL A   1      44.922  26.894  28.071  1.00  0.00     0.167 HD
ATOM     58  C   UNL A   1      41.039  28.698  29.006  1.00  0.00     0.031 A 
ATOM     59  C   UNL A   1      47.697  26.899  27.763  1.00  0.00     0.031 A 
ATOM     60  C   UNL A   1      42.011  29.710  29.321  1.00  0.00     0.049 A 
ATOM     61  C   UNL A   1      47.322  28.266  28.267  1.00  0.00     0.074 A 
ATOM     62  C   UNL A   1      41.802  30.970  29.852  1.00  0.00     0.029 A 
ATOM     63  N   UNL A   1      43.378  29.576  29.126  1.00  0.00    -0.354 N 
ATOM     64  N   UNL A   1      46.138  28.740  28.569  1.00  0.00    -0.248 NA
ATOM     65  C   UNL A   1      48.422  29.220  28.470  1.00  0.00     0.031 C 
ATOM     66  C   UNL A   1      43.037  31.622  29.921  1.00  0.00     0.029 A 
ATOM     67  C   UNL A   1      44.023  30.742  29.501  1.00  0.00     0.049 A 
ATOM     68  H   UNL A   1      43.823  28.772  28.774  1.00  0.00     0.167 HD
ATOM     69  C   UNL A   1      46.352  30.035  29.024  1.00  0.00     0.074 A 
ATOM     70  C   UNL A   1      47.781  30.263  28.977  1.00  0.00     0.031 C 
ATOM     71  C   UNL A   1      45.447  30.953  29.445  1.00  0.00     0.031 A 
BRANCH  58  72
ATOM     72  C   UNL A   1      39.581  29.011  29.206  1.00  0.00    -0.014 A 
ATOM     73  C   UNL A   1      38.798  29.536  28.163  1.00  0.00     0.009 A 
ATOM     74  C   UNL A   1      38.975  28.760  30.446  1.00  0.00     0.009 A 
ATOM     75  C   UNL A   1      37.452  29.841  28.372  1.00  0.00     0.001 A 
ATOM     76  C   UNL A   1      37.621  29.034  30.642  1.00  0.00     0.001 A 
ATOM     77  C   UNL A   1      36.863  29.584  29.609  1.00  0.00     0.000 A 
ENDBRANCH  58  72
BRANCH  59  78
ATOM     78  C   UNL A   1      49.117  26.551  27.488  1.00  0.00    -0.014 A 
ATOM     79  C   UNL A   1      49.702  26.852  26.248  1.00  0.00     0.009 A 
ATOM     80  C   UNL A   1      49.895  25.905  28.462  1.00  0.00     0.009 A 
ATOM     81  C   UNL A   1      51.023  26.487  25.980  1.00  0.00     0.001 A 
ATOM     82  C   UNL A   1      51.226  25.572  28.203  1.00  0.00     0.001 A 
ATOM     83  C   UNL A   1      51.786  25.852  26.958  1.00  0.00     0.000 A 
ENDBRANCH  59  78
BRANCH  71  84
ATOM     84  C   UNL A   1      45.979  32.276  29.923  1.00  0.00    -0.014 A 
ATOM     85  C   UNL A   1      46.354  32.475  31.260  1.00  0.00     0.009 A 
ATOM     86  C   UNL A   1      46.149  33.324  29.004  1.00  0.00     0.009 A 
ATOM     87  C   UNL A   1      46.853  33.711  31.675  1.00  0.00     0.001 A 
ATOM     88  C   UNL A   1      46.680  34.547  29.416  1.00  0.00     0.001 A 
ATOM     89  C   UNL A   1      47.022  34.743  30.752  1.00  0.00     0.000 A 
ENDBRANCH  71  84
ENDBRANCH  45  46
ENDBRANCH  37  40
ENDBRANCH  35  36
ENDBRANCH  34  35
ENDBRANCH  33  34
ENDBRANCH   1  33
TORSDOF 16
ENDMDL
MODEL 3
REMARK VINA RESULT:     -11.2      6.824     12.149
REMARK SMILES O=C(CCC(=O)/[NH+]=C1\S[C@H]2CS(=O)(=O)C[C@@H]2N1c1ccc2c(c1)OCO2)NCCCCCCNC(=O)c1ccc(-c2c3nc(c(-c4ccccc4)c4ccc([nH]4)c(-c4ccccc4)c4nc(c(-c5ccccc5)c5ccc2[nH]5)C=C4)C=C3)cc1
REMARK SMILES IDX 30 1 29 2 28 3 27 4 2 5 1 6 3 8 4 9 5 10 6 11 7 12 8 13 9 15
REMARK SMILES IDX 17 16 10 17 16 18 11 19 15 20 12 21 13 22 14 23 18 24 19 25
REMARK SMILES IDX 23 26 20 27 22 28 21 29 24 30 26 31 25 32 31 33 32 34 33 35
REMARK SMILES IDX 34 36 35 37 36 39 37 40 38 41 84 42 39 43 83 44 40 45 41 46
REMARK SMILES IDX 42 47 77 48 43 49 82 50 76 51 78 52 44 53 81 54 75 55 74 56
REMARK SMILES IDX 45 58 67 59 52 60 66 61 53 62 56 63 65 64 79 65 54 66 55 67
REMARK SMILES IDX 64 69 80 70 57 71 46 72 47 73 51 74 48 75 50 76 49 77 68 78
REMARK SMILES IDX 69 79 73 80 70 81 72 82 71 83 58 84 59 85 63 86 60 87 62 88
REMARK SMILES IDX 61 89
REMARK H PARENT 27 7 7 14 34 38 78 57 56 68
REMARK Flexibility Score: inf
ROOT
ATOM      1  C   UNL A   1      34.536  34.504  31.584  1.00  0.00     0.002 C 
ENDROOT
BRANCH   1   2
ATOM      2  C   UNL A   1      34.251  33.785  32.904  1.00  0.00     0.021 C 
BRANCH   2   3
ATOM      3  C   UNL A   1      34.975  34.387  34.108  1.00  0.00     0.116 C 
BRANCH   3   4
ATOM      4  N   UNL A   1      36.370  34.699  33.844  1.00  0.00    -0.356 N 
ATOM      5  C   UNL A   1      37.492  33.957  34.018  1.00  0.00     0.220 C 
ATOM      6  O   UNL A   1      38.587  34.472  33.780  1.00  0.00    -0.275 OA
ATOM      7  H   UNL A   1      36.527  35.598  33.476  1.00  0.00     0.163 HD
BRANCH   5   8
ATOM      8  C   UNL A   1      37.388  32.526  34.467  1.00  0.00     0.112 C 
BRANCH   8   9
ATOM      9  C   UNL A   1      38.663  31.780  34.834  1.00  0.00     0.138 C 
BRANCH   9  10
ATOM     10  C   UNL A   1      38.871  31.063  36.165  1.00  0.00     0.308 C 
ATOM     11  O   UNL A   1      39.379  29.941  36.146  1.00  0.00    -0.247 OA
ATOM     12  N   UNL A   1      38.455  31.616  37.344  1.00  0.00    -0.204 N 
ATOM     13  C   UNL A   1      38.946  32.704  37.830  1.00  0.00     0.319 C 
ATOM     14  H   UNL A   1      37.743  31.160  37.848  1.00  0.00     0.316 HD
ATOM     15  S   UNL A   1      40.187  33.706  37.023  1.00  0.00    -0.029 SA
ATOM     16  N   UNL A   1      38.533  33.335  39.005  1.00  0.00    -0.216 N 
ATOM     17  C   UNL A   1      40.149  34.900  38.374  1.00  0.00     0.120 C 
ATOM     18  C   UNL A   1      38.732  34.772  38.949  1.00  0.00     0.212 C 
ATOM     19  C   UNL A   1      40.319  36.372  38.113  1.00  0.00     0.156 C 
ATOM     20  C   UNL A   1      38.764  35.613  40.204  1.00  0.00     0.188 C 
ATOM     21  S   UNL A   1      39.697  37.055  39.660  1.00  0.00     0.155 S 
ATOM     22  O   UNL A   1      40.819  37.228  40.562  1.00  0.00    -0.229 OA
ATOM     23  O   UNL A   1      38.773  38.122  39.358  1.00  0.00    -0.229 OA
BRANCH  16  24
ATOM     24  C   UNL A   1      37.984  32.697  40.117  1.00  0.00     0.132 A 
ATOM     25  C   UNL A   1      38.795  32.145  41.139  1.00  0.00     0.056 A 
ATOM     26  C   UNL A   1      36.587  32.612  40.251  1.00  0.00     0.102 A 
ATOM     27  C   UNL A   1      38.236  31.574  42.291  1.00  0.00     0.055 A 
ATOM     28  C   UNL A   1      36.061  32.046  41.393  1.00  0.00     0.170 A 
ATOM     29  C   UNL A   1      36.865  31.560  42.395  1.00  0.00     0.166 A 
ATOM     30  O   UNL A   1      34.739  31.936  41.692  1.00  0.00    -0.453 OA
ATOM     31  O   UNL A   1      36.148  31.130  43.466  1.00  0.00    -0.454 OA
ATOM     32  C   UNL A   1      34.818  31.532  43.076  1.00  0.00     0.468 C 
ENDBRANCH  16  24
ENDBRANCH   9  10
ENDBRANCH   8   9
ENDBRANCH   5   8
ENDBRANCH   3   4
ENDBRANCH   2   3
ENDBRANCH   1   2
BRANCH   1  33
ATOM     33  C   UNL A   1      35.032  33.607  30.453  1.00  0.00     0.002 C 
BRANCH  33  34
ATOM     34  C   UNL A   1      34.124  33.600  29.230  1.00  0.00     0.021 C 
BRANCH  34  35
ATOM     35  C   UNL A   1      34.689  32.827  28.046  1.00  0.00     0.116 C 
BRANCH  35  36
ATOM     36  N   UNL A   1      33.922  31.622  27.759  1.00  0.00    -0.352 N 
ATOM     37  C   UNL A   1      34.385  30.328  27.712  1.00  0.00     0.251 C 
ATOM     38  H   UNL A   1      32.963  31.748  27.577  1.00  0.00     0.163 HD
ATOM     39  O   UNL A   1      33.700  29.411  27.279  1.00  0.00    -0.269 OA
BRANCH  37  40
ATOM     40  C   UNL A   1      35.756  30.075  28.192  1.00  0.00     0.039 A 
ATOM     41  C   UNL A   1      35.952  29.608  29.493  1.00  0.00     0.014 A 
ATOM     42  C   UNL A   1      36.826  30.198  27.301  1.00  0.00     0.014 A 
ATOM     43  C   UNL A   1      37.229  29.205  29.882  1.00  0.00     0.010 A 
ATOM     44  C   UNL A   1      38.073  29.703  27.662  1.00  0.00     0.010 A 
ATOM     45  C   UNL A   1      38.289  29.213  28.959  1.00  0.00    -0.014 A 
BRANCH  45  46
ATOM     46  C   UNL A   1      39.640  28.728  29.335  1.00  0.00     0.031 A 
ATOM     47  C   UNL A   1      40.539  29.598  30.169  1.00  0.00     0.074 A 
ATOM     48  C   UNL A   1      40.076  27.536  28.884  1.00  0.00     0.049 A 
ATOM     49  N   UNL A   1      41.764  29.373  30.571  1.00  0.00    -0.248 NA
ATOM     50  C   UNL A   1      40.003  30.906  30.582  1.00  0.00     0.031 C 
ATOM     51  C   UNL A   1      39.316  26.620  28.029  1.00  0.00     0.029 A 
ATOM     52  N   UNL A   1      41.270  26.889  29.082  1.00  0.00    -0.354 N 
ATOM     53  C   UNL A   1      42.143  30.512  31.271  1.00  0.00     0.074 A 
ATOM     54  C   UNL A   1      41.049  31.451  31.180  1.00  0.00     0.031 C 
ATOM     55  C   UNL A   1      40.048  25.517  27.807  1.00  0.00     0.029 A 
ATOM     56  C   UNL A   1      41.342  25.665  28.464  1.00  0.00     0.049 A 
ATOM     57  H   UNL A   1      42.005  27.267  29.617  1.00  0.00     0.167 HD
ATOM     58  C   UNL A   1      43.289  30.746  31.951  1.00  0.00     0.031 A 
ATOM     59  C   UNL A   1      42.343  24.763  28.427  1.00  0.00     0.031 A 
ATOM     60  C   UNL A   1      44.376  29.810  32.040  1.00  0.00     0.049 A 
ATOM     61  C   UNL A   1      43.618  25.057  29.170  1.00  0.00     0.074 A 
ATOM     62  C   UNL A   1      45.562  29.930  32.743  1.00  0.00     0.029 A 
ATOM     63  N   UNL A   1      44.411  28.580  31.399  1.00  0.00    -0.354 N 
ATOM     64  N   UNL A   1      43.933  26.106  29.889  1.00  0.00    -0.248 NA
ATOM     65  C   UNL A   1      44.670  24.032  29.107  1.00  0.00     0.031 C 
ATOM     66  C   UNL A   1      46.341  28.799  32.478  1.00  0.00     0.029 A 
ATOM     67  C   UNL A   1      45.610  27.943  31.668  1.00  0.00     0.049 A 
ATOM     68  H   UNL A   1      43.690  28.215  30.837  1.00  0.00     0.167 HD
ATOM     69  C   UNL A   1      45.205  25.858  30.387  1.00  0.00     0.074 A 
ATOM     70  C   UNL A   1      45.594  24.549  29.904  1.00  0.00     0.031 C 
ATOM     71  C   UNL A   1      45.982  26.641  31.175  1.00  0.00     0.031 A 
BRANCH  58  72
ATOM     72  C   UNL A   1      43.422  32.075  32.646  1.00  0.00    -0.014 A 
ATOM     73  C   UNL A   1      43.983  33.186  31.994  1.00  0.00     0.009 A 
ATOM     74  C   UNL A   1      42.961  32.224  33.963  1.00  0.00     0.009 A 
ATOM     75  C   UNL A   1      44.118  34.405  32.661  1.00  0.00     0.001 A 
ATOM     76  C   UNL A   1      43.067  33.453  34.615  1.00  0.00     0.001 A 
ATOM     77  C   UNL A   1      43.655  34.539  33.968  1.00  0.00     0.000 A 
ENDBRANCH  58  72
BRANCH  59  78
ATOM     78  C   UNL A   1      42.177  23.493  27.670  1.00  0.00    -0.014 A 
ATOM     79  C   UNL A   1      41.592  22.369  28.274  1.00  0.00     0.009 A 
ATOM     80  C   UNL A   1      42.614  23.394  26.339  1.00  0.00     0.009 A 
ATOM     81  C   UNL A   1      41.476  21.167  27.572  1.00  0.00     0.001 A 
ATOM     82  C   UNL A   1      42.466  22.201  25.629  1.00  0.00     0.001 A 
ATOM     83  C   UNL A   1      41.908  21.085  26.249  1.00  0.00     0.000 A 
ENDBRANCH  59  78
BRANCH  71  84
ATOM     84  C   UNL A   1      47.316  26.088  31.595  1.00  0.00    -0.014 A 
ATOM     85  C   UNL A   1      48.448  26.204  30.775  1.00  0.00     0.009 A 
ATOM     86  C   UNL A   1      47.446  25.481  32.855  1.00  0.00     0.009 A 
ATOM     87  C   UNL A   1      49.677  25.689  31.193  1.00  0.00     0.001 A 
ATOM     88  C   UNL A   1      48.683  24.998  33.284  1.00  0.00     0.001 A 
ATOM     89  C   UNL A   1      49.795  25.093  32.450  1.00  0.00     0.000 A 
ENDBRANCH  71  84
ENDBRANCH  45  46
ENDBRANCH  37  40
ENDBRANCH  35  36
ENDBRANCH  34  35
ENDBRANCH  33  34
ENDBRANCH   1  33
TORSDOF 16
ENDMDL
