MODEL 1
REMARK VINA RESULT:     -10.4      0.000      0.000
REMARK SMILES O=C(NCCCCCCNC(=O)[C@H]1COCCN1C(=O)c1ccc(Br)nc1)c1ccc(-c2c3nc(c(-c4ccccc4)c4ccc([nH]4)c(-c4ccccc4)c4nc(c(-c5ccccc5)c5ccc2[nH]5)C=C4)C=C3)cc1
REMARK SMILES IDX 6 1 5 2 4 3 3 4 1 5 2 6 28 8 29 9 75 10 30 11 74 12 31 13
REMARK SMILES IDX 32 14 33 15 68 16 34 17 73 18 67 19 69 20 35 21 72 22 66 23
REMARK SMILES IDX 65 24 36 26 58 27 43 28 57 29 44 30 47 31 56 32 70 33 45 34
REMARK SMILES IDX 46 35 55 37 71 38 48 39 37 40 38 41 42 42 39 43 41 44 40 45
REMARK SMILES IDX 59 46 60 47 64 48 61 49 63 50 62 51 49 52 50 53 54 54 51 55
REMARK SMILES IDX 53 56 52 57 7 58 8 59 9 60 10 61 11 62 12 64 13 65 14 66
REMARK SMILES IDX 18 67 15 68 17 69 16 70 19 71 20 72 21 73 22 74 27 75 23 76
REMARK SMILES IDX 26 77 24 78 25 79
REMARK H PARENT 3 7 69 25 47 36 10 63
REMARK Flexibility Score: inf
ROOT
ATOM      1  C   UNL A   1      33.215  29.342  24.833  1.00  0.00     0.002 C 
ENDROOT
BRANCH   1   2
ATOM      2  C   UNL A   1      33.971  28.375  25.748  1.00  0.00     0.021 C 
BRANCH   2   3
ATOM      3  C   UNL A   1      33.652  28.529  27.229  1.00  0.00     0.116 C 
BRANCH   3   4
ATOM      4  N   UNL A   1      33.609  29.923  27.645  1.00  0.00    -0.352 N 
ATOM      5  O   UNL A   1      34.295  31.789  28.715  1.00  0.00    -0.269 OA
ATOM      6  C   UNL A   1      34.569  30.677  28.273  1.00  0.00     0.251 C 
ATOM      7  H   UNL A   1      32.767  30.394  27.448  1.00  0.00     0.163 HD
BRANCH   6   8
ATOM      8  C   UNL A   1      35.935  30.134  28.440  1.00  0.00     0.039 A 
ATOM      9  C   UNL A   1      36.328  29.556  29.649  1.00  0.00     0.014 A 
ATOM     10  C   UNL A   1      36.833  30.207  27.371  1.00  0.00     0.014 A 
ATOM     11  C   UNL A   1      37.657  29.198  29.841  1.00  0.00     0.010 A 
ATOM     12  C   UNL A   1      38.149  29.766  27.539  1.00  0.00     0.010 A 
ATOM     13  C   UNL A   1      38.583  29.297  28.788  1.00  0.00    -0.014 A 
BRANCH  13  14
ATOM     14  C   UNL A   1      39.990  28.880  29.018  1.00  0.00     0.031 A 
ATOM     15  C   UNL A   1      40.954  29.773  29.751  1.00  0.00     0.074 A 
ATOM     16  C   UNL A   1      40.385  27.664  28.598  1.00  0.00     0.049 A 
ATOM     17  N   UNL A   1      42.199  29.539  30.086  1.00  0.00    -0.248 NA
ATOM     18  C   UNL A   1      40.467  31.102  30.151  1.00  0.00     0.031 C 
ATOM     19  C   UNL A   1      39.544  26.705  27.875  1.00  0.00     0.029 A 
ATOM     20  N   UNL A   1      41.582  27.010  28.744  1.00  0.00    -0.354 N 
ATOM     21  C   UNL A   1      42.650  30.695  30.711  1.00  0.00     0.074 A 
ATOM     22  C   UNL A   1      41.553  31.639  30.688  1.00  0.00     0.031 C 
ATOM     23  C   UNL A   1      40.230  25.567  27.695  1.00  0.00     0.029 A 
ATOM     24  C   UNL A   1      41.574  25.734  28.237  1.00  0.00     0.049 A 
ATOM     25  H   UNL A   1      42.370  27.417  29.171  1.00  0.00     0.167 HD
ATOM     26  C   UNL A   1      43.864  30.947  31.258  1.00  0.00     0.031 A 
ATOM     27  C   UNL A   1      42.540  24.799  28.208  1.00  0.00     0.031 A 
ATOM     28  C   UNL A   1      44.950  30.003  31.292  1.00  0.00     0.049 A 
ATOM     29  C   UNL A   1      43.878  25.109  28.810  1.00  0.00     0.074 A 
ATOM     30  C   UNL A   1      46.206  30.153  31.859  1.00  0.00     0.029 A 
ATOM     31  N   UNL A   1      44.913  28.734  30.735  1.00  0.00    -0.354 N 
ATOM     32  N   UNL A   1      44.274  26.195  29.429  1.00  0.00    -0.248 NA
ATOM     33  C   UNL A   1      44.902  24.061  28.712  1.00  0.00     0.031 C 
ATOM     34  C   UNL A   1      46.943  28.992  31.603  1.00  0.00     0.029 A 
ATOM     35  C   UNL A   1      46.130  28.099  30.925  1.00  0.00     0.049 A 
ATOM     36  H   UNL A   1      44.137  28.343  30.273  1.00  0.00     0.167 HD
ATOM     37  C   UNL A   1      45.583  25.949  29.818  1.00  0.00     0.074 A 
ATOM     38  C   UNL A   1      45.908  24.607  29.378  1.00  0.00     0.031 C 
ATOM     39  C   UNL A   1      46.439  26.764  30.483  1.00  0.00     0.031 A 
BRANCH  26  40
ATOM     40  C   UNL A   1      44.093  32.315  31.840  1.00  0.00    -0.014 A 
ATOM     41  C   UNL A   1      44.596  33.369  31.061  1.00  0.00     0.009 A 
ATOM     42  C   UNL A   1      43.767  32.560  33.183  1.00  0.00     0.009 A 
ATOM     43  C   UNL A   1      44.798  34.631  31.625  1.00  0.00     0.001 A 
ATOM     44  C   UNL A   1      43.944  33.829  33.737  1.00  0.00     0.001 A 
ATOM     45  C   UNL A   1      44.468  34.862  32.961  1.00  0.00     0.000 A 
ENDBRANCH  26  40
BRANCH  27  46
ATOM     46  C   UNL A   1      42.268  23.473  27.595  1.00  0.00    -0.014 A 
ATOM     47  C   UNL A   1      42.617  23.222  26.259  1.00  0.00     0.009 A 
ATOM     48  C   UNL A   1      41.670  22.449  28.346  1.00  0.00     0.009 A 
ATOM     49  C   UNL A   1      42.350  21.978  25.682  1.00  0.00     0.001 A 
ATOM     50  C   UNL A   1      41.432  21.198  27.776  1.00  0.00     0.001 A 
ATOM     51  C   UNL A   1      41.764  20.967  26.442  1.00  0.00     0.000 A 
ENDBRANCH  27  46
BRANCH  39  52
ATOM     52  C   UNL A   1      47.793  26.204  30.812  1.00  0.00    -0.014 A 
ATOM     53  C   UNL A   1      48.837  26.212  29.873  1.00  0.00     0.009 A 
ATOM     54  C   UNL A   1      48.031  25.675  32.090  1.00  0.00     0.009 A 
ATOM     55  C   UNL A   1      50.080  25.664  30.195  1.00  0.00     0.001 A 
ATOM     56  C   UNL A   1      49.284  25.154  32.418  1.00  0.00     0.001 A 
ATOM     57  C   UNL A   1      50.302  25.139  31.467  1.00  0.00     0.000 A 
ENDBRANCH  39  52
ENDBRANCH  13  14
ENDBRANCH   6   8
ENDBRANCH   3   4
ENDBRANCH   2   3
ENDBRANCH   1   2
BRANCH   1  58
ATOM     58  C   UNL A   1      33.027  28.861  23.389  1.00  0.00     0.002 C 
BRANCH  58  59
ATOM     59  C   UNL A   1      31.583  28.891  22.871  1.00  0.00     0.021 C 
BRANCH  59  60
ATOM     60  C   UNL A   1      31.064  27.529  22.427  1.00  0.00     0.116 C 
BRANCH  60  61
ATOM     61  N   UNL A   1      30.092  26.999  23.353  1.00  0.00    -0.354 N 
ATOM     62  C   UNL A   1      30.276  26.225  24.461  1.00  0.00     0.245 C 
ATOM     63  H   UNL A   1      29.157  27.231  23.155  1.00  0.00     0.163 HD
ATOM     64  O   UNL A   1      29.278  26.017  25.154  1.00  0.00    -0.273 OA
BRANCH  62  65
ATOM     65  C   UNL A   1      31.700  25.749  24.867  1.00  0.00     0.200 C 
ATOM     66  C   UNL A   1      31.726  25.399  26.373  1.00  0.00     0.195 C 
ATOM     67  N   UNL A   1      32.200  24.575  24.105  1.00  0.00    -0.322 N 
ATOM     68  O   UNL A   1      31.040  24.171  26.677  1.00  0.00    -0.377 OA
ATOM     69  C   UNL A   1      31.459  23.346  24.409  1.00  0.00     0.149 C 
ATOM     70  C   UNL A   1      31.537  23.064  25.912  1.00  0.00     0.181 C 
BRANCH  67  71
ATOM     71  C   UNL A   1      33.319  24.478  23.284  1.00  0.00     0.256 C 
ATOM     72  O   UNL A   1      33.313  24.813  22.101  1.00  0.00    -0.269 OA
BRANCH  71  73
ATOM     73  C   UNL A   1      34.610  23.999  23.810  1.00  0.00     0.058 A 
ATOM     74  C   UNL A   1      35.425  23.077  23.157  1.00  0.00     0.018 A 
ATOM     75  C   UNL A   1      35.045  24.514  25.026  1.00  0.00     0.126 A 
ATOM     76  C   UNL A   1      36.592  22.642  23.788  1.00  0.00     0.037 A 
ATOM     77  N   UNL A   1      36.161  24.094  25.667  1.00  0.00    -0.249 NA
ATOM     78  C   UNL A   1      36.910  23.161  25.038  1.00  0.00     0.106 A 
ATOM     79  Br  UNL A   1      38.455  22.527  25.932  1.00  0.00    -0.029 Br
ENDBRANCH  71  73
ENDBRANCH  67  71
ENDBRANCH  62  65
ENDBRANCH  60  61
ENDBRANCH  59  60
ENDBRANCH  58  59
ENDBRANCH   1  58
TORSDOF 15
ENDMDL
MODEL 2
REMARK VINA RESULT:     -10.4      3.469      5.319
REMARK SMILES O=C(NCCCCCCNC(=O)[C@H]1COCCN1C(=O)c1ccc(Br)nc1)c1ccc(-c2c3nc(c(-c4ccccc4)c4ccc([nH]4)c(-c4ccccc4)c4nc(c(-c5ccccc5)c5ccc2[nH]5)C=C4)C=C3)cc1
REMARK SMILES IDX 6 1 5 2 4 3 3 4 1 5 2 6 28 8 29 9 75 10 30 11 74 12 31 13
REMARK SMILES IDX 32 14 33 15 68 16 34 17 73 18 67 19 69 20 35 21 72 22 66 23
REMARK SMILES IDX 65 24 36 26 58 27 43 28 57 29 44 30 47 31 56 32 70 33 45 34
REMARK SMILES IDX 46 35 55 37 71 38 48 39 37 40 38 41 42 42 39 43 41 44 40 45
REMARK SMILES IDX 59 46 60 47 64 48 61 49 63 50 62 51 49 52 50 53 54 54 51 55
REMARK SMILES IDX 53 56 52 57 7 58 8 59 9 60 10 61 11 62 12 64 13 65 14 66
REMARK SMILES IDX 18 67 15 68 17 69 16 70 19 71 20 72 21 73 22 74 27 75 23 76
REMARK SMILES IDX 26 77 24 78 25 79
REMARK H PARENT 3 7 69 25 47 36 10 63
REMARK Flexibility Score: inf
ROOT
ATOM      1  C   UNL A   1      31.682  30.637  26.283  1.00  0.00     0.002 C 
ENDROOT
BRANCH   1   2
ATOM      2  C   UNL A   1      31.434  32.056  26.800  1.00  0.00     0.021 C 
BRANCH   2   3
ATOM      3  C   UNL A   1      32.699  32.843  27.117  1.00  0.00     0.116 C 
BRANCH   3   4
ATOM      4  N   UNL A   1      32.409  34.179  27.616  1.00  0.00    -0.352 N 
ATOM      5  O   UNL A   1      32.524  35.931  29.035  1.00  0.00    -0.269 OA
ATOM      6  C   UNL A   1      33.018  34.884  28.625  1.00  0.00     0.251 C 
ATOM      7  H   UNL A   1      31.669  34.644  27.165  1.00  0.00     0.163 HD
BRANCH   6   8
ATOM      8  C   UNL A   1      34.261  34.367  29.236  1.00  0.00     0.039 A 
ATOM      9  C   UNL A   1      35.501  34.611  28.640  1.00  0.00     0.014 A 
ATOM     10  C   UNL A   1      34.183  33.628  30.419  1.00  0.00     0.014 A 
ATOM     11  C   UNL A   1      36.638  33.985  29.137  1.00  0.00     0.010 A 
ATOM     12  C   UNL A   1      35.342  33.070  30.967  1.00  0.00     0.010 A 
ATOM     13  C   UNL A   1      36.573  33.209  30.307  1.00  0.00    -0.014 A 
BRANCH  13  14
ATOM     14  C   UNL A   1      37.812  32.577  30.827  1.00  0.00     0.031 A 
ATOM     15  C   UNL A   1      38.464  33.069  32.090  1.00  0.00     0.074 A 
ATOM     16  C   UNL A   1      38.326  31.518  30.173  1.00  0.00     0.049 A 
ATOM     17  N   UNL A   1      39.515  32.594  32.713  1.00  0.00    -0.248 NA
ATOM     18  C   UNL A   1      37.871  34.251  32.735  1.00  0.00     0.031 C 
ATOM     19  C   UNL A   1      37.786  30.946  28.936  1.00  0.00     0.029 A 
ATOM     20  N   UNL A   1      39.396  30.714  30.470  1.00  0.00    -0.354 N 
ATOM     21  C   UNL A   1      39.724  33.430  33.803  1.00  0.00     0.074 A 
ATOM     22  C   UNL A   1      38.705  34.456  33.745  1.00  0.00     0.031 C 
ATOM     23  C   UNL A   1      38.489  29.850  28.615  1.00  0.00     0.029 A 
ATOM     24  C   UNL A   1      39.561  29.675  29.588  1.00  0.00     0.049 A 
ATOM     25  H   UNL A   1      39.987  30.867  31.242  1.00  0.00     0.167 HD
ATOM     26  C   UNL A   1      40.672  33.347  34.767  1.00  0.00     0.031 A 
ATOM     27  C   UNL A   1      40.475  28.688  29.560  1.00  0.00     0.031 A 
ATOM     28  C   UNL A   1      41.677  32.319  34.831  1.00  0.00     0.049 A 
ATOM     29  C   UNL A   1      41.522  28.629  30.633  1.00  0.00     0.074 A 
ATOM     30  C   UNL A   1      42.658  32.130  35.791  1.00  0.00     0.029 A 
ATOM     31  N   UNL A   1      41.833  31.306  33.898  1.00  0.00    -0.354 N 
ATOM     32  N   UNL A   1      41.681  29.407  31.676  1.00  0.00    -0.248 NA
ATOM     33  C   UNL A   1      42.514  27.552  30.525  1.00  0.00     0.031 C 
ATOM     34  C   UNL A   1      43.436  31.030  35.412  1.00  0.00     0.029 A 
ATOM     35  C   UNL A   1      42.907  30.502  34.246  1.00  0.00     0.049 A 
ATOM     36  H   UNL A   1      41.265  31.177  33.104  1.00  0.00     0.167 HD
ATOM     37  C   UNL A   1      42.774  28.896  32.363  1.00  0.00     0.074 A 
ATOM     38  C   UNL A   1      43.228  27.734  31.626  1.00  0.00     0.031 C 
ATOM     39  C   UNL A   1      43.347  29.349  33.504  1.00  0.00     0.031 A 
BRANCH  26  40
ATOM     40  C   UNL A   1      40.689  34.423  35.818  1.00  0.00    -0.014 A 
ATOM     41  C   UNL A   1      39.948  34.302  37.005  1.00  0.00     0.009 A 
ATOM     42  C   UNL A   1      41.489  35.562  35.632  1.00  0.00     0.009 A 
ATOM     43  C   UNL A   1      39.983  35.315  37.966  1.00  0.00     0.001 A 
ATOM     44  C   UNL A   1      41.543  36.559  36.606  1.00  0.00     0.001 A 
ATOM     45  C   UNL A   1      40.783  36.440  37.769  1.00  0.00     0.000 A 
ENDBRANCH  26  40
BRANCH  27  46
ATOM     46  C   UNL A   1      40.430  27.668  28.482  1.00  0.00    -0.014 A 
ATOM     47  C   UNL A   1      41.124  27.872  27.279  1.00  0.00     0.009 A 
ATOM     48  C   UNL A   1      39.703  26.480  28.654  1.00  0.00     0.009 A 
ATOM     49  C   UNL A   1      41.071  26.916  26.262  1.00  0.00     0.001 A 
ATOM     50  C   UNL A   1      39.677  25.513  27.648  1.00  0.00     0.001 A 
ATOM     51  C   UNL A   1      40.353  25.736  26.450  1.00  0.00     0.000 A 
ENDBRANCH  27  46
BRANCH  39  52
ATOM     52  C   UNL A   1      44.501  28.557  34.046  1.00  0.00    -0.014 A 
ATOM     53  C   UNL A   1      45.827  28.863  33.700  1.00  0.00     0.009 A 
ATOM     54  C   UNL A   1      44.257  27.496  34.932  1.00  0.00     0.009 A 
ATOM     55  C   UNL A   1      46.882  28.096  34.199  1.00  0.00     0.001 A 
ATOM     56  C   UNL A   1      45.315  26.749  35.451  1.00  0.00     0.001 A 
ATOM     57  C   UNL A   1      46.625  27.042  35.075  1.00  0.00     0.000 A 
ENDBRANCH  39  52
ENDBRANCH  13  14
ENDBRANCH   6   8
ENDBRANCH   3   4
ENDBRANCH   2   3
ENDBRANCH   1   2
BRANCH   1  58
ATOM     58  C   UNL A   1      32.851  29.896  26.944  1.00  0.00     0.002 C 
BRANCH  58  59
ATOM     59  C   UNL A   1      32.758  28.365  26.912  1.00  0.00     0.021 C 
BRANCH  59  60
ATOM     60  C   UNL A   1      31.405  27.844  26.442  1.00  0.00     0.116 C 
BRANCH  60  61
ATOM     61  N   UNL A   1      31.181  26.482  26.863  1.00  0.00    -0.354 N 
ATOM     62  C   UNL A   1      31.546  25.313  26.261  1.00  0.00     0.245 C 
ATOM     63  H   UNL A   1      30.692  26.382  27.711  1.00  0.00     0.163 HD
ATOM     64  O   UNL A   1      31.341  24.281  26.904  1.00  0.00    -0.273 OA
BRANCH  62  65
ATOM     65  C   UNL A   1      32.287  25.324  24.895  1.00  0.00     0.200 C 
ATOM     66  C   UNL A   1      33.253  24.117  24.813  1.00  0.00     0.195 C 
ATOM     67  N   UNL A   1      31.394  25.289  23.707  1.00  0.00    -0.322 N 
ATOM     68  O   UNL A   1      32.571  22.863  24.631  1.00  0.00    -0.377 OA
ATOM     69  C   UNL A   1      30.688  24.011  23.568  1.00  0.00     0.149 C 
ATOM     70  C   UNL A   1      31.708  22.872  23.486  1.00  0.00     0.181 C 
BRANCH  67  71
ATOM     71  C   UNL A   1      31.262  26.225  22.686  1.00  0.00     0.256 C 
ATOM     72  O   UNL A   1      31.825  26.113  21.598  1.00  0.00    -0.269 OA
BRANCH  71  73
ATOM     73  C   UNL A   1      30.387  27.402  22.840  1.00  0.00     0.058 A 
ATOM     74  C   UNL A   1      29.093  27.349  23.351  1.00  0.00     0.018 A 
ATOM     75  C   UNL A   1      30.896  28.641  22.467  1.00  0.00     0.126 A 
ATOM     76  C   UNL A   1      28.332  28.519  23.382  1.00  0.00     0.037 A 
ATOM     77  N   UNL A   1      30.172  29.784  22.468  1.00  0.00    -0.249 NA
ATOM     78  C   UNL A   1      28.902  29.700  22.920  1.00  0.00     0.106 A 
ATOM     79  Br  UNL A   1      27.854  31.279  22.894  1.00  0.00    -0.029 Br
ENDBRANCH  71  73
ENDBRANCH  67  71
ENDBRANCH  62  65
ENDBRANCH  60  61
ENDBRANCH  59  60
ENDBRANCH  58  59
ENDBRANCH   1  58
TORSDOF 15
ENDMDL
MODEL 3
REMARK VINA RESULT:     -10.4      2.826      7.573
REMARK SMILES O=C(NCCCCCCNC(=O)[C@H]1COCCN1C(=O)c1ccc(Br)nc1)c1ccc(-c2c3nc(c(-c4ccccc4)c4ccc([nH]4)c(-c4ccccc4)c4nc(c(-c5ccccc5)c5ccc2[nH]5)C=C4)C=C3)cc1
REMARK SMILES IDX 6 1 5 2 4 3 3 4 1 5 2 6 28 8 29 9 75 10 30 11 74 12 31 13
REMARK SMILES IDX 32 14 33 15 68 16 34 17 73 18 67 19 69 20 35 21 72 22 66 23
REMARK SMILES IDX 65 24 36 26 58 27 43 28 57 29 44 30 47 31 56 32 70 33 45 34
REMARK SMILES IDX 46 35 55 37 71 38 48 39 37 40 38 41 42 42 39 43 41 44 40 45
REMARK SMILES IDX 59 46 60 47 64 48 61 49 63 50 62 51 49 52 50 53 54 54 51 55
REMARK SMILES IDX 53 56 52 57 7 58 8 59 9 60 10 61 11 62 12 64 13 65 14 66
REMARK SMILES IDX 18 67 15 68 17 69 16 70 19 71 20 72 21 73 22 74 27 75 23 76
REMARK SMILES IDX 26 77 24 78 25 79
REMARK H PARENT 3 7 69 25 47 36 10 63
REMARK Flexibility Score: inf
ROOT
ATOM      1  C   UNL A   1      36.577  20.372  24.986  1.00  0.00     0.002 C 
ENDROOT
BRANCH   1   2
ATOM      2  C   UNL A   1      37.993  19.860  24.715  1.00  0.00     0.021 C 
BRANCH   2   3
ATOM      3  C   UNL A   1      38.991  20.137  25.833  1.00  0.00     0.116 C 
BRANCH   3   4
ATOM      4  N   UNL A   1      40.051  19.142  25.889  1.00  0.00    -0.352 N 
ATOM      5  O   UNL A   1      42.174  18.377  25.951  1.00  0.00    -0.269 OA
ATOM      6  C   UNL A   1      41.394  19.310  26.122  1.00  0.00     0.251 C 
ATOM      7  H   UNL A   1      39.764  18.213  25.736  1.00  0.00     0.163 HD
BRANCH   6   8
ATOM      8  C   UNL A   1      41.904  20.628  26.557  1.00  0.00     0.039 A 
ATOM      9  C   UNL A   1      41.984  20.945  27.915  1.00  0.00     0.014 A 
ATOM     10  C   UNL A   1      42.305  21.556  25.593  1.00  0.00     0.014 A 
ATOM     11  C   UNL A   1      42.312  22.240  28.301  1.00  0.00     0.010 A 
ATOM     12  C   UNL A   1      42.719  22.832  25.988  1.00  0.00     0.010 A 
ATOM     13  C   UNL A   1      42.686  23.198  27.343  1.00  0.00    -0.014 A 
BRANCH  13  14
ATOM     14  C   UNL A   1      43.058  24.564  27.790  1.00  0.00     0.031 A 
ATOM     15  C   UNL A   1      44.494  25.012  27.807  1.00  0.00     0.074 A 
ATOM     16  C   UNL A   1      42.082  25.422  28.142  1.00  0.00     0.049 A 
ATOM     17  N   UNL A   1      44.986  26.187  28.113  1.00  0.00    -0.248 NA
ATOM     18  C   UNL A   1      45.512  24.014  27.444  1.00  0.00     0.031 C 
ATOM     19  C   UNL A   1      40.650  25.107  28.169  1.00  0.00     0.029 A 
ATOM     20  N   UNL A   1      42.138  26.740  28.515  1.00  0.00    -0.354 N 
ATOM     21  C   UNL A   1      46.366  26.064  28.006  1.00  0.00     0.074 A 
ATOM     22  C   UNL A   1      46.636  24.693  27.628  1.00  0.00     0.031 C 
ATOM     23  C   UNL A   1      39.962  26.216  28.477  1.00  0.00     0.029 A 
ATOM     24  C   UNL A   1      40.904  27.302  28.726  1.00  0.00     0.049 A 
ATOM     25  H   UNL A   1      42.982  27.235  28.619  1.00  0.00     0.167 HD
ATOM     26  C   UNL A   1      47.320  27.006  28.198  1.00  0.00     0.031 A 
ATOM     27  C   UNL A   1      40.562  28.553  29.083  1.00  0.00     0.031 A 
ATOM     28  C   UNL A   1      47.051  28.373  28.561  1.00  0.00     0.049 A 
ATOM     29  C   UNL A   1      41.640  29.573  29.302  1.00  0.00     0.074 A 
ATOM     30  C   UNL A   1      47.950  29.411  28.741  1.00  0.00     0.029 A 
ATOM     31  N   UNL A   1      45.788  28.892  28.802  1.00  0.00    -0.354 N 
ATOM     32  N   UNL A   1      42.937  29.447  29.160  1.00  0.00    -0.248 NA
ATOM     33  C   UNL A   1      41.204  30.909  29.728  1.00  0.00     0.031 C 
ATOM     34  C   UNL A   1      47.234  30.547  29.137  1.00  0.00     0.029 A 
ATOM     35  C   UNL A   1      45.886  30.230  29.150  1.00  0.00     0.049 A 
ATOM     36  H   UNL A   1      44.947  28.386  28.735  1.00  0.00     0.167 HD
ATOM     37  C   UNL A   1      43.470  30.695  29.451  1.00  0.00     0.074 A 
ATOM     38  C   UNL A   1      42.354  31.566  29.763  1.00  0.00     0.031 C 
ATOM     39  C   UNL A   1      44.768  31.085  29.457  1.00  0.00     0.031 A 
BRANCH  26  40
ATOM     40  C   UNL A   1      48.756  26.581  28.051  1.00  0.00    -0.014 A 
ATOM     41  C   UNL A   1      49.505  26.130  29.149  1.00  0.00     0.009 A 
ATOM     42  C   UNL A   1      49.357  26.599  26.782  1.00  0.00     0.009 A 
ATOM     43  C   UNL A   1      50.835  25.739  28.984  1.00  0.00     0.001 A 
ATOM     44  C   UNL A   1      50.678  26.182  26.616  1.00  0.00     0.001 A 
ATOM     45  C   UNL A   1      51.420  25.761  27.718  1.00  0.00     0.000 A 
ENDBRANCH  26  40
BRANCH  27  46
ATOM     46  C   UNL A   1      39.129  28.912  29.243  1.00  0.00    -0.014 A 
ATOM     47  C   UNL A   1      38.398  29.422  28.159  1.00  0.00     0.009 A 
ATOM     48  C   UNL A   1      38.483  28.735  30.477  1.00  0.00     0.009 A 
ATOM     49  C   UNL A   1      37.054  29.769  28.316  1.00  0.00     0.001 A 
ATOM     50  C   UNL A   1      37.133  29.055  30.622  1.00  0.00     0.001 A 
ATOM     51  C   UNL A   1      36.422  29.580  29.544  1.00  0.00     0.000 A 
ENDBRANCH  27  46
BRANCH  39  52
ATOM     52  C   UNL A   1      45.044  32.527  29.770  1.00  0.00    -0.014 A 
ATOM     53  C   UNL A   1      45.099  33.498  28.758  1.00  0.00     0.009 A 
ATOM     54  C   UNL A   1      45.235  32.922  31.103  1.00  0.00     0.009 A 
ATOM     55  C   UNL A   1      45.380  34.829  29.072  1.00  0.00     0.001 A 
ATOM     56  C   UNL A   1      45.487  34.258  31.416  1.00  0.00     0.001 A 
ATOM     57  C   UNL A   1      45.572  35.208  30.400  1.00  0.00     0.000 A 
ENDBRANCH  39  52
ENDBRANCH  13  14
ENDBRANCH   6   8
ENDBRANCH   3   4
ENDBRANCH   2   3
ENDBRANCH   1   2
BRANCH   1  58
ATOM     58  C   UNL A   1      36.499  21.715  25.722  1.00  0.00     0.002 C 
BRANCH  58  59
ATOM     59  C   UNL A   1      36.917  22.940  24.897  1.00  0.00     0.021 C 
BRANCH  59  60
ATOM     60  C   UNL A   1      35.787  23.528  24.060  1.00  0.00     0.116 C 
BRANCH  60  61
ATOM     61  N   UNL A   1      35.020  24.498  24.804  1.00  0.00    -0.354 N 
ATOM     62  C   UNL A   1      33.920  24.320  25.592  1.00  0.00     0.245 C 
ATOM     63  H   UNL A   1      35.338  25.426  24.733  1.00  0.00     0.163 HD
ATOM     64  O   UNL A   1      33.534  25.307  26.221  1.00  0.00    -0.273 OA
BRANCH  62  65
ATOM     65  C   UNL A   1      33.286  22.910  25.760  1.00  0.00     0.200 C 
ATOM     66  C   UNL A   1      32.676  22.776  27.175  1.00  0.00     0.195 C 
ATOM     67  N   UNL A   1      32.232  22.584  24.763  1.00  0.00    -0.322 N 
ATOM     68  O   UNL A   1      31.463  23.532  27.339  1.00  0.00    -0.377 OA
ATOM     69  C   UNL A   1      31.022  23.395  24.934  1.00  0.00     0.149 C 
ATOM     70  C   UNL A   1      30.476  23.202  26.351  1.00  0.00     0.181 C 
BRANCH  67  71
ATOM     71  C   UNL A   1      32.206  21.556  23.825  1.00  0.00     0.256 C 
ATOM     72  O   UNL A   1      32.063  21.755  22.620  1.00  0.00    -0.269 OA
BRANCH  71  73
ATOM     73  C   UNL A   1      32.394  20.151  24.228  1.00  0.00     0.058 A 
ATOM     74  C   UNL A   1      32.590  19.737  25.543  1.00  0.00     0.018 A 
ATOM     75  C   UNL A   1      32.354  19.181  23.233  1.00  0.00     0.126 A 
ATOM     76  C   UNL A   1      32.831  18.385  25.796  1.00  0.00     0.037 A 
ATOM     77  N   UNL A   1      32.604  17.868  23.450  1.00  0.00    -0.249 NA
ATOM     78  C   UNL A   1      32.844  17.497  24.727  1.00  0.00     0.106 A 
ATOM     79  Br  UNL A   1      33.236  15.672  25.051  1.00  0.00    -0.029 Br
ENDBRANCH  71  73
ENDBRANCH  67  71
ENDBRANCH  62  65
ENDBRANCH  60  61
ENDBRANCH  59  60
ENDBRANCH  58  59
ENDBRANCH   1  58
TORSDOF 15
ENDMDL
