MODEL 1
REMARK VINA RESULT:     -10.1      0.000      0.000
REMARK SMILES [NH3+]CCOCC(=O)N[C@H](C(=O)NCCCCCCNC(=O)c1ccc(-c2c3nc(c(-c4ccccc4)c4ccc([nH]4)c(-c4ccccc4)c4nc(c(-c5ccccc5)c5ccc2[nH]5)C=C4)C=C3)cc1)C1CCCCC1
REMARK SMILES IDX 13 1 12 2 10 3 11 4 9 6 8 7 6 8 7 9 5 11 4 12 3 13 2 14 1 15
REMARK SMILES IDX 70 19 71 20 75 21 72 22 74 23 73 24 14 25 15 26 16 27 17 28
REMARK SMILES IDX 18 29 19 30 20 31 21 33 22 34 23 35 69 36 24 37 68 38 25 39
REMARK SMILES IDX 26 40 27 41 62 42 28 43 67 44 61 45 63 46 29 47 66 48 60 49
REMARK SMILES IDX 59 50 30 52 52 53 37 54 51 55 38 56 41 57 50 58 64 59 39 60
REMARK SMILES IDX 40 61 49 63 65 64 42 65 31 66 32 67 36 68 33 69 35 70 34 71
REMARK SMILES IDX 53 72 54 73 58 74 55 75 57 76 56 77 43 78 44 79 48 80 45 81
REMARK SMILES IDX 47 82 46 83
REMARK H PARENT 12 5 8 10 1 16 1 17 1 18 19 32 63 51 41 62
REMARK Flexibility Score: inf
ROOT
ATOM      1  C   UNL A   1      34.608  24.793  24.941  1.00  0.00     0.116 C 
ENDROOT
BRANCH   1   2
ATOM      2  N   UNL A   1      34.277  25.923  25.791  1.00  0.00    -0.354 N 
ATOM      3  C   UNL A   1      33.072  26.543  25.993  1.00  0.00     0.242 C 
ATOM      4  O   UNL A   1      33.026  27.483  26.790  1.00  0.00    -0.273 OA
ATOM      5  H   UNL A   1      35.032  26.298  26.300  1.00  0.00     0.163 HD
BRANCH   3   6
ATOM      6  C   UNL A   1      31.808  25.923  25.366  1.00  0.00     0.174 C 
BRANCH   6   7
ATOM      7  N   UNL A   1      31.335  24.979  26.409  1.00  0.00    -0.342 N 
ATOM      8  C   UNL A   1      31.060  23.651  26.476  1.00  0.00     0.246 C 
ATOM      9  O   UNL A   1      30.279  23.298  27.371  1.00  0.00    -0.272 OA
ATOM     10  H   UNL A   1      31.184  25.430  27.271  1.00  0.00     0.164 HD
BRANCH   8  11
ATOM     11  C   UNL A   1      31.742  22.576  25.607  1.00  0.00     0.260 C 
BRANCH  11  12
ATOM     12  O   UNL A   1      31.302  21.241  25.505  1.00  0.00    -0.366 OA
BRANCH  12  13
ATOM     13  C   UNL A   1      32.188  20.351  24.826  1.00  0.00     0.222 C 
BRANCH  13  14
ATOM     14  C   UNL A   1      33.306  19.862  25.752  1.00  0.00     0.287 C 
BRANCH  14  15
ATOM     15  N   UNL A   1      32.947  18.661  26.511  1.00  0.00    -0.356 N 
ATOM     16  H   UNL A   1      33.767  18.321  27.014  1.00  0.00     0.344 HD
ATOM     17  H   UNL A   1      32.619  17.940  25.869  1.00  0.00     0.344 HD
ATOM     18  H   UNL A   1      32.209  18.887  27.177  1.00  0.00     0.344 HD
ENDBRANCH  14  15
ENDBRANCH  13  14
ENDBRANCH  12  13
ENDBRANCH  11  12
ENDBRANCH   8  11
ENDBRANCH   6   7
BRANCH   6  19
ATOM     19  C   UNL A   1      30.807  26.948  24.831  1.00  0.00     0.021 C 
ATOM     20  C   UNL A   1      31.379  28.079  23.957  1.00  0.00     0.006 C 
ATOM     21  C   UNL A   1      29.709  26.236  24.023  1.00  0.00     0.006 C 
ATOM     22  C   UNL A   1      30.265  29.085  23.641  1.00  0.00     0.000 C 
ATOM     23  C   UNL A   1      28.566  27.193  23.713  1.00  0.00     0.000 C 
ATOM     24  C   UNL A   1      29.061  28.429  22.965  1.00  0.00     0.000 C 
ENDBRANCH   6  19
ENDBRANCH   3   6
ENDBRANCH   1   2
BRANCH   1  25
ATOM     25  C   UNL A   1      35.380  23.722  25.712  1.00  0.00     0.021 C 
BRANCH  25  26
ATOM     26  C   UNL A   1      36.632  23.217  24.983  1.00  0.00     0.002 C 
BRANCH  26  27
ATOM     27  C   UNL A   1      36.439  21.930  24.172  1.00  0.00     0.002 C 
BRANCH  27  28
ATOM     28  C   UNL A   1      37.181  20.706  24.715  1.00  0.00     0.021 C 
BRANCH  28  29
ATOM     29  C   UNL A   1      38.404  21.035  25.562  1.00  0.00     0.116 C 
BRANCH  29  30
ATOM     30  N   UNL A   1      39.333  19.918  25.636  1.00  0.00    -0.352 N 
ATOM     31  C   UNL A   1      40.658  19.915  25.997  1.00  0.00     0.251 C 
ATOM     32  H   UNL A   1      38.961  19.041  25.393  1.00  0.00     0.163 HD
ATOM     33  O   UNL A   1      41.351  18.919  25.809  1.00  0.00    -0.269 OA
BRANCH  31  34
ATOM     34  C   UNL A   1      41.255  21.126  26.593  1.00  0.00     0.039 A 
ATOM     35  C   UNL A   1      41.874  22.060  25.760  1.00  0.00     0.014 A 
ATOM     36  C   UNL A   1      41.189  21.347  27.972  1.00  0.00     0.014 A 
ATOM     37  C   UNL A   1      42.362  23.251  26.299  1.00  0.00     0.010 A 
ATOM     38  C   UNL A   1      41.607  22.565  28.498  1.00  0.00     0.010 A 
ATOM     39  C   UNL A   1      42.193  23.531  27.666  1.00  0.00    -0.014 A 
BRANCH  39  40
ATOM     40  C   UNL A   1      42.599  24.839  28.242  1.00  0.00     0.031 A 
ATOM     41  C   UNL A   1      41.579  25.920  28.461  1.00  0.00     0.074 A 
ATOM     42  C   UNL A   1      43.900  25.076  28.496  1.00  0.00     0.049 A 
ATOM     43  N   UNL A   1      41.755  27.148  28.876  1.00  0.00    -0.248 NA
ATOM     44  C   UNL A   1      40.179  25.585  28.152  1.00  0.00     0.031 C 
ATOM     45  C   UNL A   1      44.993  24.121  28.297  1.00  0.00     0.029 A 
ATOM     46  N   UNL A   1      44.528  26.202  28.969  1.00  0.00    -0.354 N 
ATOM     47  C   UNL A   1      40.497  27.735  28.865  1.00  0.00     0.074 A 
ATOM     48  C   UNL A   1      39.573  26.746  28.356  1.00  0.00     0.031 C 
ATOM     49  C   UNL A   1      46.150  24.691  28.668  1.00  0.00     0.029 A 
ATOM     50  C   UNL A   1      45.891  26.066  29.083  1.00  0.00     0.049 A 
ATOM     51  H   UNL A   1      44.047  27.028  29.205  1.00  0.00     0.167 HD
ATOM     52  C   UNL A   1      40.139  28.981  29.260  1.00  0.00     0.031 A 
ATOM     53  C   UNL A   1      46.831  26.954  29.462  1.00  0.00     0.031 A 
ATOM     54  C   UNL A   1      41.059  29.964  29.768  1.00  0.00     0.049 A 
ATOM     55  C   UNL A   1      46.411  28.344  29.851  1.00  0.00     0.074 A 
ATOM     56  C   UNL A   1      40.784  31.234  30.243  1.00  0.00     0.029 A 
ATOM     57  N   UNL A   1      42.431  29.789  29.857  1.00  0.00    -0.354 N 
ATOM     58  N   UNL A   1      45.208  28.860  29.903  1.00  0.00    -0.248 NA
ATOM     59  C   UNL A   1      47.482  29.274  30.240  1.00  0.00     0.031 C 
ATOM     60  C   UNL A   1      41.998  31.852  30.560  1.00  0.00     0.029 A 
ATOM     61  C   UNL A   1      43.021  30.943  30.345  1.00  0.00     0.049 A 
ATOM     62  H   UNL A   1      42.914  28.968  29.610  1.00  0.00     0.167 HD
ATOM     63  C   UNL A   1      45.373  30.164  30.353  1.00  0.00     0.074 A 
ATOM     64  C   UNL A   1      46.791  30.353  30.578  1.00  0.00     0.031 C 
ATOM     65  C   UNL A   1      44.434  31.119  30.561  1.00  0.00     0.031 A 
BRANCH  52  66
ATOM     66  C   UNL A   1      38.686  29.355  29.146  1.00  0.00    -0.014 A 
ATOM     67  C   UNL A   1      37.807  29.208  30.231  1.00  0.00     0.009 A 
ATOM     68  C   UNL A   1      38.200  29.906  27.949  1.00  0.00     0.009 A 
ATOM     69  C   UNL A   1      36.463  29.570  30.107  1.00  0.00     0.001 A 
ATOM     70  C   UNL A   1      36.864  30.296  27.839  1.00  0.00     0.001 A 
ATOM     71  C   UNL A   1      35.995  30.118  28.914  1.00  0.00     0.000 A 
ENDBRANCH  52  66
BRANCH  53  72
ATOM     72  C   UNL A   1      48.264  26.558  29.488  1.00  0.00    -0.014 A 
ATOM     73  C   UNL A   1      48.816  25.952  30.627  1.00  0.00     0.009 A 
ATOM     74  C   UNL A   1      49.092  26.797  28.379  1.00  0.00     0.009 A 
ATOM     75  C   UNL A   1      50.172  25.620  30.666  1.00  0.00     0.001 A 
ATOM     76  C   UNL A   1      50.440  26.434  28.409  1.00  0.00     0.001 A 
ATOM     77  C   UNL A   1      50.981  25.855  29.556  1.00  0.00     0.000 A 
ENDBRANCH  53  72
BRANCH  65  78
ATOM     78  C   UNL A   1      44.903  32.447  31.084  1.00  0.00    -0.014 A 
ATOM     79  C   UNL A   1      44.921  32.724  32.460  1.00  0.00     0.009 A 
ATOM     80  C   UNL A   1      45.387  33.415  30.190  1.00  0.00     0.009 A 
ATOM     81  C   UNL A   1      45.389  33.955  32.926  1.00  0.00     0.001 A 
ATOM     82  C   UNL A   1      45.884  34.631  30.660  1.00  0.00     0.001 A 
ATOM     83  C   UNL A   1      45.876  34.903  32.028  1.00  0.00     0.000 A 
ENDBRANCH  65  78
ENDBRANCH  39  40
ENDBRANCH  31  34
ENDBRANCH  29  30
ENDBRANCH  28  29
ENDBRANCH  27  28
ENDBRANCH  26  27
ENDBRANCH  25  26
ENDBRANCH   1  25
TORSDOF 20
ENDMDL
MODEL 2
REMARK VINA RESULT:      -9.9      2.692      7.504
REMARK SMILES [NH3+]CCOCC(=O)N[C@H](C(=O)NCCCCCCNC(=O)c1ccc(-c2c3nc(c(-c4ccccc4)c4ccc([nH]4)c(-c4ccccc4)c4nc(c(-c5ccccc5)c5ccc2[nH]5)C=C4)C=C3)cc1)C1CCCCC1
REMARK SMILES IDX 13 1 12 2 10 3 11 4 9 6 8 7 6 8 7 9 5 11 4 12 3 13 2 14 1 15
REMARK SMILES IDX 70 19 71 20 75 21 72 22 74 23 73 24 14 25 15 26 16 27 17 28
REMARK SMILES IDX 18 29 19 30 20 31 21 33 22 34 23 35 69 36 24 37 68 38 25 39
REMARK SMILES IDX 26 40 27 41 62 42 28 43 67 44 61 45 63 46 29 47 66 48 60 49
REMARK SMILES IDX 59 50 30 52 52 53 37 54 51 55 38 56 41 57 50 58 64 59 39 60
REMARK SMILES IDX 40 61 49 63 65 64 42 65 31 66 32 67 36 68 33 69 35 70 34 71
REMARK SMILES IDX 53 72 54 73 58 74 55 75 57 76 56 77 43 78 44 79 48 80 45 81
REMARK SMILES IDX 47 82 46 83
REMARK H PARENT 12 5 8 10 1 16 1 17 1 18 19 32 63 51 41 62
REMARK Flexibility Score: inf
ROOT
ATOM      1  C   UNL A   1      32.332  23.287  26.284  1.00  0.00     0.116 C 
ENDROOT
BRANCH   1   2
ATOM      2  N   UNL A   1      31.025  23.726  26.742  1.00  0.00    -0.354 N 
ATOM      3  C   UNL A   1      30.302  24.836  26.391  1.00  0.00     0.242 C 
ATOM      4  O   UNL A   1      29.190  24.994  26.900  1.00  0.00    -0.273 OA
ATOM      5  H   UNL A   1      30.593  23.136  27.401  1.00  0.00     0.163 HD
BRANCH   3   6
ATOM      6  C   UNL A   1      30.826  25.728  25.247  1.00  0.00     0.174 C 
BRANCH   6   7
ATOM      7  N   UNL A   1      29.610  26.002  24.442  1.00  0.00    -0.342 N 
ATOM      8  C   UNL A   1      29.168  27.011  23.648  1.00  0.00     0.246 C 
ATOM      9  O   UNL A   1      27.942  27.093  23.498  1.00  0.00    -0.272 OA
ATOM     10  H   UNL A   1      28.959  25.266  24.497  1.00  0.00     0.164 HD
BRANCH   8  11
ATOM     11  C   UNL A   1      30.088  27.954  22.847  1.00  0.00     0.260 C 
BRANCH  11  12
ATOM     12  O   UNL A   1      30.026  29.361  22.905  1.00  0.00    -0.366 OA
BRANCH  12  13
ATOM     13  C   UNL A   1      29.602  30.008  21.706  1.00  0.00     0.222 C 
BRANCH  13  14
ATOM     14  C   UNL A   1      28.225  30.656  21.878  1.00  0.00     0.287 C 
BRANCH  14  15
ATOM     15  N   UNL A   1      27.206  29.729  22.377  1.00  0.00    -0.356 N 
ATOM     16  H   UNL A   1      26.396  29.750  21.758  1.00  0.00     0.344 HD
ATOM     17  H   UNL A   1      26.923  30.010  23.316  1.00  0.00     0.344 HD
ATOM     18  H   UNL A   1      27.589  28.785  22.404  1.00  0.00     0.344 HD
ENDBRANCH  14  15
ENDBRANCH  13  14
ENDBRANCH  12  13
ENDBRANCH  11  12
ENDBRANCH   8  11
ENDBRANCH   6   7
BRANCH   6  19
ATOM     19  C   UNL A   1      31.652  26.926  25.716  1.00  0.00     0.021 C 
ATOM     20  C   UNL A   1      31.414  27.405  27.159  1.00  0.00     0.006 C 
ATOM     21  C   UNL A   1      33.152  26.623  25.559  1.00  0.00     0.006 C 
ATOM     22  C   UNL A   1      32.209  28.695  27.400  1.00  0.00     0.000 C 
ATOM     23  C   UNL A   1      33.977  27.887  25.760  1.00  0.00     0.000 C 
ATOM     24  C   UNL A   1      33.701  28.521  27.121  1.00  0.00     0.000 C 
ENDBRANCH   6  19
ENDBRANCH   3   6
ENDBRANCH   1   2
BRANCH   1  25
ATOM     25  C   UNL A   1      33.237  22.914  27.458  1.00  0.00     0.021 C 
BRANCH  25  26
ATOM     26  C   UNL A   1      34.255  21.814  27.130  1.00  0.00     0.002 C 
BRANCH  26  27
ATOM     27  C   UNL A   1      35.212  22.136  25.976  1.00  0.00     0.002 C 
BRANCH  27  28
ATOM     28  C   UNL A   1      36.015  23.428  26.142  1.00  0.00     0.021 C 
BRANCH  28  29
ATOM     29  C   UNL A   1      37.191  23.566  25.182  1.00  0.00     0.116 C 
BRANCH  29  30
ATOM     30  N   UNL A   1      38.293  22.685  25.540  1.00  0.00    -0.352 N 
ATOM     31  C   UNL A   1      39.463  22.983  26.194  1.00  0.00     0.251 C 
ATOM     32  H   UNL A   1      38.186  21.744  25.275  1.00  0.00     0.163 HD
ATOM     33  O   UNL A   1      40.377  22.164  26.235  1.00  0.00    -0.269 OA
BRANCH  31  34
ATOM     34  C   UNL A   1      39.626  24.304  26.832  1.00  0.00     0.039 A 
ATOM     35  C   UNL A   1      39.141  24.498  28.127  1.00  0.00     0.014 A 
ATOM     36  C   UNL A   1      40.271  25.345  26.158  1.00  0.00     0.014 A 
ATOM     37  C   UNL A   1      39.370  25.712  28.776  1.00  0.00     0.010 A 
ATOM     38  C   UNL A   1      40.563  26.527  26.830  1.00  0.00     0.010 A 
ATOM     39  C   UNL A   1      40.120  26.721  28.147  1.00  0.00    -0.014 A 
BRANCH  39  40
ATOM     40  C   UNL A   1      40.474  27.976  28.858  1.00  0.00     0.031 A 
ATOM     41  C   UNL A   1      41.806  28.109  29.542  1.00  0.00     0.074 A 
ATOM     42  C   UNL A   1      39.565  28.965  28.951  1.00  0.00     0.049 A 
ATOM     43  N   UNL A   1      42.260  29.092  30.276  1.00  0.00    -0.248 NA
ATOM     44  C   UNL A   1      42.741  26.982  29.400  1.00  0.00     0.031 C 
ATOM     45  C   UNL A   1      38.226  28.946  28.359  1.00  0.00     0.029 A 
ATOM     46  N   UNL A   1      39.627  30.179  29.589  1.00  0.00    -0.354 N 
ATOM     47  C   UNL A   1      43.525  28.697  30.694  1.00  0.00     0.074 A 
ATOM     48  C   UNL A   1      43.746  27.367  30.174  1.00  0.00     0.031 C 
ATOM     49  C   UNL A   1      37.603  30.101  28.639  1.00  0.00     0.029 A 
ATOM     50  C   UNL A   1      38.476  30.922  29.472  1.00  0.00     0.049 A 
ATOM     51  H   UNL A   1      40.420  30.488  30.083  1.00  0.00     0.167 HD
ATOM     52  C   UNL A   1      44.428  29.388  31.432  1.00  0.00     0.031 A 
ATOM     53  C   UNL A   1      38.153  32.122  29.991  1.00  0.00     0.031 A 
ATOM     54  C   UNL A   1      44.206  30.713  31.948  1.00  0.00     0.049 A 
ATOM     55  C   UNL A   1      39.156  32.847  30.845  1.00  0.00     0.074 A 
ATOM     56  C   UNL A   1      45.080  31.515  32.660  1.00  0.00     0.029 A 
ATOM     57  N   UNL A   1      43.024  31.424  31.816  1.00  0.00    -0.354 N 
ATOM     58  N   UNL A   1      40.374  32.490  31.171  1.00  0.00    -0.248 NA
ATOM     59  C   UNL A   1      38.740  34.144  31.397  1.00  0.00     0.031 C 
ATOM     60  C   UNL A   1      44.405  32.687  33.014  1.00  0.00     0.029 A 
ATOM     61  C   UNL A   1      43.134  32.643  32.466  1.00  0.00     0.049 A 
ATOM     62  H   UNL A   1      42.226  31.111  31.332  1.00  0.00     0.167 HD
ATOM     63  C   UNL A   1      40.879  33.527  31.944  1.00  0.00     0.074 A 
ATOM     64  C   UNL A   1      39.842  34.536  32.021  1.00  0.00     0.031 C 
ATOM     65  C   UNL A   1      42.093  33.635  32.537  1.00  0.00     0.031 A 
BRANCH  52  66
ATOM     66  C   UNL A   1      45.738  28.714  31.735  1.00  0.00    -0.014 A 
ATOM     67  C   UNL A   1      45.895  27.901  32.869  1.00  0.00     0.009 A 
ATOM     68  C   UNL A   1      46.817  28.856  30.848  1.00  0.00     0.009 A 
ATOM     69  C   UNL A   1      47.118  27.277  33.128  1.00  0.00     0.001 A 
ATOM     70  C   UNL A   1      48.028  28.205  31.093  1.00  0.00     0.001 A 
ATOM     71  C   UNL A   1      48.180  27.425  32.238  1.00  0.00     0.000 A 
ENDBRANCH  52  66
BRANCH  53  72
ATOM     72  C   UNL A   1      36.815  32.715  29.723  1.00  0.00    -0.014 A 
ATOM     73  C   UNL A   1      36.590  33.475  28.565  1.00  0.00     0.009 A 
ATOM     74  C   UNL A   1      35.759  32.536  30.632  1.00  0.00     0.009 A 
ATOM     75  C   UNL A   1      35.346  34.066  28.336  1.00  0.00     0.001 A 
ATOM     76  C   UNL A   1      34.506  33.101  30.383  1.00  0.00     0.001 A 
ATOM     77  C   UNL A   1      34.304  33.875  29.242  1.00  0.00     0.000 A 
ENDBRANCH  53  72
BRANCH  65  78
ATOM     78  C   UNL A   1      42.380  34.898  33.299  1.00  0.00    -0.014 A 
ATOM     79  C   UNL A   1      43.064  35.970  32.704  1.00  0.00     0.009 A 
ATOM     80  C   UNL A   1      41.911  35.038  34.615  1.00  0.00     0.009 A 
ATOM     81  C   UNL A   1      43.293  37.146  33.422  1.00  0.00     0.001 A 
ATOM     82  C   UNL A   1      42.114  36.226  35.318  1.00  0.00     0.001 A 
ATOM     83  C   UNL A   1      42.813  37.276  34.724  1.00  0.00     0.000 A 
ENDBRANCH  65  78
ENDBRANCH  39  40
ENDBRANCH  31  34
ENDBRANCH  29  30
ENDBRANCH  28  29
ENDBRANCH  27  28
ENDBRANCH  26  27
ENDBRANCH  25  26
ENDBRANCH   1  25
TORSDOF 20
ENDMDL
MODEL 3
REMARK VINA RESULT:      -9.7      1.360      3.419
REMARK SMILES [NH3+]CCOCC(=O)N[C@H](C(=O)NCCCCCCNC(=O)c1ccc(-c2c3nc(c(-c4ccccc4)c4ccc([nH]4)c(-c4ccccc4)c4nc(c(-c5ccccc5)c5ccc2[nH]5)C=C4)C=C3)cc1)C1CCCCC1
REMARK SMILES IDX 13 1 12 2 10 3 11 4 9 6 8 7 6 8 7 9 5 11 4 12 3 13 2 14 1 15
REMARK SMILES IDX 70 19 71 20 75 21 72 22 74 23 73 24 14 25 15 26 16 27 17 28
REMARK SMILES IDX 18 29 19 30 20 31 21 33 22 34 23 35 69 36 24 37 68 38 25 39
REMARK SMILES IDX 26 40 27 41 62 42 28 43 67 44 61 45 63 46 29 47 66 48 60 49
REMARK SMILES IDX 59 50 30 52 52 53 37 54 51 55 38 56 41 57 50 58 64 59 39 60
REMARK SMILES IDX 40 61 49 63 65 64 42 65 31 66 32 67 36 68 33 69 35 70 34 71
REMARK SMILES IDX 53 72 54 73 58 74 55 75 57 76 56 77 43 78 44 79 48 80 45 81
REMARK SMILES IDX 47 82 46 83
REMARK H PARENT 12 5 8 10 1 16 1 17 1 18 19 32 63 51 41 62
REMARK Flexibility Score: inf
ROOT
ATOM      1  C   UNL A   1      33.464  19.726  24.915  1.00  0.00     0.116 C 
ENDROOT
BRANCH   1   2
ATOM      2  N   UNL A   1      32.709  20.333  23.833  1.00  0.00    -0.354 N 
ATOM      3  C   UNL A   1      32.418  21.652  23.599  1.00  0.00     0.242 C 
ATOM      4  O   UNL A   1      31.772  21.938  22.589  1.00  0.00    -0.273 OA
ATOM      5  H   UNL A   1      32.354  19.702  23.166  1.00  0.00     0.163 HD
BRANCH   3   6
ATOM      6  C   UNL A   1      33.070  22.722  24.499  1.00  0.00     0.174 C 
BRANCH   6   7
ATOM      7  N   UNL A   1      32.276  22.646  25.751  1.00  0.00    -0.342 N 
ATOM      8  C   UNL A   1      31.411  23.458  26.413  1.00  0.00     0.246 C 
ATOM      9  O   UNL A   1      31.285  23.250  27.627  1.00  0.00    -0.272 OA
ATOM     10  H   UNL A   1      32.410  21.791  26.220  1.00  0.00     0.164 HD
BRANCH   8  11
ATOM     11  C   UNL A   1      30.509  24.507  25.732  1.00  0.00     0.260 C 
BRANCH  11  12
ATOM     12  O   UNL A   1      30.991  25.632  25.032  1.00  0.00    -0.366 OA
BRANCH  12  13
ATOM     13  C   UNL A   1      30.326  25.921  23.802  1.00  0.00     0.222 C 
BRANCH  13  14
ATOM     14  C   UNL A   1      31.328  26.162  22.669  1.00  0.00     0.287 C 
BRANCH  14  15
ATOM     15  N   UNL A   1      31.756  24.930  22.001  1.00  0.00    -0.356 N 
ATOM     16  H   UNL A   1      32.595  25.115  21.452  1.00  0.00     0.344 HD
ATOM     17  H   UNL A   1      31.012  24.602  21.384  1.00  0.00     0.344 HD
ATOM     18  H   UNL A   1      31.958  24.216  22.701  1.00  0.00     0.344 HD
ENDBRANCH  14  15
ENDBRANCH  13  14
ENDBRANCH  12  13
ENDBRANCH  11  12
ENDBRANCH   8  11
ENDBRANCH   6   7
BRANCH   6  19
ATOM     19  C   UNL A   1      34.589  22.601  24.615  1.00  0.00     0.021 C 
ATOM     20  C   UNL A   1      35.409  22.992  23.372  1.00  0.00     0.006 C 
ATOM     21  C   UNL A   1      35.094  23.445  25.798  1.00  0.00     0.006 C 
ATOM     22  C   UNL A   1      36.888  22.666  23.620  1.00  0.00     0.000 C 
ATOM     23  C   UNL A   1      36.553  23.130  26.098  1.00  0.00     0.000 C 
ATOM     24  C   UNL A   1      37.434  23.351  24.871  1.00  0.00     0.000 C 
ENDBRANCH   6  19
ENDBRANCH   3   6
ENDBRANCH   1   2
BRANCH   1  25
ATOM     25  C   UNL A   1      33.935  18.320  24.546  1.00  0.00     0.021 C 
BRANCH  25  26
ATOM     26  C   UNL A   1      35.456  18.137  24.624  1.00  0.00     0.002 C 
BRANCH  26  27
ATOM     27  C   UNL A   1      36.247  19.400  24.984  1.00  0.00     0.002 C 
BRANCH  27  28
ATOM     28  C   UNL A   1      37.735  19.355  24.627  1.00  0.00     0.021 C 
BRANCH  28  29
ATOM     29  C   UNL A   1      38.663  19.824  25.741  1.00  0.00     0.116 C 
BRANCH  29  30
ATOM     30  N   UNL A   1      39.869  19.013  25.824  1.00  0.00    -0.352 N 
ATOM     31  C   UNL A   1      41.159  19.403  26.086  1.00  0.00     0.251 C 
ATOM     32  H   UNL A   1      39.742  18.050  25.669  1.00  0.00     0.163 HD
ATOM     33  O   UNL A   1      42.091  18.621  25.916  1.00  0.00    -0.269 OA
BRANCH  31  34
ATOM     34  C   UNL A   1      41.425  20.777  26.553  1.00  0.00     0.039 A 
ATOM     35  C   UNL A   1      41.449  21.036  27.926  1.00  0.00     0.014 A 
ATOM     36  C   UNL A   1      41.666  21.806  25.638  1.00  0.00     0.014 A 
ATOM     37  C   UNL A   1      41.789  22.310  28.383  1.00  0.00     0.010 A 
ATOM     38  C   UNL A   1      42.076  23.054  26.094  1.00  0.00     0.010 A 
ATOM     39  C   UNL A   1      42.147  23.317  27.471  1.00  0.00    -0.014 A 
BRANCH  39  40
ATOM     40  C   UNL A   1      42.623  24.645  27.935  1.00  0.00     0.031 A 
ATOM     41  C   UNL A   1      41.639  25.741  28.236  1.00  0.00     0.074 A 
ATOM     42  C   UNL A   1      43.946  24.886  28.012  1.00  0.00     0.049 A 
ATOM     43  N   UNL A   1      41.867  26.984  28.573  1.00  0.00    -0.248 NA
ATOM     44  C   UNL A   1      40.211  25.400  28.121  1.00  0.00     0.031 C 
ATOM     45  C   UNL A   1      45.004  23.917  27.718  1.00  0.00     0.029 A 
ATOM     46  N   UNL A   1      44.629  26.027  28.354  1.00  0.00    -0.354 N 
ATOM     47  C   UNL A   1      40.617  27.577  28.696  1.00  0.00     0.074 A 
ATOM     48  C   UNL A   1      39.636  26.573  28.350  1.00  0.00     0.031 C 
ATOM     49  C   UNL A   1      46.199  24.496  27.915  1.00  0.00     0.029 A 
ATOM     50  C   UNL A   1      45.995  25.889  28.300  1.00  0.00     0.049 A 
ATOM     51  H   UNL A   1      44.182  26.865  28.614  1.00  0.00     0.167 HD
ATOM     52  C   UNL A   1      40.313  28.840  29.081  1.00  0.00     0.031 A 
ATOM     53  C   UNL A   1      46.976  26.786  28.520  1.00  0.00     0.031 A 
ATOM     54  C   UNL A   1      41.290  29.839  29.426  1.00  0.00     0.049 A 
ATOM     55  C   UNL A   1      46.609  28.194  28.900  1.00  0.00     0.074 A 
ATOM     56  C   UNL A   1      41.078  31.129  29.878  1.00  0.00     0.029 A 
ATOM     57  N   UNL A   1      42.662  29.660  29.348  1.00  0.00    -0.354 N 
ATOM     58  N   UNL A   1      45.422  28.718  29.081  1.00  0.00    -0.248 NA
ATOM     59  C   UNL A   1      47.721  29.133  29.110  1.00  0.00     0.031 C 
ATOM     60  C   UNL A   1      42.322  31.753  30.012  1.00  0.00     0.029 A 
ATOM     61  C   UNL A   1      43.310  30.830  29.708  1.00  0.00     0.049 A 
ATOM     62  H   UNL A   1      43.110  28.827  29.077  1.00  0.00     0.167 HD
ATOM     63  C   UNL A   1      45.643  30.039  29.451  1.00  0.00     0.074 A 
ATOM     64  C   UNL A   1      47.079  30.229  29.487  1.00  0.00     0.031 C 
ATOM     65  C   UNL A   1      44.739  31.007  29.736  1.00  0.00     0.031 A 
BRANCH  52  66
ATOM     66  C   UNL A   1      38.858  29.218  29.135  1.00  0.00    -0.014 A 
ATOM     67  C   UNL A   1      38.188  29.706  28.002  1.00  0.00     0.009 A 
ATOM     68  C   UNL A   1      38.134  29.039  30.325  1.00  0.00     0.009 A 
ATOM     69  C   UNL A   1      36.833  30.043  28.071  1.00  0.00     0.001 A 
ATOM     70  C   UNL A   1      36.773  29.345  30.382  1.00  0.00     0.001 A 
ATOM     71  C   UNL A   1      36.127  29.857  29.258  1.00  0.00     0.000 A 
ENDBRANCH  52  66
BRANCH  53  72
ATOM     72  C   UNL A   1      48.401  26.384  28.381  1.00  0.00    -0.014 A 
ATOM     73  C   UNL A   1      49.118  25.904  29.488  1.00  0.00     0.009 A 
ATOM     74  C   UNL A   1      49.057  26.490  27.144  1.00  0.00     0.009 A 
ATOM     75  C   UNL A   1      50.467  25.567  29.366  1.00  0.00     0.001 A 
ATOM     76  C   UNL A   1      50.397  26.121  27.018  1.00  0.00     0.001 A 
ATOM     77  C   UNL A   1      51.104  25.670  28.131  1.00  0.00     0.000 A 
ENDBRANCH  53  72
BRANCH  65  78
ATOM     78  C   UNL A   1      45.271  32.353  30.139  1.00  0.00    -0.014 A 
ATOM     79  C   UNL A   1      45.542  32.659  31.482  1.00  0.00     0.009 A 
ATOM     80  C   UNL A   1      45.557  33.311  29.153  1.00  0.00     0.009 A 
ATOM     81  C   UNL A   1      46.064  33.906  31.830  1.00  0.00     0.001 A 
ATOM     82  C   UNL A   1      46.109  34.544  29.501  1.00  0.00     0.001 A 
ATOM     83  C   UNL A   1      46.353  34.844  30.841  1.00  0.00     0.000 A 
ENDBRANCH  65  78
ENDBRANCH  39  40
ENDBRANCH  31  34
ENDBRANCH  29  30
ENDBRANCH  28  29
ENDBRANCH  27  28
ENDBRANCH  26  27
ENDBRANCH  25  26
ENDBRANCH   1  25
TORSDOF 20
ENDMDL
