MODEL 1
REMARK VINA RESULT:     -11.6      0.000      0.000
REMARK SMILES Cc1ccc(CNc2ccc(C(=O)NCCCCCCNC(=O)c3ccc(-c4c5nc(c(-c6ccccc6)c6ccc([nH]6)c(-c6ccccc6)c6nc(c(-c7ccccc7)c7ccc4[nH]7)C=C6)C=C5)cc3)cc2Br)cc1
REMARK SMILES IDX 17 1 16 2 15 3 14 4 12 5 13 6 11 8 8 9 9 10 73 11 10 12
REMARK SMILES IDX 72 13 74 14 7 15 6 17 5 18 1 19 2 20 3 21 76 22 4 23 75 24
REMARK SMILES IDX 18 25 19 26 20 27 21 28 22 29 23 31 24 32 25 33 71 34 26 35
REMARK SMILES IDX 70 36 27 37 28 38 29 39 64 40 30 41 69 42 63 43 65 44 31 45
REMARK SMILES IDX 68 46 62 47 61 48 32 50 54 51 39 52 53 53 40 54 43 55 52 56
REMARK SMILES IDX 66 57 41 58 42 59 51 61 67 62 44 63 33 64 34 65 38 66 35 67
REMARK SMILES IDX 37 68 36 69 55 70 56 71 60 72 57 73 59 74 58 75 45 76 46 77
REMARK SMILES IDX 50 78 47 79 49 80 48 81
REMARK H PARENT 14 7 7 16 21 30 65 49 43 60
REMARK Flexibility Score: inf
ROOT
ATOM      1  C   UNL A   1      33.614  28.375  25.550  1.00  0.00     0.002 C 
ENDROOT
BRANCH   1   2
ATOM      2  C   UNL A   1      32.880  29.377  24.651  1.00  0.00     0.021 C 
BRANCH   2   3
ATOM      3  C   UNL A   1      31.414  29.674  24.955  1.00  0.00     0.116 C 
BRANCH   3   4
ATOM      4  N   UNL A   1      30.545  29.701  23.797  1.00  0.00    -0.352 N 
ATOM      5  C   UNL A   1      30.199  28.696  22.924  1.00  0.00     0.251 C 
ATOM      6  O   UNL A   1      29.435  28.959  21.997  1.00  0.00    -0.269 OA
ATOM      7  H   UNL A   1      30.136  30.576  23.605  1.00  0.00     0.163 HD
BRANCH   5   8
ATOM      8  C   UNL A   1      30.745  27.314  23.036  1.00  0.00     0.041 A 
ATOM      9  C   UNL A   1      31.724  24.658  23.361  1.00  0.00     0.049 A 
ATOM     10  C   UNL A   1      31.977  25.394  22.199  1.00  0.00     0.028 A 
ATOM     11  C   UNL A   1      30.983  25.303  24.373  1.00  0.00     0.041 A 
ATOM     12  C   UNL A   1      31.528  26.713  22.050  1.00  0.00     0.016 A 
ATOM     13  C   UNL A   1      30.500  26.609  24.219  1.00  0.00     0.031 A 
ATOM     14  Br  UNL A   1      30.631  24.426  26.029  1.00  0.00    -0.049 Br
BRANCH   9  15
ATOM     15  N   UNL A   1      32.177  23.362  23.533  1.00  0.00    -0.380 N 
ATOM     16  H   UNL A   1      31.646  22.779  24.123  1.00  0.00     0.160 HD
BRANCH  15  17
ATOM     17  C   UNL A   1      33.357  22.779  22.925  1.00  0.00     0.148 C 
BRANCH  17  18
ATOM     18  C   UNL A   1      34.574  23.064  23.776  1.00  0.00    -0.029 A 
ATOM     19  C   UNL A   1      38.043  23.963  26.189  1.00  0.00     0.044 C 
ATOM     20  C   UNL A   1      36.845  23.660  25.338  1.00  0.00    -0.051 A 
ATOM     21  C   UNL A   1      35.560  23.881  25.844  1.00  0.00     0.004 A 
ATOM     22  C   UNL A   1      36.988  23.147  24.045  1.00  0.00     0.004 A 
ATOM     23  C   UNL A   1      34.437  23.594  25.068  1.00  0.00     0.006 A 
ATOM     24  C   UNL A   1      35.863  22.855  23.268  1.00  0.00     0.006 A 
ENDBRANCH  17  18
ENDBRANCH  15  17
ENDBRANCH   9  15
ENDBRANCH   5   8
ENDBRANCH   3   4
ENDBRANCH   2   3
ENDBRANCH   1   2
BRANCH   1  25
ATOM     25  C   UNL A   1      34.404  28.910  26.753  1.00  0.00     0.002 C 
BRANCH  25  26
ATOM     26  C   UNL A   1      33.769  30.022  27.586  1.00  0.00     0.021 C 
BRANCH  26  27
ATOM     27  C   UNL A   1      34.482  31.366  27.554  1.00  0.00     0.116 C 
BRANCH  27  28
ATOM     28  N   UNL A   1      33.709  32.487  28.074  1.00  0.00    -0.352 N 
ATOM     29  C   UNL A   1      34.051  33.369  29.088  1.00  0.00     0.251 C 
ATOM     30  H   UNL A   1      32.833  32.638  27.651  1.00  0.00     0.163 HD
ATOM     31  O   UNL A   1      33.297  34.274  29.410  1.00  0.00    -0.269 OA
BRANCH  29  32
ATOM     32  C   UNL A   1      35.401  33.272  29.698  1.00  0.00     0.039 A 
ATOM     33  C   UNL A   1      36.452  33.956  29.080  1.00  0.00     0.014 A 
ATOM     34  C   UNL A   1      35.660  32.375  30.734  1.00  0.00     0.014 A 
ATOM     35  C   UNL A   1      37.764  33.562  29.334  1.00  0.00     0.010 A 
ATOM     36  C   UNL A   1      36.953  31.917  30.918  1.00  0.00     0.010 A 
ATOM     37  C   UNL A   1      37.995  32.461  30.164  1.00  0.00    -0.014 A 
BRANCH  37  38
ATOM     38  C   UNL A   1      39.258  31.729  30.155  1.00  0.00     0.031 A 
ATOM     39  C   UNL A   1      39.380  30.411  29.504  1.00  0.00     0.074 A 
ATOM     40  C   UNL A   1      40.339  32.231  30.798  1.00  0.00     0.049 A 
ATOM     41  N   UNL A   1      40.113  29.450  29.966  1.00  0.00    -0.248 NA
ATOM     42  C   UNL A   1      38.646  30.058  28.295  1.00  0.00     0.031 C 
ATOM     43  C   UNL A   1      41.705  31.717  30.748  1.00  0.00     0.029 A 
ATOM     44  N   UNL A   1      40.368  33.171  31.828  1.00  0.00    -0.354 N 
ATOM     45  C   UNL A   1      40.174  28.484  28.991  1.00  0.00     0.074 A 
ATOM     46  C   UNL A   1      39.177  28.863  28.013  1.00  0.00     0.031 C 
ATOM     47  C   UNL A   1      42.338  32.086  31.873  1.00  0.00     0.029 A 
ATOM     48  C   UNL A   1      41.366  32.754  32.721  1.00  0.00     0.049 A 
ATOM     49  H   UNL A   1      39.800  33.970  31.912  1.00  0.00     0.167 HD
ATOM     50  C   UNL A   1      41.157  27.541  29.013  1.00  0.00     0.031 A 
ATOM     51  C   UNL A   1      41.162  32.513  34.046  1.00  0.00     0.031 A 
ATOM     52  C   UNL A   1      42.083  27.717  30.125  1.00  0.00     0.049 A 
ATOM     53  C   UNL A   1      41.619  31.144  34.489  1.00  0.00     0.074 A 
ATOM     54  C   UNL A   1      43.349  28.274  30.204  1.00  0.00     0.029 A 
ATOM     55  N   UNL A   1      41.652  27.528  31.430  1.00  0.00    -0.354 N 
ATOM     56  N   UNL A   1      41.864  30.161  33.670  1.00  0.00    -0.248 NA
ATOM     57  C   UNL A   1      41.741  30.746  35.889  1.00  0.00     0.031 C 
ATOM     58  C   UNL A   1      43.679  28.428  31.572  1.00  0.00     0.029 A 
ATOM     59  C   UNL A   1      42.616  27.958  32.320  1.00  0.00     0.049 A 
ATOM     60  H   UNL A   1      40.782  27.142  31.684  1.00  0.00     0.167 HD
ATOM     61  C   UNL A   1      42.153  29.027  34.386  1.00  0.00     0.074 A 
ATOM     62  C   UNL A   1      42.076  29.449  35.772  1.00  0.00     0.031 C 
ATOM     63  C   UNL A   1      42.405  27.841  33.757  1.00  0.00     0.031 A 
BRANCH  50  64
ATOM     64  C   UNL A   1      41.449  26.646  27.835  1.00  0.00    -0.014 A 
ATOM     65  C   UNL A   1      41.311  25.252  27.964  1.00  0.00     0.009 A 
ATOM     66  C   UNL A   1      41.890  27.115  26.588  1.00  0.00     0.009 A 
ATOM     67  C   UNL A   1      41.701  24.370  26.950  1.00  0.00     0.001 A 
ATOM     68  C   UNL A   1      42.321  26.238  25.582  1.00  0.00     0.001 A 
ATOM     69  C   UNL A   1      42.240  24.864  25.769  1.00  0.00     0.000 A 
ENDBRANCH  50  64
BRANCH  51  70
ATOM     70  C   UNL A   1      40.002  33.223  34.640  1.00  0.00    -0.014 A 
ATOM     71  C   UNL A   1      38.738  32.606  34.598  1.00  0.00     0.009 A 
ATOM     72  C   UNL A   1      40.199  34.297  35.518  1.00  0.00     0.009 A 
ATOM     73  C   UNL A   1      37.725  32.995  35.480  1.00  0.00     0.001 A 
ATOM     74  C   UNL A   1      39.181  34.687  36.395  1.00  0.00     0.001 A 
ATOM     75  C   UNL A   1      37.957  34.018  36.395  1.00  0.00     0.000 A 
ENDBRANCH  51  70
BRANCH  63  76
ATOM     76  C   UNL A   1      42.553  26.471  34.384  1.00  0.00    -0.014 A 
ATOM     77  C   UNL A   1      41.621  25.867  35.236  1.00  0.00     0.009 A 
ATOM     78  C   UNL A   1      43.667  25.677  34.019  1.00  0.00     0.009 A 
ATOM     79  C   UNL A   1      41.807  24.561  35.719  1.00  0.00     0.001 A 
ATOM     80  C   UNL A   1      43.837  24.364  34.464  1.00  0.00     0.001 A 
ATOM     81  C   UNL A   1      42.907  23.808  35.327  1.00  0.00     0.000 A 
ENDBRANCH  63  76
ENDBRANCH  37  38
ENDBRANCH  29  32
ENDBRANCH  27  28
ENDBRANCH  26  27
ENDBRANCH  25  26
ENDBRANCH   1  25
TORSDOF 16
ENDMDL
MODEL 2
REMARK VINA RESULT:     -11.4      1.593      2.639
REMARK SMILES Cc1ccc(CNc2ccc(C(=O)NCCCCCCNC(=O)c3ccc(-c4c5nc(c(-c6ccccc6)c6ccc([nH]6)c(-c6ccccc6)c6nc(c(-c7ccccc7)c7ccc4[nH]7)C=C6)C=C5)cc3)cc2Br)cc1
REMARK SMILES IDX 17 1 16 2 15 3 14 4 12 5 13 6 11 8 8 9 9 10 73 11 10 12
REMARK SMILES IDX 72 13 74 14 7 15 6 17 5 18 1 19 2 20 3 21 76 22 4 23 75 24
REMARK SMILES IDX 18 25 19 26 20 27 21 28 22 29 23 31 24 32 25 33 71 34 26 35
REMARK SMILES IDX 70 36 27 37 28 38 29 39 64 40 30 41 69 42 63 43 65 44 31 45
REMARK SMILES IDX 68 46 62 47 61 48 32 50 54 51 39 52 53 53 40 54 43 55 52 56
REMARK SMILES IDX 66 57 41 58 42 59 51 61 67 62 44 63 33 64 34 65 38 66 35 67
REMARK SMILES IDX 37 68 36 69 55 70 56 71 60 72 57 73 59 74 58 75 45 76 46 77
REMARK SMILES IDX 50 78 47 79 49 80 48 81
REMARK H PARENT 14 7 7 16 21 30 65 49 43 60
REMARK Flexibility Score: inf
ROOT
ATOM      1  C   UNL A   1      32.010  28.401  24.833  1.00  0.00     0.002 C 
ENDROOT
BRANCH   1   2
ATOM      2  C   UNL A   1      30.725  27.757  24.301  1.00  0.00     0.021 C 
BRANCH   2   3
ATOM      3  C   UNL A   1      30.191  26.519  25.018  1.00  0.00     0.116 C 
BRANCH   3   4
ATOM      4  N   UNL A   1      29.963  25.372  24.166  1.00  0.00    -0.352 N 
ATOM      5  C   UNL A   1      30.800  24.331  23.835  1.00  0.00     0.251 C 
ATOM      6  O   UNL A   1      30.381  23.457  23.078  1.00  0.00    -0.269 OA
ATOM      7  H   UNL A   1      29.067  25.328  23.759  1.00  0.00     0.163 HD
BRANCH   5   8
ATOM      8  C   UNL A   1      32.204  24.245  24.328  1.00  0.00     0.041 A 
ATOM      9  C   UNL A   1      34.851  23.985  25.351  1.00  0.00     0.049 A 
ATOM     10  C   UNL A   1      34.564  24.818  24.264  1.00  0.00     0.028 A 
ATOM     11  C   UNL A   1      33.762  23.301  25.931  1.00  0.00     0.041 A 
ATOM     12  C   UNL A   1      33.258  24.976  23.781  1.00  0.00     0.016 A 
ATOM     13  C   UNL A   1      32.459  23.426  25.433  1.00  0.00     0.031 A 
ATOM     14  Br  UNL A   1      34.016  22.189  27.459  1.00  0.00    -0.049 Br
BRANCH   9  15
ATOM     15  N   UNL A   1      36.130  23.834  25.853  1.00  0.00    -0.380 N 
ATOM     16  H   UNL A   1      36.336  24.302  26.695  1.00  0.00     0.160 HD
BRANCH  15  17
ATOM     17  C   UNL A   1      37.197  23.052  25.260  1.00  0.00     0.148 C 
BRANCH  17  18
ATOM     18  C   UNL A   1      38.418  23.076  26.153  1.00  0.00    -0.029 A 
ATOM     19  C   UNL A   1      41.944  23.199  28.644  1.00  0.00     0.044 C 
ATOM     20  C   UNL A   1      40.730  23.152  27.766  1.00  0.00    -0.051 A 
ATOM     21  C   UNL A   1      39.846  24.237  27.743  1.00  0.00     0.004 A 
ATOM     22  C   UNL A   1      40.455  22.035  26.971  1.00  0.00     0.004 A 
ATOM     23  C   UNL A   1      38.707  24.202  26.939  1.00  0.00     0.006 A 
ATOM     24  C   UNL A   1      39.311  21.997  26.168  1.00  0.00     0.006 A 
ENDBRANCH  17  18
ENDBRANCH  15  17
ENDBRANCH   9  15
ENDBRANCH   5   8
ENDBRANCH   3   4
ENDBRANCH   2   3
ENDBRANCH   1   2
BRANCH   1  25
ATOM     25  C   UNL A   1      32.302  28.321  26.338  1.00  0.00     0.002 C 
BRANCH  25  26
ATOM     26  C   UNL A   1      33.759  28.178  26.774  1.00  0.00     0.021 C 
BRANCH  26  27
ATOM     27  C   UNL A   1      34.522  29.478  26.981  1.00  0.00     0.116 C 
BRANCH  27  28
ATOM     28  N   UNL A   1      33.694  30.677  27.035  1.00  0.00    -0.352 N 
ATOM     29  C   UNL A   1      33.881  31.816  27.804  1.00  0.00     0.251 C 
ATOM     30  H   UNL A   1      32.903  30.679  26.450  1.00  0.00     0.163 HD
ATOM     31  O   UNL A   1      33.102  32.752  27.734  1.00  0.00    -0.269 OA
BRANCH  29  32
ATOM     32  C   UNL A   1      35.111  31.931  28.628  1.00  0.00     0.039 A 
ATOM     33  C   UNL A   1      36.083  32.855  28.233  1.00  0.00     0.014 A 
ATOM     34  C   UNL A   1      35.385  31.017  29.645  1.00  0.00     0.014 A 
ATOM     35  C   UNL A   1      37.392  32.703  28.685  1.00  0.00     0.010 A 
ATOM     36  C   UNL A   1      36.699  30.804  30.021  1.00  0.00     0.010 A 
ATOM     37  C   UNL A   1      37.712  31.601  29.483  1.00  0.00    -0.014 A 
BRANCH  37  38
ATOM     38  C   UNL A   1      39.084  31.132  29.651  1.00  0.00     0.031 A 
ATOM     39  C   UNL A   1      39.567  29.910  28.980  1.00  0.00     0.074 A 
ATOM     40  C   UNL A   1      39.931  31.789  30.477  1.00  0.00     0.049 A 
ATOM     41  N   UNL A   1      40.402  29.081  29.518  1.00  0.00    -0.248 NA
ATOM     42  C   UNL A   1      39.110  29.504  27.656  1.00  0.00     0.031 C 
ATOM     43  C   UNL A   1      41.365  31.556  30.628  1.00  0.00     0.029 A 
ATOM     44  N   UNL A   1      39.614  32.645  31.532  1.00  0.00    -0.354 N 
ATOM     45  C   UNL A   1      40.803  28.213  28.531  1.00  0.00     0.074 A 
ATOM     46  C   UNL A   1      39.908  28.457  27.420  1.00  0.00     0.031 C 
ATOM     47  C   UNL A   1      41.735  31.964  31.853  1.00  0.00     0.029 A 
ATOM     48  C   UNL A   1      40.531  32.371  32.558  1.00  0.00     0.049 A 
ATOM     49  H   UNL A   1      38.890  33.311  31.553  1.00  0.00     0.167 HD
ATOM     50  C   UNL A   1      41.942  27.481  28.676  1.00  0.00     0.031 A 
ATOM     51  C   UNL A   1      40.184  32.005  33.823  1.00  0.00     0.031 A 
ATOM     52  C   UNL A   1      42.636  27.758  29.927  1.00  0.00     0.049 A 
ATOM     53  C   UNL A   1      40.837  30.724  34.283  1.00  0.00     0.074 A 
ATOM     54  C   UNL A   1      43.737  28.544  30.230  1.00  0.00     0.029 A 
ATOM     55  N   UNL A   1      42.062  27.400  31.139  1.00  0.00    -0.354 N 
ATOM     56  N   UNL A   1      41.397  29.866  33.479  1.00  0.00    -0.248 NA
ATOM     57  C   UNL A   1      40.826  30.263  35.669  1.00  0.00     0.031 C 
ATOM     58  C   UNL A   1      43.820  28.666  31.637  1.00  0.00     0.029 A 
ATOM     59  C   UNL A   1      42.774  27.948  32.187  1.00  0.00     0.049 A 
ATOM     60  H   UNL A   1      41.260  26.836  31.236  1.00  0.00     0.167 HD
ATOM     61  C   UNL A   1      41.799  28.763  34.190  1.00  0.00     0.074 A 
ATOM     62  C   UNL A   1      41.431  29.067  35.560  1.00  0.00     0.031 C 
ATOM     63  C   UNL A   1      42.378  27.695  33.566  1.00  0.00     0.031 A 
BRANCH  50  64
ATOM     64  C   UNL A   1      42.583  26.742  27.528  1.00  0.00    -0.014 A 
ATOM     65  C   UNL A   1      41.848  26.501  26.353  1.00  0.00     0.009 A 
ATOM     66  C   UNL A   1      43.892  26.234  27.559  1.00  0.00     0.009 A 
ATOM     67  C   UNL A   1      42.345  25.702  25.317  1.00  0.00     0.001 A 
ATOM     68  C   UNL A   1      44.382  25.400  26.544  1.00  0.00     0.001 A 
ATOM     69  C   UNL A   1      43.602  25.123  25.428  1.00  0.00     0.000 A 
ENDBRANCH  50  64
BRANCH  51  70
ATOM     70  C   UNL A   1      38.828  32.433  34.249  1.00  0.00    -0.014 A 
ATOM     71  C   UNL A   1      38.682  33.675  34.895  1.00  0.00     0.009 A 
ATOM     72  C   UNL A   1      37.688  31.806  33.727  1.00  0.00     0.009 A 
ATOM     73  C   UNL A   1      37.441  34.315  34.935  1.00  0.00     0.001 A 
ATOM     74  C   UNL A   1      36.446  32.448  33.775  1.00  0.00     0.001 A 
ATOM     75  C   UNL A   1      36.329  33.713  34.353  1.00  0.00     0.000 A 
ENDBRANCH  51  70
BRANCH  63  76
ATOM     76  C   UNL A   1      42.705  26.341  34.159  1.00  0.00    -0.014 A 
ATOM     77  C   UNL A   1      43.893  25.632  33.949  1.00  0.00     0.009 A 
ATOM     78  C   UNL A   1      41.795  25.768  35.081  1.00  0.00     0.009 A 
ATOM     79  C   UNL A   1      44.144  24.411  34.595  1.00  0.00     0.001 A 
ATOM     80  C   UNL A   1      42.055  24.574  35.757  1.00  0.00     0.001 A 
ATOM     81  C   UNL A   1      43.231  23.887  35.505  1.00  0.00     0.000 A 
ENDBRANCH  63  76
ENDBRANCH  37  38
ENDBRANCH  29  32
ENDBRANCH  27  28
ENDBRANCH  26  27
ENDBRANCH  25  26
ENDBRANCH   1  25
TORSDOF 16
ENDMDL
MODEL 3
REMARK VINA RESULT:     -11.4      2.151      3.375
REMARK SMILES Cc1ccc(CNc2ccc(C(=O)NCCCCCCNC(=O)c3ccc(-c4c5nc(c(-c6ccccc6)c6ccc([nH]6)c(-c6ccccc6)c6nc(c(-c7ccccc7)c7ccc4[nH]7)C=C6)C=C5)cc3)cc2Br)cc1
REMARK SMILES IDX 17 1 16 2 15 3 14 4 12 5 13 6 11 8 8 9 9 10 73 11 10 12
REMARK SMILES IDX 72 13 74 14 7 15 6 17 5 18 1 19 2 20 3 21 76 22 4 23 75 24
REMARK SMILES IDX 18 25 19 26 20 27 21 28 22 29 23 31 24 32 25 33 71 34 26 35
REMARK SMILES IDX 70 36 27 37 28 38 29 39 64 40 30 41 69 42 63 43 65 44 31 45
REMARK SMILES IDX 68 46 62 47 61 48 32 50 54 51 39 52 53 53 40 54 43 55 52 56
REMARK SMILES IDX 66 57 41 58 42 59 51 61 67 62 44 63 33 64 34 65 38 66 35 67
REMARK SMILES IDX 37 68 36 69 55 70 56 71 60 72 57 73 59 74 58 75 45 76 46 77
REMARK SMILES IDX 50 78 47 79 49 80 48 81
REMARK H PARENT 14 7 7 16 21 30 65 49 43 60
REMARK Flexibility Score: inf
ROOT
ATOM      1  C   UNL A   1      33.393  28.512  25.769  1.00  0.00     0.002 C 
ENDROOT
BRANCH   1   2
ATOM      2  C   UNL A   1      32.742  29.475  24.770  1.00  0.00     0.021 C 
BRANCH   2   3
ATOM      3  C   UNL A   1      31.259  29.796  24.944  1.00  0.00     0.116 C 
BRANCH   3   4
ATOM      4  N   UNL A   1      30.484  29.778  23.722  1.00  0.00    -0.352 N 
ATOM      5  C   UNL A   1      30.081  28.719  22.942  1.00  0.00     0.251 C 
ATOM      6  O   UNL A   1      29.421  28.951  21.930  1.00  0.00    -0.269 OA
ATOM      7  H   UNL A   1      30.199  30.663  23.398  1.00  0.00     0.163 HD
BRANCH   5   8
ATOM      8  C   UNL A   1      30.447  27.308  23.255  1.00  0.00     0.041 A 
ATOM      9  C   UNL A   1      31.238  24.618  23.763  1.00  0.00     0.049 A 
ATOM     10  C   UNL A   1      30.290  25.266  24.562  1.00  0.00     0.028 A 
ATOM     11  C   UNL A   1      31.763  25.352  22.680  1.00  0.00     0.041 A 
ATOM     12  C   UNL A   1      29.872  26.577  24.294  1.00  0.00     0.016 A 
ATOM     13  C   UNL A   1      31.377  26.674  22.425  1.00  0.00     0.031 A 
ATOM     14  Br  UNL A   1      33.012  24.554  21.479  1.00  0.00    -0.049 Br
BRANCH   9  15
ATOM     15  N   UNL A   1      31.646  23.318  24.002  1.00  0.00    -0.380 N 
ATOM     16  H   UNL A   1      31.106  22.601  23.597  1.00  0.00     0.160 HD
BRANCH  15  17
ATOM     17  C   UNL A   1      32.793  22.911  24.789  1.00  0.00     0.148 C 
BRANCH  17  18
ATOM     18  C   UNL A   1      33.122  21.460  24.515  1.00  0.00    -0.029 A 
ATOM     19  C   UNL A   1      34.004  17.294  23.794  1.00  0.00     0.044 C 
ATOM     20  C   UNL A   1      33.700  18.738  24.061  1.00  0.00    -0.051 A 
ATOM     21  C   UNL A   1      32.543  19.314  23.527  1.00  0.00     0.004 A 
ATOM     22  C   UNL A   1      34.561  19.527  24.830  1.00  0.00     0.004 A 
ATOM     23  C   UNL A   1      32.253  20.659  23.759  1.00  0.00     0.006 A 
ATOM     24  C   UNL A   1      34.274  20.877  25.059  1.00  0.00     0.006 A 
ENDBRANCH  17  18
ENDBRANCH  15  17
ENDBRANCH   9  15
ENDBRANCH   5   8
ENDBRANCH   3   4
ENDBRANCH   2   3
ENDBRANCH   1   2
BRANCH   1  25
ATOM     25  C   UNL A   1      34.097  29.098  27.000  1.00  0.00     0.002 C 
BRANCH  25  26
ATOM     26  C   UNL A   1      33.481  30.334  27.653  1.00  0.00     0.021 C 
BRANCH  26  27
ATOM     27  C   UNL A   1      34.403  31.535  27.806  1.00  0.00     0.116 C 
BRANCH  27  28
ATOM     28  N   UNL A   1      34.683  31.928  29.181  1.00  0.00    -0.352 N 
ATOM     29  C   UNL A   1      35.629  31.403  30.049  1.00  0.00     0.251 C 
ATOM     30  H   UNL A   1      34.131  32.659  29.540  1.00  0.00     0.163 HD
ATOM     31  O   UNL A   1      35.754  31.846  31.179  1.00  0.00    -0.269 OA
BRANCH  29  32
ATOM     32  C   UNL A   1      36.571  30.372  29.544  1.00  0.00     0.039 A 
ATOM     33  C   UNL A   1      36.861  29.285  30.374  1.00  0.00     0.014 A 
ATOM     34  C   UNL A   1      37.297  30.572  28.371  1.00  0.00     0.014 A 
ATOM     35  C   UNL A   1      38.024  28.550  30.153  1.00  0.00     0.010 A 
ATOM     36  C   UNL A   1      38.499  29.908  28.203  1.00  0.00     0.010 A 
ATOM     37  C   UNL A   1      38.897  28.948  29.136  1.00  0.00    -0.014 A 
BRANCH  37  38
ATOM     38  C   UNL A   1      40.294  28.524  29.097  1.00  0.00     0.031 A 
ATOM     39  C   UNL A   1      40.689  27.233  28.503  1.00  0.00     0.074 A 
ATOM     40  C   UNL A   1      41.254  29.295  29.659  1.00  0.00     0.049 A 
ATOM     41  N   UNL A   1      41.642  26.493  28.971  1.00  0.00    -0.248 NA
ATOM     42  C   UNL A   1      40.010  26.653  27.351  1.00  0.00     0.031 C 
ATOM     43  C   UNL A   1      42.699  29.104  29.563  1.00  0.00     0.029 A 
ATOM     44  N   UNL A   1      41.106  30.275  30.641  1.00  0.00    -0.354 N 
ATOM     45  C   UNL A   1      41.886  25.511  28.041  1.00  0.00     0.074 A 
ATOM     46  C   UNL A   1      40.790  25.597  27.098  1.00  0.00     0.031 C 
ATOM     47  C   UNL A   1      43.274  29.671  30.635  1.00  0.00     0.029 A 
ATOM     48  C   UNL A   1      42.208  30.148  31.500  1.00  0.00     0.049 A 
ATOM     49  H   UNL A   1      40.373  30.927  30.717  1.00  0.00     0.167 HD
ATOM     50  C   UNL A   1      43.059  24.821  28.056  1.00  0.00     0.031 A 
ATOM     51  C   UNL A   1      42.117  29.944  32.843  1.00  0.00     0.031 A 
ATOM     52  C   UNL A   1      43.963  25.266  29.109  1.00  0.00     0.049 A 
ATOM     53  C   UNL A   1      42.894  28.742  33.326  1.00  0.00     0.074 A 
ATOM     54  C   UNL A   1      45.069  26.102  29.097  1.00  0.00     0.029 A 
ATOM     55  N   UNL A   1      43.639  25.059  30.442  1.00  0.00    -0.354 N 
ATOM     56  N   UNL A   1      43.327  27.796  32.542  1.00  0.00    -0.248 NA
ATOM     57  C   UNL A   1      43.160  28.463  34.735  1.00  0.00     0.031 C 
ATOM     58  C   UNL A   1      45.408  26.404  30.437  1.00  0.00     0.029 A 
ATOM     59  C   UNL A   1      44.512  25.748  31.260  1.00  0.00     0.049 A 
ATOM     60  H   UNL A   1      42.892  24.501  30.759  1.00  0.00     0.167 HD
ATOM     61  C   UNL A   1      43.897  26.800  33.295  1.00  0.00     0.074 A 
ATOM     62  C   UNL A   1      43.779  27.272  34.662  1.00  0.00     0.031 C 
ATOM     63  C   UNL A   1      44.390  25.669  32.710  1.00  0.00     0.031 A 
BRANCH  50  64
ATOM     64  C   UNL A   1      43.503  23.949  26.908  1.00  0.00    -0.014 A 
ATOM     65  C   UNL A   1      43.017  22.633  26.799  1.00  0.00     0.009 A 
ATOM     66  C   UNL A   1      44.417  24.359  25.924  1.00  0.00     0.009 A 
ATOM     67  C   UNL A   1      43.502  21.741  25.836  1.00  0.00     0.001 A 
ATOM     68  C   UNL A   1      44.938  23.460  24.982  1.00  0.00     0.001 A 
ATOM     69  C   UNL A   1      44.489  22.145  24.948  1.00  0.00     0.000 A 
ENDBRANCH  50  64
BRANCH  51  70
ATOM     70  C   UNL A   1      40.849  30.402  33.463  1.00  0.00    -0.014 A 
ATOM     71  C   UNL A   1      40.692  31.771  33.749  1.00  0.00     0.009 A 
ATOM     72  C   UNL A   1      39.712  29.582  33.446  1.00  0.00     0.009 A 
ATOM     73  C   UNL A   1      39.419  32.322  33.923  1.00  0.00     0.001 A 
ATOM     74  C   UNL A   1      38.440  30.137  33.626  1.00  0.00     0.001 A 
ATOM     75  C   UNL A   1      38.293  31.508  33.837  1.00  0.00     0.000 A 
ENDBRANCH  51  70
BRANCH  63  76
ATOM     76  C   UNL A   1      44.875  24.407  33.392  1.00  0.00    -0.014 A 
ATOM     77  C   UNL A   1      46.181  24.180  33.838  1.00  0.00     0.009 A 
ATOM     78  C   UNL A   1      43.928  23.402  33.705  1.00  0.00     0.009 A 
ATOM     79  C   UNL A   1      46.529  23.005  34.526  1.00  0.00     0.001 A 
ATOM     80  C   UNL A   1      44.258  22.250  34.423  1.00  0.00     0.001 A 
ATOM     81  C   UNL A   1      45.568  22.047  34.826  1.00  0.00     0.000 A 
ENDBRANCH  63  76
ENDBRANCH  37  38
ENDBRANCH  29  32
ENDBRANCH  27  28
ENDBRANCH  26  27
ENDBRANCH  25  26
ENDBRANCH   1  25
TORSDOF 16
ENDMDL
