MODEL 1
REMARK VINA RESULT:     -10.8      0.000      0.000
REMARK SMILES Cc1cc(N(C)[C@H]2CC[C@@H](C)CC2)cc(C(=O)NCCCCCCNC(=O)c2ccc(-c3c4nc(c(-c5ccccc5)c5ccc([nH]5)c(-c5ccccc5)c5nc(c(-c6ccccc6)c6ccc3[nH]6)C=C5)C=C4)cc2)c1N
REMARK SMILES IDX 21 1 20 2 19 3 18 4 16 5 17 6 15 8 1 9 2 10 3 11 76 12 4 13
REMARK SMILES IDX 14 14 77 15 5 18 6 19 7 20 8 21 13 22 9 23 12 24 10 25 11 26
REMARK SMILES IDX 22 27 23 28 24 29 25 30 26 31 27 33 28 34 29 35 75 36 30 37
REMARK SMILES IDX 74 38 31 39 32 40 33 41 68 42 34 43 73 44 67 45 69 46 35 47
REMARK SMILES IDX 72 48 66 49 65 50 36 52 58 53 43 54 57 55 44 56 47 57 56 58
REMARK SMILES IDX 70 59 45 60 46 61 55 63 71 64 48 65 37 66 38 67 42 68 39 69
REMARK SMILES IDX 41 70 40 71 59 72 60 73 64 74 61 75 63 76 62 77 49 78 50 79
REMARK SMILES IDX 54 80 51 81 53 82 52 83
REMARK H PARENT 18 7 77 16 77 17 25 32 69 51 47 62
REMARK Flexibility Score: inf
ROOT
ATOM      1  C   UNL A   1      34.367  32.211  28.733  1.00  0.00     0.002 C 
ENDROOT
BRANCH   1   2
ATOM      2  C   UNL A   1      35.222  31.559  27.639  1.00  0.00     0.021 C 
BRANCH   2   3
ATOM      3  C   UNL A   1      35.003  30.048  27.573  1.00  0.00     0.116 C 
BRANCH   3   4
ATOM      4  N   UNL A   1      33.589  29.789  27.741  1.00  0.00    -0.352 N 
ATOM      5  C   UNL A   1      32.706  29.037  27.008  1.00  0.00     0.253 C 
ATOM      6  O   UNL A   1      31.510  29.153  27.281  1.00  0.00    -0.269 OA
ATOM      7  H   UNL A   1      33.188  30.232  28.523  1.00  0.00     0.163 HD
BRANCH   5   8
ATOM      8  C   UNL A   1      33.178  28.011  26.033  1.00  0.00     0.065 A 
ATOM      9  C   UNL A   1      33.738  27.609  22.303  1.00  0.00     0.046 C 
ATOM     10  C   UNL A   1      33.390  27.338  23.740  1.00  0.00    -0.025 A 
ATOM     11  C   UNL A   1      33.352  26.006  24.176  1.00  0.00     0.031 A 
ATOM     12  C   UNL A   1      33.255  28.367  24.673  1.00  0.00     0.047 A 
ATOM     13  C   UNL A   1      33.662  25.671  25.491  1.00  0.00     0.038 A 
ATOM     14  C   UNL A   1      33.539  26.709  26.421  1.00  0.00     0.042 A 
BRANCH  12  15
ATOM     15  N   UNL A   1      33.312  29.695  24.265  1.00  0.00    -0.398 N 
ATOM     16  H   UNL A   1      33.392  29.914  23.309  1.00  0.00     0.156 HD
ATOM     17  H   UNL A   1      33.271  30.417  24.934  1.00  0.00     0.156 HD
ENDBRANCH  12  15
BRANCH  13  18
ATOM     18  N   UNL A   1      34.174  24.426  25.843  1.00  0.00    -0.372 N 
ATOM     19  C   UNL A   1      35.560  24.146  25.450  1.00  0.00     0.144 C 
BRANCH  18  20
ATOM     20  C   UNL A   1      33.554  23.485  26.841  1.00  0.00     0.082 C 
ATOM     21  C   UNL A   1      34.321  22.144  26.942  1.00  0.00     0.025 C 
ATOM     22  C   UNL A   1      32.086  23.075  26.638  1.00  0.00     0.025 C 
ATOM     23  C   UNL A   1      34.052  21.134  25.812  1.00  0.00     0.005 C 
ATOM     24  C   UNL A   1      31.875  22.372  25.305  1.00  0.00     0.005 C 
ATOM     25  C   UNL A   1      32.607  21.039  25.280  1.00  0.00    -0.014 C 
ATOM     26  C   UNL A   1      32.582  20.479  23.853  1.00  0.00     0.007 C 
ENDBRANCH  18  20
ENDBRANCH  13  18
ENDBRANCH   5   8
ENDBRANCH   3   4
ENDBRANCH   2   3
ENDBRANCH   1   2
BRANCH   1  27
ATOM     27  C   UNL A   1      34.522  33.735  28.812  1.00  0.00     0.002 C 
BRANCH  27  28
ATOM     28  C   UNL A   1      33.206  34.485  29.027  1.00  0.00     0.021 C 
BRANCH  28  29
ATOM     29  C   UNL A   1      33.400  35.929  29.472  1.00  0.00     0.116 C 
BRANCH  29  30
ATOM     30  N   UNL A   1      32.586  36.227  30.642  1.00  0.00    -0.352 N 
ATOM     31  C   UNL A   1      32.658  35.681  31.892  1.00  0.00     0.251 C 
ATOM     32  H   UNL A   1      31.892  36.914  30.516  1.00  0.00     0.163 HD
ATOM     33  O   UNL A   1      31.723  35.810  32.687  1.00  0.00    -0.269 OA
BRANCH  31  34
ATOM     34  C   UNL A   1      33.864  34.934  32.285  1.00  0.00     0.039 A 
ATOM     35  C   UNL A   1      33.751  33.588  32.637  1.00  0.00     0.014 A 
ATOM     36  C   UNL A   1      35.107  35.575  32.309  1.00  0.00     0.014 A 
ATOM     37  C   UNL A   1      34.898  32.871  32.974  1.00  0.00     0.010 A 
ATOM     38  C   UNL A   1      36.256  34.840  32.570  1.00  0.00     0.010 A 
ATOM     39  C   UNL A   1      36.161  33.485  32.917  1.00  0.00    -0.014 A 
BRANCH  39  40
ATOM     40  C   UNL A   1      37.395  32.728  33.232  1.00  0.00     0.031 A 
ATOM     41  C   UNL A   1      38.124  32.982  34.522  1.00  0.00     0.074 A 
ATOM     42  C   UNL A   1      37.888  31.858  32.330  1.00  0.00     0.049 A 
ATOM     43  N   UNL A   1      39.245  32.462  34.951  1.00  0.00    -0.248 NA
ATOM     44  C   UNL A   1      37.530  33.968  35.440  1.00  0.00     0.031 C 
ATOM     45  C   UNL A   1      37.290  31.556  31.028  1.00  0.00     0.029 A 
ATOM     46  N   UNL A   1      39.009  31.071  32.371  1.00  0.00    -0.354 N 
ATOM     47  C   UNL A   1      39.497  33.067  36.175  1.00  0.00     0.074 A 
ATOM     48  C   UNL A   1      38.442  34.030  36.399  1.00  0.00     0.031 C 
ATOM     49  C   UNL A   1      38.035  30.626  30.407  1.00  0.00     0.029 A 
ATOM     50  C   UNL A   1      39.184  30.301  31.247  1.00  0.00     0.049 A 
ATOM     51  H   UNL A   1      39.632  31.057  33.135  1.00  0.00     0.167 HD
ATOM     52  C   UNL A   1      40.506  32.826  37.046  1.00  0.00     0.031 A 
ATOM     53  C   UNL A   1      40.164  29.436  30.925  1.00  0.00     0.031 A 
ATOM     54  C   UNL A   1      41.547  31.859  36.827  1.00  0.00     0.049 A 
ATOM     55  C   UNL A   1      41.282  29.204  31.903  1.00  0.00     0.074 A 
ATOM     56  C   UNL A   1      42.582  31.502  37.671  1.00  0.00     0.029 A 
ATOM     57  N   UNL A   1      41.685  31.097  35.677  1.00  0.00    -0.354 N 
ATOM     58  N   UNL A   1      41.467  29.732  33.088  1.00  0.00    -0.248 NA
ATOM     59  C   UNL A   1      42.320  28.244  31.502  1.00  0.00     0.031 C 
ATOM     60  C   UNL A   1      43.380  30.563  37.009  1.00  0.00     0.029 A 
ATOM     61  C   UNL A   1      42.804  30.289  35.780  1.00  0.00     0.049 A 
ATOM     62  H   UNL A   1      41.077  31.125  34.903  1.00  0.00     0.167 HD
ATOM     63  C   UNL A   1      42.623  29.146  33.588  1.00  0.00     0.074 A 
ATOM     64  C   UNL A   1      43.086  28.210  32.584  1.00  0.00     0.031 C 
ATOM     65  C   UNL A   1      43.246  29.362  34.772  1.00  0.00     0.031 A 
BRANCH  52  66
ATOM     66  C   UNL A   1      40.535  33.629  38.318  1.00  0.00    -0.014 A 
ATOM     67  C   UNL A   1      39.835  33.210  39.461  1.00  0.00     0.009 A 
ATOM     68  C   UNL A   1      41.314  34.794  38.389  1.00  0.00     0.009 A 
ATOM     69  C   UNL A   1      39.889  33.958  40.639  1.00  0.00     0.001 A 
ATOM     70  C   UNL A   1      41.391  35.524  39.576  1.00  0.00     0.001 A 
ATOM     71  C   UNL A   1      40.672  35.111  40.697  1.00  0.00     0.000 A 
ENDBRANCH  52  66
BRANCH  53  72
ATOM     72  C   UNL A   1      40.133  28.719  29.623  1.00  0.00    -0.014 A 
ATOM     73  C   UNL A   1      40.677  29.308  28.472  1.00  0.00     0.009 A 
ATOM     74  C   UNL A   1      39.540  27.451  29.520  1.00  0.00     0.009 A 
ATOM     75  C   UNL A   1      40.595  28.658  27.237  1.00  0.00     0.001 A 
ATOM     76  C   UNL A   1      39.489  26.789  28.291  1.00  0.00     0.001 A 
ATOM     77  C   UNL A   1      40.006  27.399  27.149  1.00  0.00     0.000 A 
ENDBRANCH  53  72
BRANCH  65  78
ATOM     78  C   UNL A   1      44.471  28.540  35.064  1.00  0.00    -0.014 A 
ATOM     79  C   UNL A   1      45.755  28.998  34.733  1.00  0.00     0.009 A 
ATOM     80  C   UNL A   1      44.336  27.307  35.720  1.00  0.00     0.009 A 
ATOM     81  C   UNL A   1      46.878  28.219  35.021  1.00  0.00     0.001 A 
ATOM     82  C   UNL A   1      45.461  26.545  36.036  1.00  0.00     0.001 A 
ATOM     83  C   UNL A   1      46.729  26.997  35.678  1.00  0.00     0.000 A 
ENDBRANCH  65  78
ENDBRANCH  39  40
ENDBRANCH  31  34
ENDBRANCH  29  30
ENDBRANCH  28  29
ENDBRANCH  27  28
ENDBRANCH   1  27
TORSDOF 16
ENDMDL
MODEL 2
REMARK VINA RESULT:     -10.7      0.310      5.863
REMARK SMILES Cc1cc(N(C)[C@H]2CC[C@@H](C)CC2)cc(C(=O)NCCCCCCNC(=O)c2ccc(-c3c4nc(c(-c5ccccc5)c5ccc([nH]5)c(-c5ccccc5)c5nc(c(-c6ccccc6)c6ccc3[nH]6)C=C5)C=C4)cc2)c1N
REMARK SMILES IDX 21 1 20 2 19 3 18 4 16 5 17 6 15 8 1 9 2 10 3 11 76 12 4 13
REMARK SMILES IDX 14 14 77 15 5 18 6 19 7 20 8 21 13 22 9 23 12 24 10 25 11 26
REMARK SMILES IDX 22 27 23 28 24 29 25 30 26 31 27 33 28 34 29 35 75 36 30 37
REMARK SMILES IDX 74 38 31 39 32 40 33 41 68 42 34 43 73 44 67 45 69 46 35 47
REMARK SMILES IDX 72 48 66 49 65 50 36 52 58 53 43 54 57 55 44 56 47 57 56 58
REMARK SMILES IDX 70 59 45 60 46 61 55 63 71 64 48 65 37 66 38 67 42 68 39 69
REMARK SMILES IDX 41 70 40 71 59 72 60 73 64 74 61 75 63 76 62 77 49 78 50 79
REMARK SMILES IDX 54 80 51 81 53 82 52 83
REMARK H PARENT 18 7 77 16 77 17 25 32 69 51 47 62
REMARK Flexibility Score: inf
ROOT
ATOM      1  C   UNL A   1      34.513  32.178  28.784  1.00  0.00     0.002 C 
ENDROOT
BRANCH   1   2
ATOM      2  C   UNL A   1      35.372  31.499  27.709  1.00  0.00     0.021 C 
BRANCH   2   3
ATOM      3  C   UNL A   1      35.071  30.005  27.602  1.00  0.00     0.116 C 
BRANCH   3   4
ATOM      4  N   UNL A   1      33.641  29.821  27.735  1.00  0.00    -0.352 N 
ATOM      5  C   UNL A   1      32.737  29.120  26.978  1.00  0.00     0.253 C 
ATOM      6  O   UNL A   1      31.543  29.300  27.223  1.00  0.00    -0.269 OA
ATOM      7  H   UNL A   1      33.246  30.283  28.509  1.00  0.00     0.163 HD
BRANCH   5   8
ATOM      8  C   UNL A   1      33.177  28.074  26.009  1.00  0.00     0.065 A 
ATOM      9  C   UNL A   1      33.689  27.617  22.279  1.00  0.00     0.046 C 
ATOM     10  C   UNL A   1      33.351  27.370  23.723  1.00  0.00    -0.025 A 
ATOM     11  C   UNL A   1      33.289  26.044  24.174  1.00  0.00     0.031 A 
ATOM     12  C   UNL A   1      33.247  28.412  24.645  1.00  0.00     0.047 A 
ATOM     13  C   UNL A   1      33.606  25.717  25.489  1.00  0.00     0.038 A 
ATOM     14  C   UNL A   1      33.515  26.769  26.409  1.00  0.00     0.042 A 
BRANCH  12  15
ATOM     15  N   UNL A   1      33.327  29.734  24.221  1.00  0.00    -0.398 N 
ATOM     16  H   UNL A   1      32.630  30.107  23.635  1.00  0.00     0.156 HD
ATOM     17  H   UNL A   1      34.082  30.297  24.508  1.00  0.00     0.156 HD
ENDBRANCH  12  15
BRANCH  13  18
ATOM     18  N   UNL A   1      34.096  24.466  25.851  1.00  0.00    -0.372 N 
ATOM     19  C   UNL A   1      35.491  24.177  25.502  1.00  0.00     0.144 C 
BRANCH  18  20
ATOM     20  C   UNL A   1      33.435  23.525  26.822  1.00  0.00     0.082 C 
ATOM     21  C   UNL A   1      34.159  22.159  26.905  1.00  0.00     0.025 C 
ATOM     22  C   UNL A   1      31.958  23.165  26.594  1.00  0.00     0.025 C 
ATOM     23  C   UNL A   1      33.873  21.181  25.751  1.00  0.00     0.005 C 
ATOM     24  C   UNL A   1      31.740  22.496  25.245  1.00  0.00     0.005 C 
ATOM     25  C   UNL A   1      32.431  21.142  25.201  1.00  0.00    -0.014 C 
ATOM     26  C   UNL A   1      32.407  20.611  23.763  1.00  0.00     0.007 C 
ENDBRANCH  18  20
ENDBRANCH  13  18
ENDBRANCH   5   8
ENDBRANCH   3   4
ENDBRANCH   2   3
ENDBRANCH   1   2
BRANCH   1  27
ATOM     27  C   UNL A   1      34.637  33.707  28.799  1.00  0.00     0.002 C 
BRANCH  27  28
ATOM     28  C   UNL A   1      33.304  34.438  28.972  1.00  0.00     0.021 C 
BRANCH  28  29
ATOM     29  C   UNL A   1      33.455  35.834  29.564  1.00  0.00     0.116 C 
BRANCH  29  30
ATOM     30  N   UNL A   1      32.565  36.014  30.703  1.00  0.00    -0.352 N 
ATOM     31  C   UNL A   1      32.629  35.429  31.935  1.00  0.00     0.251 C 
ATOM     32  H   UNL A   1      31.819  36.642  30.566  1.00  0.00     0.163 HD
ATOM     33  O   UNL A   1      31.651  35.446  32.688  1.00  0.00    -0.269 OA
BRANCH  31  34
ATOM     34  C   UNL A   1      33.877  34.776  32.360  1.00  0.00     0.039 A 
ATOM     35  C   UNL A   1      33.851  33.436  32.747  1.00  0.00     0.014 A 
ATOM     36  C   UNL A   1      35.074  35.499  32.379  1.00  0.00     0.014 A 
ATOM     37  C   UNL A   1      35.040  32.807  33.115  1.00  0.00     0.010 A 
ATOM     38  C   UNL A   1      36.267  34.851  32.672  1.00  0.00     0.010 A 
ATOM     39  C   UNL A   1      36.259  33.502  33.054  1.00  0.00    -0.014 A 
BRANCH  39  40
ATOM     40  C   UNL A   1      37.537  32.839  33.402  1.00  0.00     0.031 A 
ATOM     41  C   UNL A   1      38.146  31.839  32.459  1.00  0.00     0.074 A 
ATOM     42  C   UNL A   1      38.115  33.095  34.591  1.00  0.00     0.049 A 
ATOM     43  N   UNL A   1      39.227  31.116  32.610  1.00  0.00    -0.248 NA
ATOM     44  C   UNL A   1      37.436  31.599  31.192  1.00  0.00     0.031 C 
ATOM     45  C   UNL A   1      37.599  34.017  35.606  1.00  0.00     0.029 A 
ATOM     46  N   UNL A   1      39.264  32.598  35.150  1.00  0.00    -0.354 N 
ATOM     47  C   UNL A   1      39.316  30.330  31.470  1.00  0.00     0.074 A 
ATOM     48  C   UNL A   1      38.155  30.623  30.659  1.00  0.00     0.031 C 
ATOM     49  C   UNL A   1      38.443  34.041  36.649  1.00  0.00     0.029 A 
ATOM     50  C   UNL A   1      39.534  33.105  36.397  1.00  0.00     0.049 A 
ATOM     51  H   UNL A   1      39.842  31.938  34.699  1.00  0.00     0.167 HD
ATOM     52  C   UNL A   1      40.289  29.456  31.118  1.00  0.00     0.031 A 
ATOM     53  C   UNL A   1      40.545  32.841  37.247  1.00  0.00     0.031 A 
ATOM     54  C   UNL A   1      41.448  29.175  31.921  1.00  0.00     0.049 A 
ATOM     55  C   UNL A   1      41.601  31.850  36.838  1.00  0.00     0.074 A 
ATOM     56  C   UNL A   1      42.518  28.348  31.629  1.00  0.00     0.029 A 
ATOM     57  N   UNL A   1      41.687  29.714  33.176  1.00  0.00    -0.354 N 
ATOM     58  N   UNL A   1      41.707  31.168  35.725  1.00  0.00    -0.248 NA
ATOM     59  C   UNL A   1      42.683  31.606  37.802  1.00  0.00     0.031 C 
ATOM     60  C   UNL A   1      43.377  28.342  32.732  1.00  0.00     0.029 A 
ATOM     61  C   UNL A   1      42.875  29.216  33.683  1.00  0.00     0.049 A 
ATOM     62  H   UNL A   1      41.100  30.355  33.638  1.00  0.00     0.167 HD
ATOM     63  C   UNL A   1      42.884  30.438  35.840  1.00  0.00     0.074 A 
ATOM     64  C   UNL A   1      43.463  30.775  37.124  1.00  0.00     0.031 C 
ATOM     65  C   UNL A   1      43.436  29.566  34.961  1.00  0.00     0.031 A 
BRANCH  52  66
ATOM     66  C   UNL A   1      40.137  28.733  29.808  1.00  0.00    -0.014 A 
ATOM     67  C   UNL A   1      40.607  29.293  28.609  1.00  0.00     0.009 A 
ATOM     68  C   UNL A   1      39.561  27.454  29.780  1.00  0.00     0.009 A 
ATOM     69  C   UNL A   1      40.475  28.599  27.404  1.00  0.00     0.001 A 
ATOM     70  C   UNL A   1      39.457  26.750  28.578  1.00  0.00     0.001 A 
ATOM     71  C   UNL A   1      39.906  27.325  27.391  1.00  0.00     0.000 A 
ENDBRANCH  52  66
BRANCH  53  72
ATOM     72  C   UNL A   1      40.615  33.524  38.565  1.00  0.00    -0.014 A 
ATOM     73  C   UNL A   1      39.962  32.984  39.683  1.00  0.00     0.009 A 
ATOM     74  C   UNL A   1      41.317  34.731  38.708  1.00  0.00     0.009 A 
ATOM     75  C   UNL A   1      39.980  33.658  40.908  1.00  0.00     0.001 A 
ATOM     76  C   UNL A   1      41.360  35.385  39.941  1.00  0.00     0.001 A 
ATOM     77  C   UNL A   1      40.682  34.855  41.036  1.00  0.00     0.000 A 
ENDBRANCH  53  72
BRANCH  65  78
ATOM     78  C   UNL A   1      44.754  28.951  35.340  1.00  0.00    -0.014 A 
ATOM     79  C   UNL A   1      45.966  29.623  35.123  1.00  0.00     0.009 A 
ATOM     80  C   UNL A   1      44.776  27.693  35.964  1.00  0.00     0.009 A 
ATOM     81  C   UNL A   1      47.177  29.033  35.490  1.00  0.00     0.001 A 
ATOM     82  C   UNL A   1      45.984  27.119  36.360  1.00  0.00     0.001 A 
ATOM     83  C   UNL A   1      47.183  27.784  36.114  1.00  0.00     0.000 A 
ENDBRANCH  65  78
ENDBRANCH  39  40
ENDBRANCH  31  34
ENDBRANCH  29  30
ENDBRANCH  28  29
ENDBRANCH  27  28
ENDBRANCH   1  27
TORSDOF 16
ENDMDL
MODEL 3
REMARK VINA RESULT:     -10.7      2.772      4.012
REMARK SMILES Cc1cc(N(C)[C@H]2CC[C@@H](C)CC2)cc(C(=O)NCCCCCCNC(=O)c2ccc(-c3c4nc(c(-c5ccccc5)c5ccc([nH]5)c(-c5ccccc5)c5nc(c(-c6ccccc6)c6ccc3[nH]6)C=C5)C=C4)cc2)c1N
REMARK SMILES IDX 21 1 20 2 19 3 18 4 16 5 17 6 15 8 1 9 2 10 3 11 76 12 4 13
REMARK SMILES IDX 14 14 77 15 5 18 6 19 7 20 8 21 13 22 9 23 12 24 10 25 11 26
REMARK SMILES IDX 22 27 23 28 24 29 25 30 26 31 27 33 28 34 29 35 75 36 30 37
REMARK SMILES IDX 74 38 31 39 32 40 33 41 68 42 34 43 73 44 67 45 69 46 35 47
REMARK SMILES IDX 72 48 66 49 65 50 36 52 58 53 43 54 57 55 44 56 47 57 56 58
REMARK SMILES IDX 70 59 45 60 46 61 55 63 71 64 48 65 37 66 38 67 42 68 39 69
REMARK SMILES IDX 41 70 40 71 59 72 60 73 64 74 61 75 63 76 62 77 49 78 50 79
REMARK SMILES IDX 54 80 51 81 53 82 52 83
REMARK H PARENT 18 7 77 16 77 17 25 32 69 51 47 62
REMARK Flexibility Score: inf
ROOT
ATOM      1  C   UNL A   1      30.709  29.602  24.243  1.00  0.00     0.002 C 
ENDROOT
BRANCH   1   2
ATOM      2  C   UNL A   1      30.499  28.090  24.088  1.00  0.00     0.021 C 
BRANCH   2   3
ATOM      3  C   UNL A   1      30.439  27.673  22.619  1.00  0.00     0.116 C 
BRANCH   3   4
ATOM      4  N   UNL A   1      31.771  27.780  22.064  1.00  0.00    -0.352 N 
ATOM      5  C   UNL A   1      32.907  27.037  22.268  1.00  0.00     0.253 C 
ATOM      6  O   UNL A   1      33.957  27.480  21.799  1.00  0.00    -0.269 OA
ATOM      7  H   UNL A   1      31.883  28.519  21.424  1.00  0.00     0.163 HD
BRANCH   5   8
ATOM      8  C   UNL A   1      32.851  25.682  22.891  1.00  0.00     0.065 A 
ATOM      9  C   UNL A   1      32.269  22.067  21.903  1.00  0.00     0.046 C 
ATOM     10  C   UNL A   1      32.273  23.366  22.660  1.00  0.00    -0.025 A 
ATOM     11  C   UNL A   1      32.054  23.330  24.044  1.00  0.00     0.031 A 
ATOM     12  C   UNL A   1      32.633  24.571  22.055  1.00  0.00     0.047 A 
ATOM     13  C   UNL A   1      32.626  24.278  24.887  1.00  0.00     0.038 A 
ATOM     14  C   UNL A   1      32.999  25.480  24.274  1.00  0.00     0.042 A 
BRANCH  12  15
ATOM     15  N   UNL A   1      32.876  24.624  20.687  1.00  0.00    -0.398 N 
ATOM     16  H   UNL A   1      33.688  25.063  20.348  1.00  0.00     0.156 HD
ATOM     17  H   UNL A   1      32.234  24.222  20.057  1.00  0.00     0.156 HD
ENDBRANCH  12  15
BRANCH  13  18
ATOM     18  N   UNL A   1      32.920  24.013  26.221  1.00  0.00    -0.372 N 
ATOM     19  C   UNL A   1      31.783  23.938  27.145  1.00  0.00     0.144 C 
BRANCH  18  20
ATOM     20  C   UNL A   1      34.238  23.498  26.731  1.00  0.00     0.082 C 
ATOM     21  C   UNL A   1      35.277  23.311  25.598  1.00  0.00     0.025 C 
ATOM     22  C   UNL A   1      34.252  22.161  27.490  1.00  0.00     0.025 C 
ATOM     23  C   UNL A   1      35.107  22.044  24.739  1.00  0.00     0.005 C 
ATOM     24  C   UNL A   1      33.731  21.018  26.632  1.00  0.00     0.005 C 
ATOM     25  C   UNL A   1      34.668  20.755  25.463  1.00  0.00    -0.014 C 
ATOM     26  C   UNL A   1      33.996  19.780  24.489  1.00  0.00     0.007 C 
ENDBRANCH  18  20
ENDBRANCH  13  18
ENDBRANCH   5   8
ENDBRANCH   3   4
ENDBRANCH   2   3
ENDBRANCH   1   2
BRANCH   1  27
ATOM     27  C   UNL A   1      31.639  29.980  25.402  1.00  0.00     0.002 C 
BRANCH  27  28
ATOM     28  C   UNL A   1      31.320  31.335  26.040  1.00  0.00     0.021 C 
BRANCH  28  29
ATOM     29  C   UNL A   1      32.349  31.771  27.075  1.00  0.00     0.116 C 
BRANCH  29  30
ATOM     30  N   UNL A   1      32.231  33.194  27.358  1.00  0.00    -0.352 N 
ATOM     31  C   UNL A   1      32.984  33.961  28.201  1.00  0.00     0.251 C 
ATOM     32  H   UNL A   1      31.513  33.667  26.877  1.00  0.00     0.163 HD
ATOM     33  O   UNL A   1      32.585  35.072  28.563  1.00  0.00    -0.269 OA
BRANCH  31  34
ATOM     34  C   UNL A   1      34.280  33.451  28.676  1.00  0.00     0.039 A 
ATOM     35  C   UNL A   1      34.338  32.741  29.876  1.00  0.00     0.014 A 
ATOM     36  C   UNL A   1      35.440  33.686  27.930  1.00  0.00     0.014 A 
ATOM     37  C   UNL A   1      35.560  32.227  30.307  1.00  0.00     0.010 A 
ATOM     38  C   UNL A   1      36.640  33.108  28.322  1.00  0.00     0.010 A 
ATOM     39  C   UNL A   1      36.714  32.385  29.521  1.00  0.00    -0.014 A 
BRANCH  39  40
ATOM     40  C   UNL A   1      38.013  31.810  29.943  1.00  0.00     0.031 A 
ATOM     41  C   UNL A   1      38.911  32.583  30.869  1.00  0.00     0.074 A 
ATOM     42  C   UNL A   1      38.406  30.622  29.446  1.00  0.00     0.049 A 
ATOM     43  N   UNL A   1      40.105  32.274  31.306  1.00  0.00    -0.248 NA
ATOM     44  C   UNL A   1      38.415  33.885  31.346  1.00  0.00     0.031 C 
ATOM     45  C   UNL A   1      37.638  29.797  28.511  1.00  0.00     0.029 A 
ATOM     46  N   UNL A   1      39.555  29.904  29.656  1.00  0.00    -0.354 N 
ATOM     47  C   UNL A   1      40.506  33.345  32.093  1.00  0.00     0.074 A 
ATOM     48  C   UNL A   1      39.454  34.336  32.032  1.00  0.00     0.031 C 
ATOM     49  C   UNL A   1      38.323  28.672  28.251  1.00  0.00     0.029 A 
ATOM     50  C   UNL A   1      39.596  28.717  28.964  1.00  0.00     0.049 A 
ATOM     51  H   UNL A   1      40.282  30.209  30.246  1.00  0.00     0.167 HD
ATOM     52  C   UNL A   1      41.641  33.484  32.819  1.00  0.00     0.031 A 
ATOM     53  C   UNL A   1      40.555  27.775  28.907  1.00  0.00     0.031 A 
ATOM     54  C   UNL A   1      42.680  32.492  32.887  1.00  0.00     0.049 A 
ATOM     55  C   UNL A   1      41.814  27.964  29.708  1.00  0.00     0.074 A 
ATOM     56  C   UNL A   1      43.843  32.513  33.636  1.00  0.00     0.029 A 
ATOM     57  N   UNL A   1      42.681  31.302  32.176  1.00  0.00    -0.354 N 
ATOM     58  N   UNL A   1      42.146  28.951  30.503  1.00  0.00    -0.248 NA
ATOM     59  C   UNL A   1      42.823  26.900  29.612  1.00  0.00     0.031 C 
ATOM     60  C   UNL A   1      44.575  31.361  33.335  1.00  0.00     0.029 A 
ATOM     61  C   UNL A   1      43.838  30.592  32.449  1.00  0.00     0.049 A 
ATOM     62  H   UNL A   1      41.967  31.005  31.568  1.00  0.00     0.167 HD
ATOM     63  C   UNL A   1      43.388  28.613  31.027  1.00  0.00     0.074 A 
ATOM     64  C   UNL A   1      43.739  27.322  30.472  1.00  0.00     0.031 C 
ATOM     65  C   UNL A   1      44.168  29.308  31.890  1.00  0.00     0.031 A 
BRANCH  52  66
ATOM     66  C   UNL A   1      41.822  34.759  33.595  1.00  0.00    -0.014 A 
ATOM     67  C   UNL A   1      41.202  34.948  34.841  1.00  0.00     0.009 A 
ATOM     68  C   UNL A   1      42.662  35.766  33.096  1.00  0.00     0.009 A 
ATOM     69  C   UNL A   1      41.396  36.131  35.557  1.00  0.00     0.001 A 
ATOM     70  C   UNL A   1      42.878  36.936  33.827  1.00  0.00     0.001 A 
ATOM     71  C   UNL A   1      42.239  37.121  35.052  1.00  0.00     0.000 A 
ENDBRANCH  52  66
BRANCH  53  72
ATOM     72  C   UNL A   1      40.365  26.563  28.067  1.00  0.00    -0.014 A 
ATOM     73  C   UNL A   1      40.893  26.506  26.768  1.00  0.00     0.009 A 
ATOM     74  C   UNL A   1      39.637  25.464  28.551  1.00  0.00     0.009 A 
ATOM     75  C   UNL A   1      40.664  25.390  25.959  1.00  0.00     0.001 A 
ATOM     76  C   UNL A   1      39.438  24.337  27.751  1.00  0.00     0.001 A 
ATOM     77  C   UNL A   1      39.941  24.306  26.452  1.00  0.00     0.000 A 
ENDBRANCH  53  72
BRANCH  65  78
ATOM     78  C   UNL A   1      45.457  28.666  32.321  1.00  0.00    -0.014 A 
ATOM     79  C   UNL A   1      46.667  28.944  31.669  1.00  0.00     0.009 A 
ATOM     80  C   UNL A   1      45.462  27.801  33.427  1.00  0.00     0.009 A 
ATOM     81  C   UNL A   1      47.852  28.340  32.093  1.00  0.00     0.001 A 
ATOM     82  C   UNL A   1      46.653  27.224  33.870  1.00  0.00     0.001 A 
ATOM     83  C   UNL A   1      47.844  27.486  33.197  1.00  0.00     0.000 A 
ENDBRANCH  65  78
ENDBRANCH  39  40
ENDBRANCH  31  34
ENDBRANCH  29  30
ENDBRANCH  28  29
ENDBRANCH  27  28
ENDBRANCH   1  27
TORSDOF 16
ENDMDL
