MODEL 1
REMARK VINA RESULT:     -11.2      0.000      0.000
REMARK SMILES O=C(NCCCCCCNC(=O)c1cccc(Nc2ccc([N+](=O)[O-])cc2)c1)c1ccc(-c2c3nc(c(-c4ccccc4)c4ccc([nH]4)c(-c4ccccc4)c4nc(c(-c5ccccc5)c5ccc2[nH]5)C=C4)C=C3)cc1
REMARK SMILES IDX 7 1 6 2 5 3 4 4 3 5 1 6 2 7 29 9 30 10 76 11 31 12 75 13
REMARK SMILES IDX 32 14 33 15 34 16 69 17 35 18 74 19 68 20 70 21 36 22 73 23
REMARK SMILES IDX 67 24 66 25 37 27 59 28 44 29 58 30 45 31 48 32 57 33 71 34
REMARK SMILES IDX 46 35 47 36 56 38 72 39 49 40 38 41 39 42 43 43 40 44 42 45
REMARK SMILES IDX 41 46 60 47 61 48 65 49 62 50 64 51 63 52 50 53 51 54 55 55
REMARK SMILES IDX 52 56 54 57 53 58 8 59 9 60 10 61 11 62 12 64 13 65 14 66
REMARK SMILES IDX 28 67 15 68 17 69 16 70 18 71 19 73 20 74 27 75 21 76 26 77
REMARK SMILES IDX 22 78 23 79 24 80 25 81
REMARK H PARENT 3 8 70 26 48 37 10 63 18 72
REMARK Flexibility Score: inf
ROOT
ATOM      1  C   UNL A   1      35.402  20.645  25.064  1.00  0.00     0.002 C 
ENDROOT
BRANCH   1   2
ATOM      2  C   UNL A   1      36.541  19.625  24.972  1.00  0.00     0.002 C 
BRANCH   2   3
ATOM      3  C   UNL A   1      37.912  20.195  24.616  1.00  0.00     0.021 C 
BRANCH   3   4
ATOM      4  C   UNL A   1      38.879  20.343  25.784  1.00  0.00     0.116 C 
BRANCH   4   5
ATOM      5  N   UNL A   1      39.968  19.382  25.748  1.00  0.00    -0.352 N 
ATOM      6  O   UNL A   1      42.108  18.664  25.850  1.00  0.00    -0.269 OA
ATOM      7  C   UNL A   1      41.295  19.561  26.060  1.00  0.00     0.251 C 
ATOM      8  H   UNL A   1      39.721  18.475  25.458  1.00  0.00     0.163 HD
BRANCH   7   9
ATOM      9  C   UNL A   1      41.751  20.851  26.620  1.00  0.00     0.039 A 
ATOM     10  C   UNL A   1      41.735  21.080  27.997  1.00  0.00     0.014 A 
ATOM     11  C   UNL A   1      42.189  21.855  25.749  1.00  0.00     0.014 A 
ATOM     12  C   UNL A   1      42.000  22.354  28.489  1.00  0.00     0.010 A 
ATOM     13  C   UNL A   1      42.543  23.109  26.255  1.00  0.00     0.010 A 
ATOM     14  C   UNL A   1      42.410  23.383  27.624  1.00  0.00    -0.014 A 
BRANCH  14  15
ATOM     15  C   UNL A   1      42.729  24.718  28.190  1.00  0.00     0.031 A 
ATOM     16  C   UNL A   1      44.146  25.120  28.497  1.00  0.00     0.074 A 
ATOM     17  C   UNL A   1      41.725  25.595  28.386  1.00  0.00     0.049 A 
ATOM     18  N   UNL A   1      44.598  26.272  28.927  1.00  0.00    -0.248 NA
ATOM     19  C   UNL A   1      45.190  24.101  28.304  1.00  0.00     0.031 C 
ATOM     20  C   UNL A   1      40.307  25.324  28.133  1.00  0.00     0.029 A 
ATOM     21  N   UNL A   1      41.743  26.900  28.809  1.00  0.00    -0.354 N 
ATOM     22  C   UNL A   1      45.970  26.109  29.082  1.00  0.00     0.074 A 
ATOM     23  C   UNL A   1      46.274  24.742  28.718  1.00  0.00     0.031 C 
ATOM     24  C   UNL A   1      39.602  26.445  28.341  1.00  0.00     0.029 A 
ATOM     25  C   UNL A   1      40.505  27.494  28.800  1.00  0.00     0.049 A 
ATOM     26  H   UNL A   1      42.564  27.364  29.092  1.00  0.00     0.167 HD
ATOM     27  C   UNL A   1      46.892  27.016  29.487  1.00  0.00     0.031 A 
ATOM     28  C   UNL A   1      40.132  28.744  29.127  1.00  0.00     0.031 A 
ATOM     29  C   UNL A   1      46.592  28.380  29.840  1.00  0.00     0.049 A 
ATOM     30  C   UNL A   1      41.171  29.722  29.588  1.00  0.00     0.074 A 
ATOM     31  C   UNL A   1      47.467  29.385  30.220  1.00  0.00     0.029 A 
ATOM     32  N   UNL A   1      45.319  28.929  29.863  1.00  0.00    -0.354 N 
ATOM     33  N   UNL A   1      42.469  29.561  29.686  1.00  0.00    -0.248 NA
ATOM     34  C   UNL A   1      40.693  31.053  29.982  1.00  0.00     0.031 C 
ATOM     35  C   UNL A   1      46.717  30.528  30.519  1.00  0.00     0.029 A 
ATOM     36  C   UNL A   1      45.382  30.251  30.275  1.00  0.00     0.049 A 
ATOM     37  H   UNL A   1      44.493  28.451  29.623  1.00  0.00     0.167 HD
ATOM     38  C   UNL A   1      42.964  30.777  30.136  1.00  0.00     0.074 A 
ATOM     39  C   UNL A   1      41.830  31.669  30.270  1.00  0.00     0.031 C 
ATOM     40  C   UNL A   1      44.245  31.123  30.412  1.00  0.00     0.031 A 
BRANCH  27  41
ATOM     41  C   UNL A   1      48.319  26.553  29.603  1.00  0.00    -0.014 A 
ATOM     42  C   UNL A   1      49.230  26.712  28.547  1.00  0.00     0.009 A 
ATOM     43  C   UNL A   1      48.768  25.987  30.807  1.00  0.00     0.009 A 
ATOM     44  C   UNL A   1      50.552  26.282  28.683  1.00  0.00     0.001 A 
ATOM     45  C   UNL A   1      50.097  25.582  30.949  1.00  0.00     0.001 A 
ATOM     46  C   UNL A   1      50.985  25.722  29.885  1.00  0.00     0.000 A 
ENDBRANCH  27  41
BRANCH  28  47
ATOM     47  C   UNL A   1      38.705  29.141  29.020  1.00  0.00    -0.014 A 
ATOM     48  C   UNL A   1      37.849  29.023  30.127  1.00  0.00     0.009 A 
ATOM     49  C   UNL A   1      38.195  29.652  27.817  1.00  0.00     0.009 A 
ATOM     50  C   UNL A   1      36.507  29.393  30.023  1.00  0.00     0.001 A 
ATOM     51  C   UNL A   1      36.860  30.047  27.725  1.00  0.00     0.001 A 
ATOM     52  C   UNL A   1      36.016  29.911  28.825  1.00  0.00     0.000 A 
ENDBRANCH  28  47
BRANCH  40  53
ATOM     53  C   UNL A   1      44.484  32.537  30.861  1.00  0.00    -0.014 A 
ATOM     54  C   UNL A   1      44.722  33.564  29.936  1.00  0.00     0.009 A 
ATOM     55  C   UNL A   1      44.457  32.843  32.230  1.00  0.00     0.009 A 
ATOM     56  C   UNL A   1      44.968  34.867  30.376  1.00  0.00     0.001 A 
ATOM     57  C   UNL A   1      44.675  34.151  32.666  1.00  0.00     0.001 A 
ATOM     58  C   UNL A   1      44.941  35.159  31.740  1.00  0.00     0.000 A 
ENDBRANCH  40  53
ENDBRANCH  14  15
ENDBRANCH   7   9
ENDBRANCH   4   5
ENDBRANCH   3   4
ENDBRANCH   2   3
ENDBRANCH   1   2
BRANCH   1  59
ATOM     59  C   UNL A   1      35.315  21.435  26.375  1.00  0.00     0.021 C 
BRANCH  59  60
ATOM     60  C   UNL A   1      35.197  22.950  26.220  1.00  0.00     0.116 C 
BRANCH  60  61
ATOM     61  N   UNL A   1      33.888  23.436  26.613  1.00  0.00    -0.352 N 
ATOM     62  C   UNL A   1      32.759  23.595  25.854  1.00  0.00     0.251 C 
ATOM     63  H   UNL A   1      33.799  23.688  27.560  1.00  0.00     0.163 HD
ATOM     64  O   UNL A   1      31.789  24.195  26.306  1.00  0.00    -0.269 OA
BRANCH  62  65
ATOM     65  C   UNL A   1      32.704  23.047  24.484  1.00  0.00     0.041 A 
ATOM     66  C   UNL A   1      32.979  23.898  23.413  1.00  0.00     0.014 A 
ATOM     67  C   UNL A   1      32.325  21.717  24.258  1.00  0.00     0.039 A 
ATOM     68  C   UNL A   1      32.917  23.403  22.115  1.00  0.00     0.003 A 
ATOM     69  C   UNL A   1      32.251  21.208  22.956  1.00  0.00     0.039 A 
ATOM     70  C   UNL A   1      32.566  22.067  21.894  1.00  0.00     0.026 A 
BRANCH  69  71
ATOM     71  N   UNL A   1      31.891  19.859  22.772  1.00  0.00    -0.356 N 
ATOM     72  H   UNL A   1      31.167  19.709  22.123  1.00  0.00     0.167 HD
BRANCH  71  73
ATOM     73  C   UNL A   1      32.403  18.695  23.366  1.00  0.00     0.039 A 
ATOM     74  C   UNL A   1      33.210  17.842  22.599  1.00  0.00     0.033 A 
ATOM     75  C   UNL A   1      32.221  18.408  24.725  1.00  0.00     0.033 A 
ATOM     76  C   UNL A   1      33.851  16.744  23.181  1.00  0.00     0.088 A 
ATOM     77  C   UNL A   1      32.848  17.308  25.320  1.00  0.00     0.088 A 
ATOM     78  C   UNL A   1      33.676  16.488  24.545  1.00  0.00     0.269 A 
BRANCH  78  79
ATOM     79  N   UNL A   1      34.388  15.368  25.173  1.00  0.00     0.062 N 
ATOM     80  O   UNL A   1      35.613  15.477  25.323  1.00  0.00    -0.258 OA
ATOM     81  O   UNL A   1      33.720  14.384  25.522  1.00  0.00    -0.258 OA
ENDBRANCH  78  79
ENDBRANCH  71  73
ENDBRANCH  69  71
ENDBRANCH  62  65
ENDBRANCH  60  61
ENDBRANCH  59  60
ENDBRANCH   1  59
TORSDOF 16
ENDMDL
MODEL 2
REMARK VINA RESULT:     -11.2      1.302      5.995
REMARK SMILES O=C(NCCCCCCNC(=O)c1cccc(Nc2ccc([N+](=O)[O-])cc2)c1)c1ccc(-c2c3nc(c(-c4ccccc4)c4ccc([nH]4)c(-c4ccccc4)c4nc(c(-c5ccccc5)c5ccc2[nH]5)C=C4)C=C3)cc1
REMARK SMILES IDX 7 1 6 2 5 3 4 4 3 5 1 6 2 7 29 9 30 10 76 11 31 12 75 13
REMARK SMILES IDX 32 14 33 15 34 16 69 17 35 18 74 19 68 20 70 21 36 22 73 23
REMARK SMILES IDX 67 24 66 25 37 27 59 28 44 29 58 30 45 31 48 32 57 33 71 34
REMARK SMILES IDX 46 35 47 36 56 38 72 39 49 40 38 41 39 42 43 43 40 44 42 45
REMARK SMILES IDX 41 46 60 47 61 48 65 49 62 50 64 51 63 52 50 53 51 54 55 55
REMARK SMILES IDX 52 56 54 57 53 58 8 59 9 60 10 61 11 62 12 64 13 65 14 66
REMARK SMILES IDX 28 67 15 68 17 69 16 70 18 71 19 73 20 74 27 75 21 76 26 77
REMARK SMILES IDX 22 78 23 79 24 80 25 81
REMARK H PARENT 3 8 70 26 48 37 10 63 18 72
REMARK Flexibility Score: inf
ROOT
ATOM      1  C   UNL A   1      36.863  22.005  24.256  1.00  0.00     0.002 C 
ENDROOT
BRANCH   1   2
ATOM      2  C   UNL A   1      36.594  20.665  24.947  1.00  0.00     0.002 C 
BRANCH   2   3
ATOM      3  C   UNL A   1      37.764  19.683  24.962  1.00  0.00     0.021 C 
BRANCH   3   4
ATOM      4  C   UNL A   1      38.981  20.134  25.759  1.00  0.00     0.116 C 
BRANCH   4   5
ATOM      5  N   UNL A   1      40.007  19.111  25.861  1.00  0.00    -0.352 N 
ATOM      6  O   UNL A   1      42.101  18.280  26.042  1.00  0.00    -0.269 OA
ATOM      7  C   UNL A   1      41.352  19.250  26.117  1.00  0.00     0.251 C 
ATOM      8  H   UNL A   1      39.697  18.186  25.728  1.00  0.00     0.163 HD
BRANCH   7   9
ATOM      9  C   UNL A   1      41.902  20.581  26.450  1.00  0.00     0.039 A 
ATOM     10  C   UNL A   1      42.014  20.998  27.777  1.00  0.00     0.014 A 
ATOM     11  C   UNL A   1      42.301  21.432  25.414  1.00  0.00     0.014 A 
ATOM     12  C   UNL A   1      42.367  22.313  28.061  1.00  0.00     0.010 A 
ATOM     13  C   UNL A   1      42.743  22.725  25.707  1.00  0.00     0.010 A 
ATOM     14  C   UNL A   1      42.740  23.191  27.029  1.00  0.00    -0.014 A 
BRANCH  14  15
ATOM     15  C   UNL A   1      43.156  24.575  27.373  1.00  0.00     0.031 A 
ATOM     16  C   UNL A   1      42.159  25.596  27.849  1.00  0.00     0.074 A 
ATOM     17  C   UNL A   1      44.462  24.896  27.296  1.00  0.00     0.049 A 
ATOM     18  N   UNL A   1      42.371  26.824  28.255  1.00  0.00    -0.248 NA
ATOM     19  C   UNL A   1      40.744  25.196  27.867  1.00  0.00     0.031 C 
ATOM     20  C   UNL A   1      45.527  23.997  26.843  1.00  0.00     0.029 A 
ATOM     21  N   UNL A   1      45.123  26.052  27.626  1.00  0.00    -0.354 N 
ATOM     22  C   UNL A   1      41.119  27.350  28.550  1.00  0.00     0.074 A 
ATOM     23  C   UNL A   1      40.150  26.315  28.258  1.00  0.00     0.031 C 
ATOM     24  C   UNL A   1      46.711  24.610  26.988  1.00  0.00     0.029 A 
ATOM     25  C   UNL A   1      46.486  25.962  27.483  1.00  0.00     0.049 A 
ATOM     26  H   UNL A   1      44.664  26.867  27.936  1.00  0.00     0.167 HD
ATOM     27  C   UNL A   1      40.805  28.580  29.023  1.00  0.00     0.031 A 
ATOM     28  C   UNL A   1      47.452  26.867  27.720  1.00  0.00     0.031 A 
ATOM     29  C   UNL A   1      41.769  29.608  29.323  1.00  0.00     0.049 A 
ATOM     30  C   UNL A   1      47.074  28.227  28.227  1.00  0.00     0.074 A 
ATOM     31  C   UNL A   1      41.549  30.870  29.848  1.00  0.00     0.029 A 
ATOM     32  N   UNL A   1      43.135  29.493  29.119  1.00  0.00    -0.354 N 
ATOM     33  N   UNL A   1      45.888  28.690  28.541  1.00  0.00    -0.248 NA
ATOM     34  C   UNL A   1      48.169  29.187  28.415  1.00  0.00     0.031 C 
ATOM     35  C   UNL A   1      42.777  31.537  29.916  1.00  0.00     0.029 A 
ATOM     36  C   UNL A   1      43.768  30.671  29.483  1.00  0.00     0.049 A 
ATOM     37  H   UNL A   1      43.589  28.694  28.767  1.00  0.00     0.167 HD
ATOM     38  C   UNL A   1      46.097  29.990  28.980  1.00  0.00     0.074 A 
ATOM     39  C   UNL A   1      47.524  30.233  28.911  1.00  0.00     0.031 C 
ATOM     40  C   UNL A   1      45.187  30.901  29.402  1.00  0.00     0.031 A 
BRANCH  27  41
ATOM     41  C   UNL A   1      39.347  28.900  29.216  1.00  0.00    -0.014 A 
ATOM     42  C   UNL A   1      38.555  29.379  28.162  1.00  0.00     0.009 A 
ATOM     43  C   UNL A   1      38.749  28.674  30.466  1.00  0.00     0.009 A 
ATOM     44  C   UNL A   1      37.202  29.659  28.365  1.00  0.00     0.001 A 
ATOM     45  C   UNL A   1      37.390  28.931  30.659  1.00  0.00     0.001 A 
ATOM     46  C   UNL A   1      36.620  29.430  29.612  1.00  0.00     0.000 A 
ENDBRANCH  27  41
BRANCH  28  47
ATOM     47  C   UNL A   1      48.873  26.509  27.485  1.00  0.00    -0.014 A 
ATOM     48  C   UNL A   1      49.640  25.929  28.508  1.00  0.00     0.009 A 
ATOM     49  C   UNL A   1      49.467  26.732  26.233  1.00  0.00     0.009 A 
ATOM     50  C   UNL A   1      50.977  25.596  28.286  1.00  0.00     0.001 A 
ATOM     51  C   UNL A   1      50.796  26.373  26.006  1.00  0.00     0.001 A 
ATOM     52  C   UNL A   1      51.552  25.812  27.034  1.00  0.00     0.000 A 
ENDBRANCH  28  47
BRANCH  40  53
ATOM     53  C   UNL A   1      45.718  32.233  29.848  1.00  0.00    -0.014 A 
ATOM     54  C   UNL A   1      46.109  32.454  31.177  1.00  0.00     0.009 A 
ATOM     55  C   UNL A   1      45.839  33.278  28.918  1.00  0.00     0.009 A 
ATOM     56  C   UNL A   1      46.575  33.709  31.576  1.00  0.00     0.001 A 
ATOM     57  C   UNL A   1      46.332  34.522  29.313  1.00  0.00     0.001 A 
ATOM     58  C   UNL A   1      46.688  34.740  30.643  1.00  0.00     0.000 A 
ENDBRANCH  40  53
ENDBRANCH  14  15
ENDBRANCH   7   9
ENDBRANCH   4   5
ENDBRANCH   3   4
ENDBRANCH   2   3
ENDBRANCH   1   2
BRANCH   1  59
ATOM     59  C   UNL A   1      37.157  23.190  25.183  1.00  0.00     0.021 C 
BRANCH  59  60
ATOM     60  C   UNL A   1      35.928  23.895  25.754  1.00  0.00     0.116 C 
BRANCH  60  61
ATOM     61  N   UNL A   1      35.327  24.802  24.794  1.00  0.00    -0.352 N 
ATOM     62  C   UNL A   1      34.128  24.701  24.139  1.00  0.00     0.251 C 
ATOM     63  H   UNL A   1      35.856  25.604  24.584  1.00  0.00     0.163 HD
ATOM     64  O   UNL A   1      33.860  25.466  23.219  1.00  0.00    -0.269 OA
BRANCH  62  65
ATOM     65  C   UNL A   1      33.154  23.664  24.535  1.00  0.00     0.041 A 
ATOM     66  C   UNL A   1      32.309  23.920  25.615  1.00  0.00     0.014 A 
ATOM     67  C   UNL A   1      33.119  22.426  23.880  1.00  0.00     0.039 A 
ATOM     68  C   UNL A   1      31.395  22.948  26.010  1.00  0.00     0.003 A 
ATOM     69  C   UNL A   1      32.210  21.437  24.273  1.00  0.00     0.039 A 
ATOM     70  C   UNL A   1      31.343  21.723  25.337  1.00  0.00     0.026 A 
BRANCH  69  71
ATOM     71  N   UNL A   1      32.188  20.215  23.572  1.00  0.00    -0.356 N 
ATOM     72  H   UNL A   1      31.849  20.273  22.650  1.00  0.00     0.167 HD
BRANCH  71  73
ATOM     73  C   UNL A   1      32.572  18.928  23.981  1.00  0.00     0.039 A 
ATOM     74  C   UNL A   1      33.100  18.045  23.027  1.00  0.00     0.033 A 
ATOM     75  C   UNL A   1      32.545  18.531  25.324  1.00  0.00     0.033 A 
ATOM     76  C   UNL A   1      33.620  16.805  23.406  1.00  0.00     0.088 A 
ATOM     77  C   UNL A   1      33.053  17.289  25.719  1.00  0.00     0.088 A 
ATOM     78  C   UNL A   1      33.605  16.436  24.756  1.00  0.00     0.269 A 
BRANCH  78  79
ATOM     79  N   UNL A   1      34.198  15.157  25.169  1.00  0.00     0.062 N 
ATOM     80  O   UNL A   1      35.429  15.109  25.298  1.00  0.00    -0.258 OA
ATOM     81  O   UNL A   1      33.430  14.205  25.370  1.00  0.00    -0.258 OA
ENDBRANCH  78  79
ENDBRANCH  71  73
ENDBRANCH  69  71
ENDBRANCH  62  65
ENDBRANCH  60  61
ENDBRANCH  59  60
ENDBRANCH   1  59
TORSDOF 16
ENDMDL
MODEL 3
REMARK VINA RESULT:     -10.9      1.894      6.944
REMARK SMILES O=C(NCCCCCCNC(=O)c1cccc(Nc2ccc([N+](=O)[O-])cc2)c1)c1ccc(-c2c3nc(c(-c4ccccc4)c4ccc([nH]4)c(-c4ccccc4)c4nc(c(-c5ccccc5)c5ccc2[nH]5)C=C4)C=C3)cc1
REMARK SMILES IDX 7 1 6 2 5 3 4 4 3 5 1 6 2 7 29 9 30 10 76 11 31 12 75 13
REMARK SMILES IDX 32 14 33 15 34 16 69 17 35 18 74 19 68 20 70 21 36 22 73 23
REMARK SMILES IDX 67 24 66 25 37 27 59 28 44 29 58 30 45 31 48 32 57 33 71 34
REMARK SMILES IDX 46 35 47 36 56 38 72 39 49 40 38 41 39 42 43 43 40 44 42 45
REMARK SMILES IDX 41 46 60 47 61 48 65 49 62 50 64 51 63 52 50 53 51 54 55 55
REMARK SMILES IDX 52 56 54 57 53 58 8 59 9 60 10 61 11 62 12 64 13 65 14 66
REMARK SMILES IDX 28 67 15 68 17 69 16 70 18 71 19 73 20 74 27 75 21 76 26 77
REMARK SMILES IDX 22 78 23 79 24 80 25 81
REMARK H PARENT 3 8 70 26 48 37 10 63 18 72
REMARK Flexibility Score: inf
ROOT
ATOM      1  C   UNL A   1      32.069  27.341  23.543  1.00  0.00     0.002 C 
ENDROOT
BRANCH   1   2
ATOM      2  C   UNL A   1      33.391  27.481  24.304  1.00  0.00     0.002 C 
BRANCH   2   3
ATOM      3  C   UNL A   1      33.618  28.825  24.993  1.00  0.00     0.021 C 
BRANCH   3   4
ATOM      4  C   UNL A   1      33.814  28.758  26.502  1.00  0.00     0.116 C 
BRANCH   4   5
ATOM      5  N   UNL A   1      33.675  30.049  27.153  1.00  0.00    -0.352 N 
ATOM      6  O   UNL A   1      34.211  31.734  28.560  1.00  0.00    -0.269 OA
ATOM      7  C   UNL A   1      34.548  30.696  27.996  1.00  0.00     0.251 C 
ATOM      8  H   UNL A   1      32.836  30.529  26.965  1.00  0.00     0.163 HD
BRANCH   7   9
ATOM      9  C   UNL A   1      35.886  30.121  28.251  1.00  0.00     0.039 A 
ATOM     10  C   UNL A   1      36.186  29.521  29.475  1.00  0.00     0.014 A 
ATOM     11  C   UNL A   1      36.861  30.195  27.251  1.00  0.00     0.014 A 
ATOM     12  C   UNL A   1      37.495  29.146  29.758  1.00  0.00     0.010 A 
ATOM     13  C   UNL A   1      38.156  29.733  27.506  1.00  0.00     0.010 A 
ATOM     14  C   UNL A   1      38.495  29.244  28.775  1.00  0.00    -0.014 A 
BRANCH  14  15
ATOM     15  C   UNL A   1      39.872  28.790  29.098  1.00  0.00     0.031 A 
ATOM     16  C   UNL A   1      40.368  27.433  28.675  1.00  0.00     0.074 A 
ATOM     17  C   UNL A   1      40.698  29.636  29.742  1.00  0.00     0.049 A 
ATOM     18  N   UNL A   1      41.563  26.915  28.817  1.00  0.00    -0.248 NA
ATOM     19  C   UNL A   1      39.402  26.541  28.016  1.00  0.00     0.031 C 
ATOM     20  C   UNL A   1      40.335  30.976  30.211  1.00  0.00     0.029 A 
ATOM     21  N   UNL A   1      42.021  29.512  30.086  1.00  0.00    -0.354 N 
ATOM     22  C   UNL A   1      41.486  25.630  28.291  1.00  0.00     0.074 A 
ATOM     23  C   UNL A   1      40.122  25.441  27.845  1.00  0.00     0.031 C 
ATOM     24  C   UNL A   1      41.423  31.574  30.718  1.00  0.00     0.029 A 
ATOM     25  C   UNL A   1      42.542  30.641  30.668  1.00  0.00     0.049 A 
ATOM     26  H   UNL A   1      42.544  28.692  29.930  1.00  0.00     0.167 HD
ATOM     27  C   UNL A   1      42.462  24.696  28.187  1.00  0.00     0.031 A 
ATOM     28  C   UNL A   1      43.783  30.900  31.116  1.00  0.00     0.031 A 
ATOM     29  C   UNL A   1      43.822  24.887  28.622  1.00  0.00     0.049 A 
ATOM     30  C   UNL A   1      44.839  29.841  31.004  1.00  0.00     0.074 A 
ATOM     31  C   UNL A   1      44.892  24.014  28.517  1.00  0.00     0.029 A 
ATOM     32  N   UNL A   1      44.297  26.028  29.250  1.00  0.00    -0.354 N 
ATOM     33  N   UNL A   1      44.758  28.650  30.464  1.00  0.00    -0.248 NA
ATOM     34  C   UNL A   1      46.158  30.166  31.561  1.00  0.00     0.031 C 
ATOM     35  C   UNL A   1      46.003  24.608  29.126  1.00  0.00     0.029 A 
ATOM     36  C   UNL A   1      45.639  25.871  29.562  1.00  0.00     0.049 A 
ATOM     37  H   UNL A   1      43.762  26.830  29.446  1.00  0.00     0.167 HD
ATOM     38  C   UNL A   1      46.020  28.089  30.601  1.00  0.00     0.074 A 
ATOM     39  C   UNL A   1      46.851  29.079  31.255  1.00  0.00     0.031 C 
ATOM     40  C   UNL A   1      46.451  26.862  30.219  1.00  0.00     0.031 A 
BRANCH  27  41
ATOM     41  C   UNL A   1      42.086  23.360  27.606  1.00  0.00    -0.014 A 
ATOM     42  C   UNL A   1      41.471  22.368  28.385  1.00  0.00     0.009 A 
ATOM     43  C   UNL A   1      42.313  23.109  26.243  1.00  0.00     0.009 A 
ATOM     44  C   UNL A   1      41.124  21.139  27.819  1.00  0.00     0.001 A 
ATOM     45  C   UNL A   1      41.941  21.890  25.674  1.00  0.00     0.001 A 
ATOM     46  C   UNL A   1      41.355  20.903  26.463  1.00  0.00     0.000 A 
ENDBRANCH  27  41
BRANCH  28  47
ATOM     47  C   UNL A   1      44.093  32.226  31.708  1.00  0.00    -0.014 A 
ATOM     48  C   UNL A   1      43.908  32.455  33.080  1.00  0.00     0.009 A 
ATOM     49  C   UNL A   1      44.587  33.267  30.906  1.00  0.00     0.009 A 
ATOM     50  C   UNL A   1      44.196  33.704  33.633  1.00  0.00     0.001 A 
ATOM     51  C   UNL A   1      44.901  34.506  31.466  1.00  0.00     0.001 A 
ATOM     52  C   UNL A   1      44.698  34.725  32.827  1.00  0.00     0.000 A 
ENDBRANCH  28  47
BRANCH  40  53
ATOM     53  C   UNL A   1      47.895  26.540  30.476  1.00  0.00    -0.014 A 
ATOM     54  C   UNL A   1      48.891  26.862  29.541  1.00  0.00     0.009 A 
ATOM     55  C   UNL A   1      48.263  25.917  31.678  1.00  0.00     0.009 A 
ATOM     56  C   UNL A   1      50.225  26.530  29.789  1.00  0.00     0.001 A 
ATOM     57  C   UNL A   1      49.601  25.611  31.935  1.00  0.00     0.001 A 
ATOM     58  C   UNL A   1      50.578  25.908  30.987  1.00  0.00     0.000 A 
ENDBRANCH  40  53
ENDBRANCH  14  15
ENDBRANCH   7   9
ENDBRANCH   4   5
ENDBRANCH   3   4
ENDBRANCH   2   3
ENDBRANCH   1   2
BRANCH   1  59
ATOM     59  C   UNL A   1      30.808  27.224  24.407  1.00  0.00     0.021 C 
BRANCH  59  60
ATOM     60  C   UNL A   1      30.082  25.882  24.328  1.00  0.00     0.116 C 
BRANCH  60  61
ATOM     61  N   UNL A   1      29.816  25.331  25.643  1.00  0.00    -0.352 N 
ATOM     62  C   UNL A   1      30.395  24.257  26.266  1.00  0.00     0.251 C 
ATOM     63  H   UNL A   1      29.121  25.795  26.162  1.00  0.00     0.163 HD
ATOM     64  O   UNL A   1      29.919  23.815  27.307  1.00  0.00    -0.269 OA
BRANCH  62  65
ATOM     65  C   UNL A   1      31.595  23.622  25.684  1.00  0.00     0.041 A 
ATOM     66  C   UNL A   1      32.830  24.245  25.857  1.00  0.00     0.014 A 
ATOM     67  C   UNL A   1      31.487  22.451  24.923  1.00  0.00     0.039 A 
ATOM     68  C   UNL A   1      33.968  23.669  25.303  1.00  0.00     0.003 A 
ATOM     69  C   UNL A   1      32.623  21.864  24.353  1.00  0.00     0.039 A 
ATOM     70  C   UNL A   1      33.863  22.484  24.566  1.00  0.00     0.026 A 
BRANCH  69  71
ATOM     71  N   UNL A   1      32.478  20.673  23.616  1.00  0.00    -0.356 N 
ATOM     72  H   UNL A   1      32.215  20.798  22.676  1.00  0.00     0.167 HD
BRANCH  71  73
ATOM     73  C   UNL A   1      32.648  19.336  24.010  1.00  0.00     0.039 A 
ATOM     74  C   UNL A   1      32.904  18.369  23.027  1.00  0.00     0.033 A 
ATOM     75  C   UNL A   1      32.676  18.952  25.357  1.00  0.00     0.033 A 
ATOM     76  C   UNL A   1      33.213  17.052  23.378  1.00  0.00     0.088 A 
ATOM     77  C   UNL A   1      32.975  17.636  25.724  1.00  0.00     0.088 A 
ATOM     78  C   UNL A   1      33.259  16.693  24.730  1.00  0.00     0.269 A 
BRANCH  78  79
ATOM     79  N   UNL A   1      33.635  15.325  25.108  1.00  0.00     0.062 N 
ATOM     80  O   UNL A   1      32.722  14.508  25.294  1.00  0.00    -0.258 OA
ATOM     81  O   UNL A   1      34.842  15.067  25.212  1.00  0.00    -0.258 OA
ENDBRANCH  78  79
ENDBRANCH  71  73
ENDBRANCH  69  71
ENDBRANCH  62  65
ENDBRANCH  60  61
ENDBRANCH  59  60
ENDBRANCH   1  59
TORSDOF 16
ENDMDL
