MODEL 1
REMARK VINA RESULT:     -11.6      0.000      0.000
REMARK SMILES Cc1cc(N2N=C(C(=O)NCCCCCCNC(=O)c3ccc(-c4c5nc(c(-c6ccccc6)c6ccc([nH]6)c(-c6ccccc6)c6nc(c(-c7ccccc7)c7ccc4[nH]7)C=C6)C=C5)cc3)C[C@H]2c2ccccc2)c([N+](=O)[O-])cc1C
REMARK SMILES IDX 13 1 12 2 11 3 10 4 8 5 9 6 7 8 5 9 6 10 69 11 68 12 4 13
REMARK SMILES IDX 1 14 2 15 3 16 81 17 80 18 82 19 76 20 77 21 78 22 79 23
REMARK SMILES IDX 70 24 71 25 75 26 72 27 74 28 73 29 14 30 15 31 16 32 17 33
REMARK SMILES IDX 18 34 19 36 20 37 21 38 67 39 22 40 66 41 23 42 24 43 25 44
REMARK SMILES IDX 60 45 26 46 65 47 59 48 61 49 27 50 64 51 58 52 57 53 28 55
REMARK SMILES IDX 50 56 35 57 49 58 36 59 39 60 48 61 62 62 37 63 38 64 47 66
REMARK SMILES IDX 63 67 40 68 29 69 30 70 34 71 31 72 33 73 32 74 51 75 52 76
REMARK SMILES IDX 56 77 53 78 55 79 54 80 41 81 42 82 46 83 43 84 45 85 44 86
REMARK H PARENT 10 7 17 35 61 54 39 65
REMARK Flexibility Score: inf
ROOT
ATOM      1  C   UNL A   1      32.703  26.401  26.127  1.00  0.00     0.002 C 
ENDROOT
BRANCH   1   2
ATOM      2  C   UNL A   1      31.238  26.712  25.822  1.00  0.00     0.021 C 
BRANCH   2   3
ATOM      3  C   UNL A   1      30.546  25.695  24.922  1.00  0.00     0.116 C 
BRANCH   3   4
ATOM      4  N   UNL A   1      30.891  25.885  23.531  1.00  0.00    -0.351 N 
ATOM      5  C   UNL A   1      31.827  25.331  22.696  1.00  0.00     0.267 C 
ATOM      6  O   UNL A   1      31.882  25.758  21.544  1.00  0.00    -0.268 OA
ATOM      7  H   UNL A   1      30.331  26.562  23.086  1.00  0.00     0.163 HD
BRANCH   5   8
ATOM      8  C   UNL A   1      32.754  24.192  23.093  1.00  0.00     0.128 C 
ATOM      9  N   UNL A   1      33.409  22.431  24.115  1.00  0.00    -0.250 N 
ATOM     10  N   UNL A   1      32.343  23.241  23.879  1.00  0.00    -0.171 NA
ATOM     11  C   UNL A   1      34.622  22.823  23.389  1.00  0.00     0.144 C 
ATOM     12  C   UNL A   1      34.155  24.046  22.600  1.00  0.00     0.096 C 
BRANCH   9  13
ATOM     13  C   UNL A   1      33.193  21.091  24.432  1.00  0.00     0.138 A 
ATOM     14  C   UNL A   1      32.163  18.060  22.360  1.00  0.00     0.045 C 
ATOM     15  C   UNL A   1      32.562  18.868  23.564  1.00  0.00    -0.046 A 
ATOM     16  C   UNL A   1      32.902  20.217  23.372  1.00  0.00     0.039 A 
ATOM     17  C   UNL A   1      32.593  18.333  24.863  1.00  0.00    -0.041 A 
ATOM     18  C   UNL A   1      32.929  19.175  25.936  1.00  0.00     0.091 A 
ATOM     19  C   UNL A   1      32.298  16.889  25.159  1.00  0.00     0.045 C 
ATOM     20  C   UNL A   1      33.208  20.539  25.717  1.00  0.00     0.294 A 
BRANCH  20  21
ATOM     21  N   UNL A   1      33.420  21.370  26.897  1.00  0.00     0.065 N 
ATOM     22  O   UNL A   1      32.450  22.020  27.315  1.00  0.00    -0.258 OA
ATOM     23  O   UNL A   1      34.579  21.471  27.335  1.00  0.00    -0.258 OA
ENDBRANCH  20  21
ENDBRANCH   9  13
BRANCH  11  24
ATOM     24  C   UNL A   1      35.802  23.053  24.331  1.00  0.00    -0.023 A 
ATOM     25  C   UNL A   1      35.864  24.098  25.270  1.00  0.00     0.006 A 
ATOM     26  C   UNL A   1      36.885  22.155  24.284  1.00  0.00     0.006 A 
ATOM     27  C   UNL A   1      36.977  24.254  26.102  1.00  0.00     0.000 A 
ATOM     28  C   UNL A   1      37.972  22.281  25.150  1.00  0.00     0.000 A 
ATOM     29  C   UNL A   1      38.024  23.339  26.051  1.00  0.00     0.000 A 
ENDBRANCH  11  24
ENDBRANCH   5   8
ENDBRANCH   3   4
ENDBRANCH   2   3
ENDBRANCH   1   2
BRANCH   1  30
ATOM     30  C   UNL A   1      33.723  27.252  25.363  1.00  0.00     0.002 C 
BRANCH  30  31
ATOM     31  C   UNL A   1      33.925  28.672  25.896  1.00  0.00     0.021 C 
BRANCH  31  32
ATOM     32  C   UNL A   1      33.566  28.859  27.365  1.00  0.00     0.116 C 
BRANCH  32  33
ATOM     33  N   UNL A   1      33.617  30.255  27.771  1.00  0.00    -0.352 N 
ATOM     34  C   UNL A   1      34.633  30.930  28.397  1.00  0.00     0.251 C 
ATOM     35  H   UNL A   1      32.814  30.787  27.566  1.00  0.00     0.163 HD
ATOM     36  O   UNL A   1      34.455  32.062  28.840  1.00  0.00    -0.269 OA
BRANCH  34  37
ATOM     37  C   UNL A   1      35.945  30.272  28.557  1.00  0.00     0.039 A 
ATOM     38  C   UNL A   1      36.840  30.266  27.485  1.00  0.00     0.014 A 
ATOM     39  C   UNL A   1      36.295  29.688  29.777  1.00  0.00     0.014 A 
ATOM     40  C   UNL A   1      38.120  29.734  27.659  1.00  0.00     0.010 A 
ATOM     41  C   UNL A   1      37.591  29.223  29.968  1.00  0.00     0.010 A 
ATOM     42  C   UNL A   1      38.516  29.242  28.913  1.00  0.00    -0.014 A 
BRANCH  42  43
ATOM     43  C   UNL A   1      39.891  28.741  29.158  1.00  0.00     0.031 A 
ATOM     44  C   UNL A   1      40.945  29.682  29.673  1.00  0.00     0.074 A 
ATOM     45  C   UNL A   1      40.217  27.479  28.819  1.00  0.00     0.049 A 
ATOM     46  N   UNL A   1      42.232  29.486  29.806  1.00  0.00    -0.248 NA
ATOM     47  C   UNL A   1      40.497  31.029  30.063  1.00  0.00     0.031 C 
ATOM     48  C   UNL A   1      39.293  26.476  28.284  1.00  0.00     0.029 A 
ATOM     49  N   UNL A   1      41.426  26.828  28.854  1.00  0.00    -0.354 N 
ATOM     50  C   UNL A   1      42.749  30.692  30.263  1.00  0.00     0.074 A 
ATOM     51  C   UNL A   1      41.646  31.623  30.350  1.00  0.00     0.031 C 
ATOM     52  C   UNL A   1      39.967  25.339  28.047  1.00  0.00     0.029 A 
ATOM     53  C   UNL A   1      41.377  25.546  28.362  1.00  0.00     0.049 A 
ATOM     54  H   UNL A   1      42.251  27.242  29.198  1.00  0.00     0.167 HD
ATOM     55  C   UNL A   1      44.028  30.993  30.590  1.00  0.00     0.031 A 
ATOM     56  C   UNL A   1      42.360  24.647  28.163  1.00  0.00     0.031 A 
ATOM     57  C   UNL A   1      45.119  30.060  30.521  1.00  0.00     0.049 A 
ATOM     58  C   UNL A   1      43.775  25.015  28.517  1.00  0.00     0.074 A 
ATOM     59  C   UNL A   1      46.438  30.251  30.897  1.00  0.00     0.029 A 
ATOM     60  N   UNL A   1      45.021  28.764  30.044  1.00  0.00    -0.354 N 
ATOM     61  N   UNL A   1      44.238  26.136  29.012  1.00  0.00    -0.248 NA
ATOM     62  C   UNL A   1      44.804  23.988  28.291  1.00  0.00     0.031 C 
ATOM     63  C   UNL A   1      47.150  29.089  30.590  1.00  0.00     0.029 A 
ATOM     64  C   UNL A   1      46.262  28.153  30.085  1.00  0.00     0.049 A 
ATOM     65  H   UNL A   1      44.192  28.341  29.722  1.00  0.00     0.167 HD
ATOM     66  C   UNL A   1      45.601  25.940  29.188  1.00  0.00     0.074 A 
ATOM     67  C   UNL A   1      45.890  24.588  28.758  1.00  0.00     0.031 C 
ATOM     68  C   UNL A   1      46.530  26.802  29.666  1.00  0.00     0.031 A 
BRANCH  55  69
ATOM     69  C   UNL A   1      44.323  32.397  31.040  1.00  0.00    -0.014 A 
ATOM     70  C   UNL A   1      44.427  32.723  32.401  1.00  0.00     0.009 A 
ATOM     71  C   UNL A   1      44.558  33.397  30.082  1.00  0.00     0.009 A 
ATOM     72  C   UNL A   1      44.730  34.029  32.794  1.00  0.00     0.001 A 
ATOM     73  C   UNL A   1      44.890  34.693  30.477  1.00  0.00     0.001 A 
ATOM     74  C   UNL A   1      44.967  35.010  31.832  1.00  0.00     0.000 A 
ENDBRANCH  55  69
BRANCH  56  75
ATOM     75  C   UNL A   1      42.049  23.313  27.583  1.00  0.00    -0.014 A 
ATOM     76  C   UNL A   1      42.247  23.063  26.216  1.00  0.00     0.009 A 
ATOM     77  C   UNL A   1      41.530  22.287  28.389  1.00  0.00     0.009 A 
ATOM     78  C   UNL A   1      41.901  21.827  25.664  1.00  0.00     0.001 A 
ATOM     79  C   UNL A   1      41.215  21.042  27.841  1.00  0.00     0.001 A 
ATOM     80  C   UNL A   1      41.388  20.818  26.476  1.00  0.00     0.000 A 
ENDBRANCH  56  75
BRANCH  68  81
ATOM     81  C   UNL A   1      47.941  26.302  29.801  1.00  0.00    -0.014 A 
ATOM     82  C   UNL A   1      48.864  26.425  28.752  1.00  0.00     0.009 A 
ATOM     83  C   UNL A   1      48.368  25.765  31.026  1.00  0.00     0.009 A 
ATOM     84  C   UNL A   1      50.184  26.001  28.922  1.00  0.00     0.001 A 
ATOM     85  C   UNL A   1      49.694  25.370  31.202  1.00  0.00     0.001 A 
ATOM     86  C   UNL A   1      50.599  25.482  30.149  1.00  0.00     0.000 A 
ENDBRANCH  68  81
ENDBRANCH  42  43
ENDBRANCH  34  37
ENDBRANCH  32  33
ENDBRANCH  31  32
ENDBRANCH  30  31
ENDBRANCH   1  30
TORSDOF 16
ENDMDL
MODEL 2
REMARK VINA RESULT:     -11.2      1.191      2.850
REMARK SMILES Cc1cc(N2N=C(C(=O)NCCCCCCNC(=O)c3ccc(-c4c5nc(c(-c6ccccc6)c6ccc([nH]6)c(-c6ccccc6)c6nc(c(-c7ccccc7)c7ccc4[nH]7)C=C6)C=C5)cc3)C[C@H]2c2ccccc2)c([N+](=O)[O-])cc1C
REMARK SMILES IDX 13 1 12 2 11 3 10 4 8 5 9 6 7 8 5 9 6 10 69 11 68 12 4 13
REMARK SMILES IDX 1 14 2 15 3 16 81 17 80 18 82 19 76 20 77 21 78 22 79 23
REMARK SMILES IDX 70 24 71 25 75 26 72 27 74 28 73 29 14 30 15 31 16 32 17 33
REMARK SMILES IDX 18 34 19 36 20 37 21 38 67 39 22 40 66 41 23 42 24 43 25 44
REMARK SMILES IDX 60 45 26 46 65 47 59 48 61 49 27 50 64 51 58 52 57 53 28 55
REMARK SMILES IDX 50 56 35 57 49 58 36 59 39 60 48 61 62 62 37 63 38 64 47 66
REMARK SMILES IDX 63 67 40 68 29 69 30 70 34 71 31 72 33 73 32 74 51 75 52 76
REMARK SMILES IDX 56 77 53 78 55 79 54 80 41 81 42 82 46 83 43 84 45 85 44 86
REMARK H PARENT 10 7 17 35 61 54 39 65
REMARK Flexibility Score: inf
ROOT
ATOM      1  C   UNL A   1      31.220  28.997  24.187  1.00  0.00     0.002 C 
ENDROOT
BRANCH   1   2
ATOM      2  C   UNL A   1      31.873  27.924  23.317  1.00  0.00     0.021 C 
BRANCH   2   3
ATOM      3  C   UNL A   1      30.909  27.161  22.416  1.00  0.00     0.116 C 
BRANCH   3   4
ATOM      4  N   UNL A   1      31.568  26.647  21.236  1.00  0.00    -0.351 N 
ATOM      5  C   UNL A   1      32.417  25.597  20.999  1.00  0.00     0.267 C 
ATOM      6  O   UNL A   1      32.838  25.457  19.852  1.00  0.00    -0.268 OA
ATOM      7  H   UNL A   1      31.361  27.165  20.425  1.00  0.00     0.163 HD
BRANCH   5   8
ATOM      8  C   UNL A   1      32.821  24.573  22.050  1.00  0.00     0.128 C 
ATOM      9  N   UNL A   1      34.114  23.338  23.222  1.00  0.00    -0.250 N 
ATOM     10  N   UNL A   1      34.074  24.352  22.317  1.00  0.00    -0.171 NA
ATOM     11  C   UNL A   1      32.790  22.873  23.650  1.00  0.00     0.144 C 
ATOM     12  C   UNL A   1      31.849  23.791  22.870  1.00  0.00     0.096 C 
BRANCH   9  13
ATOM     13  C   UNL A   1      35.198  23.242  24.094  1.00  0.00     0.138 A 
ATOM     14  C   UNL A   1      37.986  20.673  24.506  1.00  0.00     0.045 C 
ATOM     15  C   UNL A   1      37.164  21.905  24.762  1.00  0.00    -0.046 A 
ATOM     16  C   UNL A   1      36.093  22.178  23.895  1.00  0.00     0.039 A 
ATOM     17  C   UNL A   1      37.415  22.779  25.833  1.00  0.00    -0.041 A 
ATOM     18  C   UNL A   1      36.563  23.880  26.025  1.00  0.00     0.091 A 
ATOM     19  C   UNL A   1      38.569  22.600  26.780  1.00  0.00     0.045 C 
ATOM     20  C   UNL A   1      35.462  24.092  25.172  1.00  0.00     0.294 A 
BRANCH  20  21
ATOM     21  N   UNL A   1      34.556  25.181  25.517  1.00  0.00     0.065 N 
ATOM     22  O   UNL A   1      34.781  26.290  25.006  1.00  0.00    -0.258 OA
ATOM     23  O   UNL A   1      33.695  24.968  26.388  1.00  0.00    -0.258 OA
ENDBRANCH  20  21
ENDBRANCH   9  13
BRANCH  11  24
ATOM     24  C   UNL A   1      32.605  21.377  23.412  1.00  0.00    -0.023 A 
ATOM     25  C   UNL A   1      32.134  20.826  22.207  1.00  0.00     0.006 A 
ATOM     26  C   UNL A   1      32.950  20.484  24.444  1.00  0.00     0.006 A 
ATOM     27  C   UNL A   1      31.985  19.444  22.055  1.00  0.00     0.000 A 
ATOM     28  C   UNL A   1      32.849  19.102  24.273  1.00  0.00     0.000 A 
ATOM     29  C   UNL A   1      32.353  18.583  23.082  1.00  0.00     0.000 A 
ENDBRANCH  11  24
ENDBRANCH   5   8
ENDBRANCH   3   4
ENDBRANCH   2   3
ENDBRANCH   1   2
BRANCH   1  30
ATOM     30  C   UNL A   1      32.044  29.445  25.399  1.00  0.00     0.002 C 
BRANCH  30  31
ATOM     31  C   UNL A   1      32.447  28.331  26.367  1.00  0.00     0.021 C 
BRANCH  31  32
ATOM     32  C   UNL A   1      33.596  28.684  27.305  1.00  0.00     0.116 C 
BRANCH  32  33
ATOM     33  N   UNL A   1      33.623  30.101  27.631  1.00  0.00    -0.352 N 
ATOM     34  C   UNL A   1      34.619  30.824  28.235  1.00  0.00     0.251 C 
ATOM     35  H   UNL A   1      32.817  30.609  27.384  1.00  0.00     0.163 HD
ATOM     36  O   UNL A   1      34.418  31.976  28.610  1.00  0.00    -0.269 OA
BRANCH  34  37
ATOM     37  C   UNL A   1      35.936  30.195  28.455  1.00  0.00     0.039 A 
ATOM     38  C   UNL A   1      36.868  30.183  27.414  1.00  0.00     0.014 A 
ATOM     39  C   UNL A   1      36.253  29.642  29.698  1.00  0.00     0.014 A 
ATOM     40  C   UNL A   1      38.150  29.678  27.643  1.00  0.00     0.010 A 
ATOM     41  C   UNL A   1      37.550  29.205  29.944  1.00  0.00     0.010 A 
ATOM     42  C   UNL A   1      38.511  29.220  28.920  1.00  0.00    -0.014 A 
BRANCH  42  43
ATOM     43  C   UNL A   1      39.885  28.750  29.223  1.00  0.00     0.031 A 
ATOM     44  C   UNL A   1      40.881  29.701  29.825  1.00  0.00     0.074 A 
ATOM     45  C   UNL A   1      40.266  27.509  28.862  1.00  0.00     0.049 A 
ATOM     46  N   UNL A   1      42.165  29.538  30.021  1.00  0.00    -0.248 NA
ATOM     47  C   UNL A   1      40.374  31.021  30.234  1.00  0.00     0.031 C 
ATOM     48  C   UNL A   1      39.403  26.500  28.246  1.00  0.00     0.029 A 
ATOM     49  N   UNL A   1      41.491  26.892  28.941  1.00  0.00    -0.354 N 
ATOM     50  C   UNL A   1      42.621  30.742  30.545  1.00  0.00     0.074 A 
ATOM     51  C   UNL A   1      41.487  31.637  30.602  1.00  0.00     0.031 C 
ATOM     52  C   UNL A   1      40.122  25.390  28.008  1.00  0.00     0.029 A 
ATOM     53  C   UNL A   1      41.506  25.627  28.406  1.00  0.00     0.049 A 
ATOM     54  H   UNL A   1      42.283  27.317  29.343  1.00  0.00     0.167 HD
ATOM     55  C   UNL A   1      43.870  31.067  30.950  1.00  0.00     0.031 A 
ATOM     56  C   UNL A   1      42.525  24.763  28.232  1.00  0.00     0.031 A 
ATOM     57  C   UNL A   1      44.991  30.168  30.910  1.00  0.00     0.049 A 
ATOM     58  C   UNL A   1      43.907  25.158  28.674  1.00  0.00     0.074 A 
ATOM     59  C   UNL A   1      46.282  30.383  31.364  1.00  0.00     0.029 A 
ATOM     60  N   UNL A   1      44.957  28.886  30.387  1.00  0.00    -0.354 N 
ATOM     61  N   UNL A   1      44.309  26.275  29.230  1.00  0.00    -0.248 NA
ATOM     62  C   UNL A   1      44.977  24.169  28.471  1.00  0.00     0.031 C 
ATOM     63  C   UNL A   1      47.043  29.253  31.058  1.00  0.00     0.029 A 
ATOM     64  C   UNL A   1      46.212  28.310  30.476  1.00  0.00     0.049 A 
ATOM     65  H   UNL A   1      44.160  28.451  30.007  1.00  0.00     0.167 HD
ATOM     66  C   UNL A   1      45.667  26.111  29.473  1.00  0.00     0.074 A 
ATOM     67  C   UNL A   1      46.019  24.783  29.015  1.00  0.00     0.031 C 
ATOM     68  C   UNL A   1      46.543  26.982  30.029  1.00  0.00     0.031 A 
BRANCH  55  69
ATOM     69  C   UNL A   1      44.099  32.463  31.461  1.00  0.00    -0.014 A 
ATOM     70  C   UNL A   1      43.927  32.784  32.816  1.00  0.00     0.009 A 
ATOM     71  C   UNL A   1      44.550  33.459  30.578  1.00  0.00     0.009 A 
ATOM     72  C   UNL A   1      44.173  34.081  33.272  1.00  0.00     0.001 A 
ATOM     73  C   UNL A   1      44.824  34.746  31.043  1.00  0.00     0.001 A 
ATOM     74  C   UNL A   1      44.627  35.058  32.387  1.00  0.00     0.000 A 
ENDBRANCH  55  69
BRANCH  56  75
ATOM     75  C   UNL A   1      42.285  23.441  27.593  1.00  0.00    -0.014 A 
ATOM     76  C   UNL A   1      42.360  23.296  26.199  1.00  0.00     0.009 A 
ATOM     77  C   UNL A   1      41.958  22.320  28.372  1.00  0.00     0.009 A 
ATOM     78  C   UNL A   1      42.079  22.066  25.598  1.00  0.00     0.001 A 
ATOM     79  C   UNL A   1      41.709  21.084  27.772  1.00  0.00     0.001 A 
ATOM     80  C   UNL A   1      41.757  20.962  26.384  1.00  0.00     0.000 A 
ENDBRANCH  56  75
BRANCH  68  81
ATOM     81  C   UNL A   1      47.958  26.517  30.223  1.00  0.00    -0.014 A 
ATOM     82  C   UNL A   1      48.367  25.892  31.410  1.00  0.00     0.009 A 
ATOM     83  C   UNL A   1      48.877  26.645  29.168  1.00  0.00     0.009 A 
ATOM     84  C   UNL A   1      49.676  25.421  31.544  1.00  0.00     0.001 A 
ATOM     85  C   UNL A   1      50.173  26.147  29.294  1.00  0.00     0.001 A 
ATOM     86  C   UNL A   1      50.574  25.541  30.483  1.00  0.00     0.000 A 
ENDBRANCH  68  81
ENDBRANCH  42  43
ENDBRANCH  34  37
ENDBRANCH  32  33
ENDBRANCH  31  32
ENDBRANCH  30  31
ENDBRANCH   1  30
TORSDOF 16
ENDMDL
MODEL 3
REMARK VINA RESULT:     -10.5      3.019      5.566
REMARK SMILES Cc1cc(N2N=C(C(=O)NCCCCCCNC(=O)c3ccc(-c4c5nc(c(-c6ccccc6)c6ccc([nH]6)c(-c6ccccc6)c6nc(c(-c7ccccc7)c7ccc4[nH]7)C=C6)C=C5)cc3)C[C@H]2c2ccccc2)c([N+](=O)[O-])cc1C
REMARK SMILES IDX 13 1 12 2 11 3 10 4 8 5 9 6 7 8 5 9 6 10 69 11 68 12 4 13
REMARK SMILES IDX 1 14 2 15 3 16 81 17 80 18 82 19 76 20 77 21 78 22 79 23
REMARK SMILES IDX 70 24 71 25 75 26 72 27 74 28 73 29 14 30 15 31 16 32 17 33
REMARK SMILES IDX 18 34 19 36 20 37 21 38 67 39 22 40 66 41 23 42 24 43 25 44
REMARK SMILES IDX 60 45 26 46 65 47 59 48 61 49 27 50 64 51 58 52 57 53 28 55
REMARK SMILES IDX 50 56 35 57 49 58 36 59 39 60 48 61 62 62 37 63 38 64 47 66
REMARK SMILES IDX 63 67 40 68 29 69 30 70 34 71 31 72 33 73 32 74 51 75 52 76
REMARK SMILES IDX 56 77 53 78 55 79 54 80 41 81 42 82 46 83 43 84 45 85 44 86
REMARK H PARENT 10 7 17 35 61 54 39 65
REMARK Flexibility Score: inf
ROOT
ATOM      1  C   UNL A   1      36.829  30.864  30.132  1.00  0.00     0.002 C 
ENDROOT
BRANCH   1   2
ATOM      2  C   UNL A   1      36.606  29.452  29.592  1.00  0.00     0.021 C 
BRANCH   2   3
ATOM      3  C   UNL A   1      36.120  29.392  28.149  1.00  0.00     0.116 C 
BRANCH   3   4
ATOM      4  N   UNL A   1      35.115  30.394  27.877  1.00  0.00    -0.351 N 
ATOM      5  C   UNL A   1      33.935  30.396  27.177  1.00  0.00     0.267 C 
ATOM      6  O   UNL A   1      33.320  31.459  27.107  1.00  0.00    -0.268 OA
ATOM      7  H   UNL A   1      35.322  31.267  28.284  1.00  0.00     0.163 HD
BRANCH   5   8
ATOM      8  C   UNL A   1      33.323  29.160  26.536  1.00  0.00     0.128 C 
ATOM      9  N   UNL A   1      33.148  27.497  25.202  1.00  0.00    -0.250 N 
ATOM     10  N   UNL A   1      33.980  28.477  25.646  1.00  0.00    -0.171 NA
ATOM     11  C   UNL A   1      31.848  27.472  25.883  1.00  0.00     0.144 C 
ATOM     12  C   UNL A   1      31.978  28.615  26.888  1.00  0.00     0.096 C 
BRANCH   9  13
ATOM     13  C   UNL A   1      33.690  26.316  24.698  1.00  0.00     0.138 A 
ATOM     14  C   UNL A   1      35.735  23.510  26.273  1.00  0.00     0.045 C 
ATOM     15  C   UNL A   1      35.001  24.290  25.218  1.00  0.00    -0.046 A 
ATOM     16  C   UNL A   1      34.324  25.457  25.609  1.00  0.00     0.039 A 
ATOM     17  C   UNL A   1      34.978  23.907  23.867  1.00  0.00    -0.041 A 
ATOM     18  C   UNL A   1      34.308  24.725  22.941  1.00  0.00     0.091 A 
ATOM     19  C   UNL A   1      35.627  22.648  23.363  1.00  0.00     0.045 C 
ATOM     20  C   UNL A   1      33.689  25.920  23.356  1.00  0.00     0.294 A 
BRANCH  20  21
ATOM     21  N   UNL A   1      33.128  26.773  22.315  1.00  0.00     0.065 N 
ATOM     22  O   UNL A   1      32.001  26.480  21.887  1.00  0.00    -0.258 OA
ATOM     23  O   UNL A   1      33.855  27.661  21.836  1.00  0.00    -0.258 OA
ENDBRANCH  20  21
ENDBRANCH   9  13
BRANCH  11  24
ATOM     24  C   UNL A   1      30.686  27.582  24.899  1.00  0.00    -0.023 A 
ATOM     25  C   UNL A   1      30.462  28.696  24.072  1.00  0.00     0.006 A 
ATOM     26  C   UNL A   1      29.796  26.497  24.786  1.00  0.00     0.006 A 
ATOM     27  C   UNL A   1      29.375  28.735  23.193  1.00  0.00     0.000 A 
ATOM     28  C   UNL A   1      28.741  26.516  23.872  1.00  0.00     0.000 A 
ATOM     29  C   UNL A   1      28.523  27.641  23.084  1.00  0.00     0.000 A 
ENDBRANCH  11  24
ENDBRANCH   5   8
ENDBRANCH   3   4
ENDBRANCH   2   3
ENDBRANCH   1   2
BRANCH   1  30
ATOM     30  C   UNL A   1      35.865  31.298  31.242  1.00  0.00     0.002 C 
BRANCH  30  31
ATOM     31  C   UNL A   1      34.923  32.447  30.881  1.00  0.00     0.021 C 
BRANCH  31  32
ATOM     32  C   UNL A   1      35.616  33.771  30.579  1.00  0.00     0.116 C 
BRANCH  32  33
ATOM     33  N   UNL A   1      35.911  34.525  31.787  1.00  0.00    -0.352 N 
ATOM     34  C   UNL A   1      37.073  34.561  32.515  1.00  0.00     0.251 C 
ATOM     35  H   UNL A   1      35.178  35.086  32.128  1.00  0.00     0.163 HD
ATOM     36  O   UNL A   1      37.107  35.103  33.616  1.00  0.00    -0.269 OA
BRANCH  34  37
ATOM     37  C   UNL A   1      38.285  33.917  31.971  1.00  0.00     0.039 A 
ATOM     38  C   UNL A   1      38.954  32.961  32.740  1.00  0.00     0.014 A 
ATOM     39  C   UNL A   1      38.739  34.240  30.689  1.00  0.00     0.014 A 
ATOM     40  C   UNL A   1      40.041  32.276  32.195  1.00  0.00     0.010 A 
ATOM     41  C   UNL A   1      39.777  33.508  30.124  1.00  0.00     0.010 A 
ATOM     42  C   UNL A   1      40.437  32.519  30.869  1.00  0.00    -0.014 A 
BRANCH  42  43
ATOM     43  C   UNL A   1      41.537  31.756  30.229  1.00  0.00     0.031 A 
ATOM     44  C   UNL A   1      42.847  32.436  29.943  1.00  0.00     0.074 A 
ATOM     45  C   UNL A   1      41.324  30.493  29.811  1.00  0.00     0.049 A 
ATOM     46  N   UNL A   1      43.872  31.999  29.258  1.00  0.00    -0.248 NA
ATOM     47  C   UNL A   1      43.015  33.799  30.474  1.00  0.00     0.031 C 
ATOM     48  C   UNL A   1      40.089  29.730  30.003  1.00  0.00     0.029 A 
ATOM     49  N   UNL A   1      42.138  29.633  29.114  1.00  0.00    -0.354 N 
ATOM     50  C   UNL A   1      44.790  33.042  29.249  1.00  0.00     0.074 A 
ATOM     51  C   UNL A   1      44.188  34.145  29.964  1.00  0.00     0.031 C 
ATOM     52  C   UNL A   1      40.229  28.517  29.443  1.00  0.00     0.029 A 
ATOM     53  C   UNL A   1      41.541  28.434  28.809  1.00  0.00     0.049 A 
ATOM     54  H   UNL A   1      43.062  29.856  28.857  1.00  0.00     0.167 HD
ATOM     55  C   UNL A   1      46.027  33.073  28.701  1.00  0.00     0.031 A 
ATOM     56  C   UNL A   1      41.989  27.394  28.079  1.00  0.00     0.031 A 
ATOM     57  C   UNL A   1      46.631  31.968  28.007  1.00  0.00     0.049 A 
ATOM     58  C   UNL A   1      43.360  27.464  27.466  1.00  0.00     0.074 A 
ATOM     59  C   UNL A   1      47.907  31.880  27.477  1.00  0.00     0.029 A 
ATOM     60  N   UNL A   1      46.002  30.763  27.744  1.00  0.00    -0.354 N 
ATOM     61  N   UNL A   1      44.243  28.431  27.523  1.00  0.00    -0.248 NA
ATOM     62  C   UNL A   1      43.801  26.294  26.691  1.00  0.00     0.031 C 
ATOM     63  C   UNL A   1      48.029  30.643  26.841  1.00  0.00     0.029 A 
ATOM     64  C   UNL A   1      46.853  29.936  27.031  1.00  0.00     0.049 A 
ATOM     65  H   UNL A   1      45.087  30.530  28.022  1.00  0.00     0.167 HD
ATOM     66  C   UNL A   1      45.353  27.975  26.824  1.00  0.00     0.074 A 
ATOM     67  C   UNL A   1      45.038  26.640  26.360  1.00  0.00     0.031 C 
ATOM     68  C   UNL A   1      46.529  28.604  26.590  1.00  0.00     0.031 A 
BRANCH  55  69
ATOM     69  C   UNL A   1      46.811  34.351  28.816  1.00  0.00    -0.014 A 
ATOM     70  C   UNL A   1      47.676  34.585  29.896  1.00  0.00     0.009 A 
ATOM     71  C   UNL A   1      46.725  35.312  27.794  1.00  0.00     0.009 A 
ATOM     72  C   UNL A   1      48.415  35.768  29.967  1.00  0.00     0.001 A 
ATOM     73  C   UNL A   1      47.488  36.479  27.853  1.00  0.00     0.001 A 
ATOM     74  C   UNL A   1      48.325  36.710  28.943  1.00  0.00     0.000 A 
ENDBRANCH  55  69
BRANCH  56  75
ATOM     75  C   UNL A   1      41.127  26.200  27.869  1.00  0.00    -0.014 A 
ATOM     76  C   UNL A   1      41.486  24.955  28.408  1.00  0.00     0.009 A 
ATOM     77  C   UNL A   1      39.950  26.294  27.110  1.00  0.00     0.009 A 
ATOM     78  C   UNL A   1      40.704  23.824  28.162  1.00  0.00     0.001 A 
ATOM     79  C   UNL A   1      39.152  25.168  26.892  1.00  0.00     0.001 A 
ATOM     80  C   UNL A   1      39.537  23.932  27.407  1.00  0.00     0.000 A 
ENDBRANCH  56  75
BRANCH  68  81
ATOM     81  C   UNL A   1      47.588  27.846  25.840  1.00  0.00    -0.014 A 
ATOM     82  C   UNL A   1      48.575  27.111  26.512  1.00  0.00     0.009 A 
ATOM     83  C   UNL A   1      47.548  27.810  24.437  1.00  0.00     0.009 A 
ATOM     84  C   UNL A   1      49.516  26.370  25.791  1.00  0.00     0.001 A 
ATOM     85  C   UNL A   1      48.469  27.047  23.721  1.00  0.00     0.001 A 
ATOM     86  C   UNL A   1      49.456  26.333  24.398  1.00  0.00     0.000 A 
ENDBRANCH  68  81
ENDBRANCH  42  43
ENDBRANCH  34  37
ENDBRANCH  32  33
ENDBRANCH  31  32
ENDBRANCH  30  31
ENDBRANCH   1  30
TORSDOF 16
ENDMDL
