MODEL 1
REMARK VINA RESULT:     -10.9      0.000      0.000
REMARK SMILES C[C@@H](C(=O)NCCCCCCNC(=O)c1ccc(-c2c3nc(c(-c4ccccc4)c4ccc([nH]4)c(-c4ccccc4)c4nc(c(-c5ccccc5)c5ccc2[nH]5)C=C4)C=C3)cc1)c1ccc(C[C@H]2CCC[C@H]2O)cc1
REMARK SMILES IDX 7 1 6 2 5 3 3 4 4 5 2 7 1 8 63 9 64 10 75 11 65 12 74 13
REMARK SMILES IDX 66 14 67 15 68 16 69 17 72 18 70 19 71 20 73 21 8 23 9 24
REMARK SMILES IDX 10 25 11 26 12 27 13 28 14 30 15 31 16 32 62 33 17 34 61 35
REMARK SMILES IDX 18 36 19 37 20 38 55 39 21 40 60 41 54 42 56 43 22 44 59 45
REMARK SMILES IDX 53 46 52 47 23 49 45 50 30 51 44 52 31 53 34 54 43 55 57 56
REMARK SMILES IDX 32 57 33 58 42 60 58 61 35 62 24 63 25 64 29 65 26 66 28 67
REMARK SMILES IDX 27 68 46 69 47 70 51 71 48 72 50 73 49 74 36 75 37 76 41 77
REMARK SMILES IDX 38 78 40 79 39 80
REMARK H PARENT 5 6 73 22 12 29 56 48 34 59
REMARK Flexibility Score: inf
ROOT
ATOM      1  C   UNL A   1      36.356  23.334  24.940  1.00  0.00     0.021 C 
ENDROOT
BRANCH   1   2
ATOM      2  C   UNL A   1      35.149  23.890  25.703  1.00  0.00     0.116 C 
BRANCH   2   3
ATOM      3  N   UNL A   1      34.643  25.064  25.024  1.00  0.00    -0.356 N 
ATOM      4  C   UNL A   1      33.418  25.267  24.455  1.00  0.00     0.227 C 
ATOM      5  O   UNL A   1      33.342  26.158  23.608  1.00  0.00    -0.274 OA
ATOM      6  H   UNL A   1      35.268  25.822  24.965  1.00  0.00     0.163 HD
BRANCH   4   7
ATOM      7  C   UNL A   1      32.210  24.439  24.932  1.00  0.00     0.105 C 
ATOM      8  C   UNL A   1      31.877  24.757  26.393  1.00  0.00     0.023 C 
BRANCH   7   9
ATOM      9  C   UNL A   1      32.385  22.946  24.646  1.00  0.00    -0.036 A 
ATOM     10  C   UNL A   1      32.497  22.512  23.314  1.00  0.00     0.005 A 
ATOM     11  C   UNL A   1      32.390  21.968  25.652  1.00  0.00     0.005 A 
ATOM     12  C   UNL A   1      32.603  21.157  23.002  1.00  0.00     0.004 A 
ATOM     13  C   UNL A   1      32.455  20.610  25.336  1.00  0.00     0.004 A 
ATOM     14  C   UNL A   1      32.522  20.189  24.003  1.00  0.00    -0.048 A 
BRANCH  14  15
ATOM     15  C   UNL A   1      32.459  18.724  23.658  1.00  0.00     0.041 C 
BRANCH  15  16
ATOM     16  C   UNL A   1      33.243  17.762  24.570  1.00  0.00     0.022 C 
ATOM     17  C   UNL A   1      32.421  16.681  25.294  1.00  0.00     0.007 C 
ATOM     18  C   UNL A   1      34.432  17.000  23.963  1.00  0.00     0.117 C 
ATOM     19  C   UNL A   1      33.368  15.495  25.501  1.00  0.00     0.003 C 
ATOM     20  C   UNL A   1      34.743  15.966  25.039  1.00  0.00     0.032 C 
BRANCH  18  21
ATOM     21  O   UNL A   1      34.148  16.315  22.754  1.00  0.00    -0.393 OA
ATOM     22  H   UNL A   1      33.672  16.906  22.151  1.00  0.00     0.210 HD
ENDBRANCH  18  21
ENDBRANCH  15  16
ENDBRANCH  14  15
ENDBRANCH   7   9
ENDBRANCH   4   7
ENDBRANCH   2   3
ENDBRANCH   1   2
BRANCH   1  23
ATOM     23  C   UNL A   1      36.055  22.054  24.149  1.00  0.00     0.002 C 
BRANCH  23  24
ATOM     24  C   UNL A   1      36.063  20.770  24.980  1.00  0.00     0.002 C 
BRANCH  24  25
ATOM     25  C   UNL A   1      37.333  19.927  24.844  1.00  0.00     0.021 C 
BRANCH  25  26
ATOM     26  C   UNL A   1      38.554  20.498  25.558  1.00  0.00     0.116 C 
BRANCH  26  27
ATOM     27  N   UNL A   1      39.653  19.549  25.604  1.00  0.00    -0.352 N 
ATOM     28  C   UNL A   1      40.967  19.755  25.938  1.00  0.00     0.251 C 
ATOM     29  H   UNL A   1      39.421  18.624  25.359  1.00  0.00     0.163 HD
ATOM     30  O   UNL A   1      41.799  18.876  25.735  1.00  0.00    -0.269 OA
BRANCH  28  31
ATOM     31  C   UNL A   1      41.389  21.042  26.530  1.00  0.00     0.039 A 
ATOM     32  C   UNL A   1      41.879  22.039  25.682  1.00  0.00     0.014 A 
ATOM     33  C   UNL A   1      41.330  21.261  27.910  1.00  0.00     0.014 A 
ATOM     34  C   UNL A   1      42.267  23.270  26.213  1.00  0.00     0.010 A 
ATOM     35  C   UNL A   1      41.654  22.512  28.429  1.00  0.00     0.010 A 
ATOM     36  C   UNL A   1      42.133  23.527  27.588  1.00  0.00    -0.014 A 
BRANCH  36  37
ATOM     37  C   UNL A   1      42.496  24.851  28.149  1.00  0.00     0.031 A 
ATOM     38  C   UNL A   1      43.919  25.156  28.527  1.00  0.00     0.074 A 
ATOM     39  C   UNL A   1      41.534  25.774  28.347  1.00  0.00     0.049 A 
ATOM     40  N   UNL A   1      44.421  26.255  29.031  1.00  0.00    -0.248 NA
ATOM     41  C   UNL A   1      44.905  24.081  28.331  1.00  0.00     0.031 C 
ATOM     42  C   UNL A   1      40.109  25.587  28.065  1.00  0.00     0.029 A 
ATOM     43  N   UNL A   1      41.612  27.056  28.831  1.00  0.00    -0.354 N 
ATOM     44  C   UNL A   1      45.775  26.004  29.212  1.00  0.00     0.074 A 
ATOM     45  C   UNL A   1      46.007  24.631  28.819  1.00  0.00     0.031 C 
ATOM     46  C   UNL A   1      39.452  26.722  28.355  1.00  0.00     0.029 A 
ATOM     47  C   UNL A   1      40.401  27.704  28.870  1.00  0.00     0.049 A 
ATOM     48  H   UNL A   1      42.455  27.472  29.122  1.00  0.00     0.167 HD
ATOM     49  C   UNL A   1      46.745  26.845  29.642  1.00  0.00     0.031 A 
ATOM     50  C   UNL A   1      40.091  28.949  29.275  1.00  0.00     0.031 A 
ATOM     51  C   UNL A   1      46.520  28.211  30.034  1.00  0.00     0.049 A 
ATOM     52  C   UNL A   1      41.185  29.861  29.754  1.00  0.00     0.074 A 
ATOM     53  C   UNL A   1      47.443  29.152  30.457  1.00  0.00     0.029 A 
ATOM     54  N   UNL A   1      45.280  28.833  30.048  1.00  0.00    -0.354 N 
ATOM     55  N   UNL A   1      42.469  29.625  29.862  1.00  0.00    -0.248 NA
ATOM     56  C   UNL A   1      40.786  31.219  30.149  1.00  0.00     0.031 C 
ATOM     57  C   UNL A   1      46.757  30.331  30.765  1.00  0.00     0.029 A 
ATOM     58  C   UNL A   1      45.414  30.141  30.485  1.00  0.00     0.049 A 
ATOM     59  H   UNL A   1      44.432  28.407  29.786  1.00  0.00     0.167 HD
ATOM     60  C   UNL A   1      43.034  30.810  30.313  1.00  0.00     0.074 A 
ATOM     61  C   UNL A   1      41.956  31.769  30.436  1.00  0.00     0.031 C 
ATOM     62  C   UNL A   1      44.330  31.080  30.604  1.00  0.00     0.031 A 
BRANCH  49  63
ATOM     63  C   UNL A   1      48.149  26.308  29.701  1.00  0.00    -0.014 A 
ATOM     64  C   UNL A   1      48.998  26.387  28.587  1.00  0.00     0.009 A 
ATOM     65  C   UNL A   1      48.641  25.753  30.893  1.00  0.00     0.009 A 
ATOM     66  C   UNL A   1      50.302  25.891  28.654  1.00  0.00     0.001 A 
ATOM     67  C   UNL A   1      49.953  25.283  30.964  1.00  0.00     0.001 A 
ATOM     68  C   UNL A   1      50.780  25.345  29.844  1.00  0.00     0.000 A 
ENDBRANCH  49  63
BRANCH  50  69
ATOM     69  C   UNL A   1      38.680  29.416  29.234  1.00  0.00    -0.014 A 
ATOM     70  C   UNL A   1      37.841  29.257  30.348  1.00  0.00     0.009 A 
ATOM     71  C   UNL A   1      38.160  30.005  28.070  1.00  0.00     0.009 A 
ATOM     72  C   UNL A   1      36.502  29.650  30.286  1.00  0.00     0.001 A 
ATOM     73  C   UNL A   1      36.828  30.422  28.022  1.00  0.00     0.001 A 
ATOM     74  C   UNL A   1      35.998  30.234  29.125  1.00  0.00     0.000 A 
ENDBRANCH  50  69
BRANCH  62  75
ATOM     75  C   UNL A   1      44.651  32.477  31.053  1.00  0.00    -0.014 A 
ATOM     76  C   UNL A   1      44.998  33.477  30.131  1.00  0.00     0.009 A 
ATOM     77  C   UNL A   1      44.584  32.801  32.417  1.00  0.00     0.009 A 
ATOM     78  C   UNL A   1      45.310  34.765  30.572  1.00  0.00     0.001 A 
ATOM     79  C   UNL A   1      44.870  34.096  32.852  1.00  0.00     0.001 A 
ATOM     80  C   UNL A   1      45.243  35.073  31.930  1.00  0.00     0.000 A 
ENDBRANCH  62  75
ENDBRANCH  36  37
ENDBRANCH  28  31
ENDBRANCH  26  27
ENDBRANCH  25  26
ENDBRANCH  24  25
ENDBRANCH  23  24
ENDBRANCH   1  23
TORSDOF 17
ENDMDL
MODEL 2
REMARK VINA RESULT:     -10.8      0.378      5.883
REMARK SMILES C[C@@H](C(=O)NCCCCCCNC(=O)c1ccc(-c2c3nc(c(-c4ccccc4)c4ccc([nH]4)c(-c4ccccc4)c4nc(c(-c5ccccc5)c5ccc2[nH]5)C=C4)C=C3)cc1)c1ccc(C[C@H]2CCC[C@H]2O)cc1
REMARK SMILES IDX 7 1 6 2 5 3 3 4 4 5 2 7 1 8 63 9 64 10 75 11 65 12 74 13
REMARK SMILES IDX 66 14 67 15 68 16 69 17 72 18 70 19 71 20 73 21 8 23 9 24
REMARK SMILES IDX 10 25 11 26 12 27 13 28 14 30 15 31 16 32 62 33 17 34 61 35
REMARK SMILES IDX 18 36 19 37 20 38 55 39 21 40 60 41 54 42 56 43 22 44 59 45
REMARK SMILES IDX 53 46 52 47 23 49 45 50 30 51 44 52 31 53 34 54 43 55 57 56
REMARK SMILES IDX 32 57 33 58 42 60 58 61 35 62 24 63 25 64 29 65 26 66 28 67
REMARK SMILES IDX 27 68 46 69 47 70 51 71 48 72 50 73 49 74 36 75 37 76 41 77
REMARK SMILES IDX 38 78 40 79 39 80
REMARK H PARENT 5 6 73 22 12 29 56 48 34 59
REMARK Flexibility Score: inf
ROOT
ATOM      1  C   UNL A   1      35.598  23.475  24.688  1.00  0.00     0.021 C 
ENDROOT
BRANCH   1   2
ATOM      2  C   UNL A   1      34.780  24.398  25.597  1.00  0.00     0.116 C 
BRANCH   2   3
ATOM      3  N   UNL A   1      34.137  25.421  24.800  1.00  0.00    -0.356 N 
ATOM      4  C   UNL A   1      32.904  25.404  24.212  1.00  0.00     0.227 C 
ATOM      5  O   UNL A   1      32.727  26.186  23.277  1.00  0.00    -0.274 OA
ATOM      6  H   UNL A   1      34.660  26.243  24.663  1.00  0.00     0.163 HD
BRANCH   4   7
ATOM      7  C   UNL A   1      31.806  24.480  24.771  1.00  0.00     0.105 C 
ATOM      8  C   UNL A   1      31.536  24.788  26.246  1.00  0.00     0.023 C 
BRANCH   7   9
ATOM      9  C   UNL A   1      32.095  23.003  24.488  1.00  0.00    -0.036 A 
ATOM     10  C   UNL A   1      32.240  22.577  23.157  1.00  0.00     0.005 A 
ATOM     11  C   UNL A   1      32.176  22.032  25.496  1.00  0.00     0.005 A 
ATOM     12  C   UNL A   1      32.450  21.233  22.848  1.00  0.00     0.004 A 
ATOM     13  C   UNL A   1      32.345  20.682  25.183  1.00  0.00     0.004 A 
ATOM     14  C   UNL A   1      32.444  20.265  23.852  1.00  0.00    -0.048 A 
BRANCH  14  15
ATOM     15  C   UNL A   1      32.493  18.798  23.509  1.00  0.00     0.041 C 
BRANCH  15  16
ATOM     16  C   UNL A   1      33.281  17.888  24.471  1.00  0.00     0.022 C 
ATOM     17  C   UNL A   1      32.461  16.851  25.260  1.00  0.00     0.007 C 
ATOM     18  C   UNL A   1      34.465  17.089  23.902  1.00  0.00     0.117 C 
ATOM     19  C   UNL A   1      33.407  15.677  25.529  1.00  0.00     0.003 C 
ATOM     20  C   UNL A   1      34.780  16.118  25.033  1.00  0.00     0.032 C 
BRANCH  18  21
ATOM     21  O   UNL A   1      34.173  16.338  22.736  1.00  0.00    -0.393 OA
ATOM     22  H   UNL A   1      34.975  16.252  22.197  1.00  0.00     0.210 HD
ENDBRANCH  18  21
ENDBRANCH  15  16
ENDBRANCH  14  15
ENDBRANCH   7   9
ENDBRANCH   4   7
ENDBRANCH   2   3
ENDBRANCH   1   2
BRANCH   1  23
ATOM     23  C   UNL A   1      36.325  22.350  25.437  1.00  0.00     0.002 C 
BRANCH  23  24
ATOM     24  C   UNL A   1      36.044  20.942  24.911  1.00  0.00     0.002 C 
BRANCH  24  25
ATOM     25  C   UNL A   1      37.270  20.030  24.834  1.00  0.00     0.021 C 
BRANCH  25  26
ATOM     26  C   UNL A   1      38.514  20.581  25.523  1.00  0.00     0.116 C 
BRANCH  26  27
ATOM     27  N   UNL A   1      39.561  19.581  25.641  1.00  0.00    -0.352 N 
ATOM     28  C   UNL A   1      40.871  19.731  26.019  1.00  0.00     0.251 C 
ATOM     29  H   UNL A   1      39.291  18.661  25.417  1.00  0.00     0.163 HD
ATOM     30  O   UNL A   1      41.664  18.806  25.876  1.00  0.00    -0.269 OA
BRANCH  28  31
ATOM     31  C   UNL A   1      41.336  21.015  26.586  1.00  0.00     0.039 A 
ATOM     32  C   UNL A   1      41.917  21.953  25.728  1.00  0.00     0.014 A 
ATOM     33  C   UNL A   1      41.229  21.287  27.953  1.00  0.00     0.014 A 
ATOM     34  C   UNL A   1      42.347  23.180  26.234  1.00  0.00     0.010 A 
ATOM     35  C   UNL A   1      41.597  22.537  28.444  1.00  0.00     0.010 A 
ATOM     36  C   UNL A   1      42.167  23.494  27.592  1.00  0.00    -0.014 A 
BRANCH  36  37
ATOM     37  C   UNL A   1      42.577  24.816  28.124  1.00  0.00     0.031 A 
ATOM     38  C   UNL A   1      41.563  25.909  28.318  1.00  0.00     0.074 A 
ATOM     39  C   UNL A   1      43.875  25.044  28.406  1.00  0.00     0.049 A 
ATOM     40  N   UNL A   1      41.739  27.126  28.769  1.00  0.00    -0.248 NA
ATOM     41  C   UNL A   1      40.175  25.604  27.938  1.00  0.00     0.031 C 
ATOM     42  C   UNL A   1      44.965  24.082  28.220  1.00  0.00     0.029 A 
ATOM     43  N   UNL A   1      44.497  26.157  28.913  1.00  0.00    -0.354 N 
ATOM     44  C   UNL A   1      40.487  27.728  28.727  1.00  0.00     0.074 A 
ATOM     45  C   UNL A   1      39.573  26.765  28.152  1.00  0.00     0.031 C 
ATOM     46  C   UNL A   1      46.116  24.639  28.633  1.00  0.00     0.029 A 
ATOM     47  C   UNL A   1      45.852  26.002  29.083  1.00  0.00     0.049 A 
ATOM     48  H   UNL A   1      44.019  26.988  29.134  1.00  0.00     0.167 HD
ATOM     49  C   UNL A   1      40.124  28.962  29.151  1.00  0.00     0.031 A 
ATOM     50  C   UNL A   1      46.777  26.860  29.550  1.00  0.00     0.031 A 
ATOM     51  C   UNL A   1      41.029  29.923  29.723  1.00  0.00     0.049 A 
ATOM     52  C   UNL A   1      46.349  28.226  30.009  1.00  0.00     0.074 A 
ATOM     53  C   UNL A   1      40.750  31.190  30.208  1.00  0.00     0.029 A 
ATOM     54  N   UNL A   1      42.391  29.722  29.888  1.00  0.00    -0.354 N 
ATOM     55  N   UNL A   1      45.151  28.756  30.016  1.00  0.00    -0.248 NA
ATOM     56  C   UNL A   1      47.401  29.103  30.540  1.00  0.00     0.031 C 
ATOM     57  C   UNL A   1      41.951  31.770  30.631  1.00  0.00     0.029 A 
ATOM     58  C   UNL A   1      42.968  30.845  30.457  1.00  0.00     0.049 A 
ATOM     59  H   UNL A   1      42.875  28.901  29.638  1.00  0.00     0.167 HD
ATOM     60  C   UNL A   1      45.301  30.019  30.574  1.00  0.00     0.074 A 
ATOM     61  C   UNL A   1      46.701  30.164  30.914  1.00  0.00     0.031 C 
ATOM     62  C   UNL A   1      44.363  30.974  30.785  1.00  0.00     0.031 A 
BRANCH  49  63
ATOM     63  C   UNL A   1      38.674  29.338  29.018  1.00  0.00    -0.014 A 
ATOM     64  C   UNL A   1      38.162  29.823  27.805  1.00  0.00     0.009 A 
ATOM     65  C   UNL A   1      37.801  29.170  30.104  1.00  0.00     0.009 A 
ATOM     66  C   UNL A   1      36.813  30.164  27.690  1.00  0.00     0.001 A 
ATOM     67  C   UNL A   1      36.447  29.486  29.978  1.00  0.00     0.001 A 
ATOM     68  C   UNL A   1      35.955  29.989  28.775  1.00  0.00     0.000 A 
ENDBRANCH  49  63
BRANCH  50  69
ATOM     69  C   UNL A   1      48.204  26.450  29.622  1.00  0.00    -0.014 A 
ATOM     70  C   UNL A   1      48.708  25.810  30.765  1.00  0.00     0.009 A 
ATOM     71  C   UNL A   1      49.075  26.717  28.553  1.00  0.00     0.009 A 
ATOM     72  C   UNL A   1      50.061  25.474  30.849  1.00  0.00     0.001 A 
ATOM     73  C   UNL A   1      50.421  26.354  28.630  1.00  0.00     0.001 A 
ATOM     74  C   UNL A   1      50.915  25.744  29.781  1.00  0.00     0.000 A 
ENDBRANCH  50  69
BRANCH  62  75
ATOM     75  C   UNL A   1      44.821  32.247  31.439  1.00  0.00    -0.014 A 
ATOM     76  C   UNL A   1      45.250  33.343  30.675  1.00  0.00     0.009 A 
ATOM     77  C   UNL A   1      44.802  32.355  32.838  1.00  0.00     0.009 A 
ATOM     78  C   UNL A   1      45.689  34.512  31.304  1.00  0.00     0.001 A 
ATOM     79  C   UNL A   1      45.214  33.533  33.462  1.00  0.00     0.001 A 
ATOM     80  C   UNL A   1      45.668  34.606  32.695  1.00  0.00     0.000 A 
ENDBRANCH  62  75
ENDBRANCH  36  37
ENDBRANCH  28  31
ENDBRANCH  26  27
ENDBRANCH  25  26
ENDBRANCH  24  25
ENDBRANCH  23  24
ENDBRANCH   1  23
TORSDOF 17
ENDMDL
MODEL 3
REMARK VINA RESULT:     -10.8      4.121      9.426
REMARK SMILES C[C@@H](C(=O)NCCCCCCNC(=O)c1ccc(-c2c3nc(c(-c4ccccc4)c4ccc([nH]4)c(-c4ccccc4)c4nc(c(-c5ccccc5)c5ccc2[nH]5)C=C4)C=C3)cc1)c1ccc(C[C@H]2CCC[C@H]2O)cc1
REMARK SMILES IDX 7 1 6 2 5 3 3 4 4 5 2 7 1 8 63 9 64 10 75 11 65 12 74 13
REMARK SMILES IDX 66 14 67 15 68 16 69 17 72 18 70 19 71 20 73 21 8 23 9 24
REMARK SMILES IDX 10 25 11 26 12 27 13 28 14 30 15 31 16 32 62 33 17 34 61 35
REMARK SMILES IDX 18 36 19 37 20 38 55 39 21 40 60 41 54 42 56 43 22 44 59 45
REMARK SMILES IDX 53 46 52 47 23 49 45 50 30 51 44 52 31 53 34 54 43 55 57 56
REMARK SMILES IDX 32 57 33 58 42 60 58 61 35 62 24 63 25 64 29 65 26 66 28 67
REMARK SMILES IDX 27 68 46 69 47 70 51 71 48 72 50 73 49 74 36 75 37 76 41 77
REMARK SMILES IDX 38 78 40 79 39 80
REMARK H PARENT 5 6 73 22 12 29 56 48 34 59
REMARK Flexibility Score: inf
ROOT
ATOM      1  C   UNL A   1      33.043  27.849  26.605  1.00  0.00     0.021 C 
ENDROOT
BRANCH   1   2
ATOM      2  C   UNL A   1      31.803  26.965  26.435  1.00  0.00     0.116 C 
BRANCH   2   3
ATOM      3  N   UNL A   1      32.189  25.571  26.476  1.00  0.00    -0.356 N 
ATOM      4  C   UNL A   1      32.198  24.651  25.466  1.00  0.00     0.227 C 
ATOM      5  O   UNL A   1      32.176  23.465  25.798  1.00  0.00    -0.274 OA
ATOM      6  H   UNL A   1      32.487  25.239  27.353  1.00  0.00     0.163 HD
BRANCH   4   7
ATOM      7  C   UNL A   1      32.295  25.126  24.004  1.00  0.00     0.105 C 
ATOM      8  C   UNL A   1      33.684  25.701  23.713  1.00  0.00     0.023 C 
BRANCH   7   9
ATOM      9  C   UNL A   1      31.143  26.059  23.622  1.00  0.00    -0.036 A 
ATOM     10  C   UNL A   1      31.416  27.207  22.860  1.00  0.00     0.005 A 
ATOM     11  C   UNL A   1      29.820  25.853  24.040  1.00  0.00     0.005 A 
ATOM     12  C   UNL A   1      30.408  28.115  22.535  1.00  0.00     0.004 A 
ATOM     13  C   UNL A   1      28.820  26.783  23.748  1.00  0.00     0.004 A 
ATOM     14  C   UNL A   1      29.114  27.944  23.026  1.00  0.00    -0.048 A 
BRANCH  14  15
ATOM     15  C   UNL A   1      28.066  29.009  22.826  1.00  0.00     0.041 C 
BRANCH  15  16
ATOM     16  C   UNL A   1      28.572  30.423  22.486  1.00  0.00     0.022 C 
ATOM     17  C   UNL A   1      28.148  30.992  21.119  1.00  0.00     0.007 C 
ATOM     18  C   UNL A   1      28.275  31.555  23.483  1.00  0.00     0.117 C 
ATOM     19  C   UNL A   1      28.104  32.514  21.288  1.00  0.00     0.003 C 
ATOM     20  C   UNL A   1      28.645  32.801  22.685  1.00  0.00     0.032 C 
BRANCH  18  21
ATOM     21  O   UNL A   1      26.919  31.664  23.877  1.00  0.00    -0.393 OA
ATOM     22  H   UNL A   1      26.511  30.784  23.885  1.00  0.00     0.210 HD
ENDBRANCH  18  21
ENDBRANCH  15  16
ENDBRANCH  14  15
ENDBRANCH   7   9
ENDBRANCH   4   7
ENDBRANCH   2   3
ENDBRANCH   1   2
BRANCH   1  23
ATOM     23  C   UNL A   1      32.982  29.165  25.819  1.00  0.00     0.002 C 
BRANCH  23  24
ATOM     24  C   UNL A   1      31.573  29.720  25.605  1.00  0.00     0.002 C 
BRANCH  24  25
ATOM     25  C   UNL A   1      31.375  31.162  26.074  1.00  0.00     0.021 C 
BRANCH  25  26
ATOM     26  C   UNL A   1      32.452  31.674  27.025  1.00  0.00     0.116 C 
BRANCH  26  27
ATOM     27  N   UNL A   1      32.260  33.074  27.364  1.00  0.00    -0.352 N 
ATOM     28  C   UNL A   1      33.021  33.888  28.163  1.00  0.00     0.251 C 
ATOM     29  H   UNL A   1      31.468  33.500  26.962  1.00  0.00     0.163 HD
ATOM     30  O   UNL A   1      32.602  34.993  28.493  1.00  0.00    -0.269 OA
BRANCH  28  31
ATOM     31  C   UNL A   1      34.342  33.431  28.643  1.00  0.00     0.039 A 
ATOM     32  C   UNL A   1      34.408  32.728  29.850  1.00  0.00     0.014 A 
ATOM     33  C   UNL A   1      35.512  33.712  27.930  1.00  0.00     0.014 A 
ATOM     34  C   UNL A   1      35.641  32.269  30.316  1.00  0.00     0.010 A 
ATOM     35  C   UNL A   1      36.731  33.195  28.363  1.00  0.00     0.010 A 
ATOM     36  C   UNL A   1      36.809  32.475  29.564  1.00  0.00    -0.014 A 
BRANCH  36  37
ATOM     37  C   UNL A   1      38.114  31.945  30.031  1.00  0.00     0.031 A 
ATOM     38  C   UNL A   1      38.626  30.625  29.526  1.00  0.00     0.074 A 
ATOM     39  C   UNL A   1      38.827  32.643  30.937  1.00  0.00     0.049 A 
ATOM     40  N   UNL A   1      39.740  30.005  29.823  1.00  0.00    -0.248 NA
ATOM     41  C   UNL A   1      37.769  29.896  28.578  1.00  0.00     0.031 C 
ATOM     42  C   UNL A   1      38.420  33.914  31.540  1.00  0.00     0.029 A 
ATOM     43  N   UNL A   1      40.047  32.379  31.508  1.00  0.00    -0.354 N 
ATOM     44  C   UNL A   1      39.717  28.818  29.102  1.00  0.00     0.074 A 
ATOM     45  C   UNL A   1      38.453  28.776  28.398  1.00  0.00     0.031 C 
ATOM     46  C   UNL A   1      39.385  34.333  32.375  1.00  0.00     0.029 A 
ATOM     47  C   UNL A   1      40.462  33.348  32.389  1.00  0.00     0.049 A 
ATOM     48  H   UNL A   1      40.574  31.574  31.305  1.00  0.00     0.167 HD
ATOM     49  C   UNL A   1      40.670  27.859  29.012  1.00  0.00     0.031 A 
ATOM     50  C   UNL A   1      41.586  33.435  33.125  1.00  0.00     0.031 A 
ATOM     51  C   UNL A   1      41.927  27.896  29.709  1.00  0.00     0.049 A 
ATOM     52  C   UNL A   1      42.625  32.355  33.011  1.00  0.00     0.074 A 
ATOM     53  C   UNL A   1      42.969  26.986  29.660  1.00  0.00     0.029 A 
ATOM     54  N   UNL A   1      42.314  28.901  30.583  1.00  0.00    -0.354 N 
ATOM     55  N   UNL A   1      42.610  31.269  32.278  1.00  0.00    -0.248 NA
ATOM     56  C   UNL A   1      43.843  32.525  33.814  1.00  0.00     0.031 C 
ATOM     57  C   UNL A   1      43.971  27.421  30.534  1.00  0.00     0.029 A 
ATOM     58  C   UNL A   1      43.575  28.627  31.088  1.00  0.00     0.049 A 
ATOM     59  H   UNL A   1      41.773  29.693  30.809  1.00  0.00     0.167 HD
ATOM     60  C   UNL A   1      43.825  30.639  32.513  1.00  0.00     0.074 A 
ATOM     61  C   UNL A   1      44.561  31.476  33.437  1.00  0.00     0.031 C 
ATOM     62  C   UNL A   1      44.290  29.470  32.010  1.00  0.00     0.031 A 
BRANCH  49  63
ATOM     63  C   UNL A   1      40.387  26.688  28.112  1.00  0.00    -0.014 A 
ATOM     64  C   UNL A   1      40.872  26.656  26.795  1.00  0.00     0.009 A 
ATOM     65  C   UNL A   1      39.662  25.588  28.595  1.00  0.00     0.009 A 
ATOM     66  C   UNL A   1      40.609  25.561  25.970  1.00  0.00     0.001 A 
ATOM     67  C   UNL A   1      39.424  24.483  27.776  1.00  0.00     0.001 A 
ATOM     68  C   UNL A   1      39.891  24.473  26.463  1.00  0.00     0.000 A 
ENDBRANCH  49  63
BRANCH  50  69
ATOM     69  C   UNL A   1      41.796  34.596  34.029  1.00  0.00    -0.014 A 
ATOM     70  C   UNL A   1      42.438  35.755  33.567  1.00  0.00     0.009 A 
ATOM     71  C   UNL A   1      41.374  34.541  35.367  1.00  0.00     0.009 A 
ATOM     72  C   UNL A   1      42.681  36.823  34.434  1.00  0.00     0.001 A 
ATOM     73  C   UNL A   1      41.592  35.622  36.223  1.00  0.00     0.001 A 
ATOM     74  C   UNL A   1      42.256  36.756  35.760  1.00  0.00     0.000 A 
ENDBRANCH  50  69
BRANCH  62  75
ATOM     75  C   UNL A   1      45.670  29.047  32.429  1.00  0.00    -0.014 A 
ATOM     76  C   UNL A   1      46.798  29.385  31.666  1.00  0.00     0.009 A 
ATOM     77  C   UNL A   1      45.842  28.320  33.617  1.00  0.00     0.009 A 
ATOM     78  C   UNL A   1      48.070  28.968  32.065  1.00  0.00     0.001 A 
ATOM     79  C   UNL A   1      47.117  27.928  34.028  1.00  0.00     0.001 A 
ATOM     80  C   UNL A   1      48.228  28.243  33.245  1.00  0.00     0.000 A 
ENDBRANCH  62  75
ENDBRANCH  36  37
ENDBRANCH  28  31
ENDBRANCH  26  27
ENDBRANCH  25  26
ENDBRANCH  24  25
ENDBRANCH  23  24
ENDBRANCH   1  23
TORSDOF 17
ENDMDL
