MODEL 1
REMARK VINA RESULT:     -12.3      0.000      0.000
REMARK SMILES COc1ccccc1[C@@H]1C[N@@H+](Cc2cn3cc(C)ccc3n2)C[C@H]1C(=O)NCCCCCCNC(=O)c1ccc(-c2c3nc(c(-c4ccccc4)c4ccc([nH]4)c(-c4ccccc4)c4nc(c(-c5ccccc5)c5ccc2[nH]5)C=C4)C=C3)cc1
REMARK SMILES IDX 30 1 29 2 28 3 27 4 25 5 26 6 24 8 9 9 10 10 11 11 23 12
REMARK SMILES IDX 8 14 3 15 4 16 5 17 7 18 6 19 2 20 1 21 12 22 13 23 14 24
REMARK SMILES IDX 22 25 15 26 21 27 16 28 20 29 17 30 19 31 18 32 31 33 32 34
REMARK SMILES IDX 33 35 34 36 35 37 36 39 37 40 38 41 84 42 39 43 83 44 40 45
REMARK SMILES IDX 41 46 42 47 77 48 43 49 82 50 76 51 78 52 44 53 81 54 75 55
REMARK SMILES IDX 74 56 45 58 67 59 52 60 66 61 53 62 56 63 65 64 79 65 54 66
REMARK SMILES IDX 55 67 64 69 80 70 57 71 46 72 47 73 51 74 48 75 50 76 49 77
REMARK SMILES IDX 68 78 69 79 73 80 70 81 72 82 71 83 58 84 59 85 63 86 60 87
REMARK SMILES IDX 62 88 61 89
REMARK H PARENT 27 7 11 13 34 38 78 57 56 68
REMARK Flexibility Score: inf
ROOT
ATOM      1  C   UNL A   1      38.201  22.011  25.718  1.00  0.00     0.002 C 
ENDROOT
BRANCH   1   2
ATOM      2  C   UNL A   1      37.467  23.294  25.347  1.00  0.00     0.021 C 
BRANCH   2   3
ATOM      3  C   UNL A   1      35.935  23.270  25.436  1.00  0.00     0.116 C 
BRANCH   3   4
ATOM      4  N   UNL A   1      35.260  24.530  25.717  1.00  0.00    -0.356 N 
ATOM      5  C   UNL A   1      34.346  25.327  25.090  1.00  0.00     0.229 C 
ATOM      6  O   UNL A   1      34.098  26.378  25.708  1.00  0.00    -0.275 OA
ATOM      7  H   UNL A   1      35.536  24.905  26.584  1.00  0.00     0.163 HD
BRANCH   5   8
ATOM      8  C   UNL A   1      33.550  25.061  23.789  1.00  0.00     0.146 C 
ATOM      9  C   UNL A   1      32.272  24.176  23.960  1.00  0.00     0.096 C 
ATOM     10  C   UNL A   1      31.246  24.745  22.970  1.00  0.00     0.272 C 
ATOM     11  N   UNL A   1      31.558  26.181  22.910  1.00  0.00    -0.329 N 
ATOM     12  C   UNL A   1      33.032  26.209  22.924  1.00  0.00     0.276 C 
ATOM     13  H   UNL A   1      31.189  26.625  22.070  1.00  0.00     0.348 HD
BRANCH   9  14
ATOM     14  C   UNL A   1      32.239  22.682  24.204  1.00  0.00     0.004 A 
ATOM     15  C   UNL A   1      32.453  22.007  25.406  1.00  0.00     0.122 A 
ATOM     16  C   UNL A   1      32.539  20.602  25.414  1.00  0.00     0.047 A 
ATOM     17  C   UNL A   1      32.439  19.853  24.239  1.00  0.00     0.004 A 
ATOM     18  C   UNL A   1      32.139  21.887  23.026  1.00  0.00     0.008 A 
ATOM     19  C   UNL A   1      32.253  20.501  23.032  1.00  0.00     0.001 A 
BRANCH  15  20
ATOM     20  O   UNL A   1      32.772  22.601  26.595  1.00  0.00    -0.496 OA
ATOM     21  C   UNL A   1      33.497  21.768  27.487  1.00  0.00     0.278 C 
ENDBRANCH  15  20
ENDBRANCH   9  14
BRANCH  11  22
ATOM     22  C   UNL A   1      30.849  27.048  23.893  1.00  0.00     0.321 C 
BRANCH  22  23
ATOM     23  C   UNL A   1      30.080  28.263  23.409  1.00  0.00     0.114 A 
ATOM     24  C   UNL A   1      29.291  28.487  22.287  1.00  0.00     0.122 A 
ATOM     25  N   UNL A   1      30.201  29.447  24.077  1.00  0.00    -0.228 NA
ATOM     26  N   UNL A   1      28.934  29.830  22.316  1.00  0.00    -0.306 N 
ATOM     27  C   UNL A   1      29.443  30.336  23.493  1.00  0.00     0.137 A 
ATOM     28  C   UNL A   1      28.292  30.644  21.381  1.00  0.00     0.096 A 
ATOM     29  C   UNL A   1      29.207  31.696  23.814  1.00  0.00     0.048 A 
ATOM     30  C   UNL A   1      28.174  31.972  21.619  1.00  0.00    -0.034 A 
ATOM     31  C   UNL A   1      28.619  32.492  22.909  1.00  0.00     0.009 A 
ATOM     32  C   UNL A   1      27.669  33.000  20.658  1.00  0.00     0.046 C 
ENDBRANCH  22  23
ENDBRANCH  11  22
ENDBRANCH   5   8
ENDBRANCH   3   4
ENDBRANCH   2   3
ENDBRANCH   1   2
BRANCH   1  33
ATOM     33  C   UNL A   1      37.676  20.795  24.944  1.00  0.00     0.002 C 
BRANCH  33  34
ATOM     34  C   UNL A   1      38.647  19.610  24.780  1.00  0.00     0.021 C 
BRANCH  34  35
ATOM     35  C   UNL A   1      39.420  19.260  26.042  1.00  0.00     0.116 C 
BRANCH  35  36
ATOM     36  N   UNL A   1      40.745  18.749  25.720  1.00  0.00    -0.352 N 
ATOM     37  C   UNL A   1      41.940  19.431  25.670  1.00  0.00     0.251 C 
ATOM     38  H   UNL A   1      40.793  17.789  25.511  1.00  0.00     0.163 HD
ATOM     39  O   UNL A   1      42.886  18.984  25.041  1.00  0.00    -0.269 OA
BRANCH  37  40
ATOM     40  C   UNL A   1      42.092  20.682  26.437  1.00  0.00     0.039 A 
ATOM     41  C   UNL A   1      41.477  20.841  27.688  1.00  0.00     0.014 A 
ATOM     42  C   UNL A   1      42.762  21.745  25.847  1.00  0.00     0.014 A 
ATOM     43  C   UNL A   1      41.539  22.075  28.335  1.00  0.00     0.010 A 
ATOM     44  C   UNL A   1      42.894  22.928  26.525  1.00  0.00     0.010 A 
ATOM     45  C   UNL A   1      42.228  23.123  27.726  1.00  0.00    -0.014 A 
BRANCH  45  46
ATOM     46  C   UNL A   1      42.433  24.417  28.360  1.00  0.00     0.031 A 
ATOM     47  C   UNL A   1      41.357  25.400  28.070  1.00  0.00     0.074 A 
ATOM     48  C   UNL A   1      43.295  24.579  29.389  1.00  0.00     0.049 A 
ATOM     49  N   UNL A   1      41.472  26.553  27.504  1.00  0.00    -0.248 NA
ATOM     50  C   UNL A   1      39.963  24.998  28.335  1.00  0.00     0.031 C 
ATOM     51  C   UNL A   1      44.151  23.561  30.011  1.00  0.00     0.029 A 
ATOM     52  N   UNL A   1      43.473  25.652  30.207  1.00  0.00    -0.354 N 
ATOM     53  C   UNL A   1      40.196  27.108  27.517  1.00  0.00     0.074 A 
ATOM     54  C   UNL A   1      39.290  26.041  27.848  1.00  0.00     0.031 C 
ATOM     55  C   UNL A   1      44.555  23.988  31.229  1.00  0.00     0.029 A 
ATOM     56  C   UNL A   1      44.128  25.364  31.402  1.00  0.00     0.049 A 
ATOM     57  H   UNL A   1      43.165  26.557  29.973  1.00  0.00     0.167 HD
ATOM     58  C   UNL A   1      40.012  28.458  27.534  1.00  0.00     0.031 A 
ATOM     59  C   UNL A   1      44.276  26.186  32.470  1.00  0.00     0.031 A 
ATOM     60  C   UNL A   1      41.216  29.158  27.166  1.00  0.00     0.049 A 
ATOM     61  C   UNL A   1      44.019  27.565  31.999  1.00  0.00     0.074 A 
ATOM     62  C   UNL A   1      42.037  29.173  26.056  1.00  0.00     0.029 A 
ATOM     63  N   UNL A   1      41.955  29.701  28.190  1.00  0.00    -0.354 N 
ATOM     64  N   UNL A   1      44.786  28.191  31.153  1.00  0.00    -0.248 NA
ATOM     65  C   UNL A   1      42.668  28.089  32.122  1.00  0.00     0.031 C 
ATOM     66  C   UNL A   1      43.359  29.278  26.579  1.00  0.00     0.029 A 
ATOM     67  C   UNL A   1      43.269  29.389  27.969  1.00  0.00     0.049 A 
ATOM     68  H   UNL A   1      41.602  30.221  28.949  1.00  0.00     0.167 HD
ATOM     69  C   UNL A   1      43.910  28.877  30.326  1.00  0.00     0.074 A 
ATOM     70  C   UNL A   1      42.634  28.872  31.039  1.00  0.00     0.031 C 
ATOM     71  C   UNL A   1      44.227  29.123  29.019  1.00  0.00     0.031 A 
BRANCH  58  72
ATOM     72  C   UNL A   1      38.906  29.131  28.315  1.00  0.00    -0.014 A 
ATOM     73  C   UNL A   1      38.870  28.952  29.710  1.00  0.00     0.009 A 
ATOM     74  C   UNL A   1      37.752  29.680  27.723  1.00  0.00     0.009 A 
ATOM     75  C   UNL A   1      37.711  29.215  30.450  1.00  0.00     0.001 A 
ATOM     76  C   UNL A   1      36.608  29.985  28.464  1.00  0.00     0.001 A 
ATOM     77  C   UNL A   1      36.577  29.721  29.824  1.00  0.00     0.000 A 
ENDBRANCH  58  72
BRANCH  59  78
ATOM     78  C   UNL A   1      44.382  25.853  33.909  1.00  0.00    -0.014 A 
ATOM     79  C   UNL A   1      43.425  25.037  34.534  1.00  0.00     0.009 A 
ATOM     80  C   UNL A   1      45.572  26.114  34.612  1.00  0.00     0.009 A 
ATOM     81  C   UNL A   1      43.668  24.471  35.795  1.00  0.00     0.001 A 
ATOM     82  C   UNL A   1      45.814  25.552  35.872  1.00  0.00     0.001 A 
ATOM     83  C   UNL A   1      44.867  24.718  36.457  1.00  0.00     0.000 A 
ENDBRANCH  59  78
BRANCH  71  84
ATOM     84  C   UNL A   1      45.642  28.837  28.572  1.00  0.00    -0.014 A 
ATOM     85  C   UNL A   1      46.667  29.798  28.613  1.00  0.00     0.009 A 
ATOM     86  C   UNL A   1      45.986  27.512  28.267  1.00  0.00     0.009 A 
ATOM     87  C   UNL A   1      47.994  29.446  28.340  1.00  0.00     0.001 A 
ATOM     88  C   UNL A   1      47.312  27.156  28.014  1.00  0.00     0.001 A 
ATOM     89  C   UNL A   1      48.315  28.123  28.048  1.00  0.00     0.000 A 
ENDBRANCH  71  84
ENDBRANCH  45  46
ENDBRANCH  37  40
ENDBRANCH  35  36
ENDBRANCH  34  35
ENDBRANCH  33  34
ENDBRANCH   1  33
TORSDOF 17
ENDMDL
MODEL 2
REMARK VINA RESULT:     -12.3      2.432      6.677
REMARK SMILES COc1ccccc1[C@@H]1C[N@@H+](Cc2cn3cc(C)ccc3n2)C[C@H]1C(=O)NCCCCCCNC(=O)c1ccc(-c2c3nc(c(-c4ccccc4)c4ccc([nH]4)c(-c4ccccc4)c4nc(c(-c5ccccc5)c5ccc2[nH]5)C=C4)C=C3)cc1
REMARK SMILES IDX 30 1 29 2 28 3 27 4 25 5 26 6 24 8 9 9 10 10 11 11 23 12
REMARK SMILES IDX 8 14 3 15 4 16 5 17 7 18 6 19 2 20 1 21 12 22 13 23 14 24
REMARK SMILES IDX 22 25 15 26 21 27 16 28 20 29 17 30 19 31 18 32 31 33 32 34
REMARK SMILES IDX 33 35 34 36 35 37 36 39 37 40 38 41 84 42 39 43 83 44 40 45
REMARK SMILES IDX 41 46 42 47 77 48 43 49 82 50 76 51 78 52 44 53 81 54 75 55
REMARK SMILES IDX 74 56 45 58 67 59 52 60 66 61 53 62 56 63 65 64 79 65 54 66
REMARK SMILES IDX 55 67 64 69 80 70 57 71 46 72 47 73 51 74 48 75 50 76 49 77
REMARK SMILES IDX 68 78 69 79 73 80 70 81 72 82 71 83 58 84 59 85 63 86 60 87
REMARK SMILES IDX 62 88 61 89
REMARK H PARENT 27 7 11 13 34 38 78 57 56 68
REMARK Flexibility Score: inf
ROOT
ATOM      1  C   UNL A   1      32.013  27.142  26.555  1.00  0.00     0.002 C 
ENDROOT
BRANCH   1   2
ATOM      2  C   UNL A   1      33.385  26.641  26.121  1.00  0.00     0.021 C 
BRANCH   2   3
ATOM      3  C   UNL A   1      33.548  25.125  25.945  1.00  0.00     0.116 C 
BRANCH   3   4
ATOM      4  N   UNL A   1      34.674  24.661  25.144  1.00  0.00    -0.356 N 
ATOM      5  C   UNL A   1      34.845  23.958  23.987  1.00  0.00     0.229 C 
ATOM      6  O   UNL A   1      36.039  23.743  23.709  1.00  0.00    -0.275 OA
ATOM      7  H   UNL A   1      35.536  24.922  25.542  1.00  0.00     0.163 HD
BRANCH   5   8
ATOM      8  C   UNL A   1      33.779  23.477  22.971  1.00  0.00     0.146 C 
ATOM      9  C   UNL A   1      32.675  22.540  23.560  1.00  0.00     0.096 C 
ATOM     10  C   UNL A   1      31.385  22.910  22.814  1.00  0.00     0.272 C 
ATOM     11  N   UNL A   1      31.534  24.344  22.522  1.00  0.00    -0.329 N 
ATOM     12  C   UNL A   1      32.955  24.470  22.152  1.00  0.00     0.276 C 
ATOM     13  H   UNL A   1      30.926  24.652  21.763  1.00  0.00     0.348 HD
BRANCH   9  14
ATOM     14  C   UNL A   1      32.846  21.091  23.963  1.00  0.00     0.004 A 
ATOM     15  C   UNL A   1      33.644  20.576  24.985  1.00  0.00     0.122 A 
ATOM     16  C   UNL A   1      33.803  19.182  25.115  1.00  0.00     0.047 A 
ATOM     17  C   UNL A   1      33.198  18.288  24.227  1.00  0.00     0.004 A 
ATOM     18  C   UNL A   1      32.243  20.150  23.077  1.00  0.00     0.008 A 
ATOM     19  C   UNL A   1      32.425  18.776  23.191  1.00  0.00     0.001 A 
BRANCH  15  20
ATOM     20  O   UNL A   1      34.455  21.316  25.797  1.00  0.00    -0.496 OA
ATOM     21  C   UNL A   1      33.941  21.521  27.105  1.00  0.00     0.278 C 
ENDBRANCH  15  20
ENDBRANCH   9  14
BRANCH  11  22
ATOM     22  C   UNL A   1      31.011  25.281  23.557  1.00  0.00     0.321 C 
BRANCH  22  23
ATOM     23  C   UNL A   1      30.379  26.594  23.134  1.00  0.00     0.114 A 
ATOM     24  C   UNL A   1      30.875  27.694  22.444  1.00  0.00     0.122 A 
ATOM     25  N   UNL A   1      29.115  26.897  23.549  1.00  0.00    -0.228 NA
ATOM     26  N   UNL A   1      29.866  28.650  22.445  1.00  0.00    -0.306 N 
ATOM     27  C   UNL A   1      28.779  28.058  23.054  1.00  0.00     0.137 A 
ATOM     28  C   UNL A   1      29.850  29.988  22.048  1.00  0.00     0.096 A 
ATOM     29  C   UNL A   1      27.574  28.795  23.172  1.00  0.00     0.048 A 
ATOM     30  C   UNL A   1      28.746  30.739  22.274  1.00  0.00    -0.034 A 
ATOM     31  C   UNL A   1      27.559  30.089  22.821  1.00  0.00     0.009 A 
ATOM     32  C   UNL A   1      28.625  32.215  22.063  1.00  0.00     0.046 C 
ENDBRANCH  22  23
ENDBRANCH  11  22
ENDBRANCH   5   8
ENDBRANCH   3   4
ENDBRANCH   2   3
ENDBRANCH   1   2
BRANCH   1  33
ATOM     33  C   UNL A   1      32.102  28.390  27.443  1.00  0.00     0.002 C 
BRANCH  33  34
ATOM     34  C   UNL A   1      32.387  29.725  26.730  1.00  0.00     0.021 C 
BRANCH  34  35
ATOM     35  C   UNL A   1      33.809  30.235  26.907  1.00  0.00     0.116 C 
BRANCH  35  36
ATOM     36  N   UNL A   1      33.830  31.471  27.677  1.00  0.00    -0.352 N 
ATOM     37  C   UNL A   1      34.663  31.824  28.714  1.00  0.00     0.251 C 
ATOM     38  H   UNL A   1      33.160  32.145  27.420  1.00  0.00     0.163 HD
ATOM     39  O   UNL A   1      34.345  32.704  29.497  1.00  0.00    -0.269 OA
BRANCH  37  40
ATOM     40  C   UNL A   1      35.980  31.170  28.838  1.00  0.00     0.039 A 
ATOM     41  C   UNL A   1      36.085  29.779  28.988  1.00  0.00     0.014 A 
ATOM     42  C   UNL A   1      37.113  31.970  28.919  1.00  0.00     0.014 A 
ATOM     43  C   UNL A   1      37.334  29.203  29.221  1.00  0.00     0.010 A 
ATOM     44  C   UNL A   1      38.346  31.391  29.063  1.00  0.00     0.010 A 
ATOM     45  C   UNL A   1      38.456  30.027  29.287  1.00  0.00    -0.014 A 
BRANCH  45  46
ATOM     46  C   UNL A   1      39.812  29.517  29.430  1.00  0.00     0.031 A 
ATOM     47  C   UNL A   1      40.214  29.278  30.840  1.00  0.00     0.074 A 
ATOM     48  C   UNL A   1      40.482  28.970  28.390  1.00  0.00     0.049 A 
ATOM     49  N   UNL A   1      41.198  29.809  31.482  1.00  0.00    -0.248 NA
ATOM     50  C   UNL A   1      39.337  28.435  31.676  1.00  0.00     0.031 C 
ATOM     51  C   UNL A   1      40.018  28.815  27.006  1.00  0.00     0.029 A 
ATOM     52  N   UNL A   1      41.660  28.288  28.384  1.00  0.00    -0.354 N 
ATOM     53  C   UNL A   1      41.187  29.220  32.743  1.00  0.00     0.074 A 
ATOM     54  C   UNL A   1      39.920  28.549  32.869  1.00  0.00     0.031 C 
ATOM     55  C   UNL A   1      40.775  27.890  26.373  1.00  0.00     0.029 A 
ATOM     56  C   UNL A   1      41.871  27.513  27.246  1.00  0.00     0.049 A 
ATOM     57  H   UNL A   1      42.310  28.340  29.121  1.00  0.00     0.167 HD
ATOM     58  C   UNL A   1      42.329  29.091  33.474  1.00  0.00     0.031 A 
ATOM     59  C   UNL A   1      42.855  26.600  27.052  1.00  0.00     0.031 A 
ATOM     60  C   UNL A   1      43.380  29.934  32.963  1.00  0.00     0.049 A 
ATOM     61  C   UNL A   1      43.910  26.875  28.053  1.00  0.00     0.074 A 
ATOM     62  C   UNL A   1      43.530  31.292  32.763  1.00  0.00     0.029 A 
ATOM     63  N   UNL A   1      44.342  29.329  32.191  1.00  0.00    -0.354 N 
ATOM     64  N   UNL A   1      44.634  27.957  28.055  1.00  0.00    -0.248 NA
ATOM     65  C   UNL A   1      43.860  26.156  29.316  1.00  0.00     0.031 C 
ATOM     66  C   UNL A   1      44.247  31.403  31.534  1.00  0.00     0.029 A 
ATOM     67  C   UNL A   1      44.551  30.115  31.090  1.00  0.00     0.049 A 
ATOM     68  H   UNL A   1      44.798  28.480  32.393  1.00  0.00     0.167 HD
ATOM     69  C   UNL A   1      44.756  28.296  29.394  1.00  0.00     0.074 A 
ATOM     70  C   UNL A   1      44.362  27.093  30.126  1.00  0.00     0.031 C 
ATOM     71  C   UNL A   1      44.879  29.602  29.778  1.00  0.00     0.031 A 
BRANCH  58  72
ATOM     72  C   UNL A   1      42.625  27.886  34.337  1.00  0.00    -0.014 A 
ATOM     73  C   UNL A   1      42.712  28.068  35.730  1.00  0.00     0.009 A 
ATOM     74  C   UNL A   1      43.106  26.661  33.834  1.00  0.00     0.009 A 
ATOM     75  C   UNL A   1      43.333  27.120  36.553  1.00  0.00     0.001 A 
ATOM     76  C   UNL A   1      43.686  25.693  34.658  1.00  0.00     0.001 A 
ATOM     77  C   UNL A   1      43.830  25.939  36.014  1.00  0.00     0.000 A 
ENDBRANCH  58  72
BRANCH  59  78
ATOM     78  C   UNL A   1      42.847  25.364  26.237  1.00  0.00    -0.014 A 
ATOM     79  C   UNL A   1      43.847  25.123  25.279  1.00  0.00     0.009 A 
ATOM     80  C   UNL A   1      42.009  24.289  26.584  1.00  0.00     0.009 A 
ATOM     81  C   UNL A   1      44.026  23.848  24.724  1.00  0.00     0.001 A 
ATOM     82  C   UNL A   1      42.185  23.016  26.028  1.00  0.00     0.001 A 
ATOM     83  C   UNL A   1      43.204  22.792  25.109  1.00  0.00     0.000 A 
ENDBRANCH  59  78
BRANCH  71  84
ATOM     84  C   UNL A   1      45.112  30.634  28.700  1.00  0.00    -0.014 A 
ATOM     85  C   UNL A   1      46.396  31.037  28.290  1.00  0.00     0.009 A 
ATOM     86  C   UNL A   1      44.009  31.081  27.959  1.00  0.00     0.009 A 
ATOM     87  C   UNL A   1      46.567  31.875  27.183  1.00  0.00     0.001 A 
ATOM     88  C   UNL A   1      44.180  31.901  26.842  1.00  0.00     0.001 A 
ATOM     89  C   UNL A   1      45.458  32.300  26.455  1.00  0.00     0.000 A 
ENDBRANCH  71  84
ENDBRANCH  45  46
ENDBRANCH  37  40
ENDBRANCH  35  36
ENDBRANCH  34  35
ENDBRANCH  33  34
ENDBRANCH   1  33
TORSDOF 17
ENDMDL
MODEL 3
REMARK VINA RESULT:     -12.1      2.312      6.845
REMARK SMILES COc1ccccc1[C@@H]1C[N@@H+](Cc2cn3cc(C)ccc3n2)C[C@H]1C(=O)NCCCCCCNC(=O)c1ccc(-c2c3nc(c(-c4ccccc4)c4ccc([nH]4)c(-c4ccccc4)c4nc(c(-c5ccccc5)c5ccc2[nH]5)C=C4)C=C3)cc1
REMARK SMILES IDX 30 1 29 2 28 3 27 4 25 5 26 6 24 8 9 9 10 10 11 11 23 12
REMARK SMILES IDX 8 14 3 15 4 16 5 17 7 18 6 19 2 20 1 21 12 22 13 23 14 24
REMARK SMILES IDX 22 25 15 26 21 27 16 28 20 29 17 30 19 31 18 32 31 33 32 34
REMARK SMILES IDX 33 35 34 36 35 37 36 39 37 40 38 41 84 42 39 43 83 44 40 45
REMARK SMILES IDX 41 46 42 47 77 48 43 49 82 50 76 51 78 52 44 53 81 54 75 55
REMARK SMILES IDX 74 56 45 58 67 59 52 60 66 61 53 62 56 63 65 64 79 65 54 66
REMARK SMILES IDX 55 67 64 69 80 70 57 71 46 72 47 73 51 74 48 75 50 76 49 77
REMARK SMILES IDX 68 78 69 79 73 80 70 81 72 82 71 83 58 84 59 85 63 86 60 87
REMARK SMILES IDX 62 88 61 89
REMARK H PARENT 27 7 11 13 34 38 78 57 56 68
REMARK Flexibility Score: inf
ROOT
ATOM      1  C   UNL A   1      34.044  28.534  26.079  1.00  0.00     0.002 C 
ENDROOT
BRANCH   1   2
ATOM      2  C   UNL A   1      34.192  28.022  24.651  1.00  0.00     0.021 C 
BRANCH   2   3
ATOM      3  C   UNL A   1      33.733  26.584  24.377  1.00  0.00     0.116 C 
BRANCH   3   4
ATOM      4  N   UNL A   1      33.587  26.181  22.984  1.00  0.00    -0.356 N 
ATOM      5  C   UNL A   1      33.130  25.084  22.312  1.00  0.00     0.229 C 
ATOM      6  O   UNL A   1      33.257  25.170  21.077  1.00  0.00    -0.275 OA
ATOM      7  H   UNL A   1      33.901  26.881  22.368  1.00  0.00     0.163 HD
BRANCH   5   8
ATOM      8  C   UNL A   1      32.427  23.821  22.869  1.00  0.00     0.146 C 
ATOM      9  C   UNL A   1      32.985  23.297  24.232  1.00  0.00     0.096 C 
ATOM     10  C   UNL A   1      31.764  22.765  24.995  1.00  0.00     0.272 C 
ATOM     11  N   UNL A   1      30.656  23.621  24.546  1.00  0.00    -0.329 N 
ATOM     12  C   UNL A   1      30.918  23.789  23.106  1.00  0.00     0.276 C 
ATOM     13  H   UNL A   1      29.743  23.194  24.707  1.00  0.00     0.348 HD
BRANCH   9  14
ATOM     14  C   UNL A   1      34.300  22.577  24.449  1.00  0.00     0.004 A 
ATOM     15  C   UNL A   1      34.511  21.205  24.581  1.00  0.00     0.122 A 
ATOM     16  C   UNL A   1      35.786  20.724  24.937  1.00  0.00     0.047 A 
ATOM     17  C   UNL A   1      36.854  21.589  25.188  1.00  0.00     0.004 A 
ATOM     18  C   UNL A   1      35.411  23.430  24.711  1.00  0.00     0.008 A 
ATOM     19  C   UNL A   1      36.662  22.954  25.090  1.00  0.00     0.001 A 
BRANCH  15  20
ATOM     20  O   UNL A   1      33.530  20.254  24.569  1.00  0.00    -0.496 OA
ATOM     21  C   UNL A   1      34.013  18.919  24.548  1.00  0.00     0.278 C 
ENDBRANCH  15  20
ENDBRANCH   9  14
BRANCH  11  22
ATOM     22  C   UNL A   1      30.414  24.855  25.345  1.00  0.00     0.321 C 
BRANCH  22  23
ATOM     23  C   UNL A   1      29.941  26.121  24.655  1.00  0.00     0.114 A 
ATOM     24  C   UNL A   1      28.730  26.472  24.069  1.00  0.00     0.122 A 
ATOM     25  N   UNL A   1      30.827  27.132  24.420  1.00  0.00    -0.228 NA
ATOM     26  N   UNL A   1      28.917  27.724  23.496  1.00  0.00    -0.306 N 
ATOM     27  C   UNL A   1      30.196  28.114  23.834  1.00  0.00     0.137 A 
ATOM     28  C   UNL A   1      28.112  28.492  22.653  1.00  0.00     0.096 A 
ATOM     29  C   UNL A   1      30.662  29.382  23.408  1.00  0.00     0.048 A 
ATOM     30  C   UNL A   1      28.596  29.646  22.134  1.00  0.00    -0.034 A 
ATOM     31  C   UNL A   1      29.908  30.112  22.574  1.00  0.00     0.009 A 
ATOM     32  C   UNL A   1      27.935  30.493  21.094  1.00  0.00     0.046 C 
ENDBRANCH  22  23
ENDBRANCH  11  22
ENDBRANCH   5   8
ENDBRANCH   3   4
ENDBRANCH   2   3
ENDBRANCH   1   2
BRANCH   1  33
ATOM     33  C   UNL A   1      32.990  29.642  26.194  1.00  0.00     0.002 C 
BRANCH  33  34
ATOM     34  C   UNL A   1      33.099  30.574  27.416  1.00  0.00     0.021 C 
BRANCH  34  35
ATOM     35  C   UNL A   1      34.445  31.268  27.551  1.00  0.00     0.116 C 
BRANCH  35  36
ATOM     36  N   UNL A   1      34.476  32.128  28.726  1.00  0.00    -0.352 N 
ATOM     37  C   UNL A   1      35.189  31.966  29.892  1.00  0.00     0.251 C 
ATOM     38  H   UNL A   1      33.912  32.934  28.679  1.00  0.00     0.163 HD
ATOM     39  O   UNL A   1      34.850  32.539  30.914  1.00  0.00    -0.269 OA
BRANCH  37  40
ATOM     40  C   UNL A   1      36.411  31.138  29.883  1.00  0.00     0.039 A 
ATOM     41  C   UNL A   1      36.347  29.754  30.099  1.00  0.00     0.014 A 
ATOM     42  C   UNL A   1      37.641  31.773  29.769  1.00  0.00     0.014 A 
ATOM     43  C   UNL A   1      37.528  29.017  30.202  1.00  0.00     0.010 A 
ATOM     44  C   UNL A   1      38.793  31.033  29.786  1.00  0.00     0.010 A 
ATOM     45  C   UNL A   1      38.748  29.677  30.074  1.00  0.00    -0.014 A 
BRANCH  45  46
ATOM     46  C   UNL A   1      40.030  28.987  30.070  1.00  0.00     0.031 A 
ATOM     47  C   UNL A   1      40.616  28.810  31.424  1.00  0.00     0.074 A 
ATOM     48  C   UNL A   1      40.448  28.263  29.007  1.00  0.00     0.049 A 
ATOM     49  N   UNL A   1      41.752  29.242  31.856  1.00  0.00    -0.248 NA
ATOM     50  C   UNL A   1      39.781  28.178  32.463  1.00  0.00     0.031 C 
ATOM     51  C   UNL A   1      39.753  28.063  27.730  1.00  0.00     0.029 A 
ATOM     52  N   UNL A   1      41.509  27.418  28.900  1.00  0.00    -0.354 N 
ATOM     53  C   UNL A   1      41.864  28.770  33.160  1.00  0.00     0.074 A 
ATOM     54  C   UNL A   1      40.556  28.304  33.539  1.00  0.00     0.031 C 
ATOM     55  C   UNL A   1      40.271  26.988  27.093  1.00  0.00     0.029 A 
ATOM     56  C   UNL A   1      41.432  26.528  27.832  1.00  0.00     0.049 A 
ATOM     57  H   UNL A   1      42.269  27.436  29.526  1.00  0.00     0.167 HD
ATOM     58  C   UNL A   1      43.081  28.535  33.726  1.00  0.00     0.031 A 
ATOM     59  C   UNL A   1      42.243  25.468  27.593  1.00  0.00     0.031 A 
ATOM     60  C   UNL A   1      44.139  29.170  32.981  1.00  0.00     0.049 A 
ATOM     61  C   UNL A   1      43.471  25.668  28.395  1.00  0.00     0.074 A 
ATOM     62  C   UNL A   1      44.434  30.470  32.620  1.00  0.00     0.029 A 
ATOM     63  N   UNL A   1      44.877  28.367  32.145  1.00  0.00    -0.354 N 
ATOM     64  N   UNL A   1      44.323  26.628  28.178  1.00  0.00    -0.248 NA
ATOM     65  C   UNL A   1      43.528  25.071  29.720  1.00  0.00     0.031 C 
ATOM     66  C   UNL A   1      44.954  30.372  31.295  1.00  0.00     0.029 A 
ATOM     67  C   UNL A   1      45.011  29.020  30.949  1.00  0.00     0.049 A 
ATOM     68  H   UNL A   1      45.244  27.480  32.366  1.00  0.00     0.167 HD
ATOM     69  C   UNL A   1      44.700  27.056  29.441  1.00  0.00     0.074 A 
ATOM     70  C   UNL A   1      44.272  25.989  30.345  1.00  0.00     0.031 C 
ATOM     71  C   UNL A   1      45.054  28.357  29.664  1.00  0.00     0.031 A 
BRANCH  58  72
ATOM     72  C   UNL A   1      43.349  27.376  34.658  1.00  0.00    -0.014 A 
ATOM     73  C   UNL A   1      43.365  26.076  34.120  1.00  0.00     0.009 A 
ATOM     74  C   UNL A   1      43.296  27.472  36.063  1.00  0.00     0.009 A 
ATOM     75  C   UNL A   1      43.235  24.946  34.937  1.00  0.00     0.001 A 
ATOM     76  C   UNL A   1      43.211  26.346  36.884  1.00  0.00     0.001 A 
ATOM     77  C   UNL A   1      43.147  25.083  36.318  1.00  0.00     0.000 A 
ENDBRANCH  58  72
BRANCH  59  78
ATOM     78  C   UNL A   1      41.942  24.183  26.922  1.00  0.00    -0.014 A 
ATOM     79  C   UNL A   1      42.823  23.640  25.970  1.00  0.00     0.009 A 
ATOM     80  C   UNL A   1      40.921  23.348  27.410  1.00  0.00     0.009 A 
ATOM     81  C   UNL A   1      42.710  22.305  25.557  1.00  0.00     0.001 A 
ATOM     82  C   UNL A   1      40.805  22.016  26.996  1.00  0.00     0.001 A 
ATOM     83  C   UNL A   1      41.709  21.490  26.080  1.00  0.00     0.000 A 
ENDBRANCH  59  78
BRANCH  71  84
ATOM     84  C   UNL A   1      45.247  29.250  28.461  1.00  0.00    -0.014 A 
ATOM     85  C   UNL A   1      44.192  29.955  27.854  1.00  0.00     0.009 A 
ATOM     86  C   UNL A   1      46.557  29.524  28.042  1.00  0.00     0.009 A 
ATOM     87  C   UNL A   1      44.442  30.892  26.844  1.00  0.00     0.001 A 
ATOM     88  C   UNL A   1      46.808  30.473  27.049  1.00  0.00     0.001 A 
ATOM     89  C   UNL A   1      45.751  31.155  26.448  1.00  0.00     0.000 A 
ENDBRANCH  71  84
ENDBRANCH  45  46
ENDBRANCH  37  40
ENDBRANCH  35  36
ENDBRANCH  34  35
ENDBRANCH  33  34
ENDBRANCH   1  33
TORSDOF 17
ENDMDL
