MODEL 1
REMARK VINA RESULT:     -11.1      0.000      0.000
REMARK SMILES CC(C)[C@@H](NC(=O)[C@@H]1CC[C@H]2CCCC[C@@H]2[NH2+]1)C(=O)NCCCCCCNC(=O)c1ccc(-c2c3nc(c(-c4ccccc4)c4ccc([nH]4)c(-c4ccccc4)c4nc(c(-c5ccccc5)c5ccc2[nH]5)C=C4)C=C3)cc1
REMARK SMILES IDX 23 1 22 2 21 3 20 4 18 5 19 6 4 8 2 9 1 10 3 11 5 12 6 13
REMARK SMILES IDX 7 15 8 16 9 17 17 18 10 19 16 20 11 23 15 24 12 25 14 26
REMARK SMILES IDX 13 27 24 28 25 29 26 30 27 31 28 32 29 34 30 35 31 36 77 37
REMARK SMILES IDX 32 38 76 39 33 40 34 41 35 42 70 43 36 44 75 45 69 46 71 47
REMARK SMILES IDX 37 48 74 49 68 50 67 51 38 53 60 54 45 55 59 56 46 57 49 58
REMARK SMILES IDX 58 59 72 60 47 61 48 62 57 64 73 65 50 66 39 67 40 68 44 69
REMARK SMILES IDX 41 70 43 71 42 72 61 73 62 74 66 75 63 76 65 77 64 78 51 79
REMARK SMILES IDX 52 80 56 81 53 82 55 83 54 84
REMARK H PARENT 20 7 5 14 17 21 17 22 27 33 71 52 49 63
REMARK Flexibility Score: inf
ROOT
ATOM      1  C   UNL A   1      37.743  22.053  25.112  1.00  0.00     0.002 C 
ENDROOT
BRANCH   1   2
ATOM      2  C   UNL A   1      36.850  23.208  24.646  1.00  0.00     0.021 C 
BRANCH   2   3
ATOM      3  C   UNL A   1      36.213  23.970  25.796  1.00  0.00     0.116 C 
BRANCH   3   4
ATOM      4  N   UNL A   1      35.553  23.041  26.682  1.00  0.00    -0.354 N 
ATOM      5  C   UNL A   1      34.224  22.808  26.848  1.00  0.00     0.242 C 
ATOM      6  O   UNL A   1      33.886  22.171  27.852  1.00  0.00    -0.273 OA
ATOM      7  H   UNL A   1      36.149  22.498  27.245  1.00  0.00     0.163 HD
BRANCH   5   8
ATOM      8  C   UNL A   1      33.186  23.477  25.926  1.00  0.00     0.174 C 
BRANCH   8   9
ATOM      9  C   UNL A   1      32.507  22.372  25.044  1.00  0.00     0.015 C 
ATOM     10  C   UNL A   1      31.357  22.922  24.191  1.00  0.00     0.010 C 
ATOM     11  C   UNL A   1      33.504  21.669  24.110  1.00  0.00     0.010 C 
ENDBRANCH   8   9
BRANCH   8  12
ATOM     12  N   UNL A   1      32.173  24.312  26.620  1.00  0.00    -0.339 N 
ATOM     13  C   UNL A   1      31.871  25.646  26.486  1.00  0.00     0.278 C 
ATOM     14  H   UNL A   1      31.630  23.831  27.285  1.00  0.00     0.164 HD
ATOM     15  O   UNL A   1      30.709  25.966  26.765  1.00  0.00    -0.268 OA
BRANCH  13  16
ATOM     16  C   UNL A   1      32.964  26.718  26.210  1.00  0.00     0.272 C 
ATOM     17  C   UNL A   1      32.757  28.067  26.942  1.00  0.00     0.076 C 
ATOM     18  N   UNL A   1      33.217  26.893  24.779  1.00  0.00    -0.333 N 
ATOM     19  C   UNL A   1      32.084  29.156  26.093  1.00  0.00     0.016 C 
ATOM     20  C   UNL A   1      32.260  27.731  24.062  1.00  0.00     0.186 C 
ATOM     21  H   UNL A   1      33.210  25.970  24.345  1.00  0.00     0.347 HD
ATOM     22  H   UNL A   1      34.112  27.377  24.713  1.00  0.00     0.347 HD
ATOM     23  C   UNL A   1      31.294  28.514  24.962  1.00  0.00     0.048 C 
ATOM     24  C   UNL A   1      31.457  26.904  23.057  1.00  0.00     0.065 C 
ATOM     25  C   UNL A   1      30.509  29.503  24.097  1.00  0.00     0.010 C 
ATOM     26  C   UNL A   1      30.575  27.804  22.196  1.00  0.00     0.006 C 
ATOM     27  C   UNL A   1      29.706  28.742  23.036  1.00  0.00     0.001 C 
ENDBRANCH  13  16
ENDBRANCH   8  12
ENDBRANCH   5   8
ENDBRANCH   3   4
ENDBRANCH   2   3
ENDBRANCH   1   2
BRANCH   1  28
ATOM     28  C   UNL A   1      37.225  20.658  24.748  1.00  0.00     0.002 C 
BRANCH  28  29
ATOM     29  C   UNL A   1      38.192  19.516  25.064  1.00  0.00     0.021 C 
BRANCH  29  30
ATOM     30  C   UNL A   1      39.407  19.930  25.883  1.00  0.00     0.116 C 
BRANCH  30  31
ATOM     31  N   UNL A   1      40.443  18.915  25.902  1.00  0.00    -0.352 N 
ATOM     32  C   UNL A   1      41.792  19.091  26.112  1.00  0.00     0.251 C 
ATOM     33  H   UNL A   1      40.146  17.990  25.744  1.00  0.00     0.163 HD
ATOM     34  O   UNL A   1      42.578  18.169  25.998  1.00  0.00    -0.269 OA
BRANCH  32  35
ATOM     35  C   UNL A   1      42.263  20.447  26.450  1.00  0.00     0.039 A 
ATOM     36  C   UNL A   1      42.622  21.308  25.413  1.00  0.00     0.014 A 
ATOM     37  C   UNL A   1      42.281  20.875  27.781  1.00  0.00     0.014 A 
ATOM     38  C   UNL A   1      42.959  22.628  25.709  1.00  0.00     0.010 A 
ATOM     39  C   UNL A   1      42.553  22.206  28.066  1.00  0.00     0.010 A 
ATOM     40  C   UNL A   1      42.901  23.091  27.034  1.00  0.00    -0.014 A 
BRANCH  40  41
ATOM     41  C   UNL A   1      43.227  24.495  27.372  1.00  0.00     0.031 A 
ATOM     42  C   UNL A   1      44.662  24.941  27.380  1.00  0.00     0.074 A 
ATOM     43  C   UNL A   1      42.246  25.344  27.734  1.00  0.00     0.049 A 
ATOM     44  N   UNL A   1      45.165  26.095  27.736  1.00  0.00    -0.248 NA
ATOM     45  C   UNL A   1      45.664  23.949  26.959  1.00  0.00     0.031 C 
ATOM     46  C   UNL A   1      40.820  25.020  27.789  1.00  0.00     0.029 A 
ATOM     47  N   UNL A   1      42.307  26.654  28.136  1.00  0.00    -0.354 N 
ATOM     48  C   UNL A   1      46.541  25.958  27.603  1.00  0.00     0.074 A 
ATOM     49  C   UNL A   1      46.796  24.599  27.181  1.00  0.00     0.031 C 
ATOM     50  C   UNL A   1      40.138  26.110  28.180  1.00  0.00     0.029 A 
ATOM     51  C   UNL A   1      41.081  27.192  28.440  1.00  0.00     0.049 A 
ATOM     52  H   UNL A   1      43.149  27.160  28.200  1.00  0.00     0.167 HD
ATOM     53  C   UNL A   1      47.506  26.888  27.796  1.00  0.00     0.031 A 
ATOM     54  C   UNL A   1      40.757  28.420  28.888  1.00  0.00     0.031 A 
ATOM     55  C   UNL A   1      47.248  28.243  28.201  1.00  0.00     0.049 A 
ATOM     56  C   UNL A   1      41.847  29.429  29.116  1.00  0.00     0.074 A 
ATOM     57  C   UNL A   1      48.151  29.277  28.377  1.00  0.00     0.029 A 
ATOM     58  N   UNL A   1      45.992  28.751  28.493  1.00  0.00    -0.354 N 
ATOM     59  N   UNL A   1      43.139  29.303  28.935  1.00  0.00    -0.248 NA
ATOM     60  C   UNL A   1      41.433  30.753  29.601  1.00  0.00     0.031 C 
ATOM     61  C   UNL A   1      47.444  30.400  28.818  1.00  0.00     0.029 A 
ATOM     62  C   UNL A   1      46.096  30.079  28.866  1.00  0.00     0.049 A 
ATOM     63  H   UNL A   1      45.151  28.242  28.442  1.00  0.00     0.167 HD
ATOM     64  C   UNL A   1      43.689  30.537  29.253  1.00  0.00     0.074 A 
ATOM     65  C   UNL A   1      42.590  31.401  29.631  1.00  0.00     0.031 C 
ATOM     66  C   UNL A   1      44.989  30.923  29.232  1.00  0.00     0.031 A 
BRANCH  53  67
ATOM     67  C   UNL A   1      48.928  26.458  27.579  1.00  0.00    -0.014 A 
ATOM     68  C   UNL A   1      49.511  26.490  26.302  1.00  0.00     0.009 A 
ATOM     69  C   UNL A   1      49.704  26.032  28.668  1.00  0.00     0.009 A 
ATOM     70  C   UNL A   1      50.827  26.065  26.113  1.00  0.00     0.001 A 
ATOM     71  C   UNL A   1      51.029  25.635  28.482  1.00  0.00     0.001 A 
ATOM     72  C   UNL A   1      51.586  25.641  27.204  1.00  0.00     0.000 A 
ENDBRANCH  53  67
BRANCH  54  73
ATOM     73  C   UNL A   1      39.334  28.769  29.135  1.00  0.00    -0.014 A 
ATOM     74  C   UNL A   1      38.776  28.606  30.413  1.00  0.00     0.009 A 
ATOM     75  C   UNL A   1      38.528  29.267  28.100  1.00  0.00     0.009 A 
ATOM     76  C   UNL A   1      37.433  28.914  30.643  1.00  0.00     0.001 A 
ATOM     77  C   UNL A   1      37.192  29.599  28.340  1.00  0.00     0.001 A 
ATOM     78  C   UNL A   1      36.644  29.413  29.608  1.00  0.00     0.000 A 
ENDBRANCH  54  73
BRANCH  66  79
ATOM     79  C   UNL A   1      45.290  32.350  29.586  1.00  0.00    -0.014 A 
ATOM     80  C   UNL A   1      45.601  32.724  30.901  1.00  0.00     0.009 A 
ATOM     81  C   UNL A   1      45.321  33.321  28.573  1.00  0.00     0.009 A 
ATOM     82  C   UNL A   1      45.915  34.052  31.199  1.00  0.00     0.001 A 
ATOM     83  C   UNL A   1      45.661  34.642  28.869  1.00  0.00     0.001 A 
ATOM     84  C   UNL A   1      45.951  35.007  30.183  1.00  0.00     0.000 A 
ENDBRANCH  66  79
ENDBRANCH  40  41
ENDBRANCH  32  35
ENDBRANCH  30  31
ENDBRANCH  29  30
ENDBRANCH  28  29
ENDBRANCH   1  28
TORSDOF 16
ENDMDL
MODEL 2
REMARK VINA RESULT:     -11.0      1.487      2.109
REMARK SMILES CC(C)[C@@H](NC(=O)[C@@H]1CC[C@H]2CCCC[C@@H]2[NH2+]1)C(=O)NCCCCCCNC(=O)c1ccc(-c2c3nc(c(-c4ccccc4)c4ccc([nH]4)c(-c4ccccc4)c4nc(c(-c5ccccc5)c5ccc2[nH]5)C=C4)C=C3)cc1
REMARK SMILES IDX 23 1 22 2 21 3 20 4 18 5 19 6 4 8 2 9 1 10 3 11 5 12 6 13
REMARK SMILES IDX 7 15 8 16 9 17 17 18 10 19 16 20 11 23 15 24 12 25 14 26
REMARK SMILES IDX 13 27 24 28 25 29 26 30 27 31 28 32 29 34 30 35 31 36 77 37
REMARK SMILES IDX 32 38 76 39 33 40 34 41 35 42 70 43 36 44 75 45 69 46 71 47
REMARK SMILES IDX 37 48 74 49 68 50 67 51 38 53 60 54 45 55 59 56 46 57 49 58
REMARK SMILES IDX 58 59 72 60 47 61 48 62 57 64 73 65 50 66 39 67 40 68 44 69
REMARK SMILES IDX 41 70 43 71 42 72 61 73 62 74 66 75 63 76 65 77 64 78 51 79
REMARK SMILES IDX 52 80 56 81 53 82 55 83 54 84
REMARK H PARENT 20 7 5 14 17 21 17 22 27 33 71 52 49 63
REMARK Flexibility Score: inf
ROOT
ATOM      1  C   UNL A   1      37.296  22.371  24.531  1.00  0.00     0.002 C 
ENDROOT
BRANCH   1   2
ATOM      2  C   UNL A   1      36.954  23.451  25.564  1.00  0.00     0.021 C 
BRANCH   2   3
ATOM      3  C   UNL A   1      35.513  23.923  25.477  1.00  0.00     0.116 C 
BRANCH   3   4
ATOM      4  N   UNL A   1      35.131  24.048  24.090  1.00  0.00    -0.354 N 
ATOM      5  C   UNL A   1      34.036  23.556  23.452  1.00  0.00     0.242 C 
ATOM      6  O   UNL A   1      34.060  23.552  22.216  1.00  0.00    -0.273 OA
ATOM      7  H   UNL A   1      35.752  24.562  23.526  1.00  0.00     0.163 HD
BRANCH   5   8
ATOM      8  C   UNL A   1      32.909  22.863  24.243  1.00  0.00     0.174 C 
BRANCH   8   9
ATOM      9  C   UNL A   1      33.243  21.335  24.363  1.00  0.00     0.015 C 
ATOM     10  C   UNL A   1      33.235  20.842  25.815  1.00  0.00     0.010 C 
ATOM     11  C   UNL A   1      32.279  20.456  23.552  1.00  0.00     0.010 C 
ENDBRANCH   8   9
BRANCH   8  12
ATOM     12  N   UNL A   1      32.616  23.457  25.572  1.00  0.00    -0.339 N 
ATOM     13  C   UNL A   1      31.479  24.066  26.047  1.00  0.00     0.278 C 
ATOM     14  H   UNL A   1      33.357  23.406  26.218  1.00  0.00     0.164 HD
ATOM     15  O   UNL A   1      31.303  24.001  27.269  1.00  0.00    -0.268 OA
BRANCH  13  16
ATOM     16  C   UNL A   1      30.581  24.961  25.145  1.00  0.00     0.272 C 
ATOM     17  C   UNL A   1      31.091  25.147  23.694  1.00  0.00     0.076 C 
ATOM     18  N   UNL A   1      30.247  26.233  25.786  1.00  0.00    -0.333 N 
ATOM     19  C   UNL A   1      31.879  26.445  23.457  1.00  0.00     0.016 C 
ATOM     20  C   UNL A   1      31.278  27.265  25.727  1.00  0.00     0.186 C 
ATOM     21  H   UNL A   1      30.049  26.046  26.769  1.00  0.00     0.347 HD
ATOM     22  H   UNL A   1      29.453  26.605  25.266  1.00  0.00     0.347 HD
ATOM     23  C   UNL A   1      32.442  26.954  24.776  1.00  0.00     0.048 C 
ATOM     24  C   UNL A   1      31.830  27.564  27.122  1.00  0.00     0.065 C 
ATOM     25  C   UNL A   1      33.320  28.201  24.649  1.00  0.00     0.010 C 
ATOM     26  C   UNL A   1      32.787  28.753  27.082  1.00  0.00     0.006 C 
ATOM     27  C   UNL A   1      33.879  28.584  26.024  1.00  0.00     0.001 C 
ENDBRANCH  13  16
ENDBRANCH   8  12
ENDBRANCH   5   8
ENDBRANCH   3   4
ENDBRANCH   2   3
ENDBRANCH   1   2
BRANCH   1  28
ATOM     28  C   UNL A   1      36.807  20.964  24.893  1.00  0.00     0.002 C 
BRANCH  28  29
ATOM     29  C   UNL A   1      37.910  19.908  24.980  1.00  0.00     0.021 C 
BRANCH  29  30
ATOM     30  C   UNL A   1      39.131  20.340  25.781  1.00  0.00     0.116 C 
BRANCH  30  31
ATOM     31  N   UNL A   1      40.177  19.336  25.795  1.00  0.00    -0.352 N 
ATOM     32  C   UNL A   1      41.502  19.502  26.128  1.00  0.00     0.251 C 
ATOM     33  H   UNL A   1      39.906  18.425  25.535  1.00  0.00     0.163 HD
ATOM     34  O   UNL A   1      42.307  18.601  25.997  1.00  0.00    -0.269 OA
BRANCH  32  35
ATOM     35  C   UNL A   1      41.925  20.828  26.619  1.00  0.00     0.039 A 
ATOM     36  C   UNL A   1      42.348  21.780  25.692  1.00  0.00     0.014 A 
ATOM     37  C   UNL A   1      41.835  21.135  27.979  1.00  0.00     0.014 A 
ATOM     38  C   UNL A   1      42.642  23.072  26.129  1.00  0.00     0.010 A 
ATOM     39  C   UNL A   1      42.064  22.438  28.400  1.00  0.00     0.010 A 
ATOM     40  C   UNL A   1      42.476  23.415  27.480  1.00  0.00    -0.014 A 
BRANCH  40  41
ATOM     41  C   UNL A   1      42.753  24.786  27.964  1.00  0.00     0.031 A 
ATOM     42  C   UNL A   1      44.155  25.166  28.349  1.00  0.00     0.074 A 
ATOM     43  C   UNL A   1      41.741  25.661  28.122  1.00  0.00     0.049 A 
ATOM     44  N   UNL A   1      44.593  26.278  28.879  1.00  0.00    -0.248 NA
ATOM     45  C   UNL A   1      45.197  24.150  28.132  1.00  0.00     0.031 C 
ATOM     46  C   UNL A   1      40.336  25.399  27.808  1.00  0.00     0.029 A 
ATOM     47  N   UNL A   1      41.744  26.947  28.598  1.00  0.00    -0.354 N 
ATOM     48  C   UNL A   1      45.953  26.087  29.081  1.00  0.00     0.074 A 
ATOM     49  C   UNL A   1      46.260  24.738  28.659  1.00  0.00     0.031 C 
ATOM     50  C   UNL A   1      39.614  26.499  28.079  1.00  0.00     0.029 A 
ATOM     51  C   UNL A   1      40.498  27.525  28.622  1.00  0.00     0.049 A 
ATOM     52  H   UNL A   1      42.560  27.411  28.894  1.00  0.00     0.167 HD
ATOM     53  C   UNL A   1      46.870  26.962  29.554  1.00  0.00     0.031 A 
ATOM     54  C   UNL A   1      40.113  28.744  29.043  1.00  0.00     0.031 A 
ATOM     55  C   UNL A   1      46.564  28.308  29.958  1.00  0.00     0.049 A 
ATOM     56  C   UNL A   1      41.146  29.693  29.586  1.00  0.00     0.074 A 
ATOM     57  C   UNL A   1      47.428  29.291  30.407  1.00  0.00     0.029 A 
ATOM     58  N   UNL A   1      45.292  28.857  29.962  1.00  0.00    -0.354 N 
ATOM     59  N   UNL A   1      42.438  29.516  29.721  1.00  0.00    -0.248 NA
ATOM     60  C   UNL A   1      40.667  31.010  30.028  1.00  0.00     0.031 C 
ATOM     61  C   UNL A   1      46.671  30.424  30.722  1.00  0.00     0.029 A 
ATOM     62  C   UNL A   1      45.344  30.161  30.421  1.00  0.00     0.049 A 
ATOM     63  H   UNL A   1      44.473  28.390  29.678  1.00  0.00     0.167 HD
ATOM     64  C   UNL A   1      42.932  30.709  30.232  1.00  0.00     0.074 A 
ATOM     65  C   UNL A   1      41.801  31.603  30.376  1.00  0.00     0.031 C 
ATOM     66  C   UNL A   1      44.208  31.036  30.550  1.00  0.00     0.031 A 
BRANCH  53  67
ATOM     67  C   UNL A   1      48.287  26.479  29.669  1.00  0.00    -0.014 A 
ATOM     68  C   UNL A   1      49.213  26.689  28.634  1.00  0.00     0.009 A 
ATOM     69  C   UNL A   1      48.710  25.822  30.835  1.00  0.00     0.009 A 
ATOM     70  C   UNL A   1      50.521  26.213  28.747  1.00  0.00     0.001 A 
ATOM     71  C   UNL A   1      50.025  25.372  30.957  1.00  0.00     0.001 A 
ATOM     72  C   UNL A   1      50.927  25.558  29.910  1.00  0.00     0.000 A 
ENDBRANCH  53  67
BRANCH  54  73
ATOM     73  C   UNL A   1      38.685  29.146  28.954  1.00  0.00    -0.014 A 
ATOM     74  C   UNL A   1      37.832  28.977  30.055  1.00  0.00     0.009 A 
ATOM     75  C   UNL A   1      38.169  29.699  27.772  1.00  0.00     0.009 A 
ATOM     76  C   UNL A   1      36.484  29.334  29.966  1.00  0.00     0.001 A 
ATOM     77  C   UNL A   1      36.827  30.079  27.695  1.00  0.00     0.001 A 
ATOM     78  C   UNL A   1      35.984  29.887  28.789  1.00  0.00     0.000 A 
ENDBRANCH  54  73
BRANCH  66  79
ATOM     79  C   UNL A   1      44.458  32.431  31.045  1.00  0.00    -0.014 A 
ATOM     80  C   UNL A   1      44.448  32.731  32.416  1.00  0.00     0.009 A 
ATOM     81  C   UNL A   1      44.768  33.446  30.126  1.00  0.00     0.009 A 
ATOM     82  C   UNL A   1      44.722  34.029  32.854  1.00  0.00     0.001 A 
ATOM     83  C   UNL A   1      45.067  34.735  30.568  1.00  0.00     0.001 A 
ATOM     84  C   UNL A   1      45.037  35.026  31.932  1.00  0.00     0.000 A 
ENDBRANCH  66  79
ENDBRANCH  40  41
ENDBRANCH  32  35
ENDBRANCH  30  31
ENDBRANCH  29  30
ENDBRANCH  28  29
ENDBRANCH   1  28
TORSDOF 16
ENDMDL
MODEL 3
REMARK VINA RESULT:     -10.9      4.366      9.712
REMARK SMILES CC(C)[C@@H](NC(=O)[C@@H]1CC[C@H]2CCCC[C@@H]2[NH2+]1)C(=O)NCCCCCCNC(=O)c1ccc(-c2c3nc(c(-c4ccccc4)c4ccc([nH]4)c(-c4ccccc4)c4nc(c(-c5ccccc5)c5ccc2[nH]5)C=C4)C=C3)cc1
REMARK SMILES IDX 23 1 22 2 21 3 20 4 18 5 19 6 4 8 2 9 1 10 3 11 5 12 6 13
REMARK SMILES IDX 7 15 8 16 9 17 17 18 10 19 16 20 11 23 15 24 12 25 14 26
REMARK SMILES IDX 13 27 24 28 25 29 26 30 27 31 28 32 29 34 30 35 31 36 77 37
REMARK SMILES IDX 32 38 76 39 33 40 34 41 35 42 70 43 36 44 75 45 69 46 71 47
REMARK SMILES IDX 37 48 74 49 68 50 67 51 38 53 60 54 45 55 59 56 46 57 49 58
REMARK SMILES IDX 58 59 72 60 47 61 48 62 57 64 73 65 50 66 39 67 40 68 44 69
REMARK SMILES IDX 41 70 43 71 42 72 61 73 62 74 66 75 63 76 65 77 64 78 51 79
REMARK SMILES IDX 52 80 56 81 53 82 55 83 54 84
REMARK H PARENT 20 7 5 14 17 21 17 22 27 33 71 52 49 63
REMARK Flexibility Score: inf
ROOT
ATOM      1  C   UNL A   1      32.105  29.692  27.083  1.00  0.00     0.002 C 
ENDROOT
BRANCH   1   2
ATOM      2  C   UNL A   1      33.507  29.108  26.875  1.00  0.00     0.021 C 
BRANCH   2   3
ATOM      3  C   UNL A   1      33.514  27.882  25.979  1.00  0.00     0.116 C 
BRANCH   3   4
ATOM      4  N   UNL A   1      32.692  26.851  26.567  1.00  0.00    -0.354 N 
ATOM      5  C   UNL A   1      31.716  26.098  25.994  1.00  0.00     0.242 C 
ATOM      6  O   UNL A   1      30.964  25.478  26.755  1.00  0.00    -0.273 OA
ATOM      7  H   UNL A   1      32.862  26.666  27.518  1.00  0.00     0.163 HD
BRANCH   5   8
ATOM      8  C   UNL A   1      31.450  26.176  24.478  1.00  0.00     0.174 C 
BRANCH   8   9
ATOM      9  C   UNL A   1      30.559  27.434  24.186  1.00  0.00     0.015 C 
ATOM     10  C   UNL A   1      31.203  28.390  23.173  1.00  0.00     0.010 C 
ATOM     11  C   UNL A   1      29.161  27.059  23.671  1.00  0.00     0.010 C 
ENDBRANCH   8   9
BRANCH   8  12
ATOM     12  N   UNL A   1      32.664  26.164  23.624  1.00  0.00    -0.339 N 
ATOM     13  C   UNL A   1      33.032  25.319  22.604  1.00  0.00     0.278 C 
ATOM     14  H   UNL A   1      33.312  26.879  23.821  1.00  0.00     0.164 HD
ATOM     15  O   UNL A   1      33.783  25.802  21.748  1.00  0.00    -0.268 OA
BRANCH  13  16
ATOM     16  C   UNL A   1      32.705  23.799  22.631  1.00  0.00     0.272 C 
ATOM     17  C   UNL A   1      31.822  23.341  23.818  1.00  0.00     0.076 C 
ATOM     18  N   UNL A   1      33.902  22.972  22.476  1.00  0.00    -0.333 N 
ATOM     19  C   UNL A   1      32.603  22.754  25.004  1.00  0.00     0.016 C 
ATOM     20  C   UNL A   1      34.708  22.787  23.679  1.00  0.00     0.186 C 
ATOM     21  H   UNL A   1      34.494  23.409  21.768  1.00  0.00     0.347 HD
ATOM     22  H   UNL A   1      33.567  22.044  22.221  1.00  0.00     0.347 HD
ATOM     23  C   UNL A   1      34.038  23.260  24.977  1.00  0.00     0.048 C 
ATOM     24  C   UNL A   1      36.069  23.468  23.535  1.00  0.00     0.065 C 
ATOM     25  C   UNL A   1      34.891  22.806  26.164  1.00  0.00     0.010 C 
ATOM     26  C   UNL A   1      36.969  23.138  24.722  1.00  0.00     0.006 C 
ATOM     27  C   UNL A   1      36.291  23.424  26.063  1.00  0.00     0.001 C 
ENDBRANCH  13  16
ENDBRANCH   8  12
ENDBRANCH   5   8
ENDBRANCH   3   4
ENDBRANCH   2   3
ENDBRANCH   1   2
BRANCH   1  28
ATOM     28  C   UNL A   1      31.696  30.752  26.055  1.00  0.00     0.002 C 
BRANCH  28  29
ATOM     29  C   UNL A   1      31.421  32.137  26.642  1.00  0.00     0.021 C 
BRANCH  29  30
ATOM     30  C   UNL A   1      32.632  32.798  27.287  1.00  0.00     0.116 C 
BRANCH  30  31
ATOM     31  N   UNL A   1      32.378  34.169  27.684  1.00  0.00    -0.352 N 
ATOM     32  C   UNL A   1      33.068  34.923  28.606  1.00  0.00     0.251 C 
ATOM     33  H   UNL A   1      31.620  34.615  27.241  1.00  0.00     0.163 HD
ATOM     34  O   UNL A   1      32.690  36.032  28.930  1.00  0.00    -0.269 OA
BRANCH  32  35
ATOM     35  C   UNL A   1      34.270  34.325  29.219  1.00  0.00     0.039 A 
ATOM     36  C   UNL A   1      34.122  33.568  30.381  1.00  0.00     0.014 A 
ATOM     37  C   UNL A   1      35.517  34.464  28.603  1.00  0.00     0.014 A 
ATOM     38  C   UNL A   1      35.230  32.903  30.906  1.00  0.00     0.010 A 
ATOM     39  C   UNL A   1      36.602  33.749  29.090  1.00  0.00     0.010 A 
ATOM     40  C   UNL A   1      36.469  32.969  30.250  1.00  0.00    -0.014 A 
BRANCH  40  41
ATOM     41  C   UNL A   1      37.653  32.250  30.771  1.00  0.00     0.031 A 
ATOM     42  C   UNL A   1      38.399  32.808  31.950  1.00  0.00     0.074 A 
ATOM     43  C   UNL A   1      38.095  31.141  30.147  1.00  0.00     0.049 A 
ATOM     44  N   UNL A   1      39.508  32.386  32.500  1.00  0.00    -0.248 NA
ATOM     45  C   UNL A   1      37.837  34.016  32.574  1.00  0.00     0.031 C 
ATOM     46  C   UNL A   1      37.471  30.519  28.978  1.00  0.00     0.029 A 
ATOM     47  N   UNL A   1      39.183  30.347  30.407  1.00  0.00    -0.354 N 
ATOM     48  C   UNL A   1      39.787  33.289  33.518  1.00  0.00     0.074 A 
ATOM     49  C   UNL A   1      38.759  34.306  33.479  1.00  0.00     0.031 C 
ATOM     50  C   UNL A   1      38.175  29.426  28.636  1.00  0.00     0.029 A 
ATOM     51  C   UNL A   1      39.317  29.297  29.534  1.00  0.00     0.049 A 
ATOM     52  H   UNL A   1      39.808  30.516  31.149  1.00  0.00     0.167 HD
ATOM     53  C   UNL A   1      40.797  33.263  34.418  1.00  0.00     0.031 A 
ATOM     54  C   UNL A   1      40.263  28.341  29.461  1.00  0.00     0.031 A 
ATOM     55  C   UNL A   1      41.808  32.242  34.464  1.00  0.00     0.049 A 
ATOM     56  C   UNL A   1      41.388  28.345  30.458  1.00  0.00     0.074 A 
ATOM     57  C   UNL A   1      42.847  32.098  35.367  1.00  0.00     0.029 A 
ATOM     58  N   UNL A   1      41.906  31.192  33.566  1.00  0.00    -0.354 N 
ATOM     59  N   UNL A   1      41.609  29.175  31.449  1.00  0.00    -0.248 NA
ATOM     60  C   UNL A   1      42.388  27.275  30.333  1.00  0.00     0.031 C 
ATOM     61  C   UNL A   1      43.599  30.981  34.988  1.00  0.00     0.029 A 
ATOM     62  C   UNL A   1      42.997  30.403  33.881  1.00  0.00     0.049 A 
ATOM     63  H   UNL A   1      41.289  31.030  32.815  1.00  0.00     0.167 HD
ATOM     64  C   UNL A   1      42.754  28.711  32.084  1.00  0.00     0.074 A 
ATOM     65  C   UNL A   1      43.176  27.523  31.370  1.00  0.00     0.031 C 
ATOM     66  C   UNL A   1      43.396  29.221  33.162  1.00  0.00     0.031 A 
BRANCH  53  67
ATOM     67  C   UNL A   1      40.856  34.382  35.418  1.00  0.00    -0.014 A 
ATOM     68  C   UNL A   1      40.181  34.297  36.646  1.00  0.00     0.009 A 
ATOM     69  C   UNL A   1      41.612  35.532  35.137  1.00  0.00     0.009 A 
ATOM     70  C   UNL A   1      40.227  35.357  37.555  1.00  0.00     0.001 A 
ATOM     71  C   UNL A   1      41.680  36.577  36.059  1.00  0.00     0.001 A 
ATOM     72  C   UNL A   1      40.979  36.494  37.262  1.00  0.00     0.000 A 
ENDBRANCH  53  67
BRANCH  54  73
ATOM     73  C   UNL A   1      40.179  27.289  28.415  1.00  0.00    -0.014 A 
ATOM     74  C   UNL A   1      40.799  27.477  27.170  1.00  0.00     0.009 A 
ATOM     75  C   UNL A   1      39.482  26.095  28.653  1.00  0.00     0.009 A 
ATOM     76  C   UNL A   1      40.703  26.499  26.177  1.00  0.00     0.001 A 
ATOM     77  C   UNL A   1      39.410  25.108  27.668  1.00  0.00     0.001 A 
ATOM     78  C   UNL A   1      40.013  25.315  26.428  1.00  0.00     0.000 A 
ENDBRANCH  54  73
BRANCH  66  79
ATOM     79  C   UNL A   1      44.598  28.475  33.664  1.00  0.00    -0.014 A 
ATOM     80  C   UNL A   1      44.470  27.412  34.571  1.00  0.00     0.009 A 
ATOM     81  C   UNL A   1      45.871  28.805  33.174  1.00  0.00     0.009 A 
ATOM     82  C   UNL A   1      45.600  26.708  34.994  1.00  0.00     0.001 A 
ATOM     83  C   UNL A   1      46.995  28.083  33.578  1.00  0.00     0.001 A 
ATOM     84  C   UNL A   1      46.859  27.040  34.492  1.00  0.00     0.000 A 
ENDBRANCH  66  79
ENDBRANCH  40  41
ENDBRANCH  32  35
ENDBRANCH  30  31
ENDBRANCH  29  30
ENDBRANCH  28  29
ENDBRANCH   1  28
TORSDOF 16
ENDMDL
