MODEL 1
REMARK VINA RESULT:     -10.2      0.000      0.000
REMARK SMILES CCc1cc(OC[C@@H]2C[N@@H+](CC)CCO2)c(C(=O)NCCCCCCNC(=O)c2ccc(-c3c4nc(c(-c5ccccc5)c5ccc([nH]5)c(-c5ccccc5)c5nc(c(-c6ccccc6)c6ccc3[nH]6)C=C5)C=C4)cc2)s1
REMARK SMILES IDX 21 1 20 2 19 3 17 4 18 5 16 7 3 8 4 9 77 10 5 11 2 12 1 13
REMARK SMILES IDX 6 14 7 15 8 16 9 17 15 18 10 19 14 20 13 21 11 23 12 24
REMARK SMILES IDX 22 25 23 26 24 27 25 28 26 29 27 30 28 32 29 33 30 34 76 35
REMARK SMILES IDX 31 36 75 37 32 38 33 39 34 40 69 41 35 42 74 43 68 44 70 45
REMARK SMILES IDX 36 46 73 47 67 48 66 49 37 51 59 52 44 53 58 54 45 55 48 56
REMARK SMILES IDX 57 57 71 58 46 59 47 60 56 62 72 63 49 64 38 65 39 66 43 67
REMARK SMILES IDX 40 68 42 69 41 70 60 71 61 72 65 73 62 74 64 75 63 76 50 77
REMARK SMILES IDX 51 78 55 79 52 80 54 81 53 82
REMARK H PARENT 19 6 10 22 26 31 70 50 48 61
REMARK Flexibility Score: inf
ROOT
ATOM      1  C   UNL A   1      35.623  21.804  26.259  1.00  0.00     0.021 C 
ENDROOT
BRANCH   1   2
ATOM      2  C   UNL A   1      34.868  23.090  25.915  1.00  0.00     0.116 C 
BRANCH   2   3
ATOM      3  N   UNL A   1      35.102  23.453  24.541  1.00  0.00    -0.351 N 
ATOM      4  C   UNL A   1      34.255  23.857  23.540  1.00  0.00     0.265 C 
ATOM      5  O   UNL A   1      34.837  24.097  22.474  1.00  0.00    -0.268 OA
ATOM      6  H   UNL A   1      36.046  23.402  24.270  1.00  0.00     0.163 HD
BRANCH   4   7
ATOM      7  C   UNL A   1      32.815  24.029  23.704  1.00  0.00     0.134 A 
ATOM      8  C   UNL A   1      30.680  25.223  24.229  1.00  0.00     0.009 A 
ATOM      9  C   UNL A   1      30.470  23.954  23.745  1.00  0.00     0.062 A 
ATOM     10  S   UNL A   1      32.333  25.619  24.218  1.00  0.00    -0.131 S 
ATOM     11  C   UNL A   1      31.692  23.223  23.575  1.00  0.00     0.143 A 
BRANCH   8  12
ATOM     12  C   UNL A   1      29.659  26.188  24.745  1.00  0.00     0.043 C 
ATOM     13  C   UNL A   1      29.141  27.101  23.651  1.00  0.00     0.010 C 
ENDBRANCH   8  12
BRANCH  11  14
ATOM     14  O   UNL A   1      31.772  21.885  23.340  1.00  0.00    -0.489 OA
BRANCH  14  15
ATOM     15  C   UNL A   1      32.181  21.098  24.474  1.00  0.00     0.267 C 
BRANCH  15  16
ATOM     16  C   UNL A   1      32.176  19.542  24.303  1.00  0.00     0.210 C 
ATOM     17  C   UNL A   1      33.148  18.939  25.352  1.00  0.00     0.298 C 
ATOM     18  O   UNL A   1      32.550  19.174  22.973  1.00  0.00    -0.363 OA
ATOM     19  N   UNL A   1      33.552  17.541  25.159  1.00  0.00    -0.331 N 
ATOM     20  C   UNL A   1      32.782  17.786  22.779  1.00  0.00     0.222 C 
ATOM     21  C   UNL A   1      33.846  17.268  23.748  1.00  0.00     0.291 C 
ATOM     22  H   UNL A   1      34.432  17.432  25.663  1.00  0.00     0.348 HD
BRANCH  19  23
ATOM     23  C   UNL A   1      32.752  16.536  25.849  1.00  0.00     0.258 C 
ATOM     24  C   UNL A   1      32.799  15.101  25.346  1.00  0.00     0.071 C 
ENDBRANCH  19  23
ENDBRANCH  15  16
ENDBRANCH  14  15
ENDBRANCH  11  14
ENDBRANCH   4   7
ENDBRANCH   2   3
ENDBRANCH   1   2
BRANCH   1  25
ATOM     25  C   UNL A   1      36.030  20.998  25.020  1.00  0.00     0.002 C 
BRANCH  25  26
ATOM     26  C   UNL A   1      37.517  21.099  24.658  1.00  0.00     0.002 C 
BRANCH  26  27
ATOM     27  C   UNL A   1      38.341  19.851  24.986  1.00  0.00     0.021 C 
BRANCH  27  28
ATOM     28  C   UNL A   1      39.335  20.053  26.123  1.00  0.00     0.116 C 
BRANCH  28  29
ATOM     29  N   UNL A   1      40.529  19.240  25.935  1.00  0.00    -0.352 N 
ATOM     30  C   UNL A   1      41.841  19.633  25.932  1.00  0.00     0.251 C 
ATOM     31  H   UNL A   1      40.371  18.278  25.792  1.00  0.00     0.163 HD
ATOM     32  O   UNL A   1      42.722  18.884  25.514  1.00  0.00    -0.269 OA
BRANCH  30  33
ATOM     33  C   UNL A   1      42.190  20.976  26.432  1.00  0.00     0.039 A 
ATOM     34  C   UNL A   1      42.535  21.980  25.524  1.00  0.00     0.014 A 
ATOM     35  C   UNL A   1      42.159  21.237  27.804  1.00  0.00     0.014 A 
ATOM     36  C   UNL A   1      42.799  23.268  25.994  1.00  0.00     0.010 A 
ATOM     37  C   UNL A   1      42.343  22.534  28.260  1.00  0.00     0.010 A 
ATOM     38  C   UNL A   1      42.675  23.560  27.362  1.00  0.00    -0.014 A 
BRANCH  38  39
ATOM     39  C   UNL A   1      42.920  24.922  27.896  1.00  0.00     0.031 A 
ATOM     40  C   UNL A   1      44.302  25.303  28.351  1.00  0.00     0.074 A 
ATOM     41  C   UNL A   1      41.894  25.779  28.052  1.00  0.00     0.049 A 
ATOM     42  N   UNL A   1      44.701  26.386  28.965  1.00  0.00    -0.248 NA
ATOM     43  C   UNL A   1      45.370  24.316  28.114  1.00  0.00     0.031 C 
ATOM     44  C   UNL A   1      40.503  25.521  27.671  1.00  0.00     0.029 A 
ATOM     45  N   UNL A   1      41.862  27.041  28.590  1.00  0.00    -0.354 N 
ATOM     46  C   UNL A   1      46.057  26.202  29.208  1.00  0.00     0.074 A 
ATOM     47  C   UNL A   1      46.399  24.882  28.726  1.00  0.00     0.031 C 
ATOM     48  C   UNL A   1      39.760  26.599  27.968  1.00  0.00     0.029 A 
ATOM     49  C   UNL A   1      40.608  27.602  28.605  1.00  0.00     0.049 A 
ATOM     50  H   UNL A   1      42.662  27.501  28.933  1.00  0.00     0.167 HD
ATOM     51  C   UNL A   1      46.943  27.060  29.765  1.00  0.00     0.031 A 
ATOM     52  C   UNL A   1      40.186  28.785  29.092  1.00  0.00     0.031 A 
ATOM     53  C   UNL A   1      46.601  28.376  30.234  1.00  0.00     0.049 A 
ATOM     54  C   UNL A   1      41.184  29.710  29.735  1.00  0.00     0.074 A 
ATOM     55  C   UNL A   1      47.434  29.342  30.770  1.00  0.00     0.029 A 
ATOM     56  N   UNL A   1      45.322  28.909  30.221  1.00  0.00    -0.354 N 
ATOM     57  N   UNL A   1      42.472  29.542  29.911  1.00  0.00    -0.248 NA
ATOM     58  C   UNL A   1      40.669  30.992  30.237  1.00  0.00     0.031 C 
ATOM     59  C   UNL A   1      46.647  30.439  31.136  1.00  0.00     0.029 A 
ATOM     60  C   UNL A   1      45.337  30.182  30.763  1.00  0.00     0.049 A 
ATOM     61  H   UNL A   1      44.521  28.450  29.879  1.00  0.00     0.167 HD
ATOM     62  C   UNL A   1      42.929  30.713  30.507  1.00  0.00     0.074 A 
ATOM     63  C   UNL A   1      41.780  31.582  30.654  1.00  0.00     0.031 C 
ATOM     64  C   UNL A   1      44.186  31.039  30.893  1.00  0.00     0.031 A 
BRANCH  51  65
ATOM     65  C   UNL A   1      48.365  26.592  29.910  1.00  0.00    -0.014 A 
ATOM     66  C   UNL A   1      48.782  25.857  31.032  1.00  0.00     0.009 A 
ATOM     67  C   UNL A   1      49.296  26.867  28.896  1.00  0.00     0.009 A 
ATOM     68  C   UNL A   1      50.112  25.446  31.155  1.00  0.00     0.001 A 
ATOM     69  C   UNL A   1      50.616  26.424  29.006  1.00  0.00     0.001 A 
ATOM     70  C   UNL A   1      51.024  25.725  30.139  1.00  0.00     0.000 A 
ENDBRANCH  51  65
BRANCH  52  71
ATOM     71  C   UNL A   1      38.754  29.170  28.987  1.00  0.00    -0.014 A 
ATOM     72  C   UNL A   1      38.256  29.739  27.803  1.00  0.00     0.009 A 
ATOM     73  C   UNL A   1      37.880  28.985  30.069  1.00  0.00     0.009 A 
ATOM     74  C   UNL A   1      36.922  30.143  27.718  1.00  0.00     0.001 A 
ATOM     75  C   UNL A   1      36.539  29.361  29.969  1.00  0.00     0.001 A 
ATOM     76  C   UNL A   1      36.063  29.950  28.799  1.00  0.00     0.000 A 
ENDBRANCH  52  71
BRANCH  64  77
ATOM     77  C   UNL A   1      44.402  32.415  31.457  1.00  0.00    -0.014 A 
ATOM     78  C   UNL A   1      44.359  32.660  32.838  1.00  0.00     0.009 A 
ATOM     79  C   UNL A   1      44.711  33.475  30.588  1.00  0.00     0.009 A 
ATOM     80  C   UNL A   1      44.590  33.946  33.334  1.00  0.00     0.001 A 
ATOM     81  C   UNL A   1      44.973  34.750  31.088  1.00  0.00     0.001 A 
ATOM     82  C   UNL A   1      44.903  34.986  32.460  1.00  0.00     0.000 A 
ENDBRANCH  64  77
ENDBRANCH  38  39
ENDBRANCH  30  33
ENDBRANCH  28  29
ENDBRANCH  27  28
ENDBRANCH  26  27
ENDBRANCH  25  26
ENDBRANCH   1  25
TORSDOF 18
ENDMDL
MODEL 2
REMARK VINA RESULT:     -10.2      1.115      5.948
REMARK SMILES CCc1cc(OC[C@@H]2C[N@@H+](CC)CCO2)c(C(=O)NCCCCCCNC(=O)c2ccc(-c3c4nc(c(-c5ccccc5)c5ccc([nH]5)c(-c5ccccc5)c5nc(c(-c6ccccc6)c6ccc3[nH]6)C=C5)C=C4)cc2)s1
REMARK SMILES IDX 21 1 20 2 19 3 17 4 18 5 16 7 3 8 4 9 77 10 5 11 2 12 1 13
REMARK SMILES IDX 6 14 7 15 8 16 9 17 15 18 10 19 14 20 13 21 11 23 12 24
REMARK SMILES IDX 22 25 23 26 24 27 25 28 26 29 27 30 28 32 29 33 30 34 76 35
REMARK SMILES IDX 31 36 75 37 32 38 33 39 34 40 69 41 35 42 74 43 68 44 70 45
REMARK SMILES IDX 36 46 73 47 67 48 66 49 37 51 59 52 44 53 58 54 45 55 48 56
REMARK SMILES IDX 57 57 71 58 46 59 47 60 56 62 72 63 49 64 38 65 39 66 43 67
REMARK SMILES IDX 40 68 42 69 41 70 60 71 61 72 65 73 62 74 64 75 63 76 50 77
REMARK SMILES IDX 51 78 55 79 52 80 54 81 53 82
REMARK H PARENT 19 6 10 22 26 31 70 50 48 61
REMARK Flexibility Score: inf
ROOT
ATOM      1  C   UNL A   1      35.583  21.819  26.225  1.00  0.00     0.021 C 
ENDROOT
BRANCH   1   2
ATOM      2  C   UNL A   1      35.781  23.322  26.012  1.00  0.00     0.116 C 
BRANCH   2   3
ATOM      3  N   UNL A   1      35.700  23.641  24.609  1.00  0.00    -0.351 N 
ATOM      4  C   UNL A   1      34.642  23.980  23.804  1.00  0.00     0.265 C 
ATOM      5  O   UNL A   1      34.972  24.200  22.631  1.00  0.00    -0.268 OA
ATOM      6  H   UNL A   1      36.566  23.611  24.143  1.00  0.00     0.163 HD
BRANCH   4   7
ATOM      7  C   UNL A   1      33.266  24.112  24.271  1.00  0.00     0.134 A 
ATOM      8  C   UNL A   1      31.282  25.218  25.320  1.00  0.00     0.009 A 
ATOM      9  C   UNL A   1      30.978  23.992  24.778  1.00  0.00     0.062 A 
ATOM     10  S   UNL A   1      32.899  25.642  25.011  1.00  0.00    -0.131 S 
ATOM     11  C   UNL A   1      32.140  23.300  24.300  1.00  0.00     0.143 A 
BRANCH   8  12
ATOM     12  C   UNL A   1      30.387  26.115  26.115  1.00  0.00     0.043 C 
ATOM     13  C   UNL A   1      31.145  27.286  26.711  1.00  0.00     0.010 C 
ENDBRANCH   8  12
BRANCH  11  14
ATOM     14  O   UNL A   1      32.170  21.990  23.936  1.00  0.00    -0.489 OA
BRANCH  14  15
ATOM     15  C   UNL A   1      32.158  21.059  25.034  1.00  0.00     0.267 C 
BRANCH  15  16
ATOM     16  C   UNL A   1      32.119  19.535  24.679  1.00  0.00     0.210 C 
ATOM     17  C   UNL A   1      33.108  18.796  25.619  1.00  0.00     0.298 C 
ATOM     18  O   UNL A   1      32.449  19.323  23.304  1.00  0.00    -0.363 OA
ATOM     19  N   UNL A   1      33.481  17.425  25.248  1.00  0.00    -0.331 N 
ATOM     20  C   UNL A   1      32.649  17.965  22.939  1.00  0.00     0.222 C 
ATOM     21  C   UNL A   1      33.730  17.319  23.807  1.00  0.00     0.291 C 
ATOM     22  H   UNL A   1      34.371  17.243  25.709  1.00  0.00     0.348 HD
BRANCH  19  23
ATOM     23  C   UNL A   1      32.681  16.357  25.837  1.00  0.00     0.258 C 
ATOM     24  C   UNL A   1      32.929  14.928  25.379  1.00  0.00     0.071 C 
ENDBRANCH  19  23
ENDBRANCH  15  16
ENDBRANCH  14  15
ENDBRANCH  11  14
ENDBRANCH   4   7
ENDBRANCH   2   3
ENDBRANCH   1   2
BRANCH   1  25
ATOM     25  C   UNL A   1      35.900  20.989  24.974  1.00  0.00     0.002 C 
BRANCH  25  26
ATOM     26  C   UNL A   1      37.365  21.055  24.524  1.00  0.00     0.002 C 
BRANCH  26  27
ATOM     27  C   UNL A   1      38.224  19.871  24.971  1.00  0.00     0.021 C 
BRANCH  27  28
ATOM     28  C   UNL A   1      39.337  20.250  25.939  1.00  0.00     0.116 C 
BRANCH  28  29
ATOM     29  N   UNL A   1      40.385  19.238  25.968  1.00  0.00    -0.352 N 
ATOM     30  C   UNL A   1      41.738  19.409  26.099  1.00  0.00     0.251 C 
ATOM     31  H   UNL A   1      40.079  18.306  25.883  1.00  0.00     0.163 HD
ATOM     32  O   UNL A   1      42.515  18.488  25.856  1.00  0.00    -0.269 OA
BRANCH  30  33
ATOM     33  C   UNL A   1      42.258  20.721  26.531  1.00  0.00     0.039 A 
ATOM     34  C   UNL A   1      42.674  21.645  25.571  1.00  0.00     0.014 A 
ATOM     35  C   UNL A   1      42.316  21.032  27.891  1.00  0.00     0.014 A 
ATOM     36  C   UNL A   1      43.103  22.911  25.979  1.00  0.00     0.010 A 
ATOM     37  C   UNL A   1      42.665  22.314  28.288  1.00  0.00     0.010 A 
ATOM     38  C   UNL A   1      43.073  23.263  27.337  1.00  0.00    -0.014 A 
BRANCH  38  39
ATOM     39  C   UNL A   1      43.492  24.606  27.807  1.00  0.00     0.031 A 
ATOM     40  C   UNL A   1      42.447  25.640  28.123  1.00  0.00     0.074 A 
ATOM     41  C   UNL A   1      44.800  24.922  27.865  1.00  0.00     0.049 A 
ATOM     42  N   UNL A   1      42.599  26.905  28.421  1.00  0.00    -0.248 NA
ATOM     43  C   UNL A   1      41.043  25.200  28.065  1.00  0.00     0.031 C 
ATOM     44  C   UNL A   1      45.909  24.014  27.561  1.00  0.00     0.029 A 
ATOM     45  N   UNL A   1      45.416  26.104  28.186  1.00  0.00    -0.354 N 
ATOM     46  C   UNL A   1      41.314  27.414  28.559  1.00  0.00     0.074 A 
ATOM     47  C   UNL A   1      40.395  26.338  28.260  1.00  0.00     0.031 C 
ATOM     48  C   UNL A   1      47.069  24.669  27.732  1.00  0.00     0.029 A 
ATOM     49  C   UNL A   1      46.787  26.051  28.106  1.00  0.00     0.049 A 
ATOM     50  H   UNL A   1      44.923  26.915  28.450  1.00  0.00     0.167 HD
ATOM     51  C   UNL A   1      40.931  28.661  28.920  1.00  0.00     0.031 A 
ATOM     52  C   UNL A   1      47.710  27.012  28.296  1.00  0.00     0.031 A 
ATOM     53  C   UNL A   1      41.847  29.727  29.226  1.00  0.00     0.049 A 
ATOM     54  C   UNL A   1      47.259  28.399  28.667  1.00  0.00     0.074 A 
ATOM     55  C   UNL A   1      41.561  31.013  29.650  1.00  0.00     0.029 A 
ATOM     56  N   UNL A   1      43.227  29.627  29.143  1.00  0.00    -0.354 N 
ATOM     57  N   UNL A   1      46.042  28.852  28.845  1.00  0.00    -0.248 NA
ATOM     58  C   UNL A   1      48.312  29.403  28.875  1.00  0.00     0.031 C 
ATOM     59  C   UNL A   1      42.768  31.710  29.766  1.00  0.00     0.029 A 
ATOM     60  C   UNL A   1      43.807  30.837  29.483  1.00  0.00     0.049 A 
ATOM     61  H   UNL A   1      43.720  28.817  28.880  1.00  0.00     0.167 HD
ATOM     62  C   UNL A   1      46.184  30.183  29.223  1.00  0.00     0.074 A 
ATOM     63  C   UNL A   1      47.606  30.458  29.257  1.00  0.00     0.031 C 
ATOM     64  C   UNL A   1      45.224  31.091  29.521  1.00  0.00     0.031 A 
BRANCH  51  65
ATOM     65  C   UNL A   1      39.454  28.940  28.988  1.00  0.00    -0.014 A 
ATOM     66  C   UNL A   1      38.739  29.377  27.860  1.00  0.00     0.009 A 
ATOM     67  C   UNL A   1      38.761  28.738  30.193  1.00  0.00     0.009 A 
ATOM     68  C   UNL A   1      37.372  29.647  27.949  1.00  0.00     0.001 A 
ATOM     69  C   UNL A   1      37.387  28.976  30.268  1.00  0.00     0.001 A 
ATOM     70  C   UNL A   1      36.697  29.440  29.151  1.00  0.00     0.000 A 
ENDBRANCH  51  65
BRANCH  52  71
ATOM     71  C   UNL A   1      49.156  26.701  28.147  1.00  0.00    -0.014 A 
ATOM     72  C   UNL A   1      49.908  26.271  29.252  1.00  0.00     0.009 A 
ATOM     73  C   UNL A   1      49.797  26.841  26.906  1.00  0.00     0.009 A 
ATOM     74  C   UNL A   1      51.277  26.022  29.125  1.00  0.00     0.001 A 
ATOM     75  C   UNL A   1      51.158  26.560  26.774  1.00  0.00     0.001 A 
ATOM     76  C   UNL A   1      51.900  26.162  27.885  1.00  0.00     0.000 A 
ENDBRANCH  52  71
BRANCH  64  77
ATOM     77  C   UNL A   1      45.675  32.454  29.967  1.00  0.00    -0.014 A 
ATOM     78  C   UNL A   1      45.949  32.736  31.314  1.00  0.00     0.009 A 
ATOM     79  C   UNL A   1      45.884  33.458  29.006  1.00  0.00     0.009 A 
ATOM     80  C   UNL A   1      46.393  34.005  31.693  1.00  0.00     0.001 A 
ATOM     81  C   UNL A   1      46.358  34.714  29.384  1.00  0.00     0.001 A 
ATOM     82  C   UNL A   1      46.603  34.989  30.728  1.00  0.00     0.000 A 
ENDBRANCH  64  77
ENDBRANCH  38  39
ENDBRANCH  30  33
ENDBRANCH  28  29
ENDBRANCH  27  28
ENDBRANCH  26  27
ENDBRANCH  25  26
ENDBRANCH   1  25
TORSDOF 18
ENDMDL
MODEL 3
REMARK VINA RESULT:      -9.9      3.445      4.509
REMARK SMILES CCc1cc(OC[C@@H]2C[N@@H+](CC)CCO2)c(C(=O)NCCCCCCNC(=O)c2ccc(-c3c4nc(c(-c5ccccc5)c5ccc([nH]5)c(-c5ccccc5)c5nc(c(-c6ccccc6)c6ccc3[nH]6)C=C5)C=C4)cc2)s1
REMARK SMILES IDX 21 1 20 2 19 3 17 4 18 5 16 7 3 8 4 9 77 10 5 11 2 12 1 13
REMARK SMILES IDX 6 14 7 15 8 16 9 17 15 18 10 19 14 20 13 21 11 23 12 24
REMARK SMILES IDX 22 25 23 26 24 27 25 28 26 29 27 30 28 32 29 33 30 34 76 35
REMARK SMILES IDX 31 36 75 37 32 38 33 39 34 40 69 41 35 42 74 43 68 44 70 45
REMARK SMILES IDX 36 46 73 47 67 48 66 49 37 51 59 52 44 53 58 54 45 55 48 56
REMARK SMILES IDX 57 57 71 58 46 59 47 60 56 62 72 63 49 64 38 65 39 66 43 67
REMARK SMILES IDX 40 68 42 69 41 70 60 71 61 72 65 73 62 74 64 75 63 76 50 77
REMARK SMILES IDX 51 78 55 79 52 80 54 81 53 82
REMARK H PARENT 19 6 10 22 26 31 70 50 48 61
REMARK Flexibility Score: inf
ROOT
ATOM      1  C   UNL A   1      38.837  21.941  25.966  1.00  0.00     0.021 C 
ENDROOT
BRANCH   1   2
ATOM      2  C   UNL A   1      37.714  22.956  25.741  1.00  0.00     0.116 C 
BRANCH   2   3
ATOM      3  N   UNL A   1      37.293  22.935  24.363  1.00  0.00    -0.351 N 
ATOM      4  C   UNL A   1      36.069  23.126  23.773  1.00  0.00     0.265 C 
ATOM      5  O   UNL A   1      36.103  23.042  22.538  1.00  0.00    -0.268 OA
ATOM      6  H   UNL A   1      38.020  22.750  23.726  1.00  0.00     0.163 HD
BRANCH   4   7
ATOM      7  C   UNL A   1      34.846  23.435  24.505  1.00  0.00     0.134 A 
ATOM      8  C   UNL A   1      33.147  24.865  25.659  1.00  0.00     0.009 A 
ATOM      9  C   UNL A   1      32.755  23.551  25.566  1.00  0.00     0.062 A 
ATOM     10  S   UNL A   1      34.626  25.123  24.862  1.00  0.00    -0.131 S 
ATOM     11  C   UNL A   1      33.785  22.708  25.028  1.00  0.00     0.143 A 
BRANCH   8  12
ATOM     12  C   UNL A   1      32.449  25.981  26.370  1.00  0.00     0.043 C 
ATOM     13  C   UNL A   1      30.982  26.060  25.994  1.00  0.00     0.010 C 
ENDBRANCH   8  12
BRANCH  11  14
ATOM     14  O   UNL A   1      33.763  21.349  25.043  1.00  0.00    -0.489 OA
BRANCH  14  15
ATOM     15  C   UNL A   1      32.446  20.767  25.022  1.00  0.00     0.267 C 
BRANCH  15  16
ATOM     16  C   UNL A   1      32.340  19.249  24.655  1.00  0.00     0.210 C 
ATOM     17  C   UNL A   1      33.176  18.445  25.685  1.00  0.00     0.298 C 
ATOM     18  O   UNL A   1      32.794  19.016  23.318  1.00  0.00    -0.363 OA
ATOM     19  N   UNL A   1      33.491  17.052  25.345  1.00  0.00    -0.331 N 
ATOM     20  C   UNL A   1      32.938  17.647  22.967  1.00  0.00     0.222 C 
ATOM     21  C   UNL A   1      33.879  16.929  23.936  1.00  0.00     0.291 C 
ATOM     22  H   UNL A   1      34.316  16.810  25.893  1.00  0.00     0.348 HD
BRANCH  19  23
ATOM     23  C   UNL A   1      32.566  16.041  25.842  1.00  0.00     0.258 C 
ATOM     24  C   UNL A   1      32.818  14.585  25.478  1.00  0.00     0.071 C 
ENDBRANCH  19  23
ENDBRANCH  15  16
ENDBRANCH  14  15
ENDBRANCH  11  14
ENDBRANCH   4   7
ENDBRANCH   2   3
ENDBRANCH   1   2
BRANCH   1  25
ATOM     25  C   UNL A   1      39.979  22.492  26.831  1.00  0.00     0.002 C 
BRANCH  25  26
ATOM     26  C   UNL A   1      41.035  21.451  27.223  1.00  0.00     0.002 C 
BRANCH  26  27
ATOM     27  C   UNL A   1      42.071  21.153  26.137  1.00  0.00     0.021 C 
BRANCH  27  28
ATOM     28  C   UNL A   1      42.533  22.387  25.373  1.00  0.00     0.116 C 
BRANCH  28  29
ATOM     29  N   UNL A   1      43.983  22.525  25.413  1.00  0.00    -0.352 N 
ATOM     30  C   UNL A   1      44.735  23.504  26.007  1.00  0.00     0.251 C 
ATOM     31  H   UNL A   1      44.491  21.818  24.953  1.00  0.00     0.163 HD
ATOM     32  O   UNL A   1      45.930  23.625  25.746  1.00  0.00    -0.269 OA
BRANCH  30  33
ATOM     33  C   UNL A   1      44.090  24.424  26.963  1.00  0.00     0.039 A 
ATOM     34  C   UNL A   1      43.476  23.908  28.106  1.00  0.00     0.014 A 
ATOM     35  C   UNL A   1      44.109  25.801  26.725  1.00  0.00     0.014 A 
ATOM     36  C   UNL A   1      42.925  24.785  29.043  1.00  0.00     0.010 A 
ATOM     37  C   UNL A   1      43.634  26.672  27.695  1.00  0.00     0.010 A 
ATOM     38  C   UNL A   1      43.027  26.172  28.857  1.00  0.00    -0.014 A 
BRANCH  38  39
ATOM     39  C   UNL A   1      42.479  27.136  29.844  1.00  0.00     0.031 A 
ATOM     40  C   UNL A   1      43.149  27.287  31.182  1.00  0.00     0.074 A 
ATOM     41  C   UNL A   1      41.342  27.803  29.575  1.00  0.00     0.049 A 
ATOM     42  N   UNL A   1      42.762  27.970  32.228  1.00  0.00    -0.248 NA
ATOM     43  C   UNL A   1      44.405  26.544  31.379  1.00  0.00     0.031 C 
ATOM     44  C   UNL A   1      40.585  27.725  28.323  1.00  0.00     0.029 A 
ATOM     45  N   UNL A   1      40.614  28.671  30.349  1.00  0.00    -0.354 N 
ATOM     46  C   UNL A   1      43.711  27.719  33.212  1.00  0.00     0.074 A 
ATOM     47  C   UNL A   1      44.660  26.780  32.657  1.00  0.00     0.031 C 
ATOM     48  C   UNL A   1      39.512  28.528  28.409  1.00  0.00     0.029 A 
ATOM     49  C   UNL A   1      39.477  29.137  29.735  1.00  0.00     0.049 A 
ATOM     50  H   UNL A   1      40.882  28.934  31.260  1.00  0.00     0.167 HD
ATOM     51  C   UNL A   1      43.795  28.238  34.459  1.00  0.00     0.031 A 
ATOM     52  C   UNL A   1      38.508  29.951  30.195  1.00  0.00     0.031 A 
ATOM     53  C   UNL A   1      42.854  29.179  35.004  1.00  0.00     0.049 A 
ATOM     54  C   UNL A   1      38.608  30.491  31.597  1.00  0.00     0.074 A 
ATOM     55  C   UNL A   1      42.877  29.803  36.240  1.00  0.00     0.029 A 
ATOM     56  N   UNL A   1      41.724  29.634  34.345  1.00  0.00    -0.354 N 
ATOM     57  N   UNL A   1      39.538  30.285  32.497  1.00  0.00    -0.248 NA
ATOM     58  C   UNL A   1      37.527  31.384  32.040  1.00  0.00     0.031 C 
ATOM     59  C   UNL A   1      41.727  30.589  36.350  1.00  0.00     0.029 A 
ATOM     60  C   UNL A   1      41.025  30.511  35.157  1.00  0.00     0.049 A 
ATOM     61  H   UNL A   1      41.455  29.371  33.435  1.00  0.00     0.167 HD
ATOM     62  C   UNL A   1      39.177  31.054  33.598  1.00  0.00     0.074 A 
ATOM     63  C   UNL A   1      37.947  31.734  33.246  1.00  0.00     0.031 C 
ATOM     64  C   UNL A   1      39.809  31.188  34.789  1.00  0.00     0.031 A 
BRANCH  51  65
ATOM     65  C   UNL A   1      44.940  27.783  35.323  1.00  0.00    -0.014 A 
ATOM     66  C   UNL A   1      46.163  28.473  35.338  1.00  0.00     0.009 A 
ATOM     67  C   UNL A   1      44.784  26.662  36.154  1.00  0.00     0.009 A 
ATOM     68  C   UNL A   1      47.220  28.025  36.135  1.00  0.00     0.001 A 
ATOM     69  C   UNL A   1      45.830  26.237  36.975  1.00  0.00     0.001 A 
ATOM     70  C   UNL A   1      47.049  26.912  36.956  1.00  0.00     0.000 A 
ENDBRANCH  51  65
BRANCH  52  71
ATOM     71  C   UNL A   1      37.360  30.314  29.324  1.00  0.00    -0.014 A 
ATOM     72  C   UNL A   1      36.391  29.356  28.987  1.00  0.00     0.009 A 
ATOM     73  C   UNL A   1      37.229  31.616  28.814  1.00  0.00     0.009 A 
ATOM     74  C   UNL A   1      35.336  29.684  28.132  1.00  0.00     0.001 A 
ATOM     75  C   UNL A   1      36.156  31.949  27.985  1.00  0.00     0.001 A 
ATOM     76  C   UNL A   1      35.217  30.981  27.635  1.00  0.00     0.000 A 
ENDBRANCH  52  71
BRANCH  64  77
ATOM     77  C   UNL A   1      39.218  32.148  35.782  1.00  0.00    -0.014 A 
ATOM     78  C   UNL A   1      38.266  31.738  36.728  1.00  0.00     0.009 A 
ATOM     79  C   UNL A   1      39.668  33.479  35.803  1.00  0.00     0.009 A 
ATOM     80  C   UNL A   1      37.756  32.649  37.656  1.00  0.00     0.001 A 
ATOM     81  C   UNL A   1      39.181  34.378  36.752  1.00  0.00     0.001 A 
ATOM     82  C   UNL A   1      38.218  33.965  37.671  1.00  0.00     0.000 A 
ENDBRANCH  64  77
ENDBRANCH  38  39
ENDBRANCH  30  33
ENDBRANCH  28  29
ENDBRANCH  27  28
ENDBRANCH  26  27
ENDBRANCH  25  26
ENDBRANCH   1  25
TORSDOF 18
ENDMDL
