MODEL 1
REMARK VINA RESULT:      -9.5      0.000      0.000
REMARK SMILES O=C(NCCCCCCNC(=O)c1cc(=O)[nH]c2c(Br)cccc12)c1ccc(-c2c3nc(c(-c4ccccc4)c4ccc([nH]4)c(-c4ccccc4)c4nc(c(-c5ccccc5)c5ccc2[nH]5)C=C4)C=C3)cc1
REMARK SMILES IDX 5 1 4 2 3 3 1 4 2 5 25 7 26 8 72 9 27 10 71 11 28 12 29 13
REMARK SMILES IDX 30 14 65 15 31 16 70 17 64 18 66 19 32 20 69 21 63 22 62 23
REMARK SMILES IDX 33 25 55 26 40 27 54 28 41 29 44 30 53 31 67 32 42 33 43 34
REMARK SMILES IDX 52 36 68 37 45 38 34 39 35 40 39 41 36 42 38 43 37 44 56 45
REMARK SMILES IDX 57 46 61 47 58 48 60 49 59 50 46 51 47 52 51 53 48 54 50 55
REMARK SMILES IDX 49 56 6 57 7 58 8 59 9 60 10 61 11 62 12 64 13 65 14 66
REMARK SMILES IDX 24 67 15 68 18 69 23 70 16 71 17 72 19 73 22 74 20 76 21 77
REMARK H PARENT 3 6 66 24 44 35 10 63 17 75
REMARK Flexibility Score: inf
ROOT
ATOM      1  C   UNL A   1      32.936  36.429  31.904  1.00  0.00     0.021 C 
ENDROOT
BRANCH   1   2
ATOM      2  C   UNL A   1      33.486  36.461  30.482  1.00  0.00     0.116 C 
BRANCH   2   3
ATOM      3  N   UNL A   1      32.689  35.650  29.580  1.00  0.00    -0.352 N 
ATOM      4  O   UNL A   1      32.302  34.153  27.950  1.00  0.00    -0.269 OA
ATOM      5  C   UNL A   1      33.053  34.564  28.829  1.00  0.00     0.251 C 
ATOM      6  H   UNL A   1      31.745  35.920  29.497  1.00  0.00     0.163 HD
BRANCH   5   7
ATOM      7  C   UNL A   1      34.337  33.872  29.076  1.00  0.00     0.039 A 
ATOM      8  C   UNL A   1      34.423  32.983  30.151  1.00  0.00     0.014 A 
ATOM      9  C   UNL A   1      35.476  34.169  28.320  1.00  0.00     0.014 A 
ATOM     10  C   UNL A   1      35.648  32.396  30.474  1.00  0.00     0.010 A 
ATOM     11  C   UNL A   1      36.681  33.529  28.599  1.00  0.00     0.010 A 
ATOM     12  C   UNL A   1      36.788  32.671  29.704  1.00  0.00    -0.014 A 
BRANCH  12  13
ATOM     13  C   UNL A   1      38.125  32.160  30.098  1.00  0.00     0.031 A 
ATOM     14  C   UNL A   1      38.596  30.838  29.554  1.00  0.00     0.074 A 
ATOM     15  C   UNL A   1      38.898  32.854  30.954  1.00  0.00     0.049 A 
ATOM     16  N   UNL A   1      39.677  30.164  29.848  1.00  0.00    -0.248 NA
ATOM     17  C   UNL A   1      37.730  30.176  28.561  1.00  0.00     0.031 C 
ATOM     18  C   UNL A   1      38.557  34.150  31.541  1.00  0.00     0.029 A 
ATOM     19  N   UNL A   1      40.130  32.560  31.485  1.00  0.00    -0.354 N 
ATOM     20  C   UNL A   1      39.610  28.997  29.096  1.00  0.00     0.074 A 
ATOM     21  C   UNL A   1      38.364  29.029  28.366  1.00  0.00     0.031 C 
ATOM     22  C   UNL A   1      39.559  34.544  32.341  1.00  0.00     0.029 A 
ATOM     23  C   UNL A   1      40.590  33.509  32.367  1.00  0.00     0.049 A 
ATOM     24  H   UNL A   1      40.636  31.747  31.257  1.00  0.00     0.167 HD
ATOM     25  C   UNL A   1      40.519  28.001  29.005  1.00  0.00     0.031 A 
ATOM     26  C   UNL A   1      41.704  33.535  33.127  1.00  0.00     0.031 A 
ATOM     27  C   UNL A   1      41.774  27.993  29.705  1.00  0.00     0.049 A 
ATOM     28  C   UNL A   1      42.684  32.396  33.035  1.00  0.00     0.074 A 
ATOM     29  C   UNL A   1      42.782  27.049  29.633  1.00  0.00     0.029 A 
ATOM     30  N   UNL A   1      42.197  28.971  30.589  1.00  0.00    -0.354 N 
ATOM     31  N   UNL A   1      42.626  31.319  32.290  1.00  0.00    -0.248 NA
ATOM     32  C   UNL A   1      43.888  32.476  33.877  1.00  0.00     0.031 C 
ATOM     33  C   UNL A   1      43.782  27.415  30.532  1.00  0.00     0.029 A 
ATOM     34  C   UNL A   1      43.438  28.633  31.098  1.00  0.00     0.049 A 
ATOM     35  H   UNL A   1      41.691  29.784  30.821  1.00  0.00     0.167 HD
ATOM     36  C   UNL A   1      43.790  30.607  32.553  1.00  0.00     0.074 A 
ATOM     37  C   UNL A   1      44.547  31.381  33.514  1.00  0.00     0.031 C 
ATOM     38  C   UNL A   1      44.190  29.418  32.043  1.00  0.00     0.031 A 
BRANCH  25  39
ATOM     39  C   UNL A   1      40.219  26.829  28.113  1.00  0.00    -0.014 A 
ATOM     40  C   UNL A   1      39.500  25.735  28.622  1.00  0.00     0.009 A 
ATOM     41  C   UNL A   1      40.767  26.741  26.823  1.00  0.00     0.009 A 
ATOM     42  C   UNL A   1      39.366  24.564  27.875  1.00  0.00     0.001 A 
ATOM     43  C   UNL A   1      40.603  25.580  26.065  1.00  0.00     0.001 A 
ATOM     44  C   UNL A   1      39.917  24.487  26.596  1.00  0.00     0.000 A 
ENDBRANCH  25  39
BRANCH  26  45
ATOM     45  C   UNL A   1      41.938  34.688  34.039  1.00  0.00    -0.014 A 
ATOM     46  C   UNL A   1      41.495  34.643  35.373  1.00  0.00     0.009 A 
ATOM     47  C   UNL A   1      42.558  35.858  33.575  1.00  0.00     0.009 A 
ATOM     48  C   UNL A   1      41.639  35.751  36.210  1.00  0.00     0.001 A 
ATOM     49  C   UNL A   1      42.732  36.953  34.427  1.00  0.00     0.001 A 
ATOM     50  C   UNL A   1      42.262  36.903  35.738  1.00  0.00     0.000 A 
ENDBRANCH  26  45
BRANCH  38  51
ATOM     51  C   UNL A   1      45.515  28.854  32.479  1.00  0.00    -0.014 A 
ATOM     52  C   UNL A   1      45.586  28.079  33.651  1.00  0.00     0.009 A 
ATOM     53  C   UNL A   1      46.705  29.226  31.837  1.00  0.00     0.009 A 
ATOM     54  C   UNL A   1      46.823  27.722  34.191  1.00  0.00     0.001 A 
ATOM     55  C   UNL A   1      47.939  28.838  32.362  1.00  0.00     0.001 A 
ATOM     56  C   UNL A   1      47.998  28.101  33.545  1.00  0.00     0.000 A 
ENDBRANCH  38  51
ENDBRANCH  12  13
ENDBRANCH   5   7
ENDBRANCH   2   3
ENDBRANCH   1   2
BRANCH   1  57
ATOM     57  C   UNL A   1      33.997  36.510  33.005  1.00  0.00     0.002 C 
BRANCH  57  58
ATOM     58  C   UNL A   1      35.059  35.406  32.972  1.00  0.00     0.002 C 
BRANCH  58  59
ATOM     59  C   UNL A   1      34.673  34.105  33.681  1.00  0.00     0.021 C 
BRANCH  59  60
ATOM     60  C   UNL A   1      35.828  33.134  33.914  1.00  0.00     0.116 C 
BRANCH  60  61
ATOM     61  N   UNL A   1      36.769  33.633  34.904  1.00  0.00    -0.352 N 
ATOM     62  C   UNL A   1      37.906  33.053  35.386  1.00  0.00     0.252 C 
ATOM     63  H   UNL A   1      36.555  34.516  35.280  1.00  0.00     0.163 HD
ATOM     64  O   UNL A   1      38.525  33.582  36.305  1.00  0.00    -0.269 OA
BRANCH  62  65
ATOM     65  C   UNL A   1      38.351  31.766  34.797  1.00  0.00     0.054 A 
ATOM     66  C   UNL A   1      37.563  31.250  33.839  1.00  0.00     0.086 A 
ATOM     67  C   UNL A   1      39.614  31.104  35.163  1.00  0.00     0.012 A 
ATOM     68  C   UNL A   1      37.877  29.953  33.215  1.00  0.00     0.249 A 
ATOM     69  C   UNL A   1      39.937  29.889  34.533  1.00  0.00     0.063 A 
ATOM     70  C   UNL A   1      40.499  31.630  36.113  1.00  0.00     0.011 A 
ATOM     71  O   UNL A   1      37.101  29.446  32.411  1.00  0.00    -0.270 OA
ATOM     72  N   UNL A   1      39.041  29.354  33.590  1.00  0.00    -0.321 N 
ATOM     73  C   UNL A   1      41.130  29.225  34.846  1.00  0.00     0.042 A 
ATOM     74  C   UNL A   1      41.689  30.966  36.422  1.00  0.00     0.002 A 
ATOM     75  H   UNL A   1      39.272  28.492  33.175  1.00  0.00     0.170 HD
ATOM     76  Br  UNL A   1      41.603  27.589  34.008  1.00  0.00    -0.049 Br
ATOM     77  C   UNL A   1      42.006  29.764  35.788  1.00  0.00     0.018 A 
ENDBRANCH  62  65
ENDBRANCH  60  61
ENDBRANCH  59  60
ENDBRANCH  58  59
ENDBRANCH  57  58
ENDBRANCH   1  57
TORSDOF 13
ENDMDL
MODEL 2
REMARK VINA RESULT:      -9.4      0.278      6.085
REMARK SMILES O=C(NCCCCCCNC(=O)c1cc(=O)[nH]c2c(Br)cccc12)c1ccc(-c2c3nc(c(-c4ccccc4)c4ccc([nH]4)c(-c4ccccc4)c4nc(c(-c5ccccc5)c5ccc2[nH]5)C=C4)C=C3)cc1
REMARK SMILES IDX 5 1 4 2 3 3 1 4 2 5 25 7 26 8 72 9 27 10 71 11 28 12 29 13
REMARK SMILES IDX 30 14 65 15 31 16 70 17 64 18 66 19 32 20 69 21 63 22 62 23
REMARK SMILES IDX 33 25 55 26 40 27 54 28 41 29 44 30 53 31 67 32 42 33 43 34
REMARK SMILES IDX 52 36 68 37 45 38 34 39 35 40 39 41 36 42 38 43 37 44 56 45
REMARK SMILES IDX 57 46 61 47 58 48 60 49 59 50 46 51 47 52 51 53 48 54 50 55
REMARK SMILES IDX 49 56 6 57 7 58 8 59 9 60 10 61 11 62 12 64 13 65 14 66
REMARK SMILES IDX 24 67 15 68 18 69 23 70 16 71 17 72 19 73 22 74 20 76 21 77
REMARK H PARENT 3 6 66 24 44 35 10 63 17 75
REMARK Flexibility Score: inf
ROOT
ATOM      1  C   UNL A   1      32.949  36.436  31.837  1.00  0.00     0.021 C 
ENDROOT
BRANCH   1   2
ATOM      2  C   UNL A   1      33.544  36.464  30.433  1.00  0.00     0.116 C 
BRANCH   2   3
ATOM      3  N   UNL A   1      32.732  35.718  29.491  1.00  0.00    -0.352 N 
ATOM      4  O   UNL A   1      32.312  34.271  27.823  1.00  0.00    -0.269 OA
ATOM      5  C   UNL A   1      33.056  34.622  28.735  1.00  0.00     0.251 C 
ATOM      6  H   UNL A   1      31.810  36.046  29.379  1.00  0.00     0.163 HD
BRANCH   5   7
ATOM      7  C   UNL A   1      34.285  33.849  29.015  1.00  0.00     0.039 A 
ATOM      8  C   UNL A   1      34.327  33.049  30.161  1.00  0.00     0.014 A 
ATOM      9  C   UNL A   1      35.423  33.983  28.214  1.00  0.00     0.014 A 
ATOM     10  C   UNL A   1      35.507  32.391  30.509  1.00  0.00     0.010 A 
ATOM     11  C   UNL A   1      36.579  33.271  28.522  1.00  0.00     0.010 A 
ATOM     12  C   UNL A   1      36.645  32.503  29.695  1.00  0.00    -0.014 A 
BRANCH  12  13
ATOM     13  C   UNL A   1      37.946  31.917  30.105  1.00  0.00     0.031 A 
ATOM     14  C   UNL A   1      38.844  32.695  31.029  1.00  0.00     0.074 A 
ATOM     15  C   UNL A   1      38.334  30.717  29.635  1.00  0.00     0.049 A 
ATOM     16  N   UNL A   1      40.059  32.416  31.426  1.00  0.00    -0.248 NA
ATOM     17  C   UNL A   1      38.317  33.963  31.564  1.00  0.00     0.031 C 
ATOM     18  C   UNL A   1      37.549  29.864  28.743  1.00  0.00     0.029 A 
ATOM     19  N   UNL A   1      39.494  30.010  29.839  1.00  0.00    -0.354 N 
ATOM     20  C   UNL A   1      40.443  33.478  32.236  1.00  0.00     0.074 A 
ATOM     21  C   UNL A   1      39.357  34.429  32.240  1.00  0.00     0.031 C 
ATOM     22  C   UNL A   1      38.243  28.745  28.485  1.00  0.00     0.029 A 
ATOM     23  C   UNL A   1      39.543  28.822  29.149  1.00  0.00     0.049 A 
ATOM     24  H   UNL A   1      40.222  30.324  30.423  1.00  0.00     0.167 HD
ATOM     25  C   UNL A   1      41.592  33.632  32.932  1.00  0.00     0.031 A 
ATOM     26  C   UNL A   1      40.529  27.907  29.044  1.00  0.00     0.031 A 
ATOM     27  C   UNL A   1      42.654  32.663  32.954  1.00  0.00     0.049 A 
ATOM     28  C   UNL A   1      41.813  28.119  29.801  1.00  0.00     0.074 A 
ATOM     29  C   UNL A   1      43.833  32.711  33.674  1.00  0.00     0.029 A 
ATOM     30  N   UNL A   1      42.663  31.479  32.239  1.00  0.00    -0.354 N 
ATOM     31  N   UNL A   1      42.146  29.108  30.594  1.00  0.00    -0.248 NA
ATOM     32  C   UNL A   1      42.853  27.088  29.662  1.00  0.00     0.031 C 
ATOM     33  C   UNL A   1      44.591  31.592  33.336  1.00  0.00     0.029 A 
ATOM     34  C   UNL A   1      43.846  30.802  32.474  1.00  0.00     0.049 A 
ATOM     35  H   UNL A   1      41.937  31.164  31.652  1.00  0.00     0.167 HD
ATOM     36  C   UNL A   1      43.419  28.810  31.065  1.00  0.00     0.074 A 
ATOM     37  C   UNL A   1      43.794  27.538  30.484  1.00  0.00     0.031 C 
ATOM     38  C   UNL A   1      44.204  29.530  31.902  1.00  0.00     0.031 A 
BRANCH  25  39
ATOM     39  C   UNL A   1      41.779  34.880  33.748  1.00  0.00    -0.014 A 
ATOM     40  C   UNL A   1      42.585  35.920  33.253  1.00  0.00     0.009 A 
ATOM     41  C   UNL A   1      41.284  34.971  35.058  1.00  0.00     0.009 A 
ATOM     42  C   UNL A   1      42.921  37.005  34.062  1.00  0.00     0.001 A 
ATOM     43  C   UNL A   1      41.595  36.075  35.856  1.00  0.00     0.001 A 
ATOM     44  C   UNL A   1      42.425  37.082  35.363  1.00  0.00     0.000 A 
ENDBRANCH  25  39
BRANCH  26  45
ATOM     45  C   UNL A   1      40.325  26.711  28.182  1.00  0.00    -0.014 A 
ATOM     46  C   UNL A   1      40.847  26.675  26.877  1.00  0.00     0.009 A 
ATOM     47  C   UNL A   1      39.567  25.619  28.633  1.00  0.00     0.009 A 
ATOM     48  C   UNL A   1      40.591  25.591  26.036  1.00  0.00     0.001 A 
ATOM     49  C   UNL A   1      39.343  24.520  27.800  1.00  0.00     0.001 A 
ATOM     50  C   UNL A   1      39.844  24.511  26.499  1.00  0.00     0.000 A 
ENDBRANCH  26  45
BRANCH  38  51
ATOM     51  C   UNL A   1      45.552  28.979  32.279  1.00  0.00    -0.014 A 
ATOM     52  C   UNL A   1      46.659  29.228  31.447  1.00  0.00     0.009 A 
ATOM     53  C   UNL A   1      45.694  28.085  33.349  1.00  0.00     0.009 A 
ATOM     54  C   UNL A   1      47.867  28.562  31.657  1.00  0.00     0.001 A 
ATOM     55  C   UNL A   1      46.915  27.446  33.576  1.00  0.00     0.001 A 
ATOM     56  C   UNL A   1      47.994  27.672  32.721  1.00  0.00     0.000 A 
ENDBRANCH  38  51
ENDBRANCH  12  13
ENDBRANCH   5   7
ENDBRANCH   2   3
ENDBRANCH   1   2
BRANCH   1  57
ATOM     57  C   UNL A   1      33.970  36.569  32.970  1.00  0.00     0.002 C 
BRANCH  57  58
ATOM     58  C   UNL A   1      35.056  35.490  33.002  1.00  0.00     0.002 C 
BRANCH  58  59
ATOM     59  C   UNL A   1      34.685  34.209  33.756  1.00  0.00     0.021 C 
BRANCH  59  60
ATOM     60  C   UNL A   1      35.843  33.243  33.989  1.00  0.00     0.116 C 
BRANCH  60  61
ATOM     61  N   UNL A   1      36.760  33.725  35.008  1.00  0.00    -0.352 N 
ATOM     62  C   UNL A   1      37.883  33.135  35.511  1.00  0.00     0.252 C 
ATOM     63  H   UNL A   1      36.539  34.604  35.390  1.00  0.00     0.163 HD
ATOM     64  O   UNL A   1      38.481  33.651  36.451  1.00  0.00    -0.269 OA
BRANCH  62  65
ATOM     65  C   UNL A   1      38.339  31.855  34.915  1.00  0.00     0.054 A 
ATOM     66  C   UNL A   1      37.526  31.306  33.997  1.00  0.00     0.086 A 
ATOM     67  C   UNL A   1      39.636  31.234  35.232  1.00  0.00     0.012 A 
ATOM     68  C   UNL A   1      37.850  30.013  33.373  1.00  0.00     0.249 A 
ATOM     69  C   UNL A   1      39.966  30.022  34.600  1.00  0.00     0.063 A 
ATOM     70  C   UNL A   1      40.546  31.796  36.137  1.00  0.00     0.011 A 
ATOM     71  O   UNL A   1      37.055  29.474  32.609  1.00  0.00    -0.270 OA
ATOM     72  N   UNL A   1      39.047  29.451  33.703  1.00  0.00    -0.321 N 
ATOM     73  C   UNL A   1      41.191  29.396  34.868  1.00  0.00     0.042 A 
ATOM     74  C   UNL A   1      41.767  31.169  36.400  1.00  0.00     0.002 A 
ATOM     75  H   UNL A   1      39.284  28.591  33.286  1.00  0.00     0.170 HD
ATOM     76  Br  UNL A   1      41.675  27.765  34.026  1.00  0.00    -0.049 Br
ATOM     77  C   UNL A   1      42.091  29.970  35.765  1.00  0.00     0.018 A 
ENDBRANCH  62  65
ENDBRANCH  60  61
ENDBRANCH  59  60
ENDBRANCH  58  59
ENDBRANCH  57  58
ENDBRANCH   1  57
TORSDOF 13
ENDMDL
MODEL 3
REMARK VINA RESULT:      -9.1      4.815      7.878
REMARK SMILES O=C(NCCCCCCNC(=O)c1cc(=O)[nH]c2c(Br)cccc12)c1ccc(-c2c3nc(c(-c4ccccc4)c4ccc([nH]4)c(-c4ccccc4)c4nc(c(-c5ccccc5)c5ccc2[nH]5)C=C4)C=C3)cc1
REMARK SMILES IDX 5 1 4 2 3 3 1 4 2 5 25 7 26 8 72 9 27 10 71 11 28 12 29 13
REMARK SMILES IDX 30 14 65 15 31 16 70 17 64 18 66 19 32 20 69 21 63 22 62 23
REMARK SMILES IDX 33 25 55 26 40 27 54 28 41 29 44 30 53 31 67 32 42 33 43 34
REMARK SMILES IDX 52 36 68 37 45 38 34 39 35 40 39 41 36 42 38 43 37 44 56 45
REMARK SMILES IDX 57 46 61 47 58 48 60 49 59 50 46 51 47 52 51 53 48 54 50 55
REMARK SMILES IDX 49 56 6 57 7 58 8 59 9 60 10 61 11 62 12 64 13 65 14 66
REMARK SMILES IDX 24 67 15 68 18 69 23 70 16 71 17 72 19 73 22 74 20 76 21 77
REMARK H PARENT 3 6 66 24 44 35 10 63 17 75
REMARK Flexibility Score: inf
ROOT
ATOM      1  C   UNL A   1      32.992  29.035  25.614  1.00  0.00     0.021 C 
ENDROOT
BRANCH   1   2
ATOM      2  C   UNL A   1      33.517  29.000  27.045  1.00  0.00     0.116 C 
BRANCH   2   3
ATOM      3  N   UNL A   1      33.581  30.328  27.626  1.00  0.00    -0.352 N 
ATOM      4  O   UNL A   1      34.331  31.948  28.992  1.00  0.00    -0.269 OA
ATOM      5  C   UNL A   1      34.559  30.897  28.400  1.00  0.00     0.251 C 
ATOM      6  H   UNL A   1      32.808  30.907  27.435  1.00  0.00     0.163 HD
BRANCH   5   7
ATOM      7  C   UNL A   1      35.890  30.265  28.517  1.00  0.00     0.039 A 
ATOM      8  C   UNL A   1      36.256  29.695  29.740  1.00  0.00     0.014 A 
ATOM      9  C   UNL A   1      36.813  30.319  27.467  1.00  0.00     0.014 A 
ATOM     10  C   UNL A   1      37.544  29.186  29.915  1.00  0.00     0.010 A 
ATOM     11  C   UNL A   1      38.073  29.748  27.618  1.00  0.00     0.010 A 
ATOM     12  C   UNL A   1      38.465  29.216  28.856  1.00  0.00    -0.014 A 
BRANCH  12  13
ATOM     13  C   UNL A   1      39.875  28.796  29.051  1.00  0.00     0.031 A 
ATOM     14  C   UNL A   1      40.296  27.414  28.628  1.00  0.00     0.074 A 
ATOM     15  C   UNL A   1      40.764  29.629  29.626  1.00  0.00     0.049 A 
ATOM     16  N   UNL A   1      41.445  26.813  28.801  1.00  0.00    -0.248 NA
ATOM     17  C   UNL A   1      39.289  26.590  27.935  1.00  0.00     0.031 C 
ATOM     18  C   UNL A   1      40.480  30.994  30.068  1.00  0.00     0.029 A 
ATOM     19  N   UNL A   1      42.087  29.443  29.941  1.00  0.00    -0.354 N 
ATOM     20  C   UNL A   1      41.291  25.542  28.259  1.00  0.00     0.074 A 
ATOM     21  C   UNL A   1      39.928  25.439  27.792  1.00  0.00     0.031 C 
ATOM     22  C   UNL A   1      41.597  31.525  30.588  1.00  0.00     0.029 A 
ATOM     23  C   UNL A   1      42.663  30.525  30.564  1.00  0.00     0.049 A 
ATOM     24  H   UNL A   1      42.579  28.613  29.742  1.00  0.00     0.167 HD
ATOM     25  C   UNL A   1      42.213  24.561  28.141  1.00  0.00     0.031 A 
ATOM     26  C   UNL A   1      43.899  30.689  31.078  1.00  0.00     0.031 A 
ATOM     27  C   UNL A   1      43.577  24.685  28.573  1.00  0.00     0.049 A 
ATOM     28  C   UNL A   1      44.897  29.567  30.965  1.00  0.00     0.074 A 
ATOM     29  C   UNL A   1      44.597  23.759  28.446  1.00  0.00     0.029 A 
ATOM     30  N   UNL A   1      44.114  25.795  29.201  1.00  0.00    -0.354 N 
ATOM     31  N   UNL A   1      44.748  28.386  30.415  1.00  0.00    -0.248 NA
ATOM     32  C   UNL A   1      46.235  29.798  31.532  1.00  0.00     0.031 C 
ATOM     33  C   UNL A   1      45.732  24.278  29.066  1.00  0.00     0.029 A 
ATOM     34  C   UNL A   1      45.445  25.563  29.500  1.00  0.00     0.049 A 
ATOM     35  H   UNL A   1      43.624  26.625  29.405  1.00  0.00     0.167 HD
ATOM     36  C   UNL A   1      45.974  27.745  30.548  1.00  0.00     0.074 A 
ATOM     37  C   UNL A   1      46.863  28.672  31.215  1.00  0.00     0.031 C 
ATOM     38  C   UNL A   1      46.325  26.498  30.152  1.00  0.00     0.031 A 
BRANCH  25  39
ATOM     39  C   UNL A   1      41.804  23.259  27.510  1.00  0.00    -0.014 A 
ATOM     40  C   UNL A   1      41.225  22.254  28.303  1.00  0.00     0.009 A 
ATOM     41  C   UNL A   1      42.119  22.971  26.173  1.00  0.00     0.009 A 
ATOM     42  C   UNL A   1      41.005  20.979  27.783  1.00  0.00     0.001 A 
ATOM     43  C   UNL A   1      41.867  21.703  25.645  1.00  0.00     0.001 A 
ATOM     44  C   UNL A   1      41.326  20.704  26.454  1.00  0.00     0.000 A 
ENDBRANCH  25  39
BRANCH  26  45
ATOM     45  C   UNL A   1      44.248  31.974  31.744  1.00  0.00    -0.014 A 
ATOM     46  C   UNL A   1      44.827  33.023  31.008  1.00  0.00     0.009 A 
ATOM     47  C   UNL A   1      44.054  32.146  33.123  1.00  0.00     0.009 A 
ATOM     48  C   UNL A   1      45.231  34.200  31.641  1.00  0.00     0.001 A 
ATOM     49  C   UNL A   1      44.427  33.340  33.747  1.00  0.00     0.001 A 
ATOM     50  C   UNL A   1      45.026  34.360  33.009  1.00  0.00     0.000 A 
ENDBRANCH  26  45
BRANCH  38  51
ATOM     51  C   UNL A   1      47.735  26.033  30.398  1.00  0.00    -0.014 A 
ATOM     52  C   UNL A   1      48.117  25.637  31.691  1.00  0.00     0.009 A 
ATOM     53  C   UNL A   1      48.717  26.147  29.404  1.00  0.00     0.009 A 
ATOM     54  C   UNL A   1      49.460  25.403  31.994  1.00  0.00     0.001 A 
ATOM     55  C   UNL A   1      50.054  25.880  29.701  1.00  0.00     0.001 A 
ATOM     56  C   UNL A   1      50.427  25.524  30.998  1.00  0.00     0.000 A 
ENDBRANCH  38  51
ENDBRANCH  12  13
ENDBRANCH   5   7
ENDBRANCH   2   3
ENDBRANCH   1   2
BRANCH   1  57
ATOM     57  C   UNL A   1      33.784  28.184  24.619  1.00  0.00     0.002 C 
BRANCH  57  58
ATOM     58  C   UNL A   1      33.685  26.670  24.830  1.00  0.00     0.002 C 
BRANCH  58  59
ATOM     59  C   UNL A   1      33.124  25.878  23.643  1.00  0.00     0.021 C 
BRANCH  59  60
ATOM     60  C   UNL A   1      32.329  24.632  24.022  1.00  0.00     0.116 C 
BRANCH  60  61
ATOM     61  N   UNL A   1      31.974  24.618  25.431  1.00  0.00    -0.352 N 
ATOM     62  C   UNL A   1      32.224  23.668  26.378  1.00  0.00     0.252 C 
ATOM     63  H   UNL A   1      31.482  25.409  25.749  1.00  0.00     0.163 HD
ATOM     64  O   UNL A   1      31.753  23.783  27.506  1.00  0.00    -0.269 OA
BRANCH  62  65
ATOM     65  C   UNL A   1      33.048  22.493  26.002  1.00  0.00     0.054 A 
ATOM     66  C   UNL A   1      32.374  21.373  25.690  1.00  0.00     0.086 A 
ATOM     67  C   UNL A   1      34.516  22.536  25.892  1.00  0.00     0.012 A 
ATOM     68  C   UNL A   1      33.086  20.130  25.348  1.00  0.00     0.249 A 
ATOM     69  C   UNL A   1      35.192  21.361  25.521  1.00  0.00     0.063 A 
ATOM     70  C   UNL A   1      35.262  23.695  26.150  1.00  0.00     0.011 A 
ATOM     71  O   UNL A   1      32.463  19.089  25.160  1.00  0.00    -0.270 OA
ATOM     72  N   UNL A   1      34.444  20.196  25.277  1.00  0.00    -0.321 N 
ATOM     73  C   UNL A   1      36.588  21.356  25.400  1.00  0.00     0.042 A 
ATOM     74  C   UNL A   1      36.653  23.686  26.027  1.00  0.00     0.002 A 
ATOM     75  H   UNL A   1      34.935  19.376  25.039  1.00  0.00     0.170 HD
ATOM     76  Br  UNL A   1      37.533  19.792  24.890  1.00  0.00    -0.049 Br
ATOM     77  C   UNL A   1      37.317  22.519  25.651  1.00  0.00     0.018 A 
ENDBRANCH  62  65
ENDBRANCH  60  61
ENDBRANCH  59  60
ENDBRANCH  58  59
ENDBRANCH  57  58
ENDBRANCH   1  57
TORSDOF 13
ENDMDL
