MODEL 1
REMARK VINA RESULT:     -11.5      0.000      0.000
REMARK SMILES O=C(NCCCCCCNC(=O)[C@H](NC(=O)c1ccc(Br)nc1)c1ccccc1)c1ccc(-c2c3nc(c(-c4ccccc4)c4ccc([nH]4)c(-c4ccccc4)c4nc(c(-c5ccccc5)c5ccc2[nH]5)C=C4)C=C3)cc1
REMARK SMILES IDX 6 1 5 2 4 3 3 4 1 5 2 6 30 8 31 9 77 10 32 11 76 12 33 13
REMARK SMILES IDX 34 14 35 15 70 16 36 17 75 18 69 19 71 20 37 21 74 22 68 23
REMARK SMILES IDX 67 24 38 26 60 27 45 28 59 29 46 30 49 31 58 32 72 33 47 34
REMARK SMILES IDX 48 35 57 37 73 38 50 39 39 40 40 41 44 42 41 43 43 44 42 45
REMARK SMILES IDX 61 46 62 47 66 48 63 49 65 50 64 51 51 52 52 53 56 54 53 55
REMARK SMILES IDX 55 56 54 57 7 58 8 59 9 60 10 61 11 62 12 64 13 65 24 66
REMARK SMILES IDX 25 67 29 68 26 69 28 70 27 71 14 72 15 73 16 75 17 76 18 77
REMARK SMILES IDX 23 78 19 79 22 80 20 81 21 82
REMARK H PARENT 3 7 71 25 49 36 10 63 14 74
REMARK Flexibility Score: inf
ROOT
ATOM      1  C   UNL A   1      36.704  20.835  24.962  1.00  0.00     0.002 C 
ENDROOT
BRANCH   1   2
ATOM      2  C   UNL A   1      37.840  19.816  24.938  1.00  0.00     0.021 C 
BRANCH   2   3
ATOM      3  C   UNL A   1      39.100  20.195  25.705  1.00  0.00     0.116 C 
BRANCH   3   4
ATOM      4  N   UNL A   1      40.098  19.141  25.761  1.00  0.00    -0.352 N 
ATOM      5  O   UNL A   1      42.144  18.228  26.035  1.00  0.00    -0.269 OA
ATOM      6  C   UNL A   1      41.427  19.221  26.106  1.00  0.00     0.251 C 
ATOM      7  H   UNL A   1      39.777  18.242  25.520  1.00  0.00     0.163 HD
BRANCH   6   8
ATOM      8  C   UNL A   1      42.008  20.520  26.518  1.00  0.00     0.039 A 
ATOM      9  C   UNL A   1      42.118  20.868  27.865  1.00  0.00     0.014 A 
ATOM     10  C   UNL A   1      42.428  21.418  25.530  1.00  0.00     0.014 A 
ATOM     11  C   UNL A   1      42.477  22.166  28.217  1.00  0.00     0.010 A 
ATOM     12  C   UNL A   1      42.877  22.692  25.891  1.00  0.00     0.010 A 
ATOM     13  C   UNL A   1      42.859  23.094  27.234  1.00  0.00    -0.014 A 
BRANCH  13  14
ATOM     14  C   UNL A   1      43.252  24.468  27.646  1.00  0.00     0.031 A 
ATOM     15  C   UNL A   1      44.684  24.927  27.565  1.00  0.00     0.074 A 
ATOM     16  C   UNL A   1      42.295  25.326  28.050  1.00  0.00     0.049 A 
ATOM     17  N   UNL A   1      45.183  26.112  27.820  1.00  0.00    -0.248 NA
ATOM     18  C   UNL A   1      45.687  23.932  27.155  1.00  0.00     0.031 C 
ATOM     19  C   UNL A   1      40.872  25.002  28.177  1.00  0.00     0.029 A 
ATOM     20  N   UNL A   1      42.368  26.651  28.396  1.00  0.00    -0.354 N 
ATOM     21  C   UNL A   1      46.555  25.998  27.628  1.00  0.00     0.074 A 
ATOM     22  C   UNL A   1      46.814  24.624  27.255  1.00  0.00     0.031 C 
ATOM     23  C   UNL A   1      40.199  26.114  28.510  1.00  0.00     0.029 A 
ATOM     24  C   UNL A   1      41.145  27.210  28.677  1.00  0.00     0.049 A 
ATOM     25  H   UNL A   1      43.214  27.153  28.440  1.00  0.00     0.167 HD
ATOM     26  C   UNL A   1      47.512  26.950  27.748  1.00  0.00     0.031 A 
ATOM     27  C   UNL A   1      40.816  28.465  29.033  1.00  0.00     0.031 A 
ATOM     28  C   UNL A   1      47.256  28.322  28.107  1.00  0.00     0.049 A 
ATOM     29  C   UNL A   1      41.897  29.497  29.166  1.00  0.00     0.074 A 
ATOM     30  C   UNL A   1      48.158  29.367  28.214  1.00  0.00     0.029 A 
ATOM     31  N   UNL A   1      46.009  28.836  28.420  1.00  0.00    -0.354 N 
ATOM     32  N   UNL A   1      43.183  29.379  28.941  1.00  0.00    -0.248 NA
ATOM     33  C   UNL A   1      41.478  30.837  29.597  1.00  0.00     0.031 C 
ATOM     34  C   UNL A   1      47.462  30.505  28.637  1.00  0.00     0.029 A 
ATOM     35  C   UNL A   1      46.119  30.181  28.742  1.00  0.00     0.049 A 
ATOM     36  H   UNL A   1      45.168  28.324  28.415  1.00  0.00     0.167 HD
ATOM     37  C   UNL A   1      43.724  30.634  29.185  1.00  0.00     0.074 A 
ATOM     38  C   UNL A   1      42.624  31.501  29.554  1.00  0.00     0.031 C 
ATOM     39  C   UNL A   1      45.017  31.030  29.109  1.00  0.00     0.031 A 
BRANCH  26  40
ATOM     40  C   UNL A   1      48.939  26.536  27.515  1.00  0.00    -0.014 A 
ATOM     41  C   UNL A   1      49.747  26.068  28.561  1.00  0.00     0.009 A 
ATOM     42  C   UNL A   1      49.469  26.574  26.214  1.00  0.00     0.009 A 
ATOM     43  C   UNL A   1      51.066  25.676  28.316  1.00  0.00     0.001 A 
ATOM     44  C   UNL A   1      50.778  26.158  25.968  1.00  0.00     0.001 A 
ATOM     45  C   UNL A   1      51.579  25.719  27.020  1.00  0.00     0.000 A 
ENDBRANCH  26  40
BRANCH  27  46
ATOM     46  C   UNL A   1      39.395  28.815  29.280  1.00  0.00    -0.014 A 
ATOM     47  C   UNL A   1      38.611  29.374  28.260  1.00  0.00     0.009 A 
ATOM     48  C   UNL A   1      38.812  28.581  30.536  1.00  0.00     0.009 A 
ATOM     49  C   UNL A   1      37.277  29.709  28.498  1.00  0.00     0.001 A 
ATOM     50  C   UNL A   1      37.471  28.891  30.763  1.00  0.00     0.001 A 
ATOM     51  C   UNL A   1      36.706  29.462  29.747  1.00  0.00     0.000 A 
ENDBRANCH  27  46
BRANCH  39  52
ATOM     52  C   UNL A   1      45.302  32.476  29.400  1.00  0.00    -0.014 A 
ATOM     53  C   UNL A   1      45.257  33.446  28.388  1.00  0.00     0.009 A 
ATOM     54  C   UNL A   1      45.604  32.873  30.712  1.00  0.00     0.009 A 
ATOM     55  C   UNL A   1      45.549  34.781  28.677  1.00  0.00     0.001 A 
ATOM     56  C   UNL A   1      45.868  34.212  31.003  1.00  0.00     0.001 A 
ATOM     57  C   UNL A   1      45.852  35.163  29.984  1.00  0.00     0.000 A 
ENDBRANCH  39  52
ENDBRANCH  13  14
ENDBRANCH   6   8
ENDBRANCH   3   4
ENDBRANCH   2   3
ENDBRANCH   1   2
BRANCH   1  58
ATOM     58  C   UNL A   1      36.897  22.109  24.135  1.00  0.00     0.002 C 
BRANCH  58  59
ATOM     59  C   UNL A   1      36.842  23.452  24.877  1.00  0.00     0.021 C 
BRANCH  59  60
ATOM     60  C   UNL A   1      35.485  23.856  25.446  1.00  0.00     0.116 C 
BRANCH  60  61
ATOM     61  N   UNL A   1      35.160  23.185  26.686  1.00  0.00    -0.354 N 
ATOM     62  C   UNL A   1      34.095  22.387  26.989  1.00  0.00     0.247 C 
ATOM     63  H   UNL A   1      35.802  23.324  27.419  1.00  0.00     0.163 HD
ATOM     64  O   UNL A   1      34.111  21.879  28.117  1.00  0.00    -0.272 OA
BRANCH  62  65
ATOM     65  C   UNL A   1      32.880  22.230  26.034  1.00  0.00     0.202 C 
BRANCH  65  66
ATOM     66  C   UNL A   1      32.808  21.029  25.101  1.00  0.00    -0.016 A 
ATOM     67  C   UNL A   1      32.336  21.223  23.789  1.00  0.00     0.006 A 
ATOM     68  C   UNL A   1      33.130  19.723  25.495  1.00  0.00     0.006 A 
ATOM     69  C   UNL A   1      32.205  20.150  22.904  1.00  0.00     0.000 A 
ATOM     70  C   UNL A   1      33.002  18.650  24.609  1.00  0.00     0.000 A 
ATOM     71  C   UNL A   1      32.539  18.864  23.316  1.00  0.00     0.000 A 
ENDBRANCH  65  66
BRANCH  65  72
ATOM     72  N   UNL A   1      31.612  22.434  26.757  1.00  0.00    -0.336 N 
ATOM     73  C   UNL A   1      30.664  23.421  26.662  1.00  0.00     0.253 C 
ATOM     74  H   UNL A   1      31.409  21.739  27.425  1.00  0.00     0.165 HD
ATOM     75  O   UNL A   1      29.674  23.405  27.386  1.00  0.00    -0.269 OA
BRANCH  73  76
ATOM     76  C   UNL A   1      30.842  24.544  25.736  1.00  0.00     0.058 A 
ATOM     77  C   UNL A   1      30.606  24.427  24.370  1.00  0.00     0.018 A 
ATOM     78  C   UNL A   1      31.254  25.770  26.238  1.00  0.00     0.126 A 
ATOM     79  C   UNL A   1      30.880  25.516  23.543  1.00  0.00     0.037 A 
ATOM     80  N   UNL A   1      31.520  26.847  25.458  1.00  0.00    -0.249 NA
ATOM     81  C   UNL A   1      31.346  26.690  24.127  1.00  0.00     0.106 A 
ATOM     82  Br  UNL A   1      31.825  28.139  23.002  1.00  0.00    -0.029 Br
ENDBRANCH  73  76
ENDBRANCH  65  72
ENDBRANCH  62  65
ENDBRANCH  60  61
ENDBRANCH  59  60
ENDBRANCH  58  59
ENDBRANCH   1  58
TORSDOF 16
ENDMDL
MODEL 2
REMARK VINA RESULT:     -11.4      0.969      5.860
REMARK SMILES O=C(NCCCCCCNC(=O)[C@H](NC(=O)c1ccc(Br)nc1)c1ccccc1)c1ccc(-c2c3nc(c(-c4ccccc4)c4ccc([nH]4)c(-c4ccccc4)c4nc(c(-c5ccccc5)c5ccc2[nH]5)C=C4)C=C3)cc1
REMARK SMILES IDX 6 1 5 2 4 3 3 4 1 5 2 6 30 8 31 9 77 10 32 11 76 12 33 13
REMARK SMILES IDX 34 14 35 15 70 16 36 17 75 18 69 19 71 20 37 21 74 22 68 23
REMARK SMILES IDX 67 24 38 26 60 27 45 28 59 29 46 30 49 31 58 32 72 33 47 34
REMARK SMILES IDX 48 35 57 37 73 38 50 39 39 40 40 41 44 42 41 43 43 44 42 45
REMARK SMILES IDX 61 46 62 47 66 48 63 49 65 50 64 51 51 52 52 53 56 54 53 55
REMARK SMILES IDX 55 56 54 57 7 58 8 59 9 60 10 61 11 62 12 64 13 65 24 66
REMARK SMILES IDX 25 67 29 68 26 69 28 70 27 71 14 72 15 73 16 75 17 76 18 77
REMARK SMILES IDX 23 78 19 79 22 80 20 81 21 82
REMARK H PARENT 3 7 71 25 49 36 10 63 14 74
REMARK Flexibility Score: inf
ROOT
ATOM      1  C   UNL A   1      36.551  20.904  25.024  1.00  0.00     0.002 C 
ENDROOT
BRANCH   1   2
ATOM      2  C   UNL A   1      37.781  20.010  24.888  1.00  0.00     0.021 C 
BRANCH   2   3
ATOM      3  C   UNL A   1      38.998  20.413  25.708  1.00  0.00     0.116 C 
BRANCH   3   4
ATOM      4  N   UNL A   1      40.023  19.387  25.788  1.00  0.00    -0.352 N 
ATOM      5  O   UNL A   1      42.083  18.527  26.127  1.00  0.00    -0.269 OA
ATOM      6  C   UNL A   1      41.335  19.498  26.185  1.00  0.00     0.251 C 
ATOM      7  H   UNL A   1      39.738  18.483  25.521  1.00  0.00     0.163 HD
BRANCH   6   8
ATOM      8  C   UNL A   1      41.863  20.807  26.639  1.00  0.00     0.039 A 
ATOM      9  C   UNL A   1      41.955  21.118  27.996  1.00  0.00     0.014 A 
ATOM     10  C   UNL A   1      42.248  21.750  25.680  1.00  0.00     0.014 A 
ATOM     11  C   UNL A   1      42.260  22.418  28.388  1.00  0.00     0.010 A 
ATOM     12  C   UNL A   1      42.645  23.030  26.081  1.00  0.00     0.010 A 
ATOM     13  C   UNL A   1      42.607  23.390  27.436  1.00  0.00    -0.014 A 
BRANCH  13  14
ATOM     14  C   UNL A   1      42.943  24.765  27.890  1.00  0.00     0.031 A 
ATOM     15  C   UNL A   1      41.868  25.782  28.166  1.00  0.00     0.074 A 
ATOM     16  C   UNL A   1      44.235  25.082  28.104  1.00  0.00     0.049 A 
ATOM     17  N   UNL A   1      41.989  27.001  28.632  1.00  0.00    -0.248 NA
ATOM     18  C   UNL A   1      40.480  25.389  27.874  1.00  0.00     0.031 C 
ATOM     19  C   UNL A   1      45.373  24.188  27.871  1.00  0.00     0.029 A 
ATOM     20  N   UNL A   1      44.807  26.227  28.596  1.00  0.00    -0.354 N 
ATOM     21  C   UNL A   1      40.702  27.527  28.665  1.00  0.00     0.074 A 
ATOM     22  C   UNL A   1      39.817  26.503  28.152  1.00  0.00     0.031 C 
ATOM     23  C   UNL A   1      46.497  24.795  28.278  1.00  0.00     0.029 A 
ATOM     24  C   UNL A   1      46.170  26.136  28.746  1.00  0.00     0.049 A 
ATOM     25  H   UNL A   1      44.293  27.036  28.821  1.00  0.00     0.167 HD
ATOM     26  C   UNL A   1      40.294  28.748  29.086  1.00  0.00     0.031 A 
ATOM     27  C   UNL A   1      47.062  27.033  29.206  1.00  0.00     0.031 A 
ATOM     28  C   UNL A   1      41.170  29.765  29.609  1.00  0.00     0.049 A 
ATOM     29  C   UNL A   1      46.583  28.380  29.658  1.00  0.00     0.074 A 
ATOM     30  C   UNL A   1      40.841  31.019  30.097  1.00  0.00     0.029 A 
ATOM     31  N   UNL A   1      42.547  29.646  29.707  1.00  0.00    -0.354 N 
ATOM     32  N   UNL A   1      45.359  28.843  29.719  1.00  0.00    -0.248 NA
ATOM     33  C   UNL A   1      47.611  29.326  30.111  1.00  0.00     0.031 C 
ATOM     34  C   UNL A   1      42.025  31.676  30.449  1.00  0.00     0.029 A 
ATOM     35  C   UNL A   1      43.086  30.812  30.229  1.00  0.00     0.049 A 
ATOM     36  H   UNL A   1      43.066  28.852  29.446  1.00  0.00     0.167 HD
ATOM     37  C   UNL A   1      45.467  30.127  30.233  1.00  0.00     0.074 A 
ATOM     38  C   UNL A   1      46.873  30.361  30.487  1.00  0.00     0.031 C 
ATOM     39  C   UNL A   1      44.487  31.032  30.474  1.00  0.00     0.031 A 
BRANCH  26  40
ATOM     40  C   UNL A   1      38.828  29.069  28.974  1.00  0.00    -0.014 A 
ATOM     41  C   UNL A   1      37.953  28.886  30.055  1.00  0.00     0.009 A 
ATOM     42  C   UNL A   1      38.324  29.604  27.777  1.00  0.00     0.009 A 
ATOM     43  C   UNL A   1      36.597  29.204  29.930  1.00  0.00     0.001 A 
ATOM     44  C   UNL A   1      36.975  29.944  27.663  1.00  0.00     0.001 A 
ATOM     45  C   UNL A   1      36.111  29.736  28.736  1.00  0.00     0.000 A 
ENDBRANCH  26  40
BRANCH  27  46
ATOM     46  C   UNL A   1      48.502  26.675  29.269  1.00  0.00    -0.014 A 
ATOM     47  C   UNL A   1      49.344  26.916  28.173  1.00  0.00     0.009 A 
ATOM     48  C   UNL A   1      49.044  26.101  30.429  1.00  0.00     0.009 A 
ATOM     49  C   UNL A   1      50.695  26.571  28.231  1.00  0.00     0.001 A 
ATOM     50  C   UNL A   1      50.401  25.782  30.495  1.00  0.00     0.001 A 
ATOM     51  C   UNL A   1      51.224  26.011  29.394  1.00  0.00     0.000 A 
ENDBRANCH  27  46
BRANCH  39  52
ATOM     52  C   UNL A   1      44.906  32.343  31.073  1.00  0.00    -0.014 A 
ATOM     53  C   UNL A   1      45.298  33.422  30.266  1.00  0.00     0.009 A 
ATOM     54  C   UNL A   1      44.894  32.504  32.467  1.00  0.00     0.009 A 
ATOM     55  C   UNL A   1      45.707  34.624  30.846  1.00  0.00     0.001 A 
ATOM     56  C   UNL A   1      45.277  33.716  33.042  1.00  0.00     0.001 A 
ATOM     57  C   UNL A   1      45.694  34.772  32.233  1.00  0.00     0.000 A 
ENDBRANCH  39  52
ENDBRANCH  13  14
ENDBRANCH   6   8
ENDBRANCH   3   4
ENDBRANCH   2   3
ENDBRANCH   1   2
BRANCH   1  58
ATOM     58  C   UNL A   1      36.453  22.099  24.072  1.00  0.00     0.002 C 
BRANCH  58  59
ATOM     59  C   UNL A   1      36.568  23.503  24.682  1.00  0.00     0.021 C 
BRANCH  59  60
ATOM     60  C   UNL A   1      35.302  24.073  25.315  1.00  0.00     0.116 C 
BRANCH  60  61
ATOM     61  N   UNL A   1      34.985  23.479  26.596  1.00  0.00    -0.354 N 
ATOM     62  C   UNL A   1      33.942  22.670  26.944  1.00  0.00     0.247 C 
ATOM     63  H   UNL A   1      35.613  23.690  27.323  1.00  0.00     0.163 HD
ATOM     64  O   UNL A   1      33.961  22.243  28.105  1.00  0.00    -0.272 OA
BRANCH  62  65
ATOM     65  C   UNL A   1      32.745  22.406  25.990  1.00  0.00     0.202 C 
BRANCH  65  66
ATOM     66  C   UNL A   1      32.742  21.163  25.113  1.00  0.00    -0.016 A 
ATOM     67  C   UNL A   1      32.284  21.275  23.786  1.00  0.00     0.006 A 
ATOM     68  C   UNL A   1      33.116  19.892  25.572  1.00  0.00     0.006 A 
ATOM     69  C   UNL A   1      32.216  20.159  22.950  1.00  0.00     0.000 A 
ATOM     70  C   UNL A   1      33.051  18.775  24.734  1.00  0.00     0.000 A 
ATOM     71  C   UNL A   1      32.601  18.909  23.426  1.00  0.00     0.000 A 
ENDBRANCH  65  66
BRANCH  65  72
ATOM     72  N   UNL A   1      31.462  22.577  26.696  1.00  0.00    -0.336 N 
ATOM     73  C   UNL A   1      30.545  23.596  26.675  1.00  0.00     0.253 C 
ATOM     74  H   UNL A   1      31.221  21.826  27.287  1.00  0.00     0.165 HD
ATOM     75  O   UNL A   1      29.533  23.538  27.367  1.00  0.00    -0.269 OA
BRANCH  73  76
ATOM     76  C   UNL A   1      30.779  24.798  25.870  1.00  0.00     0.058 A 
ATOM     77  C   UNL A   1      31.338  25.956  26.404  1.00  0.00     0.018 A 
ATOM     78  C   UNL A   1      30.439  24.783  24.525  1.00  0.00     0.126 A 
ATOM     79  C   UNL A   1      31.451  27.086  25.594  1.00  0.00     0.037 A 
ATOM     80  N   UNL A   1      30.545  25.865  23.714  1.00  0.00    -0.249 NA
ATOM     81  C   UNL A   1      31.029  26.997  24.272  1.00  0.00     0.106 A 
ATOM     82  Br  UNL A   1      31.076  28.556  23.195  1.00  0.00    -0.029 Br
ENDBRANCH  73  76
ENDBRANCH  65  72
ENDBRANCH  62  65
ENDBRANCH  60  61
ENDBRANCH  59  60
ENDBRANCH  58  59
ENDBRANCH   1  58
TORSDOF 16
ENDMDL
MODEL 3
REMARK VINA RESULT:     -11.4      3.359      7.801
REMARK SMILES O=C(NCCCCCCNC(=O)[C@H](NC(=O)c1ccc(Br)nc1)c1ccccc1)c1ccc(-c2c3nc(c(-c4ccccc4)c4ccc([nH]4)c(-c4ccccc4)c4nc(c(-c5ccccc5)c5ccc2[nH]5)C=C4)C=C3)cc1
REMARK SMILES IDX 6 1 5 2 4 3 3 4 1 5 2 6 30 8 31 9 77 10 32 11 76 12 33 13
REMARK SMILES IDX 34 14 35 15 70 16 36 17 75 18 69 19 71 20 37 21 74 22 68 23
REMARK SMILES IDX 67 24 38 26 60 27 45 28 59 29 46 30 49 31 58 32 72 33 47 34
REMARK SMILES IDX 48 35 57 37 73 38 50 39 39 40 40 41 44 42 41 43 43 44 42 45
REMARK SMILES IDX 61 46 62 47 66 48 63 49 65 50 64 51 51 52 52 53 56 54 53 55
REMARK SMILES IDX 55 56 54 57 7 58 8 59 9 60 10 61 11 62 12 64 13 65 24 66
REMARK SMILES IDX 25 67 29 68 26 69 28 70 27 71 14 72 15 73 16 75 17 76 18 77
REMARK SMILES IDX 23 78 19 79 22 80 20 81 21 82
REMARK H PARENT 3 7 71 25 49 36 10 63 14 74
REMARK Flexibility Score: inf
ROOT
ATOM      1  C   UNL A   1      32.567  26.911  26.013  1.00  0.00     0.002 C 
ENDROOT
BRANCH   1   2
ATOM      2  C   UNL A   1      33.354  27.903  26.864  1.00  0.00     0.021 C 
BRANCH   2   3
ATOM      3  C   UNL A   1      33.816  29.173  26.162  1.00  0.00     0.116 C 
BRANCH   3   4
ATOM      4  N   UNL A   1      33.618  30.384  26.940  1.00  0.00    -0.352 N 
ATOM      5  O   UNL A   1      34.073  31.950  28.501  1.00  0.00    -0.269 OA
ATOM      6  C   UNL A   1      34.435  30.947  27.893  1.00  0.00     0.251 C 
ATOM      7  H   UNL A   1      32.782  30.871  26.758  1.00  0.00     0.163 HD
BRANCH   6   8
ATOM      8  C   UNL A   1      35.734  30.315  28.222  1.00  0.00     0.039 A 
ATOM      9  C   UNL A   1      35.927  29.646  29.431  1.00  0.00     0.014 A 
ATOM     10  C   UNL A   1      36.789  30.421  27.308  1.00  0.00     0.014 A 
ATOM     11  C   UNL A   1      37.206  29.241  29.801  1.00  0.00     0.010 A 
ATOM     12  C   UNL A   1      38.054  29.930  27.644  1.00  0.00     0.010 A 
ATOM     13  C   UNL A   1      38.285  29.380  28.913  1.00  0.00    -0.014 A 
BRANCH  13  14
ATOM     14  C   UNL A   1      39.636  28.921  29.333  1.00  0.00     0.031 A 
ATOM     15  C   UNL A   1      40.457  29.710  30.318  1.00  0.00     0.074 A 
ATOM     16  C   UNL A   1      40.104  27.751  28.856  1.00  0.00     0.049 A 
ATOM     17  N   UNL A   1      41.622  29.414  30.840  1.00  0.00    -0.248 NA
ATOM     18  C   UNL A   1      39.908  30.998  30.772  1.00  0.00     0.031 C 
ATOM     19  C   UNL A   1      39.408  26.895  27.891  1.00  0.00     0.029 A 
ATOM     20  N   UNL A   1      41.257  27.065  29.139  1.00  0.00    -0.354 N 
ATOM     21  C   UNL A   1      41.957  30.487  31.659  1.00  0.00     0.074 A 
ATOM     22  C   UNL A   1      40.882  31.450  31.550  1.00  0.00     0.031 C 
ATOM     23  C   UNL A   1      40.118  25.770  27.714  1.00  0.00     0.029 A 
ATOM     24  C   UNL A   1      41.341  25.851  28.502  1.00  0.00     0.049 A 
ATOM     25  H   UNL A   1      41.957  27.408  29.741  1.00  0.00     0.167 HD
ATOM     26  C   UNL A   1      43.056  30.654  32.433  1.00  0.00     0.031 A 
ATOM     27  C   UNL A   1      42.297  24.904  28.542  1.00  0.00     0.031 A 
ATOM     28  C   UNL A   1      44.122  29.692  32.555  1.00  0.00     0.049 A 
ATOM     29  C   UNL A   1      43.507  25.120  29.402  1.00  0.00     0.074 A 
ATOM     30  C   UNL A   1      45.256  29.758  33.346  1.00  0.00     0.029 A 
ATOM     31  N   UNL A   1      44.186  28.494  31.863  1.00  0.00    -0.354 N 
ATOM     32  N   UNL A   1      43.785  26.122  30.199  1.00  0.00    -0.248 NA
ATOM     33  C   UNL A   1      44.532  24.068  29.371  1.00  0.00     0.031 C 
ATOM     34  C   UNL A   1      46.030  28.618  33.098  1.00  0.00     0.029 A 
ATOM     35  C   UNL A   1      45.351  27.819  32.192  1.00  0.00     0.049 A 
ATOM     36  H   UNL A   1      43.504  28.168  31.231  1.00  0.00     0.167 HD
ATOM     37  C   UNL A   1      45.008  25.813  30.779  1.00  0.00     0.074 A 
ATOM     38  C   UNL A   1      45.406  24.522  30.257  1.00  0.00     0.031 C 
ATOM     39  C   UNL A   1      45.736  26.537  31.664  1.00  0.00     0.031 A 
BRANCH  26  40
ATOM     40  C   UNL A   1      43.180  31.945  33.197  1.00  0.00    -0.014 A 
ATOM     41  C   UNL A   1      43.816  33.066  32.643  1.00  0.00     0.009 A 
ATOM     42  C   UNL A   1      42.610  32.050  34.477  1.00  0.00     0.009 A 
ATOM     43  C   UNL A   1      43.906  34.258  33.368  1.00  0.00     0.001 A 
ATOM     44  C   UNL A   1      42.680  33.250  35.188  1.00  0.00     0.001 A 
ATOM     45  C   UNL A   1      43.336  34.349  34.637  1.00  0.00     0.000 A 
ENDBRANCH  26  40
BRANCH  27  46
ATOM     46  C   UNL A   1      42.139  23.661  27.746  1.00  0.00    -0.014 A 
ATOM     47  C   UNL A   1      42.616  23.594  26.429  1.00  0.00     0.009 A 
ATOM     48  C   UNL A   1      41.519  22.532  28.304  1.00  0.00     0.009 A 
ATOM     49  C   UNL A   1      42.458  22.426  25.680  1.00  0.00     0.001 A 
ATOM     50  C   UNL A   1      41.387  21.357  27.563  1.00  0.00     0.001 A 
ATOM     51  C   UNL A   1      41.849  21.308  26.249  1.00  0.00     0.000 A 
ENDBRANCH  27  46
BRANCH  39  52
ATOM     52  C   UNL A   1      47.019  25.925  32.147  1.00  0.00    -0.014 A 
ATOM     53  C   UNL A   1      47.067  25.163  33.324  1.00  0.00     0.009 A 
ATOM     54  C   UNL A   1      48.196  26.104  31.402  1.00  0.00     0.009 A 
ATOM     55  C   UNL A   1      48.277  24.625  33.767  1.00  0.00     0.001 A 
ATOM     56  C   UNL A   1      49.398  25.541  31.833  1.00  0.00     0.001 A 
ATOM     57  C   UNL A   1      49.440  24.812  33.020  1.00  0.00     0.000 A 
ENDBRANCH  39  52
ENDBRANCH  13  14
ENDBRANCH   6   8
ENDBRANCH   3   4
ENDBRANCH   2   3
ENDBRANCH   1   2
BRANCH   1  58
ATOM     58  C   UNL A   1      31.085  26.728  26.353  1.00  0.00     0.002 C 
BRANCH  58  59
ATOM     59  C   UNL A   1      30.431  25.390  25.981  1.00  0.00     0.021 C 
BRANCH  59  60
ATOM     60  C   UNL A   1      31.321  24.154  26.067  1.00  0.00     0.116 C 
BRANCH  60  61
ATOM     61  N   UNL A   1      31.193  23.275  24.925  1.00  0.00    -0.354 N 
ATOM     62  C   UNL A   1      32.015  23.128  23.845  1.00  0.00     0.247 C 
ATOM     63  H   UNL A   1      30.396  22.698  24.926  1.00  0.00     0.163 HD
ATOM     64  O   UNL A   1      31.696  22.238  23.047  1.00  0.00    -0.272 OA
BRANCH  62  65
ATOM     65  C   UNL A   1      33.197  24.097  23.566  1.00  0.00     0.202 C 
BRANCH  65  66
ATOM     66  C   UNL A   1      34.566  23.803  24.164  1.00  0.00    -0.016 A 
ATOM     67  C   UNL A   1      35.536  23.182  23.353  1.00  0.00     0.006 A 
ATOM     68  C   UNL A   1      34.898  24.062  25.501  1.00  0.00     0.006 A 
ATOM     69  C   UNL A   1      36.793  22.847  23.861  1.00  0.00     0.000 A 
ATOM     70  C   UNL A   1      36.157  23.730  26.009  1.00  0.00     0.000 A 
ATOM     71  C   UNL A   1      37.102  23.122  25.190  1.00  0.00     0.000 A 
ENDBRANCH  65  66
BRANCH  65  72
ATOM     72  N   UNL A   1      33.287  24.418  22.130  1.00  0.00    -0.336 N 
ATOM     73  C   UNL A   1      32.843  25.501  21.415  1.00  0.00     0.253 C 
ATOM     74  H   UNL A   1      33.749  23.736  21.590  1.00  0.00     0.165 HD
ATOM     75  O   UNL A   1      33.014  25.557  20.201  1.00  0.00    -0.269 OA
BRANCH  73  76
ATOM     76  C   UNL A   1      32.109  26.584  22.074  1.00  0.00     0.058 A 
ATOM     77  C   UNL A   1      30.765  26.472  22.418  1.00  0.00     0.018 A 
ATOM     78  C   UNL A   1      32.776  27.763  22.374  1.00  0.00     0.126 A 
ATOM     79  C   UNL A   1      30.114  27.577  22.965  1.00  0.00     0.037 A 
ATOM     80  N   UNL A   1      32.169  28.850  22.913  1.00  0.00    -0.249 NA
ATOM     81  C   UNL A   1      30.848  28.739  23.177  1.00  0.00     0.106 A 
ATOM     82  Br  UNL A   1      29.949  30.281  23.817  1.00  0.00    -0.029 Br
ENDBRANCH  73  76
ENDBRANCH  65  72
ENDBRANCH  62  65
ENDBRANCH  60  61
ENDBRANCH  59  60
ENDBRANCH  58  59
ENDBRANCH   1  58
TORSDOF 16
ENDMDL
