MODEL 1
REMARK VINA RESULT:     -10.2      0.000      0.000
REMARK SMILES C[C@@H](Cc1cccs1)N(C)c1ncc(Br)cc1C(=O)NCCCCCCNC(=O)c1ccc(-c2c3nc(c(-c4ccccc4)c4ccc([nH]4)c(-c4ccccc4)c4nc(c(-c5ccccc5)c5ccc2[nH]5)C=C4)C=C3)cc1
REMARK SMILES IDX 22 1 21 2 20 3 18 4 19 5 17 7 11 8 12 9 13 10 16 11 14 12
REMARK SMILES IDX 15 13 9 14 10 15 2 16 1 17 3 18 4 19 5 20 8 21 6 22 7 23
REMARK SMILES IDX 23 24 24 25 25 26 26 27 27 28 28 29 29 31 30 32 31 33 77 34
REMARK SMILES IDX 32 35 76 36 33 37 34 38 35 39 70 40 36 41 75 42 69 43 71 44
REMARK SMILES IDX 37 45 74 46 68 47 67 48 38 50 60 51 45 52 59 53 46 54 49 55
REMARK SMILES IDX 58 56 72 57 47 58 48 59 57 61 73 62 50 63 39 64 40 65 44 66
REMARK SMILES IDX 41 67 43 68 42 69 61 70 62 71 66 72 63 73 65 74 64 75 51 76
REMARK SMILES IDX 52 77 56 78 53 79 55 80 54 81
REMARK H PARENT 20 6 27 30 71 49 49 60
REMARK Flexibility Score: inf
ROOT
ATOM      1  C   UNL A   1      34.496  29.009  27.197  1.00  0.00     0.021 C 
ENDROOT
BRANCH   1   2
ATOM      2  C   UNL A   1      33.986  28.017  26.156  1.00  0.00     0.116 C 
BRANCH   2   3
ATOM      3  N   UNL A   1      32.938  27.124  26.617  1.00  0.00    -0.352 N 
ATOM      4  C   UNL A   1      31.790  26.668  25.998  1.00  0.00     0.255 C 
ATOM      5  O   UNL A   1      31.167  25.759  26.544  1.00  0.00    -0.269 OA
ATOM      6  H   UNL A   1      33.069  26.784  27.532  1.00  0.00     0.163 HD
BRANCH   4   7
ATOM      7  C   UNL A   1      31.333  27.220  24.699  1.00  0.00     0.083 A 
ATOM      8  C   UNL A   1      31.715  26.661  23.465  1.00  0.00     0.141 A 
ATOM      9  N   UNL A   1      31.333  27.239  22.290  1.00  0.00    -0.237 NA
ATOM     10  C   UNL A   1      30.565  28.350  22.329  1.00  0.00     0.129 A 
ATOM     11  C   UNL A   1      30.605  28.421  24.699  1.00  0.00     0.035 A 
ATOM     12  C   UNL A   1      30.187  28.973  23.499  1.00  0.00     0.037 A 
ATOM     13  Br  UNL A   1      29.134  30.535  23.473  1.00  0.00    -0.049 Br
BRANCH   8  14
ATOM     14  N   UNL A   1      32.567  25.577  23.336  1.00  0.00    -0.356 N 
ATOM     15  C   UNL A   1      33.675  25.826  22.421  1.00  0.00     0.145 C 
BRANCH  14  16
ATOM     16  C   UNL A   1      32.129  24.181  23.512  1.00  0.00     0.085 C 
ATOM     17  C   UNL A   1      30.625  24.031  23.300  1.00  0.00     0.031 C 
BRANCH  16  18
ATOM     18  C   UNL A   1      33.007  23.079  22.878  1.00  0.00     0.071 C 
BRANCH  18  19
ATOM     19  C   UNL A   1      34.046  22.372  23.707  1.00  0.00     0.007 A 
ATOM     20  C   UNL A   1      33.856  21.250  24.497  1.00  0.00     0.015 A 
ATOM     21  S   UNL A   1      35.696  22.805  23.672  1.00  0.00    -0.149 S 
ATOM     22  C   UNL A   1      35.040  20.846  25.178  1.00  0.00     0.012 A 
ATOM     23  C   UNL A   1      36.107  21.655  24.865  1.00  0.00     0.065 A 
ENDBRANCH  18  19
ENDBRANCH  16  18
ENDBRANCH  14  16
ENDBRANCH   8  14
ENDBRANCH   4   7
ENDBRANCH   2   3
ENDBRANCH   1   2
BRANCH   1  24
ATOM     24  C   UNL A   1      33.840  30.388  27.250  1.00  0.00     0.002 C 
BRANCH  24  25
ATOM     25  C   UNL A   1      32.316  30.433  27.152  1.00  0.00     0.002 C 
BRANCH  25  26
ATOM     26  C   UNL A   1      31.683  31.818  27.022  1.00  0.00     0.021 C 
BRANCH  26  27
ATOM     27  C   UNL A   1      32.646  32.979  26.802  1.00  0.00     0.116 C 
BRANCH  27  28
ATOM     28  N   UNL A   1      32.390  34.106  27.679  1.00  0.00    -0.352 N 
ATOM     29  C   UNL A   1      33.088  34.531  28.780  1.00  0.00     0.251 C 
ATOM     30  H   UNL A   1      31.598  34.644  27.450  1.00  0.00     0.163 HD
ATOM     31  O   UNL A   1      32.636  35.438  29.480  1.00  0.00    -0.269 OA
BRANCH  29  32
ATOM     32  C   UNL A   1      34.374  33.898  29.154  1.00  0.00     0.039 A 
ATOM     33  C   UNL A   1      35.521  34.235  28.430  1.00  0.00     0.014 A 
ATOM     34  C   UNL A   1      34.453  32.950  30.179  1.00  0.00     0.014 A 
ATOM     35  C   UNL A   1      36.749  33.650  28.754  1.00  0.00     0.010 A 
ATOM     36  C   UNL A   1      35.688  32.423  30.549  1.00  0.00     0.010 A 
ATOM     37  C   UNL A   1      36.846  32.750  29.828  1.00  0.00    -0.014 A 
BRANCH  37  38
ATOM     38  C   UNL A   1      38.144  32.114  30.172  1.00  0.00     0.031 A 
ATOM     39  C   UNL A   1      39.094  32.799  31.120  1.00  0.00     0.074 A 
ATOM     40  C   UNL A   1      38.486  30.936  29.615  1.00  0.00     0.049 A 
ATOM     41  N   UNL A   1      40.272  32.406  31.537  1.00  0.00    -0.248 NA
ATOM     42  C   UNL A   1      38.676  34.108  31.648  1.00  0.00     0.031 C 
ATOM     43  C   UNL A   1      37.676  30.186  28.653  1.00  0.00     0.029 A 
ATOM     44  N   UNL A   1      39.606  30.162  29.783  1.00  0.00    -0.354 N 
ATOM     45  C   UNL A   1      40.740  33.424  32.360  1.00  0.00     0.074 A 
ATOM     46  C   UNL A   1      39.745  34.473  32.341  1.00  0.00     0.031 C 
ATOM     47  C   UNL A   1      38.313  29.046  28.340  1.00  0.00     0.029 A 
ATOM     48  C   UNL A   1      39.584  28.997  29.056  1.00  0.00     0.049 A 
ATOM     49  H   UNL A   1      40.356  30.418  30.368  1.00  0.00     0.167 HD
ATOM     50  C   UNL A   1      41.883  33.475  33.085  1.00  0.00     0.031 A 
ATOM     51  C   UNL A   1      40.484  27.997  28.980  1.00  0.00     0.031 A 
ATOM     52  C   UNL A   1      42.868  32.427  33.120  1.00  0.00     0.049 A 
ATOM     53  C   UNL A   1      41.737  28.069  29.806  1.00  0.00     0.074 A 
ATOM     54  C   UNL A   1      44.036  32.364  33.861  1.00  0.00     0.029 A 
ATOM     55  N   UNL A   1      42.796  31.255  32.384  1.00  0.00    -0.354 N 
ATOM     56  N   UNL A   1      42.134  29.011  30.627  1.00  0.00    -0.248 NA
ATOM     57  C   UNL A   1      42.657  26.926  29.710  1.00  0.00     0.031 C 
ATOM     58  C   UNL A   1      44.691  31.169  33.543  1.00  0.00     0.029 A 
ATOM     59  C   UNL A   1      43.905  30.467  32.645  1.00  0.00     0.049 A 
ATOM     60  H   UNL A   1      42.066  31.018  31.769  1.00  0.00     0.167 HD
ATOM     61  C   UNL A   1      43.330  28.560  31.170  1.00  0.00     0.074 A 
ATOM     62  C   UNL A   1      43.586  27.255  30.596  1.00  0.00     0.031 C 
ATOM     63  C   UNL A   1      44.143  29.169  32.068  1.00  0.00     0.031 A 
BRANCH  50  64
ATOM     64  C   UNL A   1      42.127  34.716  33.898  1.00  0.00    -0.014 A 
ATOM     65  C   UNL A   1      42.812  35.817  33.357  1.00  0.00     0.009 A 
ATOM     66  C   UNL A   1      41.648  34.795  35.215  1.00  0.00     0.009 A 
ATOM     67  C   UNL A   1      43.048  36.955  34.132  1.00  0.00     0.001 A 
ATOM     68  C   UNL A   1      41.859  35.946  35.978  1.00  0.00     0.001 A 
ATOM     69  C   UNL A   1      42.568  37.020  35.440  1.00  0.00     0.000 A 
ENDBRANCH  50  64
BRANCH  51  70
ATOM     70  C   UNL A   1      40.215  26.818  28.116  1.00  0.00    -0.014 A 
ATOM     71  C   UNL A   1      39.460  25.739  28.602  1.00  0.00     0.009 A 
ATOM     72  C   UNL A   1      40.721  26.759  26.809  1.00  0.00     0.009 A 
ATOM     73  C   UNL A   1      39.242  24.613  27.805  1.00  0.00     0.001 A 
ATOM     74  C   UNL A   1      40.478  25.644  26.006  1.00  0.00     0.001 A 
ATOM     75  C   UNL A   1      39.748  24.568  26.507  1.00  0.00     0.000 A 
ENDBRANCH  51  70
BRANCH  63  76
ATOM     76  C   UNL A   1      45.359  28.409  32.516  1.00  0.00    -0.014 A 
ATOM     77  C   UNL A   1      45.306  27.504  33.586  1.00  0.00     0.009 A 
ATOM     78  C   UNL A   1      46.575  28.588  31.835  1.00  0.00     0.009 A 
ATOM     79  C   UNL A   1      46.457  26.826  33.995  1.00  0.00     0.001 A 
ATOM     80  C   UNL A   1      47.716  27.886  32.226  1.00  0.00     0.001 A 
ATOM     81  C   UNL A   1      47.659  27.016  33.313  1.00  0.00     0.000 A 
ENDBRANCH  63  76
ENDBRANCH  37  38
ENDBRANCH  29  32
ENDBRANCH  27  28
ENDBRANCH  26  27
ENDBRANCH  25  26
ENDBRANCH  24  25
ENDBRANCH   1  24
TORSDOF 17
ENDMDL
MODEL 2
REMARK VINA RESULT:     -10.2      3.370      8.375
REMARK SMILES C[C@@H](Cc1cccs1)N(C)c1ncc(Br)cc1C(=O)NCCCCCCNC(=O)c1ccc(-c2c3nc(c(-c4ccccc4)c4ccc([nH]4)c(-c4ccccc4)c4nc(c(-c5ccccc5)c5ccc2[nH]5)C=C4)C=C3)cc1
REMARK SMILES IDX 22 1 21 2 20 3 18 4 19 5 17 7 11 8 12 9 13 10 16 11 14 12
REMARK SMILES IDX 15 13 9 14 10 15 2 16 1 17 3 18 4 19 5 20 8 21 6 22 7 23
REMARK SMILES IDX 23 24 24 25 25 26 26 27 27 28 28 29 29 31 30 32 31 33 77 34
REMARK SMILES IDX 32 35 76 36 33 37 34 38 35 39 70 40 36 41 75 42 69 43 71 44
REMARK SMILES IDX 37 45 74 46 68 47 67 48 38 50 60 51 45 52 59 53 46 54 49 55
REMARK SMILES IDX 58 56 72 57 47 58 48 59 57 61 73 62 50 63 39 64 40 65 44 66
REMARK SMILES IDX 41 67 43 68 42 69 61 70 62 71 66 72 63 73 65 74 64 75 51 76
REMARK SMILES IDX 52 77 56 78 53 79 55 80 54 81
REMARK H PARENT 20 6 27 30 71 49 49 60
REMARK Flexibility Score: inf
ROOT
ATOM      1  C   UNL A   1      35.940  23.070  24.078  1.00  0.00     0.021 C 
ENDROOT
BRANCH   1   2
ATOM      2  C   UNL A   1      35.806  24.012  25.271  1.00  0.00     0.116 C 
BRANCH   2   3
ATOM      3  N   UNL A   1      34.650  23.774  26.118  1.00  0.00    -0.352 N 
ATOM      4  C   UNL A   1      33.429  24.413  26.196  1.00  0.00     0.255 C 
ATOM      5  O   UNL A   1      32.547  23.885  26.871  1.00  0.00    -0.269 OA
ATOM      6  H   UNL A   1      34.757  23.023  26.747  1.00  0.00     0.163 HD
BRANCH   4   7
ATOM      7  C   UNL A   1      33.162  25.676  25.464  1.00  0.00     0.083 A 
ATOM      8  C   UNL A   1      32.860  25.702  24.089  1.00  0.00     0.141 A 
ATOM      9  N   UNL A   1      32.692  26.888  23.435  1.00  0.00    -0.237 NA
ATOM     10  C   UNL A   1      32.801  28.040  24.134  1.00  0.00     0.129 A 
ATOM     11  C   UNL A   1      33.349  26.894  26.138  1.00  0.00     0.035 A 
ATOM     12  C   UNL A   1      33.132  28.090  25.472  1.00  0.00     0.037 A 
ATOM     13  Br  UNL A   1      33.290  29.736  26.373  1.00  0.00    -0.049 Br
BRANCH   8  14
ATOM     14  N   UNL A   1      32.814  24.577  23.284  1.00  0.00    -0.356 N 
ATOM     15  C   UNL A   1      33.278  24.826  21.924  1.00  0.00     0.145 C 
BRANCH  14  16
ATOM     16  C   UNL A   1      31.849  23.481  23.486  1.00  0.00     0.085 C 
ATOM     17  C   UNL A   1      30.408  23.963  23.338  1.00  0.00     0.031 C 
BRANCH  16  18
ATOM     18  C   UNL A   1      32.171  22.124  22.820  1.00  0.00     0.071 C 
BRANCH  18  19
ATOM     19  C   UNL A   1      32.469  20.918  23.670  1.00  0.00     0.007 A 
ATOM     20  C   UNL A   1      32.763  20.908  25.023  1.00  0.00     0.015 A 
ATOM     21  S   UNL A   1      32.346  19.324  23.074  1.00  0.00    -0.149 S 
ATOM     22  C   UNL A   1      33.027  19.600  25.522  1.00  0.00     0.012 A 
ATOM     23  C   UNL A   1      32.896  18.647  24.540  1.00  0.00     0.065 A 
ENDBRANCH  18  19
ENDBRANCH  16  18
ENDBRANCH  14  16
ENDBRANCH   8  14
ENDBRANCH   4   7
ENDBRANCH   2   3
ENDBRANCH   1   2
BRANCH   1  24
ATOM     24  C   UNL A   1      37.016  21.987  24.142  1.00  0.00     0.002 C 
BRANCH  24  25
ATOM     25  C   UNL A   1      36.583  20.610  24.640  1.00  0.00     0.002 C 
BRANCH  25  26
ATOM     26  C   UNL A   1      37.702  19.629  24.991  1.00  0.00     0.021 C 
BRANCH  26  27
ATOM     27  C   UNL A   1      38.885  20.207  25.759  1.00  0.00     0.116 C 
BRANCH  27  28
ATOM     28  N   UNL A   1      40.019  19.304  25.823  1.00  0.00    -0.352 N 
ATOM     29  C   UNL A   1      41.330  19.569  26.126  1.00  0.00     0.251 C 
ATOM     30  H   UNL A   1      39.817  18.362  25.620  1.00  0.00     0.163 HD
ATOM     31  O   UNL A   1      42.179  18.686  25.997  1.00  0.00    -0.269 OA
BRANCH  29  32
ATOM     32  C   UNL A   1      41.745  20.914  26.585  1.00  0.00     0.039 A 
ATOM     33  C   UNL A   1      41.691  21.200  27.953  1.00  0.00     0.014 A 
ATOM     34  C   UNL A   1      42.146  21.905  25.684  1.00  0.00     0.014 A 
ATOM     35  C   UNL A   1      42.070  22.463  28.418  1.00  0.00     0.010 A 
ATOM     36  C   UNL A   1      42.594  23.138  26.155  1.00  0.00     0.010 A 
ATOM     37  C   UNL A   1      42.541  23.438  27.524  1.00  0.00    -0.014 A 
BRANCH  37  38
ATOM     38  C   UNL A   1      42.934  24.787  28.008  1.00  0.00     0.031 A 
ATOM     39  C   UNL A   1      41.882  25.835  28.263  1.00  0.00     0.074 A 
ATOM     40  C   UNL A   1      44.235  25.083  28.192  1.00  0.00     0.049 A 
ATOM     41  N   UNL A   1      42.028  27.067  28.681  1.00  0.00    -0.248 NA
ATOM     42  C   UNL A   1      40.487  25.455  27.990  1.00  0.00     0.031 C 
ATOM     43  C   UNL A   1      45.356  24.174  27.946  1.00  0.00     0.029 A 
ATOM     44  N   UNL A   1      44.833  26.237  28.634  1.00  0.00    -0.354 N 
ATOM     45  C   UNL A   1      40.750  27.613  28.703  1.00  0.00     0.074 A 
ATOM     46  C   UNL A   1      39.849  26.596  28.207  1.00  0.00     0.031 C 
ATOM     47  C   UNL A   1      46.502  24.795  28.269  1.00  0.00     0.029 A 
ATOM     48  C   UNL A   1      46.201  26.150  28.720  1.00  0.00     0.049 A 
ATOM     49  H   UNL A   1      44.328  27.050  28.868  1.00  0.00     0.167 HD
ATOM     50  C   UNL A   1      40.355  28.840  29.119  1.00  0.00     0.031 A 
ATOM     51  C   UNL A   1      47.110  27.058  29.121  1.00  0.00     0.031 A 
ATOM     52  C   UNL A   1      41.245  29.848  29.629  1.00  0.00     0.049 A 
ATOM     53  C   UNL A   1      46.646  28.407  29.593  1.00  0.00     0.074 A 
ATOM     54  C   UNL A   1      40.935  31.105  30.120  1.00  0.00     0.029 A 
ATOM     55  N   UNL A   1      42.621  29.712  29.717  1.00  0.00    -0.354 N 
ATOM     56  N   UNL A   1      45.427  28.884  29.667  1.00  0.00    -0.248 NA
ATOM     57  C   UNL A   1      47.686  29.337  30.059  1.00  0.00     0.031 C 
ATOM     58  C   UNL A   1      42.130  31.745  30.469  1.00  0.00     0.029 A 
ATOM     59  C   UNL A   1      43.177  30.866  30.243  1.00  0.00     0.049 A 
ATOM     60  H   UNL A   1      43.128  28.913  29.445  1.00  0.00     0.167 HD
ATOM     61  C   UNL A   1      45.550  30.153  30.218  1.00  0.00     0.074 A 
ATOM     62  C   UNL A   1      46.960  30.366  30.472  1.00  0.00     0.031 C 
ATOM     63  C   UNL A   1      44.581  31.060  30.494  1.00  0.00     0.031 A 
BRANCH  50  64
ATOM     64  C   UNL A   1      38.887  29.156  29.033  1.00  0.00    -0.014 A 
ATOM     65  C   UNL A   1      38.042  28.991  30.143  1.00  0.00     0.009 A 
ATOM     66  C   UNL A   1      38.345  29.645  27.835  1.00  0.00     0.009 A 
ATOM     67  C   UNL A   1      36.677  29.271  30.042  1.00  0.00     0.001 A 
ATOM     68  C   UNL A   1      36.986  29.953  27.745  1.00  0.00     0.001 A 
ATOM     69  C   UNL A   1      36.151  29.755  28.844  1.00  0.00     0.000 A 
ENDBRANCH  50  64
BRANCH  51  70
ATOM     70  C   UNL A   1      48.555  26.709  29.134  1.00  0.00    -0.014 A 
ATOM     71  C   UNL A   1      49.367  27.007  28.028  1.00  0.00     0.009 A 
ATOM     72  C   UNL A   1      49.127  26.067  30.243  1.00  0.00     0.009 A 
ATOM     73  C   UNL A   1      50.715  26.642  28.021  1.00  0.00     0.001 A 
ATOM     74  C   UNL A   1      50.481  25.728  30.244  1.00  0.00     0.001 A 
ATOM     75  C   UNL A   1      51.271  26.007  29.130  1.00  0.00     0.000 A 
ENDBRANCH  51  70
BRANCH  63  76
ATOM     76  C   UNL A   1      45.012  32.346  31.143  1.00  0.00    -0.014 A 
ATOM     77  C   UNL A   1      45.358  33.472  30.381  1.00  0.00     0.009 A 
ATOM     78  C   UNL A   1      45.048  32.433  32.544  1.00  0.00     0.009 A 
ATOM     79  C   UNL A   1      45.774  34.648  31.010  1.00  0.00     0.001 A 
ATOM     80  C   UNL A   1      45.436  33.619  33.170  1.00  0.00     0.001 A 
ATOM     81  C   UNL A   1      45.810  34.720  32.403  1.00  0.00     0.000 A 
ENDBRANCH  63  76
ENDBRANCH  37  38
ENDBRANCH  29  32
ENDBRANCH  27  28
ENDBRANCH  26  27
ENDBRANCH  25  26
ENDBRANCH  24  25
ENDBRANCH   1  24
TORSDOF 17
ENDMDL
MODEL 3
REMARK VINA RESULT:     -10.1      3.279      8.334
REMARK SMILES C[C@@H](Cc1cccs1)N(C)c1ncc(Br)cc1C(=O)NCCCCCCNC(=O)c1ccc(-c2c3nc(c(-c4ccccc4)c4ccc([nH]4)c(-c4ccccc4)c4nc(c(-c5ccccc5)c5ccc2[nH]5)C=C4)C=C3)cc1
REMARK SMILES IDX 22 1 21 2 20 3 18 4 19 5 17 7 11 8 12 9 13 10 16 11 14 12
REMARK SMILES IDX 15 13 9 14 10 15 2 16 1 17 3 18 4 19 5 20 8 21 6 22 7 23
REMARK SMILES IDX 23 24 24 25 25 26 26 27 27 28 28 29 29 31 30 32 31 33 77 34
REMARK SMILES IDX 32 35 76 36 33 37 34 38 35 39 70 40 36 41 75 42 69 43 71 44
REMARK SMILES IDX 37 45 74 46 68 47 67 48 38 50 60 51 45 52 59 53 46 54 49 55
REMARK SMILES IDX 58 56 72 57 47 58 48 59 57 61 73 62 50 63 39 64 40 65 44 66
REMARK SMILES IDX 41 67 43 68 42 69 61 70 62 71 66 72 63 73 65 74 64 75 51 76
REMARK SMILES IDX 52 77 56 78 53 79 55 80 54 81
REMARK H PARENT 20 6 27 30 71 49 49 60
REMARK Flexibility Score: inf
ROOT
ATOM      1  C   UNL A   1      36.671  22.754  24.842  1.00  0.00     0.021 C 
ENDROOT
BRANCH   1   2
ATOM      2  C   UNL A   1      35.903  24.013  25.234  1.00  0.00     0.116 C 
BRANCH   2   3
ATOM      3  N   UNL A   1      34.752  23.791  26.091  1.00  0.00    -0.352 N 
ATOM      4  C   UNL A   1      33.526  24.423  26.153  1.00  0.00     0.255 C 
ATOM      5  O   UNL A   1      32.650  23.909  26.846  1.00  0.00    -0.269 OA
ATOM      6  H   UNL A   1      34.866  23.060  26.741  1.00  0.00     0.163 HD
BRANCH   4   7
ATOM      7  C   UNL A   1      33.248  25.662  25.385  1.00  0.00     0.083 A 
ATOM      8  C   UNL A   1      32.951  25.646  24.009  1.00  0.00     0.141 A 
ATOM      9  N   UNL A   1      32.772  26.811  23.321  1.00  0.00    -0.237 NA
ATOM     10  C   UNL A   1      32.865  27.983  23.988  1.00  0.00     0.129 A 
ATOM     11  C   UNL A   1      33.419  26.900  26.025  1.00  0.00     0.035 A 
ATOM     12  C   UNL A   1      33.190  28.074  25.325  1.00  0.00     0.037 A 
ATOM     13  Br  UNL A   1      33.327  29.747  26.180  1.00  0.00    -0.049 Br
BRANCH   8  14
ATOM     14  N   UNL A   1      32.920  24.498  23.236  1.00  0.00    -0.356 N 
ATOM     15  C   UNL A   1      33.341  24.724  21.858  1.00  0.00     0.145 C 
BRANCH  14  16
ATOM     16  C   UNL A   1      31.996  23.378  23.492  1.00  0.00     0.085 C 
ATOM     17  C   UNL A   1      30.537  23.814  23.383  1.00  0.00     0.031 C 
BRANCH  16  18
ATOM     18  C   UNL A   1      32.338  22.018  22.843  1.00  0.00     0.071 C 
BRANCH  18  19
ATOM     19  C   UNL A   1      32.516  20.795  23.704  1.00  0.00     0.007 A 
ATOM     20  C   UNL A   1      32.740  20.767  25.070  1.00  0.00     0.015 A 
ATOM     21  S   UNL A   1      32.324  19.212  23.097  1.00  0.00    -0.149 S 
ATOM     22  C   UNL A   1      32.896  19.445  25.578  1.00  0.00     0.012 A 
ATOM     23  C   UNL A   1      32.756  18.502  24.587  1.00  0.00     0.065 A 
ENDBRANCH  18  19
ENDBRANCH  16  18
ENDBRANCH  14  16
ENDBRANCH   8  14
ENDBRANCH   4   7
ENDBRANCH   2   3
ENDBRANCH   1   2
BRANCH   1  24
ATOM     24  C   UNL A   1      36.389  21.472  25.625  1.00  0.00     0.002 C 
BRANCH  24  25
ATOM     25  C   UNL A   1      36.495  20.156  24.859  1.00  0.00     0.002 C 
BRANCH  25  26
ATOM     26  C   UNL A   1      37.895  19.559  24.721  1.00  0.00     0.021 C 
BRANCH  26  27
ATOM     27  C   UNL A   1      38.888  19.914  25.822  1.00  0.00     0.116 C 
BRANCH  27  28
ATOM     28  N   UNL A   1      40.117  19.146  25.750  1.00  0.00    -0.352 N 
ATOM     29  C   UNL A   1      41.404  19.533  26.020  1.00  0.00     0.251 C 
ATOM     30  H   UNL A   1      40.010  18.209  25.466  1.00  0.00     0.163 HD
ATOM     31  O   UNL A   1      42.338  18.769  25.771  1.00  0.00    -0.269 OA
BRANCH  29  32
ATOM     32  C   UNL A   1      41.692  20.870  26.587  1.00  0.00     0.039 A 
ATOM     33  C   UNL A   1      42.103  21.889  25.724  1.00  0.00     0.014 A 
ATOM     34  C   UNL A   1      41.600  21.118  27.960  1.00  0.00     0.014 A 
ATOM     35  C   UNL A   1      42.389  23.161  26.230  1.00  0.00     0.010 A 
ATOM     36  C   UNL A   1      41.814  22.404  28.454  1.00  0.00     0.010 A 
ATOM     37  C   UNL A   1      42.230  23.434  27.598  1.00  0.00    -0.014 A 
BRANCH  37  38
ATOM     38  C   UNL A   1      42.543  24.779  28.147  1.00  0.00     0.031 A 
ATOM     39  C   UNL A   1      43.958  25.130  28.525  1.00  0.00     0.074 A 
ATOM     40  C   UNL A   1      41.557  25.677  28.332  1.00  0.00     0.049 A 
ATOM     41  N   UNL A   1      44.428  26.247  29.023  1.00  0.00    -0.248 NA
ATOM     42  C   UNL A   1      44.974  24.081  28.343  1.00  0.00     0.031 C 
ATOM     43  C   UNL A   1      40.139  25.452  28.044  1.00  0.00     0.029 A 
ATOM     44  N   UNL A   1      41.600  26.964  28.807  1.00  0.00    -0.354 N 
ATOM     45  C   UNL A   1      45.785  26.028  29.229  1.00  0.00     0.074 A 
ATOM     46  C   UNL A   1      46.053  24.658  28.852  1.00  0.00     0.031 C 
ATOM     47  C   UNL A   1      39.453  26.573  28.319  1.00  0.00     0.029 A 
ATOM     48  C   UNL A   1      40.375  27.585  28.826  1.00  0.00     0.049 A 
ATOM     49  H   UNL A   1      42.430  27.400  29.105  1.00  0.00     0.167 HD
ATOM     50  C   UNL A   1      46.729  26.893  29.669  1.00  0.00     0.031 A 
ATOM     51  C   UNL A   1      40.033  28.831  29.204  1.00  0.00     0.031 A 
ATOM     52  C   UNL A   1      46.470  28.262  30.029  1.00  0.00     0.049 A 
ATOM     53  C   UNL A   1      41.101  29.778  29.674  1.00  0.00     0.074 A 
ATOM     54  C   UNL A   1      47.369  29.231  30.440  1.00  0.00     0.029 A 
ATOM     55  N   UNL A   1      45.219  28.856  30.015  1.00  0.00    -0.354 N 
ATOM     56  N   UNL A   1      42.390  29.573  29.803  1.00  0.00    -0.248 NA
ATOM     57  C   UNL A   1      40.668  31.137  30.031  1.00  0.00     0.031 C 
ATOM     58  C   UNL A   1      46.654  30.403  30.714  1.00  0.00     0.029 A 
ATOM     59  C   UNL A   1      45.319  30.176  30.422  1.00  0.00     0.049 A 
ATOM     60  H   UNL A   1      44.383  28.407  29.754  1.00  0.00     0.167 HD
ATOM     61  C   UNL A   1      42.925  30.785  30.222  1.00  0.00     0.074 A 
ATOM     62  C   UNL A   1      41.824  31.722  30.311  1.00  0.00     0.031 C 
ATOM     63  C   UNL A   1      44.214  31.096  30.502  1.00  0.00     0.031 A 
BRANCH  50  64
ATOM     64  C   UNL A   1      48.135  26.374  29.789  1.00  0.00    -0.014 A 
ATOM     65  C   UNL A   1      49.034  26.455  28.713  1.00  0.00     0.009 A 
ATOM     66  C   UNL A   1      48.576  25.817  31.000  1.00  0.00     0.009 A 
ATOM     67  C   UNL A   1      50.331  25.950  28.833  1.00  0.00     0.001 A 
ATOM     68  C   UNL A   1      49.882  25.342  31.128  1.00  0.00     0.001 A 
ATOM     69  C   UNL A   1      50.755  25.398  30.042  1.00  0.00     0.000 A 
ENDBRANCH  50  64
BRANCH  51  70
ATOM     70  C   UNL A   1      38.617  29.274  29.116  1.00  0.00    -0.014 A 
ATOM     71  C   UNL A   1      37.764  29.148  30.224  1.00  0.00     0.009 A 
ATOM     72  C   UNL A   1      38.108  29.811  27.924  1.00  0.00     0.009 A 
ATOM     73  C   UNL A   1      36.422  29.524  30.130  1.00  0.00     0.001 A 
ATOM     74  C   UNL A   1      36.773  30.211  27.842  1.00  0.00     0.001 A 
ATOM     75  C   UNL A   1      35.929  30.059  28.941  1.00  0.00     0.000 A 
ENDBRANCH  51  70
BRANCH  63  76
ATOM     76  C   UNL A   1      44.506  32.519  30.889  1.00  0.00    -0.014 A 
ATOM     77  C   UNL A   1      44.648  33.527  29.924  1.00  0.00     0.009 A 
ATOM     78  C   UNL A   1      44.618  32.856  32.247  1.00  0.00     0.009 A 
ATOM     79  C   UNL A   1      44.939  34.837  30.309  1.00  0.00     0.001 A 
ATOM     80  C   UNL A   1      44.879  34.172  32.632  1.00  0.00     0.001 A 
ATOM     81  C   UNL A   1      45.052  35.159  31.662  1.00  0.00     0.000 A 
ENDBRANCH  63  76
ENDBRANCH  37  38
ENDBRANCH  29  32
ENDBRANCH  27  28
ENDBRANCH  26  27
ENDBRANCH  25  26
ENDBRANCH  24  25
ENDBRANCH   1  24
TORSDOF 17
ENDMDL
