MODEL 1
REMARK VINA RESULT:     -12.0      0.000      0.000
REMARK SMILES O=C(NCCCCCCNC(=O)c1ccc(-c2c3nc(c(-c4ccccc4)c4ccc([nH]4)c(-c4ccccc4)c4nc(c(-c5ccccc5)c5ccc2[nH]5)C=C4)C=C3)cc1)C1=Cc2cc(Cl)cc(-c3ccccc3)c2O[C@@H]1C(F)(F)F
REMARK SMILES IDX 7 1 6 2 5 3 4 4 3 5 1 6 2 7 61 9 62 10 77 11 63 12 76 13
REMARK SMILES IDX 64 14 75 15 65 16 68 17 66 18 67 19 78 20 79 21 80 22 81 23
REMARK SMILES IDX 69 24 70 25 74 26 71 27 73 28 72 29 8 30 9 31 10 32 11 33
REMARK SMILES IDX 12 35 13 36 14 37 60 38 15 39 59 40 16 41 17 42 18 43 53 44
REMARK SMILES IDX 19 45 58 46 52 47 54 48 20 49 57 50 51 51 50 52 21 54 43 55
REMARK SMILES IDX 28 56 42 57 29 58 32 59 41 60 55 61 30 62 31 63 40 65 56 66
REMARK SMILES IDX 33 67 22 68 23 69 27 70 24 71 26 72 25 73 44 74 45 75 49 76
REMARK SMILES IDX 46 77 48 78 47 79 34 80 35 81 39 82 36 83 38 84 37 85
REMARK H PARENT 3 8 10 34 54 53 32 64
REMARK Flexibility Score: inf
ROOT
ATOM      1  C   UNL A   1      33.038  29.291  24.707  1.00  0.00     0.002 C 
ENDROOT
BRANCH   1   2
ATOM      2  C   UNL A   1      31.623  28.722  24.547  1.00  0.00     0.002 C 
BRANCH   2   3
ATOM      3  C   UNL A   1      30.986  28.829  23.160  1.00  0.00     0.021 C 
BRANCH   3   4
ATOM      4  C   UNL A   1      30.665  27.518  22.446  1.00  0.00     0.116 C 
BRANCH   4   5
ATOM      5  N   UNL A   1      31.817  26.768  21.977  1.00  0.00    -0.352 N 
ATOM      6  O   UNL A   1      33.243  25.045  21.786  1.00  0.00    -0.270 OA
ATOM      7  C   UNL A   1      32.331  25.579  22.418  1.00  0.00     0.251 C 
ATOM      8  H   UNL A   1      32.304  27.177  21.225  1.00  0.00     0.163 HD
BRANCH   7   9
ATOM      9  C   UNL A   1      31.773  24.846  23.596  1.00  0.00     0.067 C 
ATOM     10  C   UNL A   1      31.223  23.626  23.482  1.00  0.00     0.025 C 
ATOM     11  C   UNL A   1      32.502  25.178  24.878  1.00  0.00     0.314 C 
ATOM     12  C   UNL A   1      32.083  22.562  24.059  1.00  0.00     0.019 A 
ATOM     13  O   UNL A   1      33.534  24.192  25.148  1.00  0.00    -0.475 OA
ATOM     14  C   UNL A   1      31.846  21.247  23.647  1.00  0.00     0.032 A 
ATOM     15  C   UNL A   1      33.276  22.904  24.733  1.00  0.00     0.135 A 
ATOM     16  C   UNL A   1      32.834  20.290  23.833  1.00  0.00     0.042 A 
ATOM     17  C   UNL A   1      34.303  21.950  24.866  1.00  0.00     0.026 A 
ATOM     18  Cl  UNL A   1      32.619  18.710  23.188  1.00  0.00    -0.084 Cl
ATOM     19  C   UNL A   1      34.049  20.636  24.421  1.00  0.00     0.033 A 
BRANCH  11  20
ATOM     20  C   UNL A   1      31.531  25.358  26.060  1.00  0.00     0.429 C 
ATOM     21  F   UNL A   1      31.981  26.285  26.939  1.00  0.00    -0.167 F 
ATOM     22  F   UNL A   1      30.311  25.776  25.640  1.00  0.00    -0.167 F 
ATOM     23  F   UNL A   1      31.335  24.212  26.755  1.00  0.00    -0.167 F 
ENDBRANCH  11  20
BRANCH  17  24
ATOM     24  C   UNL A   1      35.685  22.308  25.242  1.00  0.00    -0.015 A 
ATOM     25  C   UNL A   1      36.704  21.354  25.064  1.00  0.00     0.009 A 
ATOM     26  C   UNL A   1      36.042  23.544  25.785  1.00  0.00     0.009 A 
ATOM     27  C   UNL A   1      38.024  21.598  25.439  1.00  0.00     0.001 A 
ATOM     28  C   UNL A   1      37.368  23.796  26.165  1.00  0.00     0.001 A 
ATOM     29  C   UNL A   1      38.354  22.822  25.999  1.00  0.00     0.000 A 
ENDBRANCH  17  24
ENDBRANCH   7   9
ENDBRANCH   4   5
ENDBRANCH   3   4
ENDBRANCH   2   3
ENDBRANCH   1   2
BRANCH   1  30
ATOM     30  C   UNL A   1      33.955  28.588  25.713  1.00  0.00     0.021 C 
BRANCH  30  31
ATOM     31  C   UNL A   1      33.582  28.730  27.181  1.00  0.00     0.116 C 
BRANCH  31  32
ATOM     32  N   UNL A   1      33.604  30.117  27.615  1.00  0.00    -0.352 N 
ATOM     33  C   UNL A   1      34.563  30.837  28.285  1.00  0.00     0.251 C 
ATOM     34  H   UNL A   1      32.793  30.627  27.389  1.00  0.00     0.163 HD
ATOM     35  O   UNL A   1      34.266  31.940  28.740  1.00  0.00    -0.269 OA
BRANCH  33  36
ATOM     36  C   UNL A   1      35.941  30.320  28.478  1.00  0.00     0.039 A 
ATOM     37  C   UNL A   1      36.287  29.784  29.726  1.00  0.00     0.014 A 
ATOM     38  C   UNL A   1      36.918  30.420  27.486  1.00  0.00     0.014 A 
ATOM     39  C   UNL A   1      37.585  29.319  29.958  1.00  0.00     0.010 A 
ATOM     40  C   UNL A   1      38.185  29.874  27.686  1.00  0.00     0.010 A 
ATOM     41  C   UNL A   1      38.541  29.337  28.932  1.00  0.00    -0.014 A 
BRANCH  41  42
ATOM     42  C   UNL A   1      39.925  28.839  29.147  1.00  0.00     0.031 A 
ATOM     43  C   UNL A   1      40.967  29.741  29.758  1.00  0.00     0.074 A 
ATOM     44  C   UNL A   1      40.265  27.599  28.741  1.00  0.00     0.049 A 
ATOM     45  N   UNL A   1      42.243  29.517  29.955  1.00  0.00    -0.248 NA
ATOM     46  C   UNL A   1      40.524  31.081  30.177  1.00  0.00     0.031 C 
ATOM     47  C   UNL A   1      39.362  26.636  28.108  1.00  0.00     0.029 A 
ATOM     48  N   UNL A   1      41.467  26.939  28.799  1.00  0.00    -0.354 N 
ATOM     49  C   UNL A   1      42.756  30.694  30.486  1.00  0.00     0.074 A 
ATOM     50  C   UNL A   1      41.666  31.644  30.543  1.00  0.00     0.031 C 
ATOM     51  C   UNL A   1      40.034  25.498  27.864  1.00  0.00     0.029 A 
ATOM     52  C   UNL A   1      41.422  25.666  28.282  1.00  0.00     0.049 A 
ATOM     53  H   UNL A   1      42.284  27.339  29.174  1.00  0.00     0.167 HD
ATOM     54  C   UNL A   1      44.016  30.959  30.906  1.00  0.00     0.031 A 
ATOM     55  C   UNL A   1      42.391  24.740  28.155  1.00  0.00     0.031 A 
ATOM     56  C   UNL A   1      45.093  30.005  30.884  1.00  0.00     0.049 A 
ATOM     57  C   UNL A   1      43.781  25.059  28.630  1.00  0.00     0.074 A 
ATOM     58  C   UNL A   1      46.385  30.154  31.357  1.00  0.00     0.029 A 
ATOM     59  N   UNL A   1      45.000  28.726  30.363  1.00  0.00    -0.354 N 
ATOM     60  N   UNL A   1      44.232  26.155  29.192  1.00  0.00    -0.248 NA
ATOM     61  C   UNL A   1      44.795  24.008  28.461  1.00  0.00     0.031 C 
ATOM     62  C   UNL A   1      47.089  28.979  31.078  1.00  0.00     0.029 A 
ATOM     63  C   UNL A   1      46.219  28.081  30.481  1.00  0.00     0.049 A 
ATOM     64  H   UNL A   1      44.188  28.333  29.969  1.00  0.00     0.167 HD
ATOM     65  C   UNL A   1      45.569  25.912  29.472  1.00  0.00     0.074 A 
ATOM     66  C   UNL A   1      45.855  24.563  29.032  1.00  0.00     0.031 C 
ATOM     67  C   UNL A   1      46.483  26.734  30.044  1.00  0.00     0.031 A 
BRANCH  54  68
ATOM     68  C   UNL A   1      44.303  32.341  31.425  1.00  0.00    -0.014 A 
ATOM     69  C   UNL A   1      44.172  32.653  32.787  1.00  0.00     0.009 A 
ATOM     70  C   UNL A   1      44.757  33.335  30.542  1.00  0.00     0.009 A 
ATOM     71  C   UNL A   1      44.457  33.940  33.250  1.00  0.00     0.001 A 
ATOM     72  C   UNL A   1      45.068  34.613  31.012  1.00  0.00     0.001 A 
ATOM     73  C   UNL A   1      44.909  34.916  32.364  1.00  0.00     0.000 A 
ENDBRANCH  54  68
BRANCH  55  74
ATOM     74  C   UNL A   1      42.083  23.409  27.567  1.00  0.00    -0.014 A 
ATOM     75  C   UNL A   1      41.496  22.406  28.354  1.00  0.00     0.009 A 
ATOM     76  C   UNL A   1      42.390  23.127  26.227  1.00  0.00     0.009 A 
ATOM     77  C   UNL A   1      41.251  21.138  27.820  1.00  0.00     0.001 A 
ATOM     78  C   UNL A   1      42.117  21.868  25.688  1.00  0.00     0.001 A 
ATOM     79  C   UNL A   1      41.559  20.872  26.487  1.00  0.00     0.000 A 
ENDBRANCH  55  74
BRANCH  67  80
ATOM     80  C   UNL A   1      47.862  26.182  30.265  1.00  0.00    -0.014 A 
ATOM     81  C   UNL A   1      48.812  26.161  29.234  1.00  0.00     0.009 A 
ATOM     82  C   UNL A   1      48.225  25.715  31.538  1.00  0.00     0.009 A 
ATOM     83  C   UNL A   1      50.092  25.650  29.466  1.00  0.00     0.001 A 
ATOM     84  C   UNL A   1      49.512  25.232  31.774  1.00  0.00     0.001 A 
ATOM     85  C   UNL A   1      50.442  25.191  30.736  1.00  0.00     0.000 A 
ENDBRANCH  67  80
ENDBRANCH  41  42
ENDBRANCH  33  36
ENDBRANCH  31  32
ENDBRANCH  30  31
ENDBRANCH   1  30
TORSDOF 15
ENDMDL
MODEL 2
REMARK VINA RESULT:     -11.6      2.786      7.865
REMARK SMILES O=C(NCCCCCCNC(=O)c1ccc(-c2c3nc(c(-c4ccccc4)c4ccc([nH]4)c(-c4ccccc4)c4nc(c(-c5ccccc5)c5ccc2[nH]5)C=C4)C=C3)cc1)C1=Cc2cc(Cl)cc(-c3ccccc3)c2O[C@@H]1C(F)(F)F
REMARK SMILES IDX 7 1 6 2 5 3 4 4 3 5 1 6 2 7 61 9 62 10 77 11 63 12 76 13
REMARK SMILES IDX 64 14 75 15 65 16 68 17 66 18 67 19 78 20 79 21 80 22 81 23
REMARK SMILES IDX 69 24 70 25 74 26 71 27 73 28 72 29 8 30 9 31 10 32 11 33
REMARK SMILES IDX 12 35 13 36 14 37 60 38 15 39 59 40 16 41 17 42 18 43 53 44
REMARK SMILES IDX 19 45 58 46 52 47 54 48 20 49 57 50 51 51 50 52 21 54 43 55
REMARK SMILES IDX 28 56 42 57 29 58 32 59 41 60 55 61 30 62 31 63 40 65 56 66
REMARK SMILES IDX 33 67 22 68 23 69 27 70 24 71 26 72 25 73 44 74 45 75 49 76
REMARK SMILES IDX 46 77 48 78 47 79 34 80 35 81 39 82 36 83 38 84 37 85
REMARK H PARENT 3 8 10 34 54 53 32 64
REMARK Flexibility Score: inf
ROOT
ATOM      1  C   UNL A   1      35.308  21.957  26.342  1.00  0.00     0.002 C 
ENDROOT
BRANCH   1   2
ATOM      2  C   UNL A   1      33.828  21.688  26.637  1.00  0.00     0.002 C 
BRANCH   2   3
ATOM      3  C   UNL A   1      33.039  20.917  25.577  1.00  0.00     0.021 C 
BRANCH   3   4
ATOM      4  C   UNL A   1      31.773  21.581  25.042  1.00  0.00     0.116 C 
BRANCH   4   5
ATOM      5  N   UNL A   1      31.222  22.633  25.879  1.00  0.00    -0.352 N 
ATOM      6  O   UNL A   1      30.385  24.646  26.411  1.00  0.00    -0.270 OA
ATOM      7  C   UNL A   1      30.991  23.951  25.595  1.00  0.00     0.251 C 
ATOM      8  H   UNL A   1      30.977  22.355  26.791  1.00  0.00     0.163 HD
BRANCH   7   9
ATOM      9  C   UNL A   1      31.366  24.574  24.288  1.00  0.00     0.067 C 
ATOM     10  C   UNL A   1      30.469  25.206  23.514  1.00  0.00     0.025 C 
ATOM     11  C   UNL A   1      32.791  25.081  24.281  1.00  0.00     0.314 C 
ATOM     12  C   UNL A   1      30.656  26.679  23.520  1.00  0.00     0.019 A 
ATOM     13  O   UNL A   1      32.829  26.495  24.610  1.00  0.00    -0.475 OA
ATOM     14  C   UNL A   1      29.573  27.467  23.116  1.00  0.00     0.032 A 
ATOM     15  C   UNL A   1      31.752  27.251  24.201  1.00  0.00     0.135 A 
ATOM     16  C   UNL A   1      29.546  28.810  23.466  1.00  0.00     0.042 A 
ATOM     17  C   UNL A   1      31.698  28.597  24.610  1.00  0.00     0.026 A 
ATOM     18  Cl  UNL A   1      28.150  29.752  23.116  1.00  0.00    -0.084 Cl
ATOM     19  C   UNL A   1      30.584  29.366  24.211  1.00  0.00     0.033 A 
BRANCH  11  20
ATOM     20  C   UNL A   1      33.507  24.761  22.956  1.00  0.00     0.429 C 
ATOM     21  F   UNL A   1      32.764  23.945  22.171  1.00  0.00    -0.167 F 
ATOM     22  F   UNL A   1      33.747  25.886  22.237  1.00  0.00    -0.167 F 
ATOM     23  F   UNL A   1      34.704  24.153  23.142  1.00  0.00    -0.167 F 
ENDBRANCH  11  20
BRANCH  17  24
ATOM     24  C   UNL A   1      32.627  29.171  25.603  1.00  0.00    -0.015 A 
ATOM     25  C   UNL A   1      32.243  30.334  26.297  1.00  0.00     0.009 A 
ATOM     26  C   UNL A   1      33.884  28.633  25.885  1.00  0.00     0.009 A 
ATOM     27  C   UNL A   1      33.083  30.963  27.214  1.00  0.00     0.001 A 
ATOM     28  C   UNL A   1      34.735  29.261  26.806  1.00  0.00     0.001 A 
ATOM     29  C   UNL A   1      34.338  30.427  27.462  1.00  0.00     0.000 A 
ENDBRANCH  17  24
ENDBRANCH   7   9
ENDBRANCH   4   5
ENDBRANCH   3   4
ENDBRANCH   2   3
ENDBRANCH   1   2
BRANCH   1  30
ATOM     30  C   UNL A   1      35.707  23.413  26.079  1.00  0.00     0.021 C 
BRANCH  30  31
ATOM     31  C   UNL A   1      36.930  23.630  25.200  1.00  0.00     0.116 C 
BRANCH  31  32
ATOM     32  N   UNL A   1      38.007  22.713  25.532  1.00  0.00    -0.352 N 
ATOM     33  C   UNL A   1      39.216  22.925  26.147  1.00  0.00     0.251 C 
ATOM     34  H   UNL A   1      37.840  21.778  25.271  1.00  0.00     0.163 HD
ATOM     35  O   UNL A   1      40.060  22.032  26.121  1.00  0.00    -0.269 OA
BRANCH  33  36
ATOM     36  C   UNL A   1      39.532  24.201  26.837  1.00  0.00     0.039 A 
ATOM     37  C   UNL A   1      40.278  25.168  26.149  1.00  0.00     0.014 A 
ATOM     38  C   UNL A   1      39.176  24.435  28.166  1.00  0.00     0.014 A 
ATOM     39  C   UNL A   1      40.626  26.368  26.777  1.00  0.00     0.010 A 
ATOM     40  C   UNL A   1      39.443  25.667  28.762  1.00  0.00     0.010 A 
ATOM     41  C   UNL A   1      40.191  26.640  28.082  1.00  0.00    -0.014 A 
BRANCH  41  42
ATOM     42  C   UNL A   1      40.536  27.912  28.770  1.00  0.00     0.031 A 
ATOM     43  C   UNL A   1      41.901  28.093  29.385  1.00  0.00     0.074 A 
ATOM     44  C   UNL A   1      39.608  28.882  28.896  1.00  0.00     0.049 A 
ATOM     45  N   UNL A   1      42.364  29.095  30.090  1.00  0.00    -0.248 NA
ATOM     46  C   UNL A   1      42.862  26.992  29.208  1.00  0.00     0.031 C 
ATOM     47  C   UNL A   1      38.241  28.822  28.375  1.00  0.00     0.029 A 
ATOM     48  N   UNL A   1      39.678  30.109  29.507  1.00  0.00    -0.354 N 
ATOM     49  C   UNL A   1      43.651  28.730  30.466  1.00  0.00     0.074 A 
ATOM     50  C   UNL A   1      43.882  27.399  29.948  1.00  0.00     0.031 C 
ATOM     51  C   UNL A   1      37.611  29.973  28.663  1.00  0.00     0.029 A 
ATOM     52  C   UNL A   1      38.512  30.832  29.424  1.00  0.00     0.049 A 
ATOM     53  H   UNL A   1      40.485  30.440  29.963  1.00  0.00     0.167 HD
ATOM     54  C   UNL A   1      44.567  29.442  31.165  1.00  0.00     0.031 A 
ATOM     55  C   UNL A   1      38.202  32.050  29.909  1.00  0.00     0.031 A 
ATOM     56  C   UNL A   1      44.352  30.778  31.651  1.00  0.00     0.049 A 
ATOM     57  C   UNL A   1      39.238  32.820  30.681  1.00  0.00     0.074 A 
ATOM     58  C   UNL A   1      45.245  31.611  32.303  1.00  0.00     0.029 A 
ATOM     59  N   UNL A   1      43.163  31.477  31.534  1.00  0.00    -0.354 N 
ATOM     60  N   UNL A   1      40.473  32.485  30.968  1.00  0.00    -0.248 NA
ATOM     61  C   UNL A   1      38.838  34.141  31.187  1.00  0.00     0.031 C 
ATOM     62  C   UNL A   1      44.578  32.798  32.624  1.00  0.00     0.029 A 
ATOM     63  C   UNL A   1      43.289  32.723  32.123  1.00  0.00     0.049 A 
ATOM     64  H   UNL A   1      42.348  31.138  31.096  1.00  0.00     0.167 HD
ATOM     65  C   UNL A   1      41.005  33.565  31.659  1.00  0.00     0.074 A 
ATOM     66  C   UNL A   1      39.966  34.571  31.736  1.00  0.00     0.031 C 
ATOM     67  C   UNL A   1      42.246  33.714  32.184  1.00  0.00     0.031 A 
BRANCH  54  68
ATOM     68  C   UNL A   1      45.890  28.787  31.452  1.00  0.00    -0.014 A 
ATOM     69  C   UNL A   1      46.977  28.917  30.572  1.00  0.00     0.009 A 
ATOM     70  C   UNL A   1      46.066  28.066  32.644  1.00  0.00     0.009 A 
ATOM     71  C   UNL A   1      48.201  28.311  30.864  1.00  0.00     0.001 A 
ATOM     72  C   UNL A   1      47.299  27.485  32.947  1.00  0.00     0.001 A 
ATOM     73  C   UNL A   1      48.363  27.601  32.053  1.00  0.00     0.000 A 
ENDBRANCH  54  68
BRANCH  55  74
ATOM     74  C   UNL A   1      36.856  32.633  29.668  1.00  0.00    -0.014 A 
ATOM     75  C   UNL A   1      36.594  33.347  28.488  1.00  0.00     0.009 A 
ATOM     76  C   UNL A   1      35.833  32.497  30.620  1.00  0.00     0.009 A 
ATOM     77  C   UNL A   1      35.345  33.938  28.280  1.00  0.00     0.001 A 
ATOM     78  C   UNL A   1      34.577  33.065  30.395  1.00  0.00     0.001 A 
ATOM     79  C   UNL A   1      34.338  33.794  29.232  1.00  0.00     0.000 A 
ENDBRANCH  55  74
BRANCH  67  80
ATOM     80  C   UNL A   1      42.560  35.024  32.848  1.00  0.00    -0.014 A 
ATOM     81  C   UNL A   1      43.339  35.998  32.206  1.00  0.00     0.009 A 
ATOM     82  C   UNL A   1      42.030  35.301  34.117  1.00  0.00     0.009 A 
ATOM     83  C   UNL A   1      43.611  37.212  32.841  1.00  0.00     0.001 A 
ATOM     84  C   UNL A   1      42.279  36.526  34.736  1.00  0.00     0.001 A 
ATOM     85  C   UNL A   1      43.077  37.477  34.101  1.00  0.00     0.000 A 
ENDBRANCH  67  80
ENDBRANCH  41  42
ENDBRANCH  33  36
ENDBRANCH  31  32
ENDBRANCH  30  31
ENDBRANCH   1  30
TORSDOF 15
ENDMDL
MODEL 3
REMARK VINA RESULT:     -11.6      1.606      2.607
REMARK SMILES O=C(NCCCCCCNC(=O)c1ccc(-c2c3nc(c(-c4ccccc4)c4ccc([nH]4)c(-c4ccccc4)c4nc(c(-c5ccccc5)c5ccc2[nH]5)C=C4)C=C3)cc1)C1=Cc2cc(Cl)cc(-c3ccccc3)c2O[C@@H]1C(F)(F)F
REMARK SMILES IDX 7 1 6 2 5 3 4 4 3 5 1 6 2 7 61 9 62 10 77 11 63 12 76 13
REMARK SMILES IDX 64 14 75 15 65 16 68 17 66 18 67 19 78 20 79 21 80 22 81 23
REMARK SMILES IDX 69 24 70 25 74 26 71 27 73 28 72 29 8 30 9 31 10 32 11 33
REMARK SMILES IDX 12 35 13 36 14 37 60 38 15 39 59 40 16 41 17 42 18 43 53 44
REMARK SMILES IDX 19 45 58 46 52 47 54 48 20 49 57 50 51 51 50 52 21 54 43 55
REMARK SMILES IDX 28 56 42 57 29 58 32 59 41 60 55 61 30 62 31 63 40 65 56 66
REMARK SMILES IDX 33 67 22 68 23 69 27 70 24 71 26 72 25 73 44 74 45 75 49 76
REMARK SMILES IDX 46 77 48 78 47 79 34 80 35 81 39 82 36 83 38 84 37 85
REMARK H PARENT 3 8 10 34 54 53 32 64
REMARK Flexibility Score: inf
ROOT
ATOM      1  C   UNL A   1      31.473  27.964  25.744  1.00  0.00     0.002 C 
ENDROOT
BRANCH   1   2
ATOM      2  C   UNL A   1      32.015  28.924  24.680  1.00  0.00     0.002 C 
BRANCH   2   3
ATOM      3  C   UNL A   1      32.241  28.351  23.280  1.00  0.00     0.021 C 
BRANCH   3   4
ATOM      4  C   UNL A   1      33.607  27.730  23.000  1.00  0.00     0.116 C 
BRANCH   4   5
ATOM      5  N   UNL A   1      33.586  26.511  22.211  1.00  0.00    -0.352 N 
ATOM      6  O   UNL A   1      33.593  24.308  21.782  1.00  0.00    -0.270 OA
ATOM      7  C   UNL A   1      33.792  25.213  22.592  1.00  0.00     0.251 C 
ATOM      8  H   UNL A   1      33.395  26.637  21.253  1.00  0.00     0.163 HD
BRANCH   7   9
ATOM      9  C   UNL A   1      34.168  24.832  23.989  1.00  0.00     0.067 C 
ATOM     10  C   UNL A   1      33.355  25.059  25.033  1.00  0.00     0.025 C 
ATOM     11  C   UNL A   1      35.053  23.607  24.032  1.00  0.00     0.314 C 
ATOM     12  C   UNL A   1      32.747  23.810  25.558  1.00  0.00     0.019 A 
ATOM     13  O   UNL A   1      34.259  22.412  24.252  1.00  0.00    -0.475 OA
ATOM     14  C   UNL A   1      31.594  23.934  26.340  1.00  0.00     0.032 A 
ATOM     15  C   UNL A   1      33.128  22.559  25.026  1.00  0.00     0.135 A 
ATOM     16  C   UNL A   1      30.777  22.826  26.521  1.00  0.00     0.042 A 
ATOM     17  C   UNL A   1      32.270  21.451  25.157  1.00  0.00     0.026 A 
ATOM     18  Cl  UNL A   1      29.277  23.002  27.345  1.00  0.00    -0.084 Cl
ATOM     19  C   UNL A   1      31.101  21.606  25.931  1.00  0.00     0.033 A 
BRANCH  11  20
ATOM     20  C   UNL A   1      36.193  23.759  25.057  1.00  0.00     0.429 C 
ATOM     21  F   UNL A   1      36.127  24.948  25.703  1.00  0.00    -0.167 F 
ATOM     22  F   UNL A   1      36.138  22.792  26.007  1.00  0.00    -0.167 F 
ATOM     23  F   UNL A   1      37.421  23.681  24.490  1.00  0.00    -0.167 F 
ENDBRANCH  11  20
BRANCH  17  24
ATOM     24  C   UNL A   1      32.423  20.220  24.357  1.00  0.00    -0.015 A 
ATOM     25  C   UNL A   1      32.924  19.063  24.983  1.00  0.00     0.009 A 
ATOM     26  C   UNL A   1      32.113  20.139  22.998  1.00  0.00     0.009 A 
ATOM     27  C   UNL A   1      33.142  17.876  24.285  1.00  0.00     0.001 A 
ATOM     28  C   UNL A   1      32.331  18.948  22.290  1.00  0.00     0.001 A 
ATOM     29  C   UNL A   1      32.851  17.823  22.931  1.00  0.00     0.000 A 
ENDBRANCH  17  24
ENDBRANCH   7   9
ENDBRANCH   4   5
ENDBRANCH   3   4
ENDBRANCH   2   3
ENDBRANCH   1   2
BRANCH   1  30
ATOM     30  C   UNL A   1      32.123  28.031  27.130  1.00  0.00     0.021 C 
BRANCH  30  31
ATOM     31  C   UNL A   1      33.534  28.597  27.188  1.00  0.00     0.116 C 
BRANCH  31  32
ATOM     32  N   UNL A   1      33.545  29.984  27.622  1.00  0.00    -0.352 N 
ATOM     33  C   UNL A   1      34.500  30.715  28.285  1.00  0.00     0.251 C 
ATOM     34  H   UNL A   1      32.727  30.486  27.401  1.00  0.00     0.163 HD
ATOM     35  O   UNL A   1      34.195  31.814  28.742  1.00  0.00    -0.269 OA
BRANCH  33  36
ATOM     36  C   UNL A   1      35.885  30.212  28.470  1.00  0.00     0.039 A 
ATOM     37  C   UNL A   1      36.256  29.716  29.726  1.00  0.00     0.014 A 
ATOM     38  C   UNL A   1      36.843  30.288  27.458  1.00  0.00     0.014 A 
ATOM     39  C   UNL A   1      37.562  29.266  29.950  1.00  0.00     0.010 A 
ATOM     40  C   UNL A   1      38.118  29.756  27.652  1.00  0.00     0.010 A 
ATOM     41  C   UNL A   1      38.499  29.259  28.907  1.00  0.00    -0.014 A 
BRANCH  41  42
ATOM     42  C   UNL A   1      39.890  28.776  29.112  1.00  0.00     0.031 A 
ATOM     43  C   UNL A   1      40.931  29.695  29.701  1.00  0.00     0.074 A 
ATOM     44  C   UNL A   1      40.237  27.535  28.717  1.00  0.00     0.049 A 
ATOM     45  N   UNL A   1      42.210  29.485  29.887  1.00  0.00    -0.248 NA
ATOM     46  C   UNL A   1      40.480  31.036  30.110  1.00  0.00     0.031 C 
ATOM     47  C   UNL A   1      39.336  26.556  28.105  1.00  0.00     0.029 A 
ATOM     48  N   UNL A   1      41.446  26.887  28.769  1.00  0.00    -0.354 N 
ATOM     49  C   UNL A   1      42.718  30.673  30.399  1.00  0.00     0.074 A 
ATOM     50  C   UNL A   1      41.620  31.613  30.456  1.00  0.00     0.031 C 
ATOM     51  C   UNL A   1      40.016  25.422  27.866  1.00  0.00     0.029 A 
ATOM     52  C   UNL A   1      41.407  25.608  28.267  1.00  0.00     0.049 A 
ATOM     53  H   UNL A   1      42.263  27.298  29.131  1.00  0.00     0.167 HD
ATOM     54  C   UNL A   1      43.980  30.954  30.802  1.00  0.00     0.031 A 
ATOM     55  C   UNL A   1      42.383  24.689  28.140  1.00  0.00     0.031 A 
ATOM     56  C   UNL A   1      45.065  30.010  30.778  1.00  0.00     0.049 A 
ATOM     57  C   UNL A   1      43.775  25.026  28.596  1.00  0.00     0.074 A 
ATOM     58  C   UNL A   1      46.361  30.177  31.236  1.00  0.00     0.029 A 
ATOM     59  N   UNL A   1      44.979  28.724  30.274  1.00  0.00    -0.354 N 
ATOM     60  N   UNL A   1      44.222  26.133  29.140  1.00  0.00    -0.248 NA
ATOM     61  C   UNL A   1      44.797  23.983  28.428  1.00  0.00     0.031 C 
ATOM     62  C   UNL A   1      47.073  29.005  30.962  1.00  0.00     0.029 A 
ATOM     63  C   UNL A   1      46.205  28.092  30.385  1.00  0.00     0.049 A 
ATOM     64  H   UNL A   1      44.166  28.319  29.892  1.00  0.00     0.167 HD
ATOM     65  C   UNL A   1      45.565  25.906  29.408  1.00  0.00     0.074 A 
ATOM     66  C   UNL A   1      45.858  24.554  28.981  1.00  0.00     0.031 C 
ATOM     67  C   UNL A   1      46.477  26.743  29.961  1.00  0.00     0.031 A 
BRANCH  54  68
ATOM     68  C   UNL A   1      44.260  32.345  31.301  1.00  0.00    -0.014 A 
ATOM     69  C   UNL A   1      44.139  32.672  32.661  1.00  0.00     0.009 A 
ATOM     70  C   UNL A   1      44.696  33.333  30.403  1.00  0.00     0.009 A 
ATOM     71  C   UNL A   1      44.417  33.966  33.106  1.00  0.00     0.001 A 
ATOM     72  C   UNL A   1      45.001  34.618  30.854  1.00  0.00     0.001 A 
ATOM     73  C   UNL A   1      44.852  34.936  32.203  1.00  0.00     0.000 A 
ENDBRANCH  54  68
BRANCH  55  74
ATOM     74  C   UNL A   1      42.081  23.349  27.571  1.00  0.00    -0.014 A 
ATOM     75  C   UNL A   1      42.368  23.070  26.225  1.00  0.00     0.009 A 
ATOM     76  C   UNL A   1      41.491  22.349  28.359  1.00  0.00     0.009 A 
ATOM     77  C   UNL A   1      42.041  21.830  25.672  1.00  0.00     0.001 A 
ATOM     78  C   UNL A   1      41.192  21.100  27.811  1.00  0.00     0.001 A 
ATOM     79  C   UNL A   1      41.457  20.845  26.467  1.00  0.00     0.000 A 
ENDBRANCH  55  74
BRANCH  67  80
ATOM     80  C   UNL A   1      47.863  26.206  30.173  1.00  0.00    -0.014 A 
ATOM     81  C   UNL A   1      48.806  26.192  29.135  1.00  0.00     0.009 A 
ATOM     82  C   UNL A   1      48.240  25.747  31.445  1.00  0.00     0.009 A 
ATOM     83  C   UNL A   1      50.092  25.695  29.358  1.00  0.00     0.001 A 
ATOM     84  C   UNL A   1      49.535  25.278  31.672  1.00  0.00     0.001 A 
ATOM     85  C   UNL A   1      50.457  25.244  30.627  1.00  0.00     0.000 A 
ENDBRANCH  67  80
ENDBRANCH  41  42
ENDBRANCH  33  36
ENDBRANCH  31  32
ENDBRANCH  30  31
ENDBRANCH   1  30
TORSDOF 15
ENDMDL
