MODEL 1
REMARK VINA RESULT:     -11.3      0.000      0.000
REMARK SMILES Cc1ccc(-c2ncccc2C(=O)NCCCCCCNC(=O)c2ccc(-c3c4nc(c(-c5ccccc5)c5ccc([nH]5)c(-c5ccccc5)c5nc(c(-c6ccccc6)c6ccc3[nH]6)C=C5)C=C4)cc2)c(Cl)c1
REMARK SMILES IDX 18 1 17 2 16 3 15 4 14 5 12 6 13 7 11 9 6 10 7 11 8 12 10 13
REMARK SMILES IDX 9 14 5 15 1 16 2 17 3 18 74 19 4 20 72 21 73 22 19 23 20 24
REMARK SMILES IDX 21 25 22 26 23 28 24 29 25 30 71 31 26 32 70 33 27 34 28 35
REMARK SMILES IDX 29 36 64 37 30 38 69 39 63 40 65 41 31 42 68 43 62 44 61 45
REMARK SMILES IDX 32 47 54 48 39 49 53 50 40 51 43 52 52 53 66 54 41 55 42 56
REMARK SMILES IDX 51 58 67 59 44 60 33 61 34 62 38 63 35 64 37 65 36 66 55 67
REMARK SMILES IDX 56 68 60 69 57 70 59 71 58 72 45 73 46 74 50 75 47 76 49 77
REMARK SMILES IDX 48 78
REMARK H PARENT 14 8 21 27 65 46 43 57
REMARK Flexibility Score: inf
ROOT
ATOM      1  C   UNL A   1      31.480  30.797  26.105  1.00  0.00     0.002 C 
ENDROOT
BRANCH   1   2
ATOM      2  C   UNL A   1      32.317  29.941  27.067  1.00  0.00     0.002 C 
BRANCH   2   3
ATOM      3  C   UNL A   1      33.766  29.677  26.622  1.00  0.00     0.021 C 
BRANCH   3   4
ATOM      4  C   UNL A   1      34.106  28.192  26.496  1.00  0.00     0.116 C 
BRANCH   4   5
ATOM      5  N   UNL A   1      32.937  27.376  26.742  1.00  0.00    -0.352 N 
ATOM      6  C   UNL A   1      32.265  26.360  26.119  1.00  0.00     0.253 C 
ATOM      7  O   UNL A   1      31.276  25.988  26.753  1.00  0.00    -0.269 OA
ATOM      8  H   UNL A   1      32.506  27.620  27.592  1.00  0.00     0.163 HD
BRANCH   6   9
ATOM      9  C   UNL A   1      32.643  25.690  24.828  1.00  0.00     0.066 A 
ATOM     10  C   UNL A   1      31.897  25.934  23.653  1.00  0.00     0.084 A 
ATOM     11  N   UNL A   1      32.127  25.278  22.472  1.00  0.00    -0.255 NA
ATOM     12  C   UNL A   1      33.103  24.357  22.431  1.00  0.00     0.112 A 
ATOM     13  C   UNL A   1      33.704  24.787  24.695  1.00  0.00     0.018 A 
ATOM     14  C   UNL A   1      33.924  24.094  23.503  1.00  0.00     0.021 A 
BRANCH  10  15
ATOM     15  C   UNL A   1      30.851  26.961  23.506  1.00  0.00     0.020 A 
ATOM     16  C   UNL A   1      27.669  29.850  22.952  1.00  0.00     0.044 C 
ATOM     17  C   UNL A   1      28.763  28.849  23.171  1.00  0.00    -0.050 A 
ATOM     18  C   UNL A   1      28.469  27.525  23.499  1.00  0.00     0.004 A 
ATOM     19  C   UNL A   1      30.104  29.236  23.048  1.00  0.00     0.024 A 
ATOM     20  C   UNL A   1      29.499  26.598  23.678  1.00  0.00     0.012 A 
ATOM     21  C   UNL A   1      31.137  28.302  23.206  1.00  0.00     0.050 A 
ATOM     22  Cl  UNL A   1      32.760  28.866  22.982  1.00  0.00    -0.084 Cl
ENDBRANCH  10  15
ENDBRANCH   6   9
ENDBRANCH   4   5
ENDBRANCH   3   4
ENDBRANCH   2   3
ENDBRANCH   1   2
BRANCH   1  23
ATOM     23  C   UNL A   1      31.335  32.268  26.502  1.00  0.00     0.021 C 
BRANCH  23  24
ATOM     24  C   UNL A   1      32.512  32.825  27.295  1.00  0.00     0.116 C 
BRANCH  24  25
ATOM     25  N   UNL A   1      32.327  34.228  27.624  1.00  0.00    -0.352 N 
ATOM     26  C   UNL A   1      32.950  34.984  28.585  1.00  0.00     0.251 C 
ATOM     27  H   UNL A   1      31.659  34.705  27.080  1.00  0.00     0.163 HD
ATOM     28  O   UNL A   1      32.526  36.097  28.870  1.00  0.00    -0.269 OA
BRANCH  26  29
ATOM     29  C   UNL A   1      34.134  34.444  29.291  1.00  0.00     0.039 A 
ATOM     30  C   UNL A   1      33.955  33.820  30.528  1.00  0.00     0.014 A 
ATOM     31  C   UNL A   1      35.413  34.570  28.744  1.00  0.00     0.014 A 
ATOM     32  C   UNL A   1      35.055  33.276  31.194  1.00  0.00     0.010 A 
ATOM     33  C   UNL A   1      36.499  33.969  29.376  1.00  0.00     0.010 A 
ATOM     34  C   UNL A   1      36.331  33.323  30.610  1.00  0.00    -0.014 A 
BRANCH  34  35
ATOM     35  C   UNL A   1      37.502  32.701  31.276  1.00  0.00     0.031 A 
ATOM     36  C   UNL A   1      38.189  31.519  30.652  1.00  0.00     0.074 A 
ATOM     37  C   UNL A   1      37.908  33.163  32.475  1.00  0.00     0.049 A 
ATOM     38  N   UNL A   1      39.192  30.813  31.108  1.00  0.00    -0.248 NA
ATOM     39  C   UNL A   1      37.664  31.052  29.359  1.00  0.00     0.031 C 
ATOM     40  C   UNL A   1      37.295  34.274  33.206  1.00  0.00     0.029 A 
ATOM     41  N   UNL A   1      38.926  32.745  33.294  1.00  0.00    -0.354 N 
ATOM     42  C   UNL A   1      39.404  29.810  30.171  1.00  0.00     0.074 A 
ATOM     43  C   UNL A   1      38.398  29.970  29.145  1.00  0.00     0.031 C 
ATOM     44  C   UNL A   1      37.965  34.465  34.355  1.00  0.00     0.029 A 
ATOM     45  C   UNL A   1      39.027  33.468  34.457  1.00  0.00     0.049 A 
ATOM     46  H   UNL A   1      39.527  31.999  33.069  1.00  0.00     0.167 HD
ATOM     47  C   UNL A   1      40.361  28.851  30.158  1.00  0.00     0.031 A 
ATOM     48  C   UNL A   1      39.874  33.340  35.495  1.00  0.00     0.031 A 
ATOM     49  C   UNL A   1      41.370  28.700  31.171  1.00  0.00     0.049 A 
ATOM     50  C   UNL A   1      40.928  32.270  35.455  1.00  0.00     0.074 A 
ATOM     51  C   UNL A   1      42.424  27.803  31.212  1.00  0.00     0.029 A 
ATOM     52  N   UNL A   1      41.449  29.463  32.325  1.00  0.00    -0.354 N 
ATOM     53  N   UNL A   1      41.163  31.377  34.525  1.00  0.00    -0.248 NA
ATOM     54  C   UNL A   1      41.843  32.199  36.603  1.00  0.00     0.031 C 
ATOM     55  C   UNL A   1      43.110  27.991  32.416  1.00  0.00     0.029 A 
ATOM     56  C   UNL A   1      42.516  29.040  33.099  1.00  0.00     0.049 A 
ATOM     57  H   UNL A   1      40.836  30.197  32.561  1.00  0.00     0.167 HD
ATOM     58  C   UNL A   1      42.265  30.655  34.962  1.00  0.00     0.074 A 
ATOM     59  C   UNL A   1      42.662  31.225  36.234  1.00  0.00     0.031 C 
ATOM     60  C   UNL A   1      42.894  29.614  34.365  1.00  0.00     0.031 A 
BRANCH  47  61
ATOM     61  C   UNL A   1      40.350  27.879  29.009  1.00  0.00    -0.014 A 
ATOM     62  C   UNL A   1      41.052  28.145  27.822  1.00  0.00     0.009 A 
ATOM     63  C   UNL A   1      39.654  26.666  29.128  1.00  0.00     0.009 A 
ATOM     64  C   UNL A   1      41.022  27.235  26.763  1.00  0.00     0.001 A 
ATOM     65  C   UNL A   1      39.652  25.744  28.079  1.00  0.00     0.001 A 
ATOM     66  C   UNL A   1      40.327  26.034  26.894  1.00  0.00     0.000 A 
ENDBRANCH  47  61
BRANCH  48  67
ATOM     67  C   UNL A   1      39.770  34.262  36.655  1.00  0.00    -0.014 A 
ATOM     68  C   UNL A   1      40.423  35.504  36.640  1.00  0.00     0.009 A 
ATOM     69  C   UNL A   1      39.010  33.907  37.782  1.00  0.00     0.009 A 
ATOM     70  C   UNL A   1      40.337  36.361  37.740  1.00  0.00     0.001 A 
ATOM     71  C   UNL A   1      38.904  34.779  38.867  1.00  0.00     0.001 A 
ATOM     72  C   UNL A   1      39.575  36.000  38.849  1.00  0.00     0.000 A 
ENDBRANCH  48  67
BRANCH  60  73
ATOM     73  C   UNL A   1      44.093  29.041  35.066  1.00  0.00    -0.014 A 
ATOM     74  C   UNL A   1      43.975  27.943  35.931  1.00  0.00     0.009 A 
ATOM     75  C   UNL A   1      45.363  29.585  34.824  1.00  0.00     0.009 A 
ATOM     76  C   UNL A   1      45.104  27.421  36.566  1.00  0.00     0.001 A 
ATOM     77  C   UNL A   1      46.494  29.044  35.438  1.00  0.00     0.001 A 
ATOM     78  C   UNL A   1      46.363  27.968  36.315  1.00  0.00     0.000 A 
ENDBRANCH  60  73
ENDBRANCH  34  35
ENDBRANCH  26  29
ENDBRANCH  24  25
ENDBRANCH  23  24
ENDBRANCH   1  23
TORSDOF 14
ENDMDL
MODEL 2
REMARK VINA RESULT:     -11.3      1.514      3.056
REMARK SMILES Cc1ccc(-c2ncccc2C(=O)NCCCCCCNC(=O)c2ccc(-c3c4nc(c(-c5ccccc5)c5ccc([nH]5)c(-c5ccccc5)c5nc(c(-c6ccccc6)c6ccc3[nH]6)C=C5)C=C4)cc2)c(Cl)c1
REMARK SMILES IDX 18 1 17 2 16 3 15 4 14 5 12 6 13 7 11 9 6 10 7 11 8 12 10 13
REMARK SMILES IDX 9 14 5 15 1 16 2 17 3 18 74 19 4 20 72 21 73 22 19 23 20 24
REMARK SMILES IDX 21 25 22 26 23 28 24 29 25 30 71 31 26 32 70 33 27 34 28 35
REMARK SMILES IDX 29 36 64 37 30 38 69 39 63 40 65 41 31 42 68 43 62 44 61 45
REMARK SMILES IDX 32 47 54 48 39 49 53 50 40 51 43 52 52 53 66 54 41 55 42 56
REMARK SMILES IDX 51 58 67 59 44 60 33 61 34 62 38 63 35 64 37 65 36 66 55 67
REMARK SMILES IDX 56 68 60 69 57 70 59 71 58 72 45 73 46 74 50 75 47 76 49 77
REMARK SMILES IDX 48 78
REMARK H PARENT 14 8 21 27 65 46 43 57
REMARK Flexibility Score: inf
ROOT
ATOM      1  C   UNL A   1      31.628  30.463  25.788  1.00  0.00     0.002 C 
ENDROOT
BRANCH   1   2
ATOM      2  C   UNL A   1      32.999  29.801  25.989  1.00  0.00     0.002 C 
BRANCH   2   3
ATOM      3  C   UNL A   1      32.975  28.447  26.719  1.00  0.00     0.021 C 
BRANCH   3   4
ATOM      4  C   UNL A   1      31.709  28.220  27.547  1.00  0.00     0.116 C 
BRANCH   4   5
ATOM      5  N   UNL A   1      31.115  26.939  27.232  1.00  0.00    -0.352 N 
ATOM      6  C   UNL A   1      30.747  26.244  26.112  1.00  0.00     0.253 C 
ATOM      7  O   UNL A   1      30.254  25.147  26.378  1.00  0.00    -0.269 OA
ATOM      8  H   UNL A   1      30.922  26.426  28.050  1.00  0.00     0.163 HD
BRANCH   6   9
ATOM      9  C   UNL A   1      30.923  26.679  24.685  1.00  0.00     0.066 A 
ATOM     10  C   UNL A   1      32.019  26.211  23.926  1.00  0.00     0.084 A 
ATOM     11  N   UNL A   1      32.291  26.649  22.656  1.00  0.00    -0.255 NA
ATOM     12  C   UNL A   1      31.481  27.571  22.111  1.00  0.00     0.112 A 
ATOM     13  C   UNL A   1      30.066  27.569  24.026  1.00  0.00     0.018 A 
ATOM     14  C   UNL A   1      30.355  28.042  22.744  1.00  0.00     0.021 A 
BRANCH  10  15
ATOM     15  C   UNL A   1      32.952  25.150  24.343  1.00  0.00     0.020 A 
ATOM     16  C   UNL A   1      35.849  22.133  25.477  1.00  0.00     0.044 C 
ATOM     17  C   UNL A   1      34.843  23.183  25.111  1.00  0.00    -0.050 A 
ATOM     18  C   UNL A   1      35.109  24.537  25.321  1.00  0.00     0.004 A 
ATOM     19  C   UNL A   1      33.613  22.813  24.551  1.00  0.00     0.024 A 
ATOM     20  C   UNL A   1      34.171  25.504  24.955  1.00  0.00     0.012 A 
ATOM     21  C   UNL A   1      32.680  23.784  24.164  1.00  0.00     0.050 A 
ATOM     22  Cl  UNL A   1      31.211  23.228  23.432  1.00  0.00    -0.084 Cl
ENDBRANCH  10  15
ENDBRANCH   6   9
ENDBRANCH   4   5
ENDBRANCH   3   4
ENDBRANCH   2   3
ENDBRANCH   1   2
BRANCH   1  23
ATOM     23  C   UNL A   1      31.407  31.755  26.579  1.00  0.00     0.021 C 
BRANCH  23  24
ATOM     24  C   UNL A   1      32.687  32.402  27.096  1.00  0.00     0.116 C 
BRANCH  24  25
ATOM     25  N   UNL A   1      32.462  33.770  27.533  1.00  0.00    -0.352 N 
ATOM     26  C   UNL A   1      33.135  34.499  28.481  1.00  0.00     0.251 C 
ATOM     27  H   UNL A   1      31.721  34.240  27.087  1.00  0.00     0.163 HD
ATOM     28  O   UNL A   1      32.683  35.567  28.878  1.00  0.00    -0.269 OA
BRANCH  26  29
ATOM     29  C   UNL A   1      34.407  33.987  29.037  1.00  0.00     0.039 A 
ATOM     30  C   UNL A   1      34.369  33.179  30.176  1.00  0.00     0.014 A 
ATOM     31  C   UNL A   1      35.630  34.317  28.448  1.00  0.00     0.014 A 
ATOM     32  C   UNL A   1      35.556  32.659  30.695  1.00  0.00     0.010 A 
ATOM     33  C   UNL A   1      36.806  33.744  28.927  1.00  0.00     0.010 A 
ATOM     34  C   UNL A   1      36.781  32.916  30.059  1.00  0.00    -0.014 A 
BRANCH  34  35
ATOM     35  C   UNL A   1      38.045  32.327  30.564  1.00  0.00     0.031 A 
ATOM     36  C   UNL A   1      38.569  31.044  29.982  1.00  0.00     0.074 A 
ATOM     37  C   UNL A   1      38.690  32.916  31.590  1.00  0.00     0.049 A 
ATOM     38  N   UNL A   1      39.626  30.353  30.327  1.00  0.00    -0.248 NA
ATOM     39  C   UNL A   1      37.788  30.444  28.888  1.00  0.00     0.031 C 
ATOM     40  C   UNL A   1      38.260  34.139  32.271  1.00  0.00     0.029 A 
ATOM     41  N   UNL A   1      39.840  32.556  32.245  1.00  0.00    -0.354 N 
ATOM     42  C   UNL A   1      39.625  29.230  29.508  1.00  0.00     0.074 A 
ATOM     43  C   UNL A   1      38.440  29.309  28.683  1.00  0.00     0.031 C 
ATOM     44  C   UNL A   1      39.147  34.440  33.233  1.00  0.00     0.029 A 
ATOM     45  C   UNL A   1      40.185  33.414  33.261  1.00  0.00     0.049 A 
ATOM     46  H   UNL A   1      40.368  31.759  32.011  1.00  0.00     0.167 HD
ATOM     47  C   UNL A   1      40.538  28.232  29.439  1.00  0.00     0.031 A 
ATOM     48  C   UNL A   1      41.217  33.376  34.124  1.00  0.00     0.031 A 
ATOM     49  C   UNL A   1      41.723  28.161  30.250  1.00  0.00     0.049 A 
ATOM     50  C   UNL A   1      42.218  32.260  34.025  1.00  0.00     0.074 A 
ATOM     51  C   UNL A   1      42.743  27.226  30.206  1.00  0.00     0.029 A 
ATOM     52  N   UNL A   1      42.046  29.058  31.255  1.00  0.00    -0.354 N 
ATOM     53  N   UNL A   1      42.244  31.247  33.194  1.00  0.00    -0.248 NA
ATOM     54  C   UNL A   1      43.339  32.290  34.974  1.00  0.00     0.031 C 
ATOM     55  C   UNL A   1      43.658  27.530  31.220  1.00  0.00     0.029 A 
ATOM     56  C   UNL A   1      43.235  28.686  31.858  1.00  0.00     0.049 A 
ATOM     57  H   UNL A   1      41.509  29.845  31.504  1.00  0.00     0.167 HD
ATOM     58  C   UNL A   1      43.394  30.532  33.503  1.00  0.00     0.074 A 
ATOM     59  C   UNL A   1      44.046  31.238  34.588  1.00  0.00     0.031 C 
ATOM     60  C   UNL A   1      43.868  29.395  32.940  1.00  0.00     0.031 A 
BRANCH  47  61
ATOM     61  C   UNL A   1      40.279  27.125  28.454  1.00  0.00    -0.014 A 
ATOM     62  C   UNL A   1      39.518  25.998  28.806  1.00  0.00     0.009 A 
ATOM     63  C   UNL A   1      40.776  27.226  27.145  1.00  0.00     0.009 A 
ATOM     64  C   UNL A   1      39.296  24.976  27.879  1.00  0.00     0.001 A 
ATOM     65  C   UNL A   1      40.526  26.216  26.212  1.00  0.00     0.001 A 
ATOM     66  C   UNL A   1      39.796  25.089  26.583  1.00  0.00     0.000 A 
ENDBRANCH  47  61
BRANCH  48  67
ATOM     67  C   UNL A   1      41.365  34.441  35.149  1.00  0.00    -0.014 A 
ATOM     68  C   UNL A   1      40.786  34.293  36.419  1.00  0.00     0.009 A 
ATOM     69  C   UNL A   1      42.090  35.610  34.865  1.00  0.00     0.009 A 
ATOM     70  C   UNL A   1      40.911  35.304  37.374  1.00  0.00     0.001 A 
ATOM     71  C   UNL A   1      42.236  36.605  35.833  1.00  0.00     0.001 A 
ATOM     72  C   UNL A   1      41.640  36.456  37.083  1.00  0.00     0.000 A 
ENDBRANCH  48  67
BRANCH  60  73
ATOM     73  C   UNL A   1      45.168  28.857  33.467  1.00  0.00    -0.014 A 
ATOM     74  C   UNL A   1      46.398  29.276  32.936  1.00  0.00     0.009 A 
ATOM     75  C   UNL A   1      45.161  27.950  34.537  1.00  0.00     0.009 A 
ATOM     76  C   UNL A   1      47.594  28.771  33.448  1.00  0.00     0.001 A 
ATOM     77  C   UNL A   1      46.360  27.468  35.065  1.00  0.00     0.001 A 
ATOM     78  C   UNL A   1      47.575  27.872  34.514  1.00  0.00     0.000 A 
ENDBRANCH  60  73
ENDBRANCH  34  35
ENDBRANCH  26  29
ENDBRANCH  24  25
ENDBRANCH  23  24
ENDBRANCH   1  23
TORSDOF 14
ENDMDL
MODEL 3
REMARK VINA RESULT:     -11.3      3.749      8.013
REMARK SMILES Cc1ccc(-c2ncccc2C(=O)NCCCCCCNC(=O)c2ccc(-c3c4nc(c(-c5ccccc5)c5ccc([nH]5)c(-c5ccccc5)c5nc(c(-c6ccccc6)c6ccc3[nH]6)C=C5)C=C4)cc2)c(Cl)c1
REMARK SMILES IDX 18 1 17 2 16 3 15 4 14 5 12 6 13 7 11 9 6 10 7 11 8 12 10 13
REMARK SMILES IDX 9 14 5 15 1 16 2 17 3 18 74 19 4 20 72 21 73 22 19 23 20 24
REMARK SMILES IDX 21 25 22 26 23 28 24 29 25 30 71 31 26 32 70 33 27 34 28 35
REMARK SMILES IDX 29 36 64 37 30 38 69 39 63 40 65 41 31 42 68 43 62 44 61 45
REMARK SMILES IDX 32 47 54 48 39 49 53 50 40 51 43 52 52 53 66 54 41 55 42 56
REMARK SMILES IDX 51 58 67 59 44 60 33 61 34 62 38 63 35 64 37 65 36 66 55 67
REMARK SMILES IDX 56 68 60 69 57 70 59 71 58 72 45 73 46 74 50 75 47 76 49 77
REMARK SMILES IDX 48 78
REMARK H PARENT 14 8 21 27 65 46 43 57
REMARK Flexibility Score: inf
ROOT
ATOM      1  C   UNL A   1      31.929  29.191  25.573  1.00  0.00     0.002 C 
ENDROOT
BRANCH   1   2
ATOM      2  C   UNL A   1      32.586  29.456  24.211  1.00  0.00     0.002 C 
BRANCH   2   3
ATOM      3  C   UNL A   1      33.663  28.441  23.791  1.00  0.00     0.021 C 
BRANCH   3   4
ATOM      4  C   UNL A   1      34.009  28.495  22.303  1.00  0.00     0.116 C 
BRANCH   4   5
ATOM      5  N   UNL A   1      33.676  27.246  21.654  1.00  0.00    -0.352 N 
ATOM      6  C   UNL A   1      32.831  26.191  21.866  1.00  0.00     0.253 C 
ATOM      7  O   UNL A   1      32.926  25.326  20.994  1.00  0.00    -0.269 OA
ATOM      8  H   UNL A   1      34.203  27.121  20.832  1.00  0.00     0.163 HD
BRANCH   6   9
ATOM      9  C   UNL A   1      31.843  26.042  22.987  1.00  0.00     0.066 A 
ATOM     10  C   UNL A   1      32.099  25.146  24.050  1.00  0.00     0.084 A 
ATOM     11  N   UNL A   1      31.194  24.890  25.047  1.00  0.00    -0.255 NA
ATOM     12  C   UNL A   1      30.006  25.514  25.008  1.00  0.00     0.112 A 
ATOM     13  C   UNL A   1      30.625  26.729  23.055  1.00  0.00     0.018 A 
ATOM     14  C   UNL A   1      29.687  26.450  24.052  1.00  0.00     0.021 A 
BRANCH  10  15
ATOM     15  C   UNL A   1      33.373  24.444  24.283  1.00  0.00     0.020 A 
ATOM     16  C   UNL A   1      37.220  22.557  24.928  1.00  0.00     0.044 C 
ATOM     17  C   UNL A   1      35.883  23.205  24.731  1.00  0.00    -0.050 A 
ATOM     18  C   UNL A   1      35.581  24.426  25.338  1.00  0.00     0.004 A 
ATOM     19  C   UNL A   1      34.914  22.587  23.931  1.00  0.00     0.024 A 
ATOM     20  C   UNL A   1      34.339  25.028  25.127  1.00  0.00     0.012 A 
ATOM     21  C   UNL A   1      33.675  23.202  23.702  1.00  0.00     0.050 A 
ATOM     22  Cl  UNL A   1      32.563  22.383  22.655  1.00  0.00    -0.084 Cl
ENDBRANCH  10  15
ENDBRANCH   6   9
ENDBRANCH   4   5
ENDBRANCH   3   4
ENDBRANCH   2   3
ENDBRANCH   1   2
BRANCH   1  23
ATOM     23  C   UNL A   1      32.537  28.040  26.376  1.00  0.00     0.021 C 
BRANCH  23  24
ATOM     24  C   UNL A   1      33.529  28.477  27.449  1.00  0.00     0.116 C 
BRANCH  24  25
ATOM     25  N   UNL A   1      33.523  29.917  27.636  1.00  0.00    -0.352 N 
ATOM     26  C   UNL A   1      34.497  30.728  28.165  1.00  0.00     0.251 C 
ATOM     27  H   UNL A   1      32.704  30.378  27.344  1.00  0.00     0.163 HD
ATOM     28  O   UNL A   1      34.247  31.895  28.446  1.00  0.00    -0.269 OA
BRANCH  26  29
ATOM     29  C   UNL A   1      35.852  30.185  28.408  1.00  0.00     0.039 A 
ATOM     30  C   UNL A   1      36.776  30.185  27.362  1.00  0.00     0.014 A 
ATOM     31  C   UNL A   1      36.200  29.663  29.657  1.00  0.00     0.014 A 
ATOM     32  C   UNL A   1      38.069  29.706  27.581  1.00  0.00     0.010 A 
ATOM     33  C   UNL A   1      37.508  29.248  29.894  1.00  0.00     0.010 A 
ATOM     34  C   UNL A   1      38.453  29.260  28.856  1.00  0.00    -0.014 A 
BRANCH  34  35
ATOM     35  C   UNL A   1      39.838  28.800  29.123  1.00  0.00     0.031 A 
ATOM     36  C   UNL A   1      40.836  29.729  29.757  1.00  0.00     0.074 A 
ATOM     37  C   UNL A   1      40.216  27.566  28.736  1.00  0.00     0.049 A 
ATOM     38  N   UNL A   1      42.101  29.524  30.021  1.00  0.00    -0.248 NA
ATOM     39  C   UNL A   1      40.355  31.072  30.119  1.00  0.00     0.031 C 
ATOM     40  C   UNL A   1      39.355  26.587  28.070  1.00  0.00     0.029 A 
ATOM     41  N   UNL A   1      41.427  26.930  28.839  1.00  0.00    -0.354 N 
ATOM     42  C   UNL A   1      42.572  30.716  30.559  1.00  0.00     0.074 A 
ATOM     43  C   UNL A   1      41.469  31.652  30.541  1.00  0.00     0.031 C 
ATOM     44  C   UNL A   1      40.059  25.466  27.844  1.00  0.00     0.029 A 
ATOM     45  C   UNL A   1      41.427  25.660  28.315  1.00  0.00     0.049 A 
ATOM     46  H   UNL A   1      42.220  27.343  29.250  1.00  0.00     0.167 HD
ATOM     47  C   UNL A   1      43.806  31.000  31.038  1.00  0.00     0.031 A 
ATOM     48  C   UNL A   1      42.418  24.755  28.219  1.00  0.00     0.031 A 
ATOM     49  C   UNL A   1      44.898  30.065  31.068  1.00  0.00     0.049 A 
ATOM     50  C   UNL A   1      43.778  25.094  28.760  1.00  0.00     0.074 A 
ATOM     51  C   UNL A   1      46.166  30.236  31.597  1.00  0.00     0.029 A 
ATOM     52  N   UNL A   1      44.853  28.783  30.544  1.00  0.00    -0.354 N 
ATOM     53  N   UNL A   1      44.186  26.199  29.335  1.00  0.00    -0.248 NA
ATOM     54  C   UNL A   1      44.811  24.053  28.653  1.00  0.00     0.031 C 
ATOM     55  C   UNL A   1      46.904  29.074  31.347  1.00  0.00     0.029 A 
ATOM     56  C   UNL A   1      46.078  28.161  30.711  1.00  0.00     0.049 A 
ATOM     57  H   UNL A   1      44.066  28.375  30.116  1.00  0.00     0.167 HD
ATOM     58  C   UNL A   1      45.513  25.980  29.679  1.00  0.00     0.074 A 
ATOM     59  C   UNL A   1      45.837  24.630  29.262  1.00  0.00     0.031 C 
ATOM     60  C   UNL A   1      46.386  26.820  30.286  1.00  0.00     0.031 A 
BRANCH  47  61
ATOM     61  C   UNL A   1      44.041  32.391  31.561  1.00  0.00    -0.014 A 
ATOM     62  C   UNL A   1      43.823  32.710  32.911  1.00  0.00     0.009 A 
ATOM     63  C   UNL A   1      44.518  33.389  30.696  1.00  0.00     0.009 A 
ATOM     64  C   UNL A   1      44.039  34.009  33.375  1.00  0.00     0.001 A 
ATOM     65  C   UNL A   1      44.762  34.680  31.171  1.00  0.00     0.001 A 
ATOM     66  C   UNL A   1      44.512  34.991  32.506  1.00  0.00     0.000 A 
ENDBRANCH  47  61
BRANCH  48  67
ATOM     67  C   UNL A   1      42.155  23.433  27.594  1.00  0.00    -0.014 A 
ATOM     68  C   UNL A   1      41.561  22.400  28.335  1.00  0.00     0.009 A 
ATOM     69  C   UNL A   1      42.492  23.199  26.251  1.00  0.00     0.009 A 
ATOM     70  C   UNL A   1      41.332  21.153  27.750  1.00  0.00     0.001 A 
ATOM     71  C   UNL A   1      42.236  21.959  25.663  1.00  0.00     0.001 A 
ATOM     72  C   UNL A   1      41.664  20.935  26.414  1.00  0.00     0.000 A 
ENDBRANCH  48  67
BRANCH  60  73
ATOM     73  C   UNL A   1      47.766  26.294  30.561  1.00  0.00    -0.014 A 
ATOM     74  C   UNL A   1      48.105  25.756  31.812  1.00  0.00     0.009 A 
ATOM     75  C   UNL A   1      48.728  26.302  29.539  1.00  0.00     0.009 A 
ATOM     76  C   UNL A   1      49.391  25.265  32.043  1.00  0.00     0.001 A 
ATOM     77  C   UNL A   1      50.005  25.785  29.764  1.00  0.00     0.001 A 
ATOM     78  C   UNL A   1      50.338  25.275  31.018  1.00  0.00     0.000 A 
ENDBRANCH  60  73
ENDBRANCH  34  35
ENDBRANCH  26  29
ENDBRANCH  24  25
ENDBRANCH  23  24
ENDBRANCH   1  23
TORSDOF 14
ENDMDL
