MODEL 1
REMARK VINA RESULT:     -12.0      0.000      0.000
REMARK SMILES O=C(NCCCCCCNC(=O)[C@@H]1CCn2c(C(=O)c3ccccc3)ccc21)c1ccc(-c2c3nc(c(-c4ccccc4)c4ccc([nH]4)c(-c4ccccc4)c4nc(c(-c5ccccc5)c5ccc2[nH]5)C=C4)C=C3)cc1
REMARK SMILES IDX 6 1 5 2 4 3 3 4 1 5 2 6 29 8 30 9 76 10 31 11 75 12 32 13
REMARK SMILES IDX 33 14 34 15 69 16 35 17 74 18 68 19 70 20 36 21 73 22 67 23
REMARK SMILES IDX 66 24 37 26 59 27 44 28 58 29 45 30 48 31 57 32 71 33 46 34
REMARK SMILES IDX 47 35 56 37 72 38 49 39 38 40 39 41 43 42 40 43 42 44 41 45
REMARK SMILES IDX 60 46 61 47 65 48 62 49 64 50 63 51 50 52 51 53 55 54 52 55
REMARK SMILES IDX 54 56 53 57 7 58 8 59 9 60 10 61 11 62 12 64 13 65 14 66
REMARK SMILES IDX 28 67 15 68 16 69 27 70 17 71 26 72 18 73 19 74 20 75 21 76
REMARK SMILES IDX 25 77 22 78 24 79 23 80
REMARK H PARENT 3 7 70 25 48 36 10 63
REMARK Flexibility Score: inf
ROOT
ATOM      1  C   UNL A   1      31.374  30.841  26.015  1.00  0.00     0.002 C 
ENDROOT
BRANCH   1   2
ATOM      2  C   UNL A   1      31.251  32.283  26.506  1.00  0.00     0.021 C 
BRANCH   2   3
ATOM      3  C   UNL A   1      32.523  32.830  27.138  1.00  0.00     0.116 C 
BRANCH   3   4
ATOM      4  N   UNL A   1      32.347  34.191  27.618  1.00  0.00    -0.352 N 
ATOM      5  O   UNL A   1      32.607  35.913  29.059  1.00  0.00    -0.269 OA
ATOM      6  C   UNL A   1      33.016  34.840  28.626  1.00  0.00     0.251 C 
ATOM      7  H   UNL A   1      31.655  34.719  27.158  1.00  0.00     0.163 HD
BRANCH   6   8
ATOM      8  C   UNL A   1      34.231  34.224  29.195  1.00  0.00     0.039 A 
ATOM      9  C   UNL A   1      34.135  33.386  30.309  1.00  0.00     0.014 A 
ATOM     10  C   UNL A   1      35.473  34.485  28.612  1.00  0.00     0.014 A 
ATOM     11  C   UNL A   1      35.290  32.916  30.918  1.00  0.00     0.010 A 
ATOM     12  C   UNL A   1      36.627  33.931  29.172  1.00  0.00     0.010 A 
ATOM     13  C   UNL A   1      36.545  33.158  30.340  1.00  0.00    -0.014 A 
BRANCH  13  14
ATOM     14  C   UNL A   1      37.744  32.506  30.924  1.00  0.00     0.031 A 
ATOM     15  C   UNL A   1      38.379  33.017  32.186  1.00  0.00     0.074 A 
ATOM     16  C   UNL A   1      38.244  31.420  30.301  1.00  0.00     0.049 A 
ATOM     17  N   UNL A   1      39.420  32.548  32.826  1.00  0.00    -0.248 NA
ATOM     18  C   UNL A   1      37.778  34.207  32.809  1.00  0.00     0.031 C 
ATOM     19  C   UNL A   1      37.711  30.838  29.064  1.00  0.00     0.029 A 
ATOM     20  N   UNL A   1      39.294  30.604  30.625  1.00  0.00    -0.354 N 
ATOM     21  C   UNL A   1      39.612  33.392  33.913  1.00  0.00     0.074 A 
ATOM     22  C   UNL A   1      38.591  34.416  33.835  1.00  0.00     0.031 C 
ATOM     23  C   UNL A   1      38.407  29.733  28.764  1.00  0.00     0.029 A 
ATOM     24  C   UNL A   1      39.479  29.571  29.738  1.00  0.00     0.049 A 
ATOM     25  H   UNL A   1      39.863  30.743  31.417  1.00  0.00     0.167 HD
ATOM     26  C   UNL A   1      40.553  33.315  34.884  1.00  0.00     0.031 A 
ATOM     27  C   UNL A   1      40.420  28.613  29.693  1.00  0.00     0.031 A 
ATOM     28  C   UNL A   1      41.568  32.295  34.951  1.00  0.00     0.049 A 
ATOM     29  C   UNL A   1      41.475  28.585  30.759  1.00  0.00     0.074 A 
ATOM     30  C   UNL A   1      42.545  32.116  35.915  1.00  0.00     0.029 A 
ATOM     31  N   UNL A   1      41.745  31.290  34.012  1.00  0.00    -0.354 N 
ATOM     32  N   UNL A   1      41.612  29.364  31.805  1.00  0.00    -0.248 NA
ATOM     33  C   UNL A   1      42.504  27.544  30.639  1.00  0.00     0.031 C 
ATOM     34  C   UNL A   1      43.350  31.039  35.528  1.00  0.00     0.029 A 
ATOM     35  C   UNL A   1      42.834  30.506  34.358  1.00  0.00     0.049 A 
ATOM     36  H   UNL A   1      41.181  31.154  33.217  1.00  0.00     0.167 HD
ATOM     37  C   UNL A   1      42.730  28.893  32.479  1.00  0.00     0.074 A 
ATOM     38  C   UNL A   1      43.216  27.748  31.738  1.00  0.00     0.031 C 
ATOM     39  C   UNL A   1      43.305  29.371  33.610  1.00  0.00     0.031 A 
BRANCH  26  40
ATOM     40  C   UNL A   1      40.554  34.378  35.948  1.00  0.00    -0.014 A 
ATOM     41  C   UNL A   1      41.251  35.585  35.775  1.00  0.00     0.009 A 
ATOM     42  C   UNL A   1      39.785  34.201  37.109  1.00  0.00     0.009 A 
ATOM     43  C   UNL A   1      41.193  36.581  36.754  1.00  0.00     0.001 A 
ATOM     44  C   UNL A   1      39.707  35.208  38.073  1.00  0.00     0.001 A 
ATOM     45  C   UNL A   1      40.416  36.395  37.897  1.00  0.00     0.000 A 
ENDBRANCH  26  40
BRANCH  27  46
ATOM     46  C   UNL A   1      40.425  27.623  28.585  1.00  0.00    -0.014 A 
ATOM     47  C   UNL A   1      41.078  27.902  27.376  1.00  0.00     0.009 A 
ATOM     48  C   UNL A   1      39.765  26.392  28.732  1.00  0.00     0.009 A 
ATOM     49  C   UNL A   1      41.041  26.981  26.325  1.00  0.00     0.001 A 
ATOM     50  C   UNL A   1      39.760  25.460  27.694  1.00  0.00     0.001 A 
ATOM     51  C   UNL A   1      40.386  25.761  26.486  1.00  0.00     0.000 A 
ENDBRANCH  27  46
BRANCH  39  52
ATOM     52  C   UNL A   1      44.500  28.625  34.132  1.00  0.00    -0.014 A 
ATOM     53  C   UNL A   1      44.359  27.541  35.012  1.00  0.00     0.009 A 
ATOM     54  C   UNL A   1      45.788  29.002  33.716  1.00  0.00     0.009 A 
ATOM     55  C   UNL A   1      45.485  26.874  35.497  1.00  0.00     0.001 A 
ATOM     56  C   UNL A   1      46.910  28.312  34.176  1.00  0.00     0.001 A 
ATOM     57  C   UNL A   1      46.758  27.257  35.074  1.00  0.00     0.000 A 
ENDBRANCH  39  52
ENDBRANCH  13  14
ENDBRANCH   6   8
ENDBRANCH   3   4
ENDBRANCH   2   3
ENDBRANCH   1   2
BRANCH   1  58
ATOM     58  C   UNL A   1      32.569  30.073  26.590  1.00  0.00     0.002 C 
BRANCH  58  59
ATOM     59  C   UNL A   1      32.214  28.738  27.261  1.00  0.00     0.021 C 
BRANCH  59  60
ATOM     60  C   UNL A   1      31.654  27.697  26.290  1.00  0.00     0.116 C 
BRANCH  60  61
ATOM     61  N   UNL A   1      32.716  26.863  25.773  1.00  0.00    -0.356 N 
ATOM     62  C   UNL A   1      32.984  26.454  24.499  1.00  0.00     0.229 C 
ATOM     63  H   UNL A   1      33.349  26.536  26.453  1.00  0.00     0.163 HD
ATOM     64  O   UNL A   1      33.928  25.673  24.368  1.00  0.00    -0.274 OA
BRANCH  62  65
ATOM     65  C   UNL A   1      32.185  27.040  23.326  1.00  0.00     0.127 C 
ATOM     66  C   UNL A   1      32.271  28.584  23.199  1.00  0.00     0.042 C 
ATOM     67  C   UNL A   1      30.710  26.853  23.482  1.00  0.00     0.031 A 
ATOM     68  C   UNL A   1      30.892  29.058  22.729  1.00  0.00     0.124 C 
ATOM     69  N   UNL A   1      30.016  27.981  23.139  1.00  0.00    -0.341 N 
ATOM     70  C   UNL A   1      29.810  25.913  23.899  1.00  0.00     0.025 A 
ATOM     71  C   UNL A   1      28.676  27.835  23.328  1.00  0.00     0.090 A 
ATOM     72  C   UNL A   1      28.533  26.533  23.815  1.00  0.00     0.032 A 
BRANCH  71  73
ATOM     73  C   UNL A   1      27.600  28.798  23.147  1.00  0.00     0.209 C 
ATOM     74  O   UNL A   1      26.426  28.549  23.419  1.00  0.00    -0.287 OA
BRANCH  73  75
ATOM     75  C   UNL A   1      27.881  30.163  22.649  1.00  0.00     0.024 A 
ATOM     76  C   UNL A   1      28.046  31.193  23.582  1.00  0.00     0.012 A 
ATOM     77  C   UNL A   1      27.953  30.435  21.278  1.00  0.00     0.012 A 
ATOM     78  C   UNL A   1      28.339  32.484  23.144  1.00  0.00     0.001 A 
ATOM     79  C   UNL A   1      28.258  31.727  20.846  1.00  0.00     0.001 A 
ATOM     80  C   UNL A   1      28.457  32.747  21.779  1.00  0.00     0.000 A 
ENDBRANCH  73  75
ENDBRANCH  71  73
ENDBRANCH  62  65
ENDBRANCH  60  61
ENDBRANCH  59  60
ENDBRANCH  58  59
ENDBRANCH   1  58
TORSDOF 15
ENDMDL
MODEL 2
REMARK VINA RESULT:     -11.9      0.697      5.939
REMARK SMILES O=C(NCCCCCCNC(=O)[C@@H]1CCn2c(C(=O)c3ccccc3)ccc21)c1ccc(-c2c3nc(c(-c4ccccc4)c4ccc([nH]4)c(-c4ccccc4)c4nc(c(-c5ccccc5)c5ccc2[nH]5)C=C4)C=C3)cc1
REMARK SMILES IDX 6 1 5 2 4 3 3 4 1 5 2 6 29 8 30 9 76 10 31 11 75 12 32 13
REMARK SMILES IDX 33 14 34 15 69 16 35 17 74 18 68 19 70 20 36 21 73 22 67 23
REMARK SMILES IDX 66 24 37 26 59 27 44 28 58 29 45 30 48 31 57 32 71 33 46 34
REMARK SMILES IDX 47 35 56 37 72 38 49 39 38 40 39 41 43 42 40 43 42 44 41 45
REMARK SMILES IDX 60 46 61 47 65 48 62 49 64 50 63 51 50 52 51 53 55 54 52 55
REMARK SMILES IDX 54 56 53 57 7 58 8 59 9 60 10 61 11 62 12 64 13 65 14 66
REMARK SMILES IDX 28 67 15 68 16 69 27 70 17 71 26 72 18 73 19 74 20 75 21 76
REMARK SMILES IDX 25 77 22 78 24 79 23 80
REMARK H PARENT 3 7 70 25 48 36 10 63
REMARK Flexibility Score: inf
ROOT
ATOM      1  C   UNL A   1      31.344  30.820  26.103  1.00  0.00     0.002 C 
ENDROOT
BRANCH   1   2
ATOM      2  C   UNL A   1      31.298  32.287  26.526  1.00  0.00     0.021 C 
BRANCH   2   3
ATOM      3  C   UNL A   1      32.580  32.781  27.181  1.00  0.00     0.116 C 
BRANCH   3   4
ATOM      4  N   UNL A   1      32.435  34.129  27.707  1.00  0.00    -0.352 N 
ATOM      5  O   UNL A   1      32.773  35.807  29.182  1.00  0.00    -0.269 OA
ATOM      6  C   UNL A   1      33.154  34.745  28.701  1.00  0.00     0.251 C 
ATOM      7  H   UNL A   1      31.727  34.673  27.294  1.00  0.00     0.163 HD
BRANCH   6   8
ATOM      8  C   UNL A   1      34.390  34.106  29.197  1.00  0.00     0.039 A 
ATOM      9  C   UNL A   1      35.605  34.332  28.545  1.00  0.00     0.014 A 
ATOM     10  C   UNL A   1      34.333  33.277  30.320  1.00  0.00     0.014 A 
ATOM     11  C   UNL A   1      36.736  33.628  28.935  1.00  0.00     0.010 A 
ATOM     12  C   UNL A   1      35.495  32.644  30.769  1.00  0.00     0.010 A 
ATOM     13  C   UNL A   1      36.701  32.801  30.068  1.00  0.00    -0.014 A 
BRANCH  13  14
ATOM     14  C   UNL A   1      37.964  32.192  30.553  1.00  0.00     0.031 A 
ATOM     15  C   UNL A   1      38.500  30.919  29.961  1.00  0.00     0.074 A 
ATOM     16  C   UNL A   1      38.638  32.823  31.535  1.00  0.00     0.049 A 
ATOM     17  N   UNL A   1      39.595  30.272  30.268  1.00  0.00    -0.248 NA
ATOM     18  C   UNL A   1      37.708  30.287  28.894  1.00  0.00     0.031 C 
ATOM     19  C   UNL A   1      38.209  34.064  32.189  1.00  0.00     0.029 A 
ATOM     20  N   UNL A   1      39.829  32.525  32.141  1.00  0.00    -0.354 N 
ATOM     21  C   UNL A   1      39.617  29.149  29.450  1.00  0.00     0.074 A 
ATOM     22  C   UNL A   1      38.414  29.192  28.646  1.00  0.00     0.031 C 
ATOM     23  C   UNL A   1      39.145  34.444  33.069  1.00  0.00     0.029 A 
ATOM     24  C   UNL A   1      40.200  33.439  33.097  1.00  0.00     0.049 A 
ATOM     25  H   UNL A   1      40.367  31.732  31.915  1.00  0.00     0.167 HD
ATOM     26  C   UNL A   1      40.557  28.177  29.378  1.00  0.00     0.031 A 
ATOM     27  C   UNL A   1      41.258  33.458  33.926  1.00  0.00     0.031 A 
ATOM     28  C   UNL A   1      41.749  28.139  30.186  1.00  0.00     0.049 A 
ATOM     29  C   UNL A   1      42.256  32.341  33.851  1.00  0.00     0.074 A 
ATOM     30  C   UNL A   1      42.776  27.212  30.162  1.00  0.00     0.029 A 
ATOM     31  N   UNL A   1      42.069  29.063  31.169  1.00  0.00    -0.354 N 
ATOM     32  N   UNL A   1      42.283  31.312  33.039  1.00  0.00    -0.248 NA
ATOM     33  C   UNL A   1      43.369  32.388  34.809  1.00  0.00     0.031 C 
ATOM     34  C   UNL A   1      43.687  27.540  31.171  1.00  0.00     0.029 A 
ATOM     35  C   UNL A   1      43.263  28.710  31.779  1.00  0.00     0.049 A 
ATOM     36  H   UNL A   1      41.529  29.853  31.400  1.00  0.00     0.167 HD
ATOM     37  C   UNL A   1      43.428  30.601  33.372  1.00  0.00     0.074 A 
ATOM     38  C   UNL A   1      44.078  31.331  34.441  1.00  0.00     0.031 C 
ATOM     39  C   UNL A   1      43.896  29.445  32.842  1.00  0.00     0.031 A 
BRANCH  26  40
ATOM     40  C   UNL A   1      40.329  27.047  28.411  1.00  0.00    -0.014 A 
ATOM     41  C   UNL A   1      39.569  25.921  28.767  1.00  0.00     0.009 A 
ATOM     42  C   UNL A   1      40.817  27.147  27.098  1.00  0.00     0.009 A 
ATOM     43  C   UNL A   1      39.324  24.910  27.834  1.00  0.00     0.001 A 
ATOM     44  C   UNL A   1      40.548  26.148  26.161  1.00  0.00     0.001 A 
ATOM     45  C   UNL A   1      39.808  25.027  26.531  1.00  0.00     0.000 A 
ENDBRANCH  26  40
BRANCH  27  46
ATOM     46  C   UNL A   1      41.410  34.556  34.916  1.00  0.00    -0.014 A 
ATOM     47  C   UNL A   1      42.161  35.700  34.610  1.00  0.00     0.009 A 
ATOM     48  C   UNL A   1      40.809  34.457  36.182  1.00  0.00     0.009 A 
ATOM     49  C   UNL A   1      42.333  36.708  35.563  1.00  0.00     0.001 A 
ATOM     50  C   UNL A   1      40.953  35.481  37.118  1.00  0.00     0.001 A 
ATOM     51  C   UNL A   1      41.726  36.599  36.814  1.00  0.00     0.000 A 
ENDBRANCH  27  46
BRANCH  39  52
ATOM     52  C   UNL A   1      45.195  28.924  33.387  1.00  0.00    -0.014 A 
ATOM     53  C   UNL A   1      45.228  28.018  34.458  1.00  0.00     0.009 A 
ATOM     54  C   UNL A   1      46.405  29.331  32.801  1.00  0.00     0.009 A 
ATOM     55  C   UNL A   1      46.449  27.561  34.957  1.00  0.00     0.001 A 
ATOM     56  C   UNL A   1      47.622  28.846  33.280  1.00  0.00     0.001 A 
ATOM     57  C   UNL A   1      47.643  27.971  34.365  1.00  0.00     0.000 A 
ENDBRANCH  39  52
ENDBRANCH  13  14
ENDBRANCH   6   8
ENDBRANCH   3   4
ENDBRANCH   2   3
ENDBRANCH   1   2
BRANCH   1  58
ATOM     58  C   UNL A   1      32.593  30.063  26.566  1.00  0.00     0.002 C 
BRANCH  58  59
ATOM     59  C   UNL A   1      32.316  28.701  27.218  1.00  0.00     0.021 C 
BRANCH  59  60
ATOM     60  C   UNL A   1      31.706  27.677  26.259  1.00  0.00     0.116 C 
BRANCH  60  61
ATOM     61  N   UNL A   1      32.732  26.808  25.727  1.00  0.00    -0.356 N 
ATOM     62  C   UNL A   1      32.966  26.388  24.449  1.00  0.00     0.229 C 
ATOM     63  H   UNL A   1      33.365  26.461  26.396  1.00  0.00     0.163 HD
ATOM     64  O   UNL A   1      33.881  25.576  24.304  1.00  0.00    -0.274 OA
BRANCH  62  65
ATOM     65  C   UNL A   1      32.168  26.999  23.287  1.00  0.00     0.127 C 
ATOM     66  C   UNL A   1      32.272  28.543  23.180  1.00  0.00     0.042 C 
ATOM     67  C   UNL A   1      30.692  26.828  23.449  1.00  0.00     0.031 A 
ATOM     68  C   UNL A   1      30.897  29.040  22.724  1.00  0.00     0.124 C 
ATOM     69  N   UNL A   1      30.010  27.968  23.123  1.00  0.00    -0.341 N 
ATOM     70  C   UNL A   1      29.782  25.894  23.858  1.00  0.00     0.025 A 
ATOM     71  C   UNL A   1      28.669  27.836  23.317  1.00  0.00     0.090 A 
ATOM     72  C   UNL A   1      28.513  26.530  23.789  1.00  0.00     0.032 A 
BRANCH  71  73
ATOM     73  C   UNL A   1      27.604  28.814  23.155  1.00  0.00     0.209 C 
ATOM     74  O   UNL A   1      26.428  28.574  23.421  1.00  0.00    -0.287 OA
BRANCH  73  75
ATOM     75  C   UNL A   1      27.900  30.185  22.682  1.00  0.00     0.024 A 
ATOM     76  C   UNL A   1      27.947  30.419  21.303  1.00  0.00     0.012 A 
ATOM     77  C   UNL A   1      28.156  31.225  23.583  1.00  0.00     0.012 A 
ATOM     78  C   UNL A   1      28.197  31.706  20.826  1.00  0.00     0.001 A 
ATOM     79  C   UNL A   1      28.392  32.513  23.100  1.00  0.00     0.001 A 
ATOM     80  C   UNL A   1      28.406  32.753  21.725  1.00  0.00     0.000 A 
ENDBRANCH  73  75
ENDBRANCH  71  73
ENDBRANCH  62  65
ENDBRANCH  60  61
ENDBRANCH  59  60
ENDBRANCH  58  59
ENDBRANCH   1  58
TORSDOF 15
ENDMDL
MODEL 3
REMARK VINA RESULT:     -11.8      3.102      5.243
REMARK SMILES O=C(NCCCCCCNC(=O)[C@@H]1CCn2c(C(=O)c3ccccc3)ccc21)c1ccc(-c2c3nc(c(-c4ccccc4)c4ccc([nH]4)c(-c4ccccc4)c4nc(c(-c5ccccc5)c5ccc2[nH]5)C=C4)C=C3)cc1
REMARK SMILES IDX 6 1 5 2 4 3 3 4 1 5 2 6 29 8 30 9 76 10 31 11 75 12 32 13
REMARK SMILES IDX 33 14 34 15 69 16 35 17 74 18 68 19 70 20 36 21 73 22 67 23
REMARK SMILES IDX 66 24 37 26 59 27 44 28 58 29 45 30 48 31 57 32 71 33 46 34
REMARK SMILES IDX 47 35 56 37 72 38 49 39 38 40 39 41 43 42 40 43 42 44 41 45
REMARK SMILES IDX 60 46 61 47 65 48 62 49 64 50 63 51 50 52 51 53 55 54 52 55
REMARK SMILES IDX 54 56 53 57 7 58 8 59 9 60 10 61 11 62 12 64 13 65 14 66
REMARK SMILES IDX 28 67 15 68 16 69 27 70 17 71 26 72 18 73 19 74 20 75 21 76
REMARK SMILES IDX 25 77 22 78 24 79 23 80
REMARK H PARENT 3 7 70 25 48 36 10 63
REMARK Flexibility Score: inf
ROOT
ATOM      1  C   UNL A   1      31.601  30.432  26.825  1.00  0.00     0.002 C 
ENDROOT
BRANCH   1   2
ATOM      2  C   UNL A   1      31.414  31.948  26.843  1.00  0.00     0.021 C 
BRANCH   2   3
ATOM      3  C   UNL A   1      32.713  32.728  26.992  1.00  0.00     0.116 C 
BRANCH   3   4
ATOM      4  N   UNL A   1      32.503  34.008  27.650  1.00  0.00    -0.352 N 
ATOM      5  O   UNL A   1      32.768  35.548  29.283  1.00  0.00    -0.269 OA
ATOM      6  C   UNL A   1      33.199  34.560  28.696  1.00  0.00     0.251 C 
ATOM      7  H   UNL A   1      31.763  34.552  27.297  1.00  0.00     0.163 HD
BRANCH   6   8
ATOM      8  C   UNL A   1      34.471  33.942  29.120  1.00  0.00     0.039 A 
ATOM      9  C   UNL A   1      35.651  34.221  28.426  1.00  0.00     0.014 A 
ATOM     10  C   UNL A   1      34.484  33.079  30.218  1.00  0.00     0.014 A 
ATOM     11  C   UNL A   1      36.816  33.539  28.745  1.00  0.00     0.010 A 
ATOM     12  C   UNL A   1      35.682  32.466  30.598  1.00  0.00     0.010 A 
ATOM     13  C   UNL A   1      36.852  32.677  29.853  1.00  0.00    -0.014 A 
BRANCH  13  14
ATOM     14  C   UNL A   1      38.150  32.090  30.265  1.00  0.00     0.031 A 
ATOM     15  C   UNL A   1      39.037  32.772  31.268  1.00  0.00     0.074 A 
ATOM     16  C   UNL A   1      38.511  30.906  29.730  1.00  0.00     0.049 A 
ATOM     17  N   UNL A   1      40.193  32.378  31.739  1.00  0.00    -0.248 NA
ATOM     18  C   UNL A   1      38.576  34.061  31.807  1.00  0.00     0.031 C 
ATOM     19  C   UNL A   1      37.731  30.154  28.742  1.00  0.00     0.029 A 
ATOM     20  N   UNL A   1      39.611  30.120  29.950  1.00  0.00    -0.354 N 
ATOM     21  C   UNL A   1      40.607  33.375  32.614  1.00  0.00     0.074 A 
ATOM     22  C   UNL A   1      39.588  34.403  32.593  1.00  0.00     0.031 C 
ATOM     23  C   UNL A   1      38.352  28.996  28.479  1.00  0.00     0.029 A 
ATOM     24  C   UNL A   1      39.607  28.958  29.218  1.00  0.00     0.049 A 
ATOM     25  H   UNL A   1      40.335  30.364  30.571  1.00  0.00     0.167 HD
ATOM     26  C   UNL A   1      41.734  33.423  33.364  1.00  0.00     0.031 A 
ATOM     27  C   UNL A   1      40.523  27.977  29.128  1.00  0.00     0.031 A 
ATOM     28  C   UNL A   1      42.746  32.397  33.375  1.00  0.00     0.049 A 
ATOM     29  C   UNL A   1      41.780  28.085  29.938  1.00  0.00     0.074 A 
ATOM     30  C   UNL A   1      43.907  32.342  34.127  1.00  0.00     0.029 A 
ATOM     31  N   UNL A   1      42.724  31.254  32.591  1.00  0.00    -0.354 N 
ATOM     32  N   UNL A   1      42.133  29.013  30.794  1.00  0.00    -0.248 NA
ATOM     33  C   UNL A   1      42.766  27.009  29.768  1.00  0.00     0.031 C 
ATOM     34  C   UNL A   1      44.616  31.196  33.754  1.00  0.00     0.029 A 
ATOM     35  C   UNL A   1      43.865  30.502  32.819  1.00  0.00     0.049 A 
ATOM     36  H   UNL A   1      42.003  31.012  31.964  1.00  0.00     0.167 HD
ATOM     37  C   UNL A   1      43.372  28.621  31.283  1.00  0.00     0.074 A 
ATOM     38  C   UNL A   1      43.694  27.360  30.647  1.00  0.00     0.031 C 
ATOM     39  C   UNL A   1      44.172  29.251  32.177  1.00  0.00     0.031 A 
BRANCH  26  40
ATOM     40  C   UNL A   1      41.957  34.638  34.222  1.00  0.00    -0.014 A 
ATOM     41  C   UNL A   1      42.604  35.779  33.721  1.00  0.00     0.009 A 
ATOM     42  C   UNL A   1      41.444  34.670  35.529  1.00  0.00     0.009 A 
ATOM     43  C   UNL A   1      42.751  36.917  34.519  1.00  0.00     0.001 A 
ATOM     44  C   UNL A   1      41.569  35.817  36.315  1.00  0.00     0.001 A 
ATOM     45  C   UNL A   1      42.228  36.937  35.812  1.00  0.00     0.000 A 
ENDBRANCH  26  40
BRANCH  27  46
ATOM     46  C   UNL A   1      40.296  26.827  28.214  1.00  0.00    -0.014 A 
ATOM     47  C   UNL A   1      39.613  25.684  28.655  1.00  0.00     0.009 A 
ATOM     48  C   UNL A   1      40.773  26.866  26.894  1.00  0.00     0.009 A 
ATOM     49  C   UNL A   1      39.443  24.591  27.801  1.00  0.00     0.001 A 
ATOM     50  C   UNL A   1      40.569  25.788  26.033  1.00  0.00     0.001 A 
ATOM     51  C   UNL A   1      39.917  24.646  26.490  1.00  0.00     0.000 A 
ENDBRANCH  27  46
BRANCH  39  52
ATOM     52  C   UNL A   1      45.455  28.562  32.546  1.00  0.00    -0.014 A 
ATOM     53  C   UNL A   1      45.502  27.605  33.572  1.00  0.00     0.009 A 
ATOM     54  C   UNL A   1      46.630  28.860  31.838  1.00  0.00     0.009 A 
ATOM     55  C   UNL A   1      46.709  26.990  33.907  1.00  0.00     0.001 A 
ATOM     56  C   UNL A   1      47.829  28.220  32.153  1.00  0.00     0.001 A 
ATOM     57  C   UNL A   1      47.869  27.294  33.194  1.00  0.00     0.000 A 
ENDBRANCH  39  52
ENDBRANCH  13  14
ENDBRANCH   6   8
ENDBRANCH   3   4
ENDBRANCH   2   3
ENDBRANCH   1   2
BRANCH   1  58
ATOM     58  C   UNL A   1      31.556  29.801  25.429  1.00  0.00     0.002 C 
BRANCH  58  59
ATOM     59  C   UNL A   1      31.857  28.296  25.392  1.00  0.00     0.021 C 
BRANCH  59  60
ATOM     60  C   UNL A   1      31.917  27.652  26.778  1.00  0.00     0.116 C 
BRANCH  60  61
ATOM     61  N   UNL A   1      31.145  26.429  26.803  1.00  0.00    -0.356 N 
ATOM     62  C   UNL A   1      31.488  25.155  26.455  1.00  0.00     0.229 C 
ATOM     63  H   UNL A   1      30.220  26.534  27.123  1.00  0.00     0.163 HD
ATOM     64  O   UNL A   1      30.586  24.317  26.510  1.00  0.00    -0.274 OA
BRANCH  62  65
ATOM     65  C   UNL A   1      32.948  24.823  26.116  1.00  0.00     0.127 C 
ATOM     66  C   UNL A   1      33.252  24.742  24.597  1.00  0.00     0.042 C 
ATOM     67  C   UNL A   1      33.343  23.449  26.554  1.00  0.00     0.031 A 
ATOM     68  C   UNL A   1      34.277  23.617  24.418  1.00  0.00     0.124 C 
ATOM     69  N   UNL A   1      34.084  22.806  25.601  1.00  0.00    -0.341 N 
ATOM     70  C   UNL A   1      33.173  22.593  27.606  1.00  0.00     0.025 A 
ATOM     71  C   UNL A   1      34.404  21.535  25.972  1.00  0.00     0.090 A 
ATOM     72  C   UNL A   1      33.827  21.387  27.236  1.00  0.00     0.032 A 
BRANCH  71  73
ATOM     73  C   UNL A   1      35.118  20.502  25.236  1.00  0.00     0.209 C 
ATOM     74  O   UNL A   1      36.345  20.466  25.154  1.00  0.00    -0.287 OA
BRANCH  73  75
ATOM     75  C   UNL A   1      34.385  19.405  24.566  1.00  0.00     0.024 A 
ATOM     76  C   UNL A   1      33.099  19.662  24.079  1.00  0.00     0.012 A 
ATOM     77  C   UNL A   1      34.945  18.128  24.442  1.00  0.00     0.012 A 
ATOM     78  C   UNL A   1      32.394  18.656  23.419  1.00  0.00     0.001 A 
ATOM     79  C   UNL A   1      34.240  17.129  23.769  1.00  0.00     0.001 A 
ATOM     80  C   UNL A   1      32.970  17.395  23.254  1.00  0.00     0.000 A 
ENDBRANCH  73  75
ENDBRANCH  71  73
ENDBRANCH  62  65
ENDBRANCH  60  61
ENDBRANCH  59  60
ENDBRANCH  58  59
ENDBRANCH   1  58
TORSDOF 15
ENDMDL
