MODEL 1
REMARK VINA RESULT:     -11.6      0.000      0.000
REMARK SMILES Cc1cc2c(c(C)c1Cl)C=C(C(=O)NCCCCCCNC(=O)c1ccc(-c3c4nc(c(-c5ccccc5)c5ccc([nH]5)c(-c5ccccc5)c5nc(c(-c6ccccc6)c6ccc3[nH]6)C=C5)C=C4)cc1)[C@H](C(F)(F)F)O2
REMARK SMILES IDX 18 1 17 2 16 3 15 4 14 5 12 6 13 7 11 9 1 10 2 11 3 12 8 13
REMARK SMILES IDX 4 14 6 15 9 16 5 17 77 18 7 19 10 20 72 21 73 22 74 23 75 24
REMARK SMILES IDX 76 25 19 26 20 27 21 28 22 29 23 31 24 32 25 33 71 34 26 35
REMARK SMILES IDX 70 36 27 37 28 38 29 39 64 40 30 41 69 42 63 43 65 44 31 45
REMARK SMILES IDX 68 46 62 47 61 48 32 50 54 51 39 52 53 53 40 54 43 55 52 56
REMARK SMILES IDX 66 57 41 58 42 59 51 61 67 62 44 63 33 64 34 65 38 66 35 67
REMARK SMILES IDX 37 68 36 69 55 70 56 71 60 72 57 73 59 74 58 75 45 76 46 77
REMARK SMILES IDX 50 78 47 79 49 80 48 81
REMARK H PARENT 14 8 21 30 65 49 43 60
REMARK Flexibility Score: inf
ROOT
ATOM      1  C   UNL A   1      31.420  30.796  26.294  1.00  0.00     0.002 C 
ENDROOT
BRANCH   1   2
ATOM      2  C   UNL A   1      32.341  30.012  27.238  1.00  0.00     0.002 C 
BRANCH   2   3
ATOM      3  C   UNL A   1      32.654  28.582  26.788  1.00  0.00     0.021 C 
BRANCH   3   4
ATOM      4  C   UNL A   1      34.033  28.434  26.152  1.00  0.00     0.116 C 
BRANCH   4   5
ATOM      5  N   UNL A   1      33.974  28.704  24.732  1.00  0.00    -0.352 N 
ATOM      6  C   UNL A   1      33.654  28.032  23.606  1.00  0.00     0.251 C 
ATOM      7  O   UNL A   1      33.765  28.691  22.566  1.00  0.00    -0.270 OA
ATOM      8  H   UNL A   1      34.241  29.631  24.532  1.00  0.00     0.163 HD
BRANCH   6   9
ATOM      9  C   UNL A   1      33.188  26.617  23.541  1.00  0.00     0.067 C 
ATOM     10  C   UNL A   1      32.517  20.143  23.696  1.00  0.00     0.046 C 
ATOM     11  C   UNL A   1      32.980  21.569  23.814  1.00  0.00    -0.028 A 
ATOM     12  C   UNL A   1      32.167  22.570  23.279  1.00  0.00     0.052 A 
ATOM     13  C   UNL A   1      34.212  21.931  24.395  1.00  0.00     0.047 A 
ATOM     14  C   UNL A   1      32.553  23.903  23.346  1.00  0.00     0.128 A 
ATOM     15  C   UNL A   1      34.620  23.286  24.465  1.00  0.00    -0.021 A 
ATOM     16  Cl  UNL A   1      35.235  20.667  25.009  1.00  0.00    -0.084 Cl
ATOM     17  C   UNL A   1      33.766  24.279  23.926  1.00  0.00     0.022 A 
ATOM     18  O   UNL A   1      31.694  24.786  22.762  1.00  0.00    -0.475 OA
ATOM     19  C   UNL A   1      35.936  23.695  25.084  1.00  0.00     0.047 C 
ATOM     20  C   UNL A   1      34.111  25.704  23.900  1.00  0.00     0.026 C 
ATOM     21  C   UNL A   1      31.802  26.171  23.172  1.00  0.00     0.314 C 
BRANCH  21  22
ATOM     22  C   UNL A   1      30.740  26.486  24.246  1.00  0.00     0.429 C 
ATOM     23  F   UNL A   1      31.107  26.091  25.487  1.00  0.00    -0.167 F 
ATOM     24  F   UNL A   1      30.504  27.822  24.311  1.00  0.00    -0.167 F 
ATOM     25  F   UNL A   1      29.547  25.903  23.982  1.00  0.00    -0.167 F 
ENDBRANCH  21  22
ENDBRANCH   6   9
ENDBRANCH   4   5
ENDBRANCH   3   4
ENDBRANCH   2   3
ENDBRANCH   1   2
BRANCH   1  26
ATOM     26  C   UNL A   1      31.401  32.310  26.519  1.00  0.00     0.021 C 
BRANCH  26  27
ATOM     27  C   UNL A   1      32.689  32.865  27.116  1.00  0.00     0.116 C 
BRANCH  27  28
ATOM     28  N   UNL A   1      32.488  34.188  27.683  1.00  0.00    -0.352 N 
ATOM     29  C   UNL A   1      33.122  34.780  28.744  1.00  0.00     0.251 C 
ATOM     30  H   UNL A   1      31.798  34.735  27.243  1.00  0.00     0.163 HD
ATOM     31  O   UNL A   1      32.667  35.796  29.256  1.00  0.00    -0.269 OA
BRANCH  29  32
ATOM     32  C   UNL A   1      34.360  34.175  29.272  1.00  0.00     0.039 A 
ATOM     33  C   UNL A   1      34.276  33.285  30.343  1.00  0.00     0.014 A 
ATOM     34  C   UNL A   1      35.599  34.493  28.707  1.00  0.00     0.014 A 
ATOM     35  C   UNL A   1      35.436  32.673  30.817  1.00  0.00     0.010 A 
ATOM     36  C   UNL A   1      36.741  33.824  29.129  1.00  0.00     0.010 A 
ATOM     37  C   UNL A   1      36.673  32.918  30.198  1.00  0.00    -0.014 A 
BRANCH  37  38
ATOM     38  C   UNL A   1      37.909  32.253  30.673  1.00  0.00     0.031 A 
ATOM     39  C   UNL A   1      38.678  32.835  31.826  1.00  0.00     0.074 A 
ATOM     40  C   UNL A   1      38.352  31.144  30.051  1.00  0.00     0.049 A 
ATOM     41  N   UNL A   1      39.783  32.406  32.379  1.00  0.00    -0.248 NA
ATOM     42  C   UNL A   1      38.147  34.071  32.427  1.00  0.00     0.031 C 
ATOM     43  C   UNL A   1      37.705  30.499  28.908  1.00  0.00     0.029 A 
ATOM     44  N   UNL A   1      39.448  30.356  30.301  1.00  0.00    -0.354 N 
ATOM     45  C   UNL A   1      40.076  33.314  33.387  1.00  0.00     0.074 A 
ATOM     46  C   UNL A   1      39.073  34.354  33.330  1.00  0.00     0.031 C 
ATOM     47  C   UNL A   1      38.390  29.390  28.583  1.00  0.00     0.029 A 
ATOM     48  C   UNL A   1      39.547  29.271  29.466  1.00  0.00     0.049 A 
ATOM     49  H   UNL A   1      40.101  30.552  31.012  1.00  0.00     0.167 HD
ATOM     50  C   UNL A   1      41.075  33.272  34.299  1.00  0.00     0.031 A 
ATOM     51  C   UNL A   1      40.464  28.287  29.418  1.00  0.00     0.031 A 
ATOM     52  C   UNL A   1      42.069  32.236  34.357  1.00  0.00     0.049 A 
ATOM     53  C   UNL A   1      41.594  28.291  30.410  1.00  0.00     0.074 A 
ATOM     54  C   UNL A   1      43.102  32.086  35.264  1.00  0.00     0.029 A 
ATOM     55  N   UNL A   1      42.155  31.174  33.471  1.00  0.00    -0.354 N 
ATOM     56  N   UNL A   1      41.826  29.127  31.392  1.00  0.00    -0.248 NA
ATOM     57  C   UNL A   1      42.584  27.211  30.292  1.00  0.00     0.031 C 
ATOM     58  C   UNL A   1      43.848  30.965  34.893  1.00  0.00     0.029 A 
ATOM     59  C   UNL A   1      43.241  30.380  33.792  1.00  0.00     0.049 A 
ATOM     60  H   UNL A   1      41.535  31.009  32.723  1.00  0.00     0.167 HD
ATOM     61  C   UNL A   1      42.974  28.664  32.022  1.00  0.00     0.074 A 
ATOM     62  C   UNL A   1      43.380  27.462  31.324  1.00  0.00     0.031 C 
ATOM     63  C   UNL A   1      43.633  29.189  33.084  1.00  0.00     0.031 A 
BRANCH  50  64
ATOM     64  C   UNL A   1      41.138  34.378  35.316  1.00  0.00    -0.014 A 
ATOM     65  C   UNL A   1      40.472  34.267  36.546  1.00  0.00     0.009 A 
ATOM     66  C   UNL A   1      41.920  35.517  35.067  1.00  0.00     0.009 A 
ATOM     67  C   UNL A   1      40.566  35.285  37.498  1.00  0.00     0.001 A 
ATOM     68  C   UNL A   1      42.038  36.519  36.032  1.00  0.00     0.001 A 
ATOM     69  C   UNL A   1      41.355  36.406  37.242  1.00  0.00     0.000 A 
ENDBRANCH  50  64
BRANCH  51  70
ATOM     70  C   UNL A   1      40.335  27.200  28.412  1.00  0.00    -0.014 A 
ATOM     71  C   UNL A   1      39.595  26.044  28.706  1.00  0.00     0.009 A 
ATOM     72  C   UNL A   1      40.930  27.317  27.146  1.00  0.00     0.009 A 
ATOM     73  C   UNL A   1      39.470  25.023  27.762  1.00  0.00     0.001 A 
ATOM     74  C   UNL A   1      40.778  26.308  26.193  1.00  0.00     0.001 A 
ATOM     75  C   UNL A   1      40.055  25.159  26.504  1.00  0.00     0.000 A 
ENDBRANCH  51  70
BRANCH  63  76
ATOM     76  C   UNL A   1      44.856  28.464  33.573  1.00  0.00    -0.014 A 
ATOM     77  C   UNL A   1      44.751  27.386  34.466  1.00  0.00     0.009 A 
ATOM     78  C   UNL A   1      46.118  28.806  33.063  1.00  0.00     0.009 A 
ATOM     79  C   UNL A   1      45.891  26.679  34.853  1.00  0.00     0.001 A 
ATOM     80  C   UNL A   1      47.251  28.078  33.429  1.00  0.00     0.001 A 
ATOM     81  C   UNL A   1      47.137  27.020  34.328  1.00  0.00     0.000 A 
ENDBRANCH  63  76
ENDBRANCH  37  38
ENDBRANCH  29  32
ENDBRANCH  27  28
ENDBRANCH  26  27
ENDBRANCH   1  26
TORSDOF 14
ENDMDL
MODEL 2
REMARK VINA RESULT:     -11.5      0.528      5.918
REMARK SMILES Cc1cc2c(c(C)c1Cl)C=C(C(=O)NCCCCCCNC(=O)c1ccc(-c3c4nc(c(-c5ccccc5)c5ccc([nH]5)c(-c5ccccc5)c5nc(c(-c6ccccc6)c6ccc3[nH]6)C=C5)C=C4)cc1)[C@H](C(F)(F)F)O2
REMARK SMILES IDX 18 1 17 2 16 3 15 4 14 5 12 6 13 7 11 9 1 10 2 11 3 12 8 13
REMARK SMILES IDX 4 14 6 15 9 16 5 17 77 18 7 19 10 20 72 21 73 22 74 23 75 24
REMARK SMILES IDX 76 25 19 26 20 27 21 28 22 29 23 31 24 32 25 33 71 34 26 35
REMARK SMILES IDX 70 36 27 37 28 38 29 39 64 40 30 41 69 42 63 43 65 44 31 45
REMARK SMILES IDX 68 46 62 47 61 48 32 50 54 51 39 52 53 53 40 54 43 55 52 56
REMARK SMILES IDX 66 57 41 58 42 59 51 61 67 62 44 63 33 64 34 65 38 66 35 67
REMARK SMILES IDX 37 68 36 69 55 70 56 71 60 72 57 73 59 74 58 75 45 76 46 77
REMARK SMILES IDX 50 78 47 79 49 80 48 81
REMARK H PARENT 14 8 21 30 65 49 43 60
REMARK Flexibility Score: inf
ROOT
ATOM      1  C   UNL A   1      31.493  30.836  26.316  1.00  0.00     0.002 C 
ENDROOT
BRANCH   1   2
ATOM      2  C   UNL A   1      32.435  30.043  27.231  1.00  0.00     0.002 C 
BRANCH   2   3
ATOM      3  C   UNL A   1      32.707  28.605  26.780  1.00  0.00     0.021 C 
BRANCH   3   4
ATOM      4  C   UNL A   1      34.082  28.415  26.149  1.00  0.00     0.116 C 
BRANCH   4   5
ATOM      5  N   UNL A   1      34.043  28.716  24.734  1.00  0.00    -0.352 N 
ATOM      6  C   UNL A   1      33.715  28.077  23.592  1.00  0.00     0.251 C 
ATOM      7  O   UNL A   1      33.851  28.753  22.567  1.00  0.00    -0.270 OA
ATOM      8  H   UNL A   1      34.335  29.640  24.556  1.00  0.00     0.163 HD
BRANCH   6   9
ATOM      9  C   UNL A   1      33.212  26.676  23.494  1.00  0.00     0.067 C 
ATOM     10  C   UNL A   1      32.370  20.220  23.506  1.00  0.00     0.046 C 
ATOM     11  C   UNL A   1      32.869  21.631  23.657  1.00  0.00    -0.028 A 
ATOM     12  C   UNL A   1      32.086  22.664  23.138  1.00  0.00     0.052 A 
ATOM     13  C   UNL A   1      34.106  21.947  24.253  1.00  0.00     0.047 A 
ATOM     14  C   UNL A   1      32.507  23.984  23.237  1.00  0.00     0.128 A 
ATOM     15  C   UNL A   1      34.549  23.289  24.355  1.00  0.00    -0.021 A 
ATOM     16  Cl  UNL A   1      35.091  20.644  24.846  1.00  0.00    -0.084 Cl
ATOM     17  C   UNL A   1      33.726  24.316  23.832  1.00  0.00     0.022 A 
ATOM     18  O   UNL A   1      31.676  24.902  22.666  1.00  0.00    -0.475 OA
ATOM     19  C   UNL A   1      35.871  23.650  24.991  1.00  0.00     0.047 C 
ATOM     20  C   UNL A   1      34.108  25.731  23.838  1.00  0.00     0.026 C 
ATOM     21  C   UNL A   1      31.817  26.275  23.107  1.00  0.00     0.314 C 
BRANCH  21  22
ATOM     22  C   UNL A   1      30.757  26.595  24.181  1.00  0.00     0.429 C 
ATOM     23  F   UNL A   1      29.557  26.022  23.929  1.00  0.00    -0.167 F 
ATOM     24  F   UNL A   1      31.158  26.151  25.400  1.00  0.00    -0.167 F 
ATOM     25  F   UNL A   1      30.539  27.925  24.315  1.00  0.00    -0.167 F 
ENDBRANCH  21  22
ENDBRANCH   6   9
ENDBRANCH   4   5
ENDBRANCH   3   4
ENDBRANCH   2   3
ENDBRANCH   1   2
BRANCH   1  26
ATOM     26  C   UNL A   1      31.412  32.335  26.616  1.00  0.00     0.021 C 
BRANCH  26  27
ATOM     27  C   UNL A   1      32.677  32.913  27.241  1.00  0.00     0.116 C 
BRANCH  27  28
ATOM     28  N   UNL A   1      32.478  34.286  27.674  1.00  0.00    -0.352 N 
ATOM     29  C   UNL A   1      33.086  34.967  28.697  1.00  0.00     0.251 C 
ATOM     30  H   UNL A   1      31.813  34.799  27.161  1.00  0.00     0.163 HD
ATOM     31  O   UNL A   1      32.630  36.032  29.096  1.00  0.00    -0.269 OA
BRANCH  29  32
ATOM     32  C   UNL A   1      34.294  34.397  29.324  1.00  0.00     0.039 A 
ATOM     33  C   UNL A   1      34.177  33.740  30.550  1.00  0.00     0.014 A 
ATOM     34  C   UNL A   1      35.539  34.517  28.698  1.00  0.00     0.014 A 
ATOM     35  C   UNL A   1      35.306  33.158  31.125  1.00  0.00     0.010 A 
ATOM     36  C   UNL A   1      36.645  33.870  29.234  1.00  0.00     0.010 A 
ATOM     37  C   UNL A   1      36.542  33.197  30.460  1.00  0.00    -0.014 A 
BRANCH  37  38
ATOM     38  C   UNL A   1      37.745  32.558  31.046  1.00  0.00     0.031 A 
ATOM     39  C   UNL A   1      38.313  31.314  30.423  1.00  0.00     0.074 A 
ATOM     40  C   UNL A   1      38.307  33.083  32.152  1.00  0.00     0.049 A 
ATOM     41  N   UNL A   1      39.349  30.607  30.794  1.00  0.00    -0.248 NA
ATOM     42  C   UNL A   1      37.617  30.783  29.239  1.00  0.00     0.031 C 
ATOM     43  C   UNL A   1      37.832  34.273  32.859  1.00  0.00     0.029 A 
ATOM     44  N   UNL A   1      39.407  32.687  32.869  1.00  0.00    -0.354 N 
ATOM     45  C   UNL A   1      39.428  29.555  29.893  1.00  0.00     0.074 A 
ATOM     46  C   UNL A   1      38.300  29.674  28.996  1.00  0.00     0.031 C 
ATOM     47  C   UNL A   1      38.662  34.536  33.882  1.00  0.00     0.029 A 
ATOM     48  C   UNL A   1      39.699  33.510  33.929  1.00  0.00     0.049 A 
ATOM     49  H   UNL A   1      39.937  31.887  32.645  1.00  0.00     0.167 HD
ATOM     50  C   UNL A   1      40.371  28.590  29.801  1.00  0.00     0.031 A 
ATOM     51  C   UNL A   1      40.693  33.448  34.834  1.00  0.00     0.031 A 
ATOM     52  C   UNL A   1      41.495  28.473  30.690  1.00  0.00     0.049 A 
ATOM     53  C   UNL A   1      41.701  32.335  34.741  1.00  0.00     0.074 A 
ATOM     54  C   UNL A   1      42.524  27.550  30.658  1.00  0.00     0.029 A 
ATOM     55  N   UNL A   1      41.734  29.306  31.771  1.00  0.00    -0.354 N 
ATOM     56  N   UNL A   1      41.793  31.379  33.849  1.00  0.00    -0.248 NA
ATOM     57  C   UNL A   1      42.745  32.298  35.774  1.00  0.00     0.031 C 
ATOM     58  C   UNL A   1      43.356  27.788  31.755  1.00  0.00     0.029 A 
ATOM     59  C   UNL A   1      42.879  28.901  32.432  1.00  0.00     0.049 A 
ATOM     60  H   UNL A   1      41.172  30.073  32.031  1.00  0.00     0.167 HD
ATOM     61  C   UNL A   1      42.915  30.640  34.200  1.00  0.00     0.074 A 
ATOM     62  C   UNL A   1      43.483  31.270  35.374  1.00  0.00     0.031 C 
ATOM     63  C   UNL A   1      43.428  29.537  33.601  1.00  0.00     0.031 A 
BRANCH  50  64
ATOM     64  C   UNL A   1      40.234  27.583  28.692  1.00  0.00    -0.014 A 
ATOM     65  C   UNL A   1      40.824  27.806  27.437  1.00  0.00     0.009 A 
ATOM     66  C   UNL A   1      39.560  26.374  28.920  1.00  0.00     0.009 A 
ATOM     67  C   UNL A   1      40.720  26.849  26.425  1.00  0.00     0.001 A 
ATOM     68  C   UNL A   1      39.483  25.406  27.918  1.00  0.00     0.001 A 
ATOM     69  C   UNL A   1      40.057  25.647  26.669  1.00  0.00     0.000 A 
ENDBRANCH  50  64
BRANCH  51  70
ATOM     70  C   UNL A   1      40.800  34.488  35.891  1.00  0.00    -0.014 A 
ATOM     71  C   UNL A   1      41.564  35.646  35.674  1.00  0.00     0.009 A 
ATOM     72  C   UNL A   1      40.125  34.343  37.114  1.00  0.00     0.009 A 
ATOM     73  C   UNL A   1      41.664  36.626  36.664  1.00  0.00     0.001 A 
ATOM     74  C   UNL A   1      40.202  35.338  38.090  1.00  0.00     0.001 A 
ATOM     75  C   UNL A   1      40.977  36.475  37.867  1.00  0.00     0.000 A 
ENDBRANCH  51  70
BRANCH  63  76
ATOM     76  C   UNL A   1      44.676  28.942  34.192  1.00  0.00    -0.014 A 
ATOM     77  C   UNL A   1      45.947  29.398  33.810  1.00  0.00     0.009 A 
ATOM     78  C   UNL A   1      44.575  27.978  35.207  1.00  0.00     0.009 A 
ATOM     79  C   UNL A   1      47.093  28.884  34.421  1.00  0.00     0.001 A 
ATOM     80  C   UNL A   1      45.720  27.488  35.837  1.00  0.00     0.001 A 
ATOM     81  C   UNL A   1      46.978  27.937  35.439  1.00  0.00     0.000 A 
ENDBRANCH  63  76
ENDBRANCH  37  38
ENDBRANCH  29  32
ENDBRANCH  27  28
ENDBRANCH  26  27
ENDBRANCH   1  26
TORSDOF 14
ENDMDL
MODEL 3
REMARK VINA RESULT:     -11.4      0.664      5.868
REMARK SMILES Cc1cc2c(c(C)c1Cl)C=C(C(=O)NCCCCCCNC(=O)c1ccc(-c3c4nc(c(-c5ccccc5)c5ccc([nH]5)c(-c5ccccc5)c5nc(c(-c6ccccc6)c6ccc3[nH]6)C=C5)C=C4)cc1)[C@H](C(F)(F)F)O2
REMARK SMILES IDX 18 1 17 2 16 3 15 4 14 5 12 6 13 7 11 9 1 10 2 11 3 12 8 13
REMARK SMILES IDX 4 14 6 15 9 16 5 17 77 18 7 19 10 20 72 21 73 22 74 23 75 24
REMARK SMILES IDX 76 25 19 26 20 27 21 28 22 29 23 31 24 32 25 33 71 34 26 35
REMARK SMILES IDX 70 36 27 37 28 38 29 39 64 40 30 41 69 42 63 43 65 44 31 45
REMARK SMILES IDX 68 46 62 47 61 48 32 50 54 51 39 52 53 53 40 54 43 55 52 56
REMARK SMILES IDX 66 57 41 58 42 59 51 61 67 62 44 63 33 64 34 65 38 66 35 67
REMARK SMILES IDX 37 68 36 69 55 70 56 71 60 72 57 73 59 74 58 75 45 76 46 77
REMARK SMILES IDX 50 78 47 79 49 80 48 81
REMARK H PARENT 14 8 21 30 65 49 43 60
REMARK Flexibility Score: inf
ROOT
ATOM      1  C   UNL A   1      31.552  30.319  26.082  1.00  0.00     0.002 C 
ENDROOT
BRANCH   1   2
ATOM      2  C   UNL A   1      31.864  29.306  27.193  1.00  0.00     0.002 C 
BRANCH   2   3
ATOM      3  C   UNL A   1      32.754  28.137  26.763  1.00  0.00     0.021 C 
BRANCH   3   4
ATOM      4  C   UNL A   1      34.081  28.575  26.152  1.00  0.00     0.116 C 
BRANCH   4   5
ATOM      5  N   UNL A   1      33.914  28.921  24.757  1.00  0.00    -0.352 N 
ATOM      6  C   UNL A   1      33.521  28.305  23.622  1.00  0.00     0.251 C 
ATOM      7  O   UNL A   1      33.545  29.019  22.614  1.00  0.00    -0.270 OA
ATOM      8  H   UNL A   1      34.152  29.862  24.589  1.00  0.00     0.163 HD
BRANCH   6   9
ATOM      9  C   UNL A   1      33.070  26.887  23.514  1.00  0.00     0.067 C 
ATOM     10  C   UNL A   1      32.439  20.407  23.564  1.00  0.00     0.046 C 
ATOM     11  C   UNL A   1      32.882  21.835  23.724  1.00  0.00    -0.028 A 
ATOM     12  C   UNL A   1      32.098  22.836  23.148  1.00  0.00     0.052 A 
ATOM     13  C   UNL A   1      34.073  22.199  24.386  1.00  0.00     0.047 A 
ATOM     14  C   UNL A   1      32.469  24.171  23.253  1.00  0.00     0.128 A 
ATOM     15  C   UNL A   1      34.465  23.557  24.495  1.00  0.00    -0.021 A 
ATOM     16  Cl  UNL A   1      35.063  20.936  25.051  1.00  0.00    -0.084 Cl
ATOM     17  C   UNL A   1      33.640  24.549  23.913  1.00  0.00     0.022 A 
ATOM     18  O   UNL A   1      31.643  25.053  22.623  1.00  0.00    -0.475 OA
ATOM     19  C   UNL A   1      35.736  23.968  25.200  1.00  0.00     0.047 C 
ATOM     20  C   UNL A   1      33.975  25.976  23.921  1.00  0.00     0.026 C 
ATOM     21  C   UNL A   1      31.713  26.435  23.054  1.00  0.00     0.314 C 
BRANCH  21  22
ATOM     22  C   UNL A   1      30.583  26.732  24.061  1.00  0.00     0.429 C 
ATOM     23  F   UNL A   1      30.346  28.055  24.217  1.00  0.00    -0.167 F 
ATOM     24  F   UNL A   1      29.418  26.167  23.655  1.00  0.00    -0.167 F 
ATOM     25  F   UNL A   1      30.840  26.229  25.292  1.00  0.00    -0.167 F 
ENDBRANCH  21  22
ENDBRANCH   6   9
ENDBRANCH   4   5
ENDBRANCH   3   4
ENDBRANCH   2   3
ENDBRANCH   1   2
BRANCH   1  26
ATOM     26  C   UNL A   1      31.419  31.770  26.551  1.00  0.00     0.021 C 
BRANCH  26  27
ATOM     27  C   UNL A   1      32.672  32.326  27.217  1.00  0.00     0.116 C 
BRANCH  27  28
ATOM     28  N   UNL A   1      32.481  33.700  27.650  1.00  0.00    -0.352 N 
ATOM     29  C   UNL A   1      33.180  34.417  28.586  1.00  0.00     0.251 C 
ATOM     30  H   UNL A   1      31.746  34.184  27.209  1.00  0.00     0.163 HD
ATOM     31  O   UNL A   1      32.740  35.475  29.019  1.00  0.00    -0.269 OA
BRANCH  29  32
ATOM     32  C   UNL A   1      34.470  33.895  29.077  1.00  0.00     0.039 A 
ATOM     33  C   UNL A   1      34.518  33.263  30.321  1.00  0.00     0.014 A 
ATOM     34  C   UNL A   1      35.629  34.033  28.307  1.00  0.00     0.014 A 
ATOM     35  C   UNL A   1      35.723  32.726  30.771  1.00  0.00     0.010 A 
ATOM     36  C   UNL A   1      36.809  33.430  28.720  1.00  0.00     0.010 A 
ATOM     37  C   UNL A   1      36.871  32.783  29.963  1.00  0.00    -0.014 A 
BRANCH  37  38
ATOM     38  C   UNL A   1      38.152  32.191  30.417  1.00  0.00     0.031 A 
ATOM     39  C   UNL A   1      38.610  30.874  29.855  1.00  0.00     0.074 A 
ATOM     40  C   UNL A   1      38.887  32.825  31.350  1.00  0.00     0.049 A 
ATOM     41  N   UNL A   1      39.693  30.193  30.132  1.00  0.00    -0.248 NA
ATOM     42  C   UNL A   1      37.730  30.227  28.866  1.00  0.00     0.031 C 
ATOM     43  C   UNL A   1      38.535  34.095  31.985  1.00  0.00     0.029 A 
ATOM     44  N   UNL A   1      40.089  32.490  31.920  1.00  0.00    -0.354 N 
ATOM     45  C   UNL A   1      39.623  29.045  29.354  1.00  0.00     0.074 A 
ATOM     46  C   UNL A   1      38.364  29.086  28.644  1.00  0.00     0.031 C 
ATOM     47  C   UNL A   1      39.520  34.455  32.824  1.00  0.00     0.029 A 
ATOM     48  C   UNL A   1      40.550  33.420  32.819  1.00  0.00     0.049 A 
ATOM     49  H   UNL A   1      40.575  31.660  31.706  1.00  0.00     0.167 HD
ATOM     50  C   UNL A   1      40.538  28.058  29.221  1.00  0.00     0.031 A 
ATOM     51  C   UNL A   1      41.678  33.441  33.553  1.00  0.00     0.031 A 
ATOM     52  C   UNL A   1      41.791  28.020  29.925  1.00  0.00     0.049 A 
ATOM     53  C   UNL A   1      42.656  32.306  33.425  1.00  0.00     0.074 A 
ATOM     54  C   UNL A   1      42.801  27.080  29.832  1.00  0.00     0.029 A 
ATOM     55  N   UNL A   1      42.204  28.964  30.852  1.00  0.00    -0.354 N 
ATOM     56  N   UNL A   1      42.601  31.255  32.644  1.00  0.00    -0.248 NA
ATOM     57  C   UNL A   1      43.855  32.364  34.273  1.00  0.00     0.031 C 
ATOM     58  C   UNL A   1      43.800  27.423  30.746  1.00  0.00     0.029 A 
ATOM     59  C   UNL A   1      43.441  28.613  31.361  1.00  0.00     0.049 A 
ATOM     60  H   UNL A   1      41.692  29.765  31.110  1.00  0.00     0.167 HD
ATOM     61  C   UNL A   1      43.765  30.538  32.891  1.00  0.00     0.074 A 
ATOM     62  C   UNL A   1      44.517  31.284  33.878  1.00  0.00     0.031 C 
ATOM     63  C   UNL A   1      44.174  29.366  32.346  1.00  0.00     0.031 A 
BRANCH  50  64
ATOM     64  C   UNL A   1      40.222  26.937  28.270  1.00  0.00    -0.014 A 
ATOM     65  C   UNL A   1      40.730  26.934  26.961  1.00  0.00     0.009 A 
ATOM     66  C   UNL A   1      39.458  25.842  28.704  1.00  0.00     0.009 A 
ATOM     67  C   UNL A   1      40.458  25.871  26.097  1.00  0.00     0.001 A 
ATOM     68  C   UNL A   1      39.213  24.766  27.849  1.00  0.00     0.001 A 
ATOM     69  C   UNL A   1      39.708  24.785  26.545  1.00  0.00     0.000 A 
ENDBRANCH  50  64
BRANCH  51  70
ATOM     70  C   UNL A   1      41.956  34.591  34.454  1.00  0.00    -0.014 A 
ATOM     71  C   UNL A   1      41.757  34.473  35.838  1.00  0.00     0.009 A 
ATOM     72  C   UNL A   1      42.441  35.805  33.942  1.00  0.00     0.009 A 
ATOM     73  C   UNL A   1      42.020  35.551  36.687  1.00  0.00     0.001 A 
ATOM     74  C   UNL A   1      42.731  36.871  34.795  1.00  0.00     0.001 A 
ATOM     75  C   UNL A   1      42.514  36.745  36.166  1.00  0.00     0.000 A 
ENDBRANCH  51  70
BRANCH  63  76
ATOM     76  C   UNL A   1      45.501  28.816  32.791  1.00  0.00    -0.014 A 
ATOM     77  C   UNL A   1      45.587  27.906  33.856  1.00  0.00     0.009 A 
ATOM     78  C   UNL A   1      46.664  29.144  32.078  1.00  0.00     0.009 A 
ATOM     79  C   UNL A   1      46.819  27.351  34.209  1.00  0.00     0.001 A 
ATOM     80  C   UNL A   1      47.889  28.564  32.414  1.00  0.00     0.001 A 
ATOM     81  C   UNL A   1      47.965  27.673  33.483  1.00  0.00     0.000 A 
ENDBRANCH  63  76
ENDBRANCH  37  38
ENDBRANCH  29  32
ENDBRANCH  27  28
ENDBRANCH  26  27
ENDBRANCH   1  26
TORSDOF 14
ENDMDL
