MODEL 1
REMARK VINA RESULT:     -11.3      0.000      0.000
REMARK SMILES COc1cccc(NC(=O)[C@@H]2[C@@H](C(=O)NCCCCCCNC(=O)c3ccc(-c4c5nc(c(-c6ccccc6)c6ccc([nH]6)c(-c6ccccc6)c6nc(c(-c7ccccc7)c7ccc4[nH]7)C=C6)C=C5)cc3)[C@H]3C=C[C@@H]2C3)c1
REMARK SMILES IDX 18 1 17 2 16 3 15 4 13 5 14 6 12 8 11 9 76 10 73 11 75 12
REMARK SMILES IDX 77 13 74 14 9 15 8 16 10 18 7 19 3 20 4 21 78 22 5 23 6 24
REMARK SMILES IDX 2 25 1 26 19 27 20 28 21 29 22 30 23 31 24 33 25 34 26 35
REMARK SMILES IDX 72 36 27 37 71 38 28 39 29 40 30 41 65 42 31 43 70 44 64 45
REMARK SMILES IDX 66 46 32 47 69 48 63 49 62 50 33 52 55 53 40 54 54 55 41 56
REMARK SMILES IDX 44 57 53 58 67 59 42 60 43 61 52 63 68 64 45 65 34 66 35 67
REMARK SMILES IDX 39 68 36 69 38 70 37 71 56 72 57 73 61 74 58 75 60 76 59 77
REMARK SMILES IDX 46 78 47 79 51 80 48 81 50 82 49 83
REMARK H PARENT 15 7 8 17 22 32 66 51 44 62
REMARK Flexibility Score: inf
ROOT
ATOM      1  C   UNL A   1      37.062  21.564  24.834  1.00  0.00     0.002 C 
ENDROOT
BRANCH   1   2
ATOM      2  C   UNL A   1      36.195  22.254  25.892  1.00  0.00     0.021 C 
BRANCH   2   3
ATOM      3  C   UNL A   1      36.189  23.780  25.780  1.00  0.00     0.116 C 
BRANCH   3   4
ATOM      4  N   UNL A   1      35.693  24.194  24.486  1.00  0.00    -0.356 N 
ATOM      5  C   UNL A   1      34.453  24.333  23.965  1.00  0.00     0.224 C 
ATOM      6  O   UNL A   1      34.420  24.535  22.745  1.00  0.00    -0.275 OA
ATOM      7  H   UNL A   1      36.409  24.422  23.849  1.00  0.00     0.163 HD
BRANCH   5   8
ATOM      8  C   UNL A   1      33.139  24.293  24.738  1.00  0.00     0.098 C 
ATOM      9  C   UNL A   1      32.389  22.926  24.792  1.00  0.00     0.099 C 
ATOM     10  C   UNL A   1      30.901  23.379  24.709  1.00  0.00     0.025 C 
ATOM     11  C   UNL A   1      32.015  25.303  24.395  1.00  0.00     0.025 C 
ATOM     12  C   UNL A   1      30.616  23.827  23.298  1.00  0.00    -0.027 C 
ATOM     13  C   UNL A   1      30.940  24.775  25.359  1.00  0.00     0.017 C 
ATOM     14  C   UNL A   1      31.276  24.980  23.117  1.00  0.00    -0.027 C 
BRANCH   9  15
ATOM     15  C   UNL A   1      32.588  22.141  26.076  1.00  0.00     0.228 C 
ATOM     16  N   UNL A   1      32.622  20.774  26.087  1.00  0.00    -0.326 N 
ATOM     17  H   UNL A   1      32.616  20.407  27.000  1.00  0.00     0.169 HD
ATOM     18  O   UNL A   1      32.660  22.702  27.173  1.00  0.00    -0.274 OA
BRANCH  16  19
ATOM     19  C   UNL A   1      32.662  19.765  25.105  1.00  0.00     0.044 A 
ATOM     20  C   UNL A   1      33.199  17.428  24.640  1.00  0.00     0.120 A 
ATOM     21  C   UNL A   1      32.900  17.620  23.295  1.00  0.00     0.046 A 
ATOM     22  C   UNL A   1      33.103  18.499  25.534  1.00  0.00     0.072 A 
ATOM     23  C   UNL A   1      32.469  18.865  22.854  1.00  0.00     0.006 A 
ATOM     24  C   UNL A   1      32.349  19.928  23.755  1.00  0.00     0.026 A 
BRANCH  20  25
ATOM     25  O   UNL A   1      33.641  16.177  24.973  1.00  0.00    -0.497 OA
ATOM     26  C   UNL A   1      32.623  15.292  25.430  1.00  0.00     0.278 C 
ENDBRANCH  20  25
ENDBRANCH  16  19
ENDBRANCH   9  15
ENDBRANCH   5   8
ENDBRANCH   3   4
ENDBRANCH   2   3
ENDBRANCH   1   2
BRANCH   1  27
ATOM     27  C   UNL A   1      36.844  20.050  24.716  1.00  0.00     0.002 C 
BRANCH  27  28
ATOM     28  C   UNL A   1      38.063  19.181  25.043  1.00  0.00     0.021 C 
BRANCH  28  29
ATOM     29  C   UNL A   1      39.173  19.892  25.812  1.00  0.00     0.116 C 
BRANCH  29  30
ATOM     30  N   UNL A   1      40.415  19.135  25.796  1.00  0.00    -0.352 N 
ATOM     31  C   UNL A   1      41.703  19.563  25.982  1.00  0.00     0.251 C 
ATOM     32  H   UNL A   1      40.315  18.171  25.624  1.00  0.00     0.163 HD
ATOM     33  O   UNL A   1      42.642  18.816  25.713  1.00  0.00    -0.269 OA
BRANCH  31  34
ATOM     34  C   UNL A   1      41.977  20.919  26.503  1.00  0.00     0.039 A 
ATOM     35  C   UNL A   1      41.889  21.144  27.880  1.00  0.00     0.014 A 
ATOM     36  C   UNL A   1      42.265  21.979  25.638  1.00  0.00     0.014 A 
ATOM     37  C   UNL A   1      42.129  22.421  28.394  1.00  0.00     0.010 A 
ATOM     38  C   UNL A   1      42.566  23.237  26.157  1.00  0.00     0.010 A 
ATOM     39  C   UNL A   1      42.487  23.474  27.538  1.00  0.00    -0.014 A 
BRANCH  39  40
ATOM     40  C   UNL A   1      42.750  24.836  28.065  1.00  0.00     0.031 A 
ATOM     41  C   UNL A   1      44.145  25.234  28.466  1.00  0.00     0.074 A 
ATOM     42  C   UNL A   1      41.730  25.702  28.225  1.00  0.00     0.049 A 
ATOM     43  N   UNL A   1      44.564  26.355  28.997  1.00  0.00    -0.248 NA
ATOM     44  C   UNL A   1      45.203  24.231  28.264  1.00  0.00     0.031 C 
ATOM     45  C   UNL A   1      40.328  25.432  27.900  1.00  0.00     0.029 A 
ATOM     46  N   UNL A   1      41.718  26.988  28.705  1.00  0.00    -0.354 N 
ATOM     47  C   UNL A   1      45.929  26.188  29.200  1.00  0.00     0.074 A 
ATOM     48  C   UNL A   1      46.257  24.842  28.786  1.00  0.00     0.031 C 
ATOM     49  C   UNL A   1      39.597  26.526  28.169  1.00  0.00     0.029 A 
ATOM     50  C   UNL A   1      40.471  27.560  28.715  1.00  0.00     0.049 A 
ATOM     51  H   UNL A   1      42.529  27.454  29.014  1.00  0.00     0.167 HD
ATOM     52  C   UNL A   1      46.834  27.080  29.669  1.00  0.00     0.031 A 
ATOM     53  C   UNL A   1      40.075  28.781  29.120  1.00  0.00     0.031 A 
ATOM     54  C   UNL A   1      46.514  28.422  30.075  1.00  0.00     0.049 A 
ATOM     55  C   UNL A   1      41.096  29.749  29.648  1.00  0.00     0.074 A 
ATOM     56  C   UNL A   1      47.364  29.411  30.541  1.00  0.00     0.029 A 
ATOM     57  N   UNL A   1      45.239  28.968  30.054  1.00  0.00    -0.354 N 
ATOM     58  N   UNL A   1      42.389  29.588  29.794  1.00  0.00    -0.248 NA
ATOM     59  C   UNL A   1      40.604  31.074  30.051  1.00  0.00     0.031 C 
ATOM     60  C   UNL A   1      46.598  30.544  30.834  1.00  0.00     0.029 A 
ATOM     61  C   UNL A   1      45.278  30.276  30.506  1.00  0.00     0.049 A 
ATOM     62  H   UNL A   1      44.426  28.494  29.763  1.00  0.00     0.167 HD
ATOM     63  C   UNL A   1      42.869  30.801  30.273  1.00  0.00     0.074 A 
ATOM     64  C   UNL A   1      41.731  31.690  30.380  1.00  0.00     0.031 C 
ATOM     65  C   UNL A   1      44.138  31.149  30.595  1.00  0.00     0.031 A 
BRANCH  52  66
ATOM     66  C   UNL A   1      48.263  26.626  29.764  1.00  0.00    -0.014 A 
ATOM     67  C   UNL A   1      48.734  25.956  30.905  1.00  0.00     0.009 A 
ATOM     68  C   UNL A   1      49.142  26.841  28.691  1.00  0.00     0.009 A 
ATOM     69  C   UNL A   1      50.066  25.544  30.984  1.00  0.00     0.001 A 
ATOM     70  C   UNL A   1      50.466  26.403  28.762  1.00  0.00     0.001 A 
ATOM     71  C   UNL A   1      50.929  25.764  29.912  1.00  0.00     0.000 A 
ENDBRANCH  52  66
BRANCH  53  72
ATOM     72  C   UNL A   1      38.644  29.174  29.025  1.00  0.00    -0.014 A 
ATOM     73  C   UNL A   1      38.133  29.711  27.833  1.00  0.00     0.009 A 
ATOM     74  C   UNL A   1      37.790  29.038  30.129  1.00  0.00     0.009 A 
ATOM     75  C   UNL A   1      36.804  30.136  27.760  1.00  0.00     0.001 A 
ATOM     76  C   UNL A   1      36.454  29.437  30.045  1.00  0.00     0.001 A 
ATOM     77  C   UNL A   1      35.966  29.996  28.866  1.00  0.00     0.000 A 
ENDBRANCH  53  72
BRANCH  65  78
ATOM     78  C   UNL A   1      44.368  32.564  31.041  1.00  0.00    -0.014 A 
ATOM     79  C   UNL A   1      44.646  33.585  30.119  1.00  0.00     0.009 A 
ATOM     80  C   UNL A   1      44.279  32.882  32.405  1.00  0.00     0.009 A 
ATOM     81  C   UNL A   1      44.867  34.891  30.561  1.00  0.00     0.001 A 
ATOM     82  C   UNL A   1      44.474  34.192  32.841  1.00  0.00     0.001 A 
ATOM     83  C   UNL A   1      44.776  35.193  31.920  1.00  0.00     0.000 A 
ENDBRANCH  65  78
ENDBRANCH  39  40
ENDBRANCH  31  34
ENDBRANCH  29  30
ENDBRANCH  28  29
ENDBRANCH  27  28
ENDBRANCH   1  27
TORSDOF 16
ENDMDL
MODEL 2
REMARK VINA RESULT:     -11.3      3.482      8.939
REMARK SMILES COc1cccc(NC(=O)[C@@H]2[C@@H](C(=O)NCCCCCCNC(=O)c3ccc(-c4c5nc(c(-c6ccccc6)c6ccc([nH]6)c(-c6ccccc6)c6nc(c(-c7ccccc7)c7ccc4[nH]7)C=C6)C=C5)cc3)[C@H]3C=C[C@@H]2C3)c1
REMARK SMILES IDX 18 1 17 2 16 3 15 4 13 5 14 6 12 8 11 9 76 10 73 11 75 12
REMARK SMILES IDX 77 13 74 14 9 15 8 16 10 18 7 19 3 20 4 21 78 22 5 23 6 24
REMARK SMILES IDX 2 25 1 26 19 27 20 28 21 29 22 30 23 31 24 33 25 34 26 35
REMARK SMILES IDX 72 36 27 37 71 38 28 39 29 40 30 41 65 42 31 43 70 44 64 45
REMARK SMILES IDX 66 46 32 47 69 48 63 49 62 50 33 52 55 53 40 54 54 55 41 56
REMARK SMILES IDX 44 57 53 58 67 59 42 60 43 61 52 63 68 64 45 65 34 66 35 67
REMARK SMILES IDX 39 68 36 69 38 70 37 71 56 72 57 73 61 74 58 75 60 76 59 77
REMARK SMILES IDX 46 78 47 79 51 80 48 81 50 82 49 83
REMARK H PARENT 15 7 8 17 22 32 66 51 44 62
REMARK Flexibility Score: inf
ROOT
ATOM      1  C   UNL A   1      33.770  30.211  26.992  1.00  0.00     0.002 C 
ENDROOT
BRANCH   1   2
ATOM      2  C   UNL A   1      34.343  28.813  26.741  1.00  0.00     0.021 C 
BRANCH   2   3
ATOM      3  C   UNL A   1      33.679  28.080  25.573  1.00  0.00     0.116 C 
BRANCH   3   4
ATOM      4  N   UNL A   1      32.908  26.953  26.051  1.00  0.00    -0.356 N 
ATOM      5  C   UNL A   1      32.932  25.627  25.783  1.00  0.00     0.224 C 
ATOM      6  O   UNL A   1      31.985  24.984  26.253  1.00  0.00    -0.275 OA
ATOM      7  H   UNL A   1      32.220  27.203  26.710  1.00  0.00     0.163 HD
BRANCH   5   8
ATOM      8  C   UNL A   1      34.011  24.883  25.004  1.00  0.00     0.098 C 
ATOM      9  C   UNL A   1      33.554  23.659  24.154  1.00  0.00     0.099 C 
ATOM     10  C   UNL A   1      34.749  22.678  24.342  1.00  0.00     0.025 C 
ATOM     11  C   UNL A   1      35.266  24.355  25.744  1.00  0.00     0.025 C 
ATOM     12  C   UNL A   1      34.691  22.117  25.740  1.00  0.00    -0.027 C 
ATOM     13  C   UNL A   1      35.936  23.637  24.560  1.00  0.00     0.017 C 
ATOM     14  C   UNL A   1      35.008  23.118  26.574  1.00  0.00    -0.027 C 
BRANCH   9  15
ATOM     15  C   UNL A   1      33.385  23.941  22.672  1.00  0.00     0.228 C 
ATOM     16  N   UNL A   1      32.353  24.702  22.196  1.00  0.00    -0.326 N 
ATOM     17  H   UNL A   1      32.294  24.681  21.214  1.00  0.00     0.169 HD
ATOM     18  O   UNL A   1      34.132  23.438  21.828  1.00  0.00    -0.274 OA
BRANCH  16  19
ATOM     19  C   UNL A   1      31.354  25.510  22.775  1.00  0.00     0.044 A 
ATOM     20  C   UNL A   1      30.646  27.796  23.264  1.00  0.00     0.120 A 
ATOM     21  C   UNL A   1      29.529  27.313  23.938  1.00  0.00     0.046 A 
ATOM     22  C   UNL A   1      31.564  26.900  22.706  1.00  0.00     0.072 A 
ATOM     23  C   UNL A   1      29.311  25.943  24.019  1.00  0.00     0.006 A 
ATOM     24  C   UNL A   1      30.217  25.050  23.439  1.00  0.00     0.026 A 
BRANCH  20  25
ATOM     25  O   UNL A   1      30.790  29.156  23.261  1.00  0.00    -0.497 OA
ATOM     26  C   UNL A   1      29.566  29.880  23.199  1.00  0.00     0.278 C 
ENDBRANCH  20  25
ENDBRANCH  16  19
ENDBRANCH   9  15
ENDBRANCH   5   8
ENDBRANCH   3   4
ENDBRANCH   2   3
ENDBRANCH   1   2
BRANCH   1  27
ATOM     27  C   UNL A   1      32.240  30.295  26.932  1.00  0.00     0.002 C 
BRANCH  27  28
ATOM     28  C   UNL A   1      31.650  31.704  27.066  1.00  0.00     0.021 C 
BRANCH  28  29
ATOM     29  C   UNL A   1      32.615  32.839  26.734  1.00  0.00     0.116 C 
BRANCH  29  30
ATOM     30  N   UNL A   1      32.406  33.996  27.590  1.00  0.00    -0.352 N 
ATOM     31  C   UNL A   1      33.099  34.399  28.701  1.00  0.00     0.251 C 
ATOM     32  H   UNL A   1      31.653  34.576  27.333  1.00  0.00     0.163 HD
ATOM     33  O   UNL A   1      32.640  35.282  29.424  1.00  0.00    -0.269 OA
BRANCH  31  34
ATOM     34  C   UNL A   1      34.397  33.779  29.043  1.00  0.00     0.039 A 
ATOM     35  C   UNL A   1      34.458  32.892  30.122  1.00  0.00     0.014 A 
ATOM     36  C   UNL A   1      35.561  34.109  28.342  1.00  0.00     0.014 A 
ATOM     37  C   UNL A   1      35.676  32.306  30.474  1.00  0.00     0.010 A 
ATOM     38  C   UNL A   1      36.763  33.476  28.653  1.00  0.00     0.010 A 
ATOM     39  C   UNL A   1      36.836  32.579  29.730  1.00  0.00    -0.014 A 
BRANCH  39  40
ATOM     40  C   UNL A   1      38.138  31.962  30.085  1.00  0.00     0.031 A 
ATOM     41  C   UNL A   1      39.089  32.685  31.001  1.00  0.00     0.074 A 
ATOM     42  C   UNL A   1      38.485  30.775  29.553  1.00  0.00     0.049 A 
ATOM     43  N   UNL A   1      40.291  32.336  31.384  1.00  0.00    -0.248 NA
ATOM     44  C   UNL A   1      38.638  33.978  31.538  1.00  0.00     0.031 C 
ATOM     45  C   UNL A   1      37.666  29.984  28.632  1.00  0.00     0.029 A 
ATOM     46  N   UNL A   1      39.624  30.026  29.711  1.00  0.00    -0.354 N 
ATOM     47  C   UNL A   1      40.742  33.370  32.197  1.00  0.00     0.074 A 
ATOM     48  C   UNL A   1      39.707  34.380  32.209  1.00  0.00     0.031 C 
ATOM     49  C   UNL A   1      38.319  28.851  28.325  1.00  0.00     0.029 A 
ATOM     50  C   UNL A   1      39.614  28.852  28.999  1.00  0.00     0.049 A 
ATOM     51  H   UNL A   1      40.378  30.305  30.281  1.00  0.00     0.167 HD
ATOM     52  C   UNL A   1      41.903  33.463  32.889  1.00  0.00     0.031 A 
ATOM     53  C   UNL A   1      40.544  27.884  28.900  1.00  0.00     0.031 A 
ATOM     54  C   UNL A   1      42.931  32.457  32.887  1.00  0.00     0.049 A 
ATOM     55  C   UNL A   1      41.830  28.017  29.668  1.00  0.00     0.074 A 
ATOM     56  C   UNL A   1      44.132  32.447  33.574  1.00  0.00     0.029 A 
ATOM     57  N   UNL A   1      42.873  31.275  32.164  1.00  0.00    -0.354 N 
ATOM     58  N   UNL A   1      42.221  28.982  30.465  1.00  0.00    -0.248 NA
ATOM     59  C   UNL A   1      42.794  26.915  29.536  1.00  0.00     0.031 C 
ATOM     60  C   UNL A   1      44.817  31.274  33.241  1.00  0.00     0.029 A 
ATOM     61  C   UNL A   1      44.021  30.532  32.383  1.00  0.00     0.049 A 
ATOM     62  H   UNL A   1      42.128  31.006  31.580  1.00  0.00     0.167 HD
ATOM     63  C   UNL A   1      43.460  28.588  30.954  1.00  0.00     0.074 A 
ATOM     64  C   UNL A   1      43.748  27.292  30.376  1.00  0.00     0.031 C 
ATOM     65  C   UNL A   1      44.285  29.240  31.808  1.00  0.00     0.031 A 
BRANCH  52  66
ATOM     66  C   UNL A   1      42.115  34.702  33.712  1.00  0.00    -0.014 A 
ATOM     67  C   UNL A   1      42.743  35.833  33.165  1.00  0.00     0.009 A 
ATOM     68  C   UNL A   1      41.659  34.752  35.038  1.00  0.00     0.009 A 
ATOM     69  C   UNL A   1      42.942  36.977  33.942  1.00  0.00     0.001 A 
ATOM     70  C   UNL A   1      41.834  35.907  35.803  1.00  0.00     0.001 A 
ATOM     71  C   UNL A   1      42.484  37.014  35.258  1.00  0.00     0.000 A 
ENDBRANCH  52  66
BRANCH  53  72
ATOM     72  C   UNL A   1      40.293  26.688  28.055  1.00  0.00    -0.014 A 
ATOM     73  C   UNL A   1      39.538  25.614  28.551  1.00  0.00     0.009 A 
ATOM     74  C   UNL A   1      40.825  26.602  26.760  1.00  0.00     0.009 A 
ATOM     75  C   UNL A   1      39.350  24.464  27.780  1.00  0.00     0.001 A 
ATOM     76  C   UNL A   1      40.612  25.463  25.980  1.00  0.00     0.001 A 
ATOM     77  C   UNL A   1      39.886  24.391  26.495  1.00  0.00     0.000 A 
ENDBRANCH  53  72
BRANCH  65  78
ATOM     78  C   UNL A   1      45.551  28.538  32.207  1.00  0.00    -0.014 A 
ATOM     79  C   UNL A   1      46.743  28.716  31.488  1.00  0.00     0.009 A 
ATOM     80  C   UNL A   1      45.554  27.705  33.336  1.00  0.00     0.009 A 
ATOM     81  C   UNL A   1      47.905  28.044  31.872  1.00  0.00     0.001 A 
ATOM     82  C   UNL A   1      46.723  27.056  33.734  1.00  0.00     0.001 A 
ATOM     83  C   UNL A   1      47.894  27.218  32.997  1.00  0.00     0.000 A 
ENDBRANCH  65  78
ENDBRANCH  39  40
ENDBRANCH  31  34
ENDBRANCH  29  30
ENDBRANCH  28  29
ENDBRANCH  27  28
ENDBRANCH   1  27
TORSDOF 16
ENDMDL
MODEL 3
REMARK VINA RESULT:     -11.3      2.467      6.573
REMARK SMILES COc1cccc(NC(=O)[C@@H]2[C@@H](C(=O)NCCCCCCNC(=O)c3ccc(-c4c5nc(c(-c6ccccc6)c6ccc([nH]6)c(-c6ccccc6)c6nc(c(-c7ccccc7)c7ccc4[nH]7)C=C6)C=C5)cc3)[C@H]3C=C[C@@H]2C3)c1
REMARK SMILES IDX 18 1 17 2 16 3 15 4 13 5 14 6 12 8 11 9 76 10 73 11 75 12
REMARK SMILES IDX 77 13 74 14 9 15 8 16 10 18 7 19 3 20 4 21 78 22 5 23 6 24
REMARK SMILES IDX 2 25 1 26 19 27 20 28 21 29 22 30 23 31 24 33 25 34 26 35
REMARK SMILES IDX 72 36 27 37 71 38 28 39 29 40 30 41 65 42 31 43 70 44 64 45
REMARK SMILES IDX 66 46 32 47 69 48 63 49 62 50 33 52 55 53 40 54 54 55 41 56
REMARK SMILES IDX 44 57 53 58 67 59 42 60 43 61 52 63 68 64 45 65 34 66 35 67
REMARK SMILES IDX 39 68 36 69 38 70 37 71 56 72 57 73 61 74 58 75 60 76 59 77
REMARK SMILES IDX 46 78 47 79 51 80 48 81 50 82 49 83
REMARK H PARENT 15 7 8 17 22 32 66 51 44 62
REMARK Flexibility Score: inf
ROOT
ATOM      1  C   UNL A   1      41.419  22.155  26.912  1.00  0.00     0.002 C 
ENDROOT
BRANCH   1   2
ATOM      2  C   UNL A   1      40.369  23.023  27.613  1.00  0.00     0.021 C 
BRANCH   2   3
ATOM      3  C   UNL A   1      39.214  23.445  26.700  1.00  0.00     0.116 C 
BRANCH   3   4
ATOM      4  N   UNL A   1      38.760  22.326  25.904  1.00  0.00    -0.356 N 
ATOM      5  C   UNL A   1      37.536  21.864  25.560  1.00  0.00     0.224 C 
ATOM      6  O   UNL A   1      37.534  20.756  25.010  1.00  0.00    -0.275 OA
ATOM      7  H   UNL A   1      39.496  21.786  25.534  1.00  0.00     0.163 HD
BRANCH   5   8
ATOM      8  C   UNL A   1      36.209  22.587  25.761  1.00  0.00     0.098 C 
ATOM      9  C   UNL A   1      34.918  21.839  25.307  1.00  0.00     0.099 C 
ATOM     10  C   UNL A   1      34.058  23.007  24.740  1.00  0.00     0.025 C 
ATOM     11  C   UNL A   1      36.016  24.012  25.185  1.00  0.00     0.025 C 
ATOM     12  C   UNL A   1      34.643  23.434  23.419  1.00  0.00    -0.027 C 
ATOM     13  C   UNL A   1      34.541  24.211  25.572  1.00  0.00     0.017 C 
ATOM     14  C   UNL A   1      35.808  24.042  23.689  1.00  0.00    -0.027 C 
BRANCH   9  15
ATOM     15  C   UNL A   1      34.146  21.164  26.427  1.00  0.00     0.228 C 
ATOM     16  N   UNL A   1      33.364  20.065  26.202  1.00  0.00    -0.326 N 
ATOM     17  H   UNL A   1      32.820  19.826  26.987  1.00  0.00     0.169 HD
ATOM     18  O   UNL A   1      34.137  21.621  27.573  1.00  0.00    -0.274 OA
BRANCH  16  19
ATOM     19  C   UNL A   1      33.150  19.192  25.117  1.00  0.00     0.044 A 
ATOM     20  C   UNL A   1      33.601  16.975  24.198  1.00  0.00     0.120 A 
ATOM     21  C   UNL A   1      32.921  17.312  23.032  1.00  0.00     0.046 A 
ATOM     22  C   UNL A   1      33.734  17.916  25.223  1.00  0.00     0.072 A 
ATOM     23  C   UNL A   1      32.344  18.570  22.909  1.00  0.00     0.006 A 
ATOM     24  C   UNL A   1      32.456  19.501  23.947  1.00  0.00     0.026 A 
BRANCH  20  25
ATOM     25  O   UNL A   1      34.158  15.726  24.214  1.00  0.00    -0.497 OA
ATOM     26  C   UNL A   1      35.196  15.553  25.175  1.00  0.00     0.278 C 
ENDBRANCH  20  25
ENDBRANCH  16  19
ENDBRANCH   9  15
ENDBRANCH   5   8
ENDBRANCH   3   4
ENDBRANCH   2   3
ENDBRANCH   1   2
BRANCH   1  27
ATOM     27  C   UNL A   1      42.074  21.097  27.808  1.00  0.00     0.002 C 
BRANCH  27  28
ATOM     28  C   UNL A   1      42.297  19.727  27.157  1.00  0.00     0.021 C 
BRANCH  28  29
ATOM     29  C   UNL A   1      42.127  19.700  25.640  1.00  0.00     0.116 C 
BRANCH  29  30
ATOM     30  N   UNL A   1      43.323  19.218  24.969  1.00  0.00    -0.352 N 
ATOM     31  C   UNL A   1      44.441  19.904  24.573  1.00  0.00     0.251 C 
ATOM     32  H   UNL A   1      43.330  18.255  24.767  1.00  0.00     0.163 HD
ATOM     33  O   UNL A   1      45.255  19.370  23.822  1.00  0.00    -0.269 OA
BRANCH  31  34
ATOM     34  C   UNL A   1      44.679  21.287  25.040  1.00  0.00     0.039 A 
ATOM     35  C   UNL A   1      44.255  22.352  24.240  1.00  0.00     0.014 A 
ATOM     36  C   UNL A   1      45.364  21.538  26.232  1.00  0.00     0.014 A 
ATOM     37  C   UNL A   1      44.483  23.667  24.652  1.00  0.00     0.010 A 
ATOM     38  C   UNL A   1      45.535  22.848  26.674  1.00  0.00     0.010 A 
ATOM     39  C   UNL A   1      45.108  23.926  25.882  1.00  0.00    -0.014 A 
BRANCH  39  40
ATOM     40  C   UNL A   1      45.354  25.316  26.340  1.00  0.00     0.031 A 
ATOM     41  C   UNL A   1      44.222  26.141  26.889  1.00  0.00     0.074 A 
ATOM     42  C   UNL A   1      46.585  25.853  26.223  1.00  0.00     0.049 A 
ATOM     43  N   UNL A   1      44.226  27.388  27.288  1.00  0.00    -0.248 NA
ATOM     44  C   UNL A   1      42.909  25.484  26.982  1.00  0.00     0.031 C 
ATOM     45  C   UNL A   1      47.762  25.170  25.682  1.00  0.00     0.029 A 
ATOM     46  N   UNL A   1      47.047  27.103  26.551  1.00  0.00    -0.354 N 
ATOM     47  C   UNL A   1      42.919  27.666  27.669  1.00  0.00     0.074 A 
ATOM     48  C   UNL A   1      42.139  26.477  27.404  1.00  0.00     0.031 C 
ATOM     49  C   UNL A   1      48.815  26.001  25.737  1.00  0.00     0.029 A 
ATOM     50  C   UNL A   1      48.381  27.283  26.284  1.00  0.00     0.049 A 
ATOM     51  H   UNL A   1      46.475  27.804  26.940  1.00  0.00     0.167 HD
ATOM     52  C   UNL A   1      42.414  28.801  28.209  1.00  0.00     0.031 A 
ATOM     53  C   UNL A   1      49.168  28.361  26.458  1.00  0.00     0.031 A 
ATOM     54  C   UNL A   1      43.186  29.982  28.482  1.00  0.00     0.049 A 
ATOM     55  C   UNL A   1      48.581  29.613  27.049  1.00  0.00     0.074 A 
ATOM     56  C   UNL A   1      42.772  31.174  29.051  1.00  0.00     0.029 A 
ATOM     57  N   UNL A   1      44.539  30.118  28.211  1.00  0.00    -0.354 N 
ATOM     58  N   UNL A   1      47.351  29.844  27.442  1.00  0.00    -0.248 NA
ATOM     59  C   UNL A   1      49.496  30.748  27.237  1.00  0.00     0.031 C 
ATOM     60  C   UNL A   1      43.867  32.043  29.093  1.00  0.00     0.029 A 
ATOM     61  C   UNL A   1      44.974  31.375  28.594  1.00  0.00     0.049 A 
ATOM     62  H   UNL A   1      45.106  29.423  27.804  1.00  0.00     0.167 HD
ATOM     63  C   UNL A   1      47.354  31.135  27.953  1.00  0.00     0.074 A 
ATOM     64  C   UNL A   1      48.710  31.631  27.833  1.00  0.00     0.031 C 
ATOM     65  C   UNL A   1      46.328  31.847  28.477  1.00  0.00     0.031 A 
BRANCH  52  66
ATOM     66  C   UNL A   1      40.949  28.810  28.545  1.00  0.00    -0.014 A 
ATOM     67  C   UNL A   1      39.997  29.250  27.612  1.00  0.00     0.009 A 
ATOM     68  C   UNL A   1      40.511  28.346  29.796  1.00  0.00     0.009 A 
ATOM     69  C   UNL A   1      38.639  29.261  27.937  1.00  0.00     0.001 A 
ATOM     70  C   UNL A   1      39.150  28.333  30.108  1.00  0.00     0.001 A 
ATOM     71  C   UNL A   1      38.216  28.798  29.183  1.00  0.00     0.000 A 
ENDBRANCH  52  66
BRANCH  53  72
ATOM     72  C   UNL A   1      50.607  28.307  26.090  1.00  0.00    -0.014 A 
ATOM     73  C   UNL A   1      51.572  27.955  27.046  1.00  0.00     0.009 A 
ATOM     74  C   UNL A   1      51.025  28.629  24.790  1.00  0.00     0.009 A 
ATOM     75  C   UNL A   1      52.929  27.960  26.718  1.00  0.00     0.001 A 
ATOM     76  C   UNL A   1      52.381  28.606  24.456  1.00  0.00     0.001 A 
ATOM     77  C   UNL A   1      53.332  28.283  25.423  1.00  0.00     0.000 A 
ENDBRANCH  53  72
BRANCH  65  78
ATOM     78  C   UNL A   1      46.644  33.217  29.006  1.00  0.00    -0.014 A 
ATOM     79  C   UNL A   1      46.542  34.356  28.193  1.00  0.00     0.009 A 
ATOM     80  C   UNL A   1      47.025  33.368  30.349  1.00  0.00     0.009 A 
ATOM     81  C   UNL A   1      46.851  35.616  28.707  1.00  0.00     0.001 A 
ATOM     82  C   UNL A   1      47.307  34.632  30.866  1.00  0.00     0.001 A 
ATOM     83  C   UNL A   1      47.230  35.754  30.042  1.00  0.00     0.000 A 
ENDBRANCH  65  78
ENDBRANCH  39  40
ENDBRANCH  31  34
ENDBRANCH  29  30
ENDBRANCH  28  29
ENDBRANCH  27  28
ENDBRANCH   1  27
TORSDOF 16
ENDMDL
