MODEL 1
REMARK VINA RESULT:     -10.6      0.000      0.000
REMARK SMILES O=C(NCCCCCCNC(=O)[C@H]1CC(=O)N(Cc2cccc(Cl)c2)C1)c1ccc(-c2c3nc(c(-c4ccccc4)c4ccc([nH]4)c(-c4ccccc4)c4nc(c(-c5ccccc5)c5ccc2[nH]5)C=C4)C=C3)cc1
REMARK SMILES IDX 6 1 5 2 4 3 3 4 1 5 2 6 27 8 28 9 74 10 29 11 73 12 30 13
REMARK SMILES IDX 31 14 32 15 67 16 33 17 72 18 66 19 68 20 34 21 71 22 65 23
REMARK SMILES IDX 64 24 35 26 57 27 42 28 56 29 43 30 46 31 55 32 69 33 44 34
REMARK SMILES IDX 45 35 54 37 70 38 47 39 36 40 37 41 41 42 38 43 40 44 39 45
REMARK SMILES IDX 58 46 59 47 63 48 60 49 62 50 61 51 48 52 49 53 53 54 50 55
REMARK SMILES IDX 52 56 51 57 7 58 8 59 9 60 10 61 11 62 12 64 13 65 14 66
REMARK SMILES IDX 26 67 15 68 17 69 16 70 18 71 19 72 20 73 25 74 21 75 23 76
REMARK SMILES IDX 22 77 24 78
REMARK H PARENT 3 7 68 25 46 36 10 63
REMARK Flexibility Score: inf
ROOT
ATOM      1  C   UNL A   1      32.036  27.835  25.439  1.00  0.00     0.002 C 
ENDROOT
BRANCH   1   2
ATOM      2  C   UNL A   1      32.202  28.335  26.874  1.00  0.00     0.021 C 
BRANCH   2   3
ATOM      3  C   UNL A   1      33.610  28.808  27.210  1.00  0.00     0.116 C 
BRANCH   3   4
ATOM      4  N   UNL A   1      33.633  30.177  27.703  1.00  0.00    -0.352 N 
ATOM      5  O   UNL A   1      34.416  31.940  28.879  1.00  0.00    -0.269 OA
ATOM      6  C   UNL A   1      34.630  30.843  28.377  1.00  0.00     0.251 C 
ATOM      7  H   UNL A   1      32.818  30.701  27.530  1.00  0.00     0.163 HD
BRANCH   6   8
ATOM      8  C   UNL A   1      35.957  30.209  28.518  1.00  0.00     0.039 A 
ATOM      9  C   UNL A   1      36.330  29.612  29.723  1.00  0.00     0.014 A 
ATOM     10  C   UNL A   1      36.850  30.241  27.443  1.00  0.00     0.014 A 
ATOM     11  C   UNL A   1      37.647  29.220  29.916  1.00  0.00     0.010 A 
ATOM     12  C   UNL A   1      38.146  29.745  27.607  1.00  0.00     0.010 A 
ATOM     13  C   UNL A   1      38.571  29.275  28.860  1.00  0.00    -0.014 A 
BRANCH  13  14
ATOM     14  C   UNL A   1      39.963  28.810  29.091  1.00  0.00     0.031 A 
ATOM     15  C   UNL A   1      40.415  27.444  28.648  1.00  0.00     0.074 A 
ATOM     16  C   UNL A   1      40.841  29.654  29.668  1.00  0.00     0.049 A 
ATOM     17  N   UNL A   1      41.608  26.908  28.723  1.00  0.00    -0.248 NA
ATOM     18  C   UNL A   1      39.400  26.562  28.049  1.00  0.00     0.031 C 
ATOM     19  C   UNL A   1      40.527  31.006  30.140  1.00  0.00     0.029 A 
ATOM     20  N   UNL A   1      42.179  29.515  29.931  1.00  0.00    -0.354 N 
ATOM     21  C   UNL A   1      41.481  25.621  28.212  1.00  0.00     0.074 A 
ATOM     22  C   UNL A   1      40.091  25.447  27.853  1.00  0.00     0.031 C 
ATOM     23  C   UNL A   1      41.651  31.593  30.574  1.00  0.00     0.029 A 
ATOM     24  C   UNL A   1      42.748  30.637  30.482  1.00  0.00     0.049 A 
ATOM     25  H   UNL A   1      42.683  28.690  29.745  1.00  0.00     0.167 HD
ATOM     26  C   UNL A   1      42.437  24.673  28.053  1.00  0.00     0.031 A 
ATOM     27  C   UNL A   1      44.011  30.873  30.882  1.00  0.00     0.031 A 
ATOM     28  C   UNL A   1      43.821  24.847  28.413  1.00  0.00     0.049 A 
ATOM     29  C   UNL A   1      45.037  29.789  30.731  1.00  0.00     0.074 A 
ATOM     30  C   UNL A   1      44.871  23.958  28.256  1.00  0.00     0.029 A 
ATOM     31  N   UNL A   1      44.346  25.981  29.014  1.00  0.00    -0.354 N 
ATOM     32  N   UNL A   1      44.909  28.595  30.203  1.00  0.00    -0.248 NA
ATOM     33  C   UNL A   1      46.387  30.091  31.224  1.00  0.00     0.031 C 
ATOM     34  C   UNL A   1      46.017  24.529  28.822  1.00  0.00     0.029 A 
ATOM     35  C   UNL A   1      45.698  25.804  29.261  1.00  0.00     0.049 A 
ATOM     36  H   UNL A   1      43.833  26.793  29.234  1.00  0.00     0.167 HD
ATOM     37  C   UNL A   1      46.170  28.017  30.269  1.00  0.00     0.074 A 
ATOM     38  C   UNL A   1      47.049  28.999  30.872  1.00  0.00     0.031 C 
ATOM     39  C   UNL A   1      46.564  26.786  29.861  1.00  0.00     0.031 A 
BRANCH  26  40
ATOM     40  C   UNL A   1      42.010  23.338  27.499  1.00  0.00    -0.014 A 
ATOM     41  C   UNL A   1      42.209  22.999  26.151  1.00  0.00     0.009 A 
ATOM     42  C   UNL A   1      41.430  22.387  28.355  1.00  0.00     0.009 A 
ATOM     43  C   UNL A   1      41.801  21.754  25.665  1.00  0.00     0.001 A 
ATOM     44  C   UNL A   1      41.052  21.132  27.874  1.00  0.00     0.001 A 
ATOM     45  C   UNL A   1      41.226  20.821  26.527  1.00  0.00     0.000 A 
ENDBRANCH  26  40
BRANCH  27  46
ATOM     46  C   UNL A   1      44.372  32.191  31.466  1.00  0.00    -0.014 A 
ATOM     47  C   UNL A   1      44.259  32.415  32.847  1.00  0.00     0.009 A 
ATOM     48  C   UNL A   1      44.829  33.233  30.645  1.00  0.00     0.009 A 
ATOM     49  C   UNL A   1      44.567  33.665  33.387  1.00  0.00     0.001 A 
ATOM     50  C   UNL A   1      45.170  34.471  31.193  1.00  0.00     0.001 A 
ATOM     51  C   UNL A   1      45.027  34.689  32.562  1.00  0.00     0.000 A 
ENDBRANCH  27  46
BRANCH  39  52
ATOM     52  C   UNL A   1      48.026  26.456  29.999  1.00  0.00    -0.014 A 
ATOM     53  C   UNL A   1      48.948  26.742  28.980  1.00  0.00     0.009 A 
ATOM     54  C   UNL A   1      48.487  25.861  31.184  1.00  0.00     0.009 A 
ATOM     55  C   UNL A   1      50.292  26.393  29.126  1.00  0.00     0.001 A 
ATOM     56  C   UNL A   1      49.838  25.547  31.343  1.00  0.00     0.001 A 
ATOM     57  C   UNL A   1      50.736  25.800  30.308  1.00  0.00     0.000 A 
ENDBRANCH  39  52
ENDBRANCH  13  14
ENDBRANCH   6   8
ENDBRANCH   3   4
ENDBRANCH   2   3
ENDBRANCH   1   2
BRANCH   1  58
ATOM     58  C   UNL A   1      32.138  28.923  24.364  1.00  0.00     0.002 C 
BRANCH  58  59
ATOM     59  C   UNL A   1      31.022  28.899  23.310  1.00  0.00     0.021 C 
BRANCH  59  60
ATOM     60  C   UNL A   1      30.727  27.505  22.759  1.00  0.00     0.116 C 
BRANCH  60  61
ATOM     61  N   UNL A   1      31.806  27.053  21.901  1.00  0.00    -0.356 N 
ATOM     62  C   UNL A   1      32.586  25.939  21.982  1.00  0.00     0.225 C 
ATOM     63  H   UNL A   1      32.006  27.645  21.142  1.00  0.00     0.163 HD
ATOM     64  O   UNL A   1      33.465  25.784  21.138  1.00  0.00    -0.275 OA
BRANCH  62  65
ATOM     65  C   UNL A   1      32.317  24.931  23.075  1.00  0.00     0.107 C 
ATOM     66  C   UNL A   1      32.209  23.491  22.566  1.00  0.00     0.115 C 
ATOM     67  C   UNL A   1      33.468  24.848  24.059  1.00  0.00     0.133 C 
ATOM     68  C   UNL A   1      32.651  22.681  23.759  1.00  0.00     0.223 C 
ATOM     69  N   UNL A   1      33.365  23.518  24.596  1.00  0.00    -0.338 N 
ATOM     70  O   UNL A   1      32.422  21.494  23.935  1.00  0.00    -0.275 OA
BRANCH  69  71
ATOM     71  C   UNL A   1      33.952  23.123  25.864  1.00  0.00     0.155 C 
BRANCH  71  72
ATOM     72  C   UNL A   1      35.429  22.825  25.768  1.00  0.00    -0.027 A 
ATOM     73  C   UNL A   1      36.388  23.814  26.046  1.00  0.00     0.005 A 
ATOM     74  C   UNL A   1      35.870  21.548  25.391  1.00  0.00     0.026 A 
ATOM     75  C   UNL A   1      37.752  23.545  25.919  1.00  0.00     0.002 A 
ATOM     76  C   UNL A   1      37.234  21.276  25.292  1.00  0.00     0.041 A 
ATOM     77  C   UNL A   1      38.176  22.272  25.543  1.00  0.00     0.020 A 
ATOM     78  Cl  UNL A   1      37.762  19.697  24.861  1.00  0.00    -0.084 Cl
ENDBRANCH  71  72
ENDBRANCH  69  71
ENDBRANCH  62  65
ENDBRANCH  60  61
ENDBRANCH  59  60
ENDBRANCH  58  59
ENDBRANCH   1  58
TORSDOF 15
ENDMDL
MODEL 2
REMARK VINA RESULT:     -10.5      0.806      6.058
REMARK SMILES O=C(NCCCCCCNC(=O)[C@H]1CC(=O)N(Cc2cccc(Cl)c2)C1)c1ccc(-c2c3nc(c(-c4ccccc4)c4ccc([nH]4)c(-c4ccccc4)c4nc(c(-c5ccccc5)c5ccc2[nH]5)C=C4)C=C3)cc1
REMARK SMILES IDX 6 1 5 2 4 3 3 4 1 5 2 6 27 8 28 9 74 10 29 11 73 12 30 13
REMARK SMILES IDX 31 14 32 15 67 16 33 17 72 18 66 19 68 20 34 21 71 22 65 23
REMARK SMILES IDX 64 24 35 26 57 27 42 28 56 29 43 30 46 31 55 32 69 33 44 34
REMARK SMILES IDX 45 35 54 37 70 38 47 39 36 40 37 41 41 42 38 43 40 44 39 45
REMARK SMILES IDX 58 46 59 47 63 48 60 49 62 50 61 51 48 52 49 53 53 54 50 55
REMARK SMILES IDX 52 56 51 57 7 58 8 59 9 60 10 61 11 62 12 64 13 65 14 66
REMARK SMILES IDX 26 67 15 68 17 69 16 70 18 71 19 72 20 73 25 74 21 75 23 76
REMARK SMILES IDX 22 77 24 78
REMARK H PARENT 3 7 68 25 46 36 10 63
REMARK Flexibility Score: inf
ROOT
ATOM      1  C   UNL A   1      31.777  29.365  25.457  1.00  0.00     0.002 C 
ENDROOT
BRANCH   1   2
ATOM      2  C   UNL A   1      32.215  28.328  26.491  1.00  0.00     0.021 C 
BRANCH   2   3
ATOM      3  C   UNL A   1      33.479  28.704  27.252  1.00  0.00     0.116 C 
BRANCH   3   4
ATOM      4  N   UNL A   1      33.488  30.101  27.659  1.00  0.00    -0.352 N 
ATOM      5  O   UNL A   1      34.260  31.947  28.709  1.00  0.00    -0.269 OA
ATOM      6  C   UNL A   1      34.483  30.823  28.273  1.00  0.00     0.251 C 
ATOM      7  H   UNL A   1      32.662  30.602  27.466  1.00  0.00     0.163 HD
BRANCH   6   8
ATOM      8  C   UNL A   1      35.823  30.219  28.433  1.00  0.00     0.039 A 
ATOM      9  C   UNL A   1      36.203  29.660  29.653  1.00  0.00     0.014 A 
ATOM     10  C   UNL A   1      36.717  30.242  27.360  1.00  0.00     0.014 A 
ATOM     11  C   UNL A   1      37.528  29.299  29.859  1.00  0.00     0.010 A 
ATOM     12  C   UNL A   1      38.022  29.775  27.539  1.00  0.00     0.010 A 
ATOM     13  C   UNL A   1      38.453  29.345  28.804  1.00  0.00    -0.014 A 
BRANCH  13  14
ATOM     14  C   UNL A   1      39.854  28.914  29.050  1.00  0.00     0.031 A 
ATOM     15  C   UNL A   1      40.827  29.799  29.782  1.00  0.00     0.074 A 
ATOM     16  C   UNL A   1      40.234  27.686  28.644  1.00  0.00     0.049 A 
ATOM     17  N   UNL A   1      42.066  29.550  30.127  1.00  0.00    -0.248 NA
ATOM     18  C   UNL A   1      40.355  31.137  30.173  1.00  0.00     0.031 C 
ATOM     19  C   UNL A   1      39.383  26.732  27.927  1.00  0.00     0.029 A 
ATOM     20  N   UNL A   1      41.421  27.018  28.801  1.00  0.00    -0.354 N 
ATOM     21  C   UNL A   1      42.530  30.705  30.746  1.00  0.00     0.074 A 
ATOM     22  C   UNL A   1      41.448  31.665  30.707  1.00  0.00     0.031 C 
ATOM     23  C   UNL A   1      40.053  25.582  27.764  1.00  0.00     0.029 A 
ATOM     24  C   UNL A   1      41.401  25.741  28.295  1.00  0.00     0.049 A 
ATOM     25  H   UNL A   1      42.212  27.415  29.234  1.00  0.00     0.167 HD
ATOM     26  C   UNL A   1      43.744  30.943  31.299  1.00  0.00     0.031 A 
ATOM     27  C   UNL A   1      42.362  24.801  28.250  1.00  0.00     0.031 A 
ATOM     28  C   UNL A   1      44.821  29.986  31.335  1.00  0.00     0.049 A 
ATOM     29  C   UNL A   1      43.709  25.110  28.835  1.00  0.00     0.074 A 
ATOM     30  C   UNL A   1      46.075  30.120  31.906  1.00  0.00     0.029 A 
ATOM     31  N   UNL A   1      44.776  28.722  30.767  1.00  0.00    -0.354 N 
ATOM     32  N   UNL A   1      44.115  26.190  29.456  1.00  0.00    -0.248 NA
ATOM     33  C   UNL A   1      44.729  24.059  28.718  1.00  0.00     0.031 C 
ATOM     34  C   UNL A   1      46.811  28.964  31.626  1.00  0.00     0.029 A 
ATOM     35  C   UNL A   1      45.990  28.078  30.948  1.00  0.00     0.049 A 
ATOM     36  H   UNL A   1      43.997  28.338  30.303  1.00  0.00     0.167 HD
ATOM     37  C   UNL A   1      45.426  25.937  29.836  1.00  0.00     0.074 A 
ATOM     38  C   UNL A   1      45.739  24.594  29.389  1.00  0.00     0.031 C 
ATOM     39  C   UNL A   1      46.291  26.742  30.500  1.00  0.00     0.031 A 
BRANCH  26  40
ATOM     40  C   UNL A   1      43.992  32.312  31.878  1.00  0.00    -0.014 A 
ATOM     41  C   UNL A   1      43.733  32.602  33.227  1.00  0.00     0.009 A 
ATOM     42  C   UNL A   1      44.528  33.322  31.062  1.00  0.00     0.009 A 
ATOM     43  C   UNL A   1      43.970  33.882  33.735  1.00  0.00     0.001 A 
ATOM     44  C   UNL A   1      44.795  34.591  31.580  1.00  0.00     0.001 A 
ATOM     45  C   UNL A   1      44.504  34.874  32.913  1.00  0.00     0.000 A 
ENDBRANCH  26  40
BRANCH  27  46
ATOM     46  C   UNL A   1      42.084  23.482  27.627  1.00  0.00    -0.014 A 
ATOM     47  C   UNL A   1      42.447  23.231  26.294  1.00  0.00     0.009 A 
ATOM     48  C   UNL A   1      41.450  22.466  28.359  1.00  0.00     0.009 A 
ATOM     49  C   UNL A   1      42.153  22.002  25.701  1.00  0.00     0.001 A 
ATOM     50  C   UNL A   1      41.189  21.225  27.774  1.00  0.00     0.001 A 
ATOM     51  C   UNL A   1      41.530  20.999  26.443  1.00  0.00     0.000 A 
ENDBRANCH  27  46
BRANCH  39  52
ATOM     52  C   UNL A   1      47.640  26.166  30.837  1.00  0.00    -0.014 A 
ATOM     53  C   UNL A   1      47.922  25.635  32.105  1.00  0.00     0.009 A 
ATOM     54  C   UNL A   1      48.642  26.143  29.853  1.00  0.00     0.009 A 
ATOM     55  C   UNL A   1      49.195  25.139  32.395  1.00  0.00     0.001 A 
ATOM     56  C   UNL A   1      49.902  25.612  30.134  1.00  0.00     0.001 A 
ATOM     57  C   UNL A   1      50.181  25.124  31.409  1.00  0.00     0.000 A 
ENDBRANCH  39  52
ENDBRANCH  13  14
ENDBRANCH   6   8
ENDBRANCH   3   4
ENDBRANCH   2   3
ENDBRANCH   1   2
BRANCH   1  58
ATOM     58  C   UNL A   1      31.120  28.782  24.201  1.00  0.00     0.002 C 
BRANCH  58  59
ATOM     59  C   UNL A   1      31.844  29.096  22.884  1.00  0.00     0.021 C 
BRANCH  59  60
ATOM     60  C   UNL A   1      33.234  28.467  22.783  1.00  0.00     0.116 C 
BRANCH  60  61
ATOM     61  N   UNL A   1      33.236  27.382  21.820  1.00  0.00    -0.356 N 
ATOM     62  C   UNL A   1      33.337  26.038  22.012  1.00  0.00     0.225 C 
ATOM     63  H   UNL A   1      33.153  27.662  20.881  1.00  0.00     0.163 HD
ATOM     64  O   UNL A   1      33.339  25.309  21.022  1.00  0.00    -0.275 OA
BRANCH  62  65
ATOM     65  C   UNL A   1      33.404  25.498  23.421  1.00  0.00     0.107 C 
ATOM     66  C   UNL A   1      32.037  25.401  24.105  1.00  0.00     0.115 C 
ATOM     67  C   UNL A   1      33.891  24.062  23.451  1.00  0.00     0.133 C 
ATOM     68  C   UNL A   1      32.232  24.269  25.083  1.00  0.00     0.223 C 
ATOM     69  N   UNL A   1      33.325  23.534  24.663  1.00  0.00    -0.338 N 
ATOM     70  O   UNL A   1      31.533  24.048  26.060  1.00  0.00    -0.275 OA
BRANCH  69  71
ATOM     71  C   UNL A   1      33.850  22.364  25.344  1.00  0.00     0.155 C 
BRANCH  71  72
ATOM     72  C   UNL A   1      35.354  22.377  25.473  1.00  0.00    -0.027 A 
ATOM     73  C   UNL A   1      36.037  23.535  25.882  1.00  0.00     0.005 A 
ATOM     74  C   UNL A   1      36.099  21.225  25.180  1.00  0.00     0.026 A 
ATOM     75  C   UNL A   1      37.430  23.554  25.963  1.00  0.00     0.002 A 
ATOM     76  C   UNL A   1      37.489  21.241  25.290  1.00  0.00     0.041 A 
ATOM     77  C   UNL A   1      38.158  22.403  25.668  1.00  0.00     0.020 A 
ATOM     78  Cl  UNL A   1      38.388  19.812  24.959  1.00  0.00    -0.084 Cl
ENDBRANCH  71  72
ENDBRANCH  69  71
ENDBRANCH  62  65
ENDBRANCH  60  61
ENDBRANCH  59  60
ENDBRANCH  58  59
ENDBRANCH   1  58
TORSDOF 15
ENDMDL
MODEL 3
REMARK VINA RESULT:     -10.5      2.946      7.877
REMARK SMILES O=C(NCCCCCCNC(=O)[C@H]1CC(=O)N(Cc2cccc(Cl)c2)C1)c1ccc(-c2c3nc(c(-c4ccccc4)c4ccc([nH]4)c(-c4ccccc4)c4nc(c(-c5ccccc5)c5ccc2[nH]5)C=C4)C=C3)cc1
REMARK SMILES IDX 6 1 5 2 4 3 3 4 1 5 2 6 27 8 28 9 74 10 29 11 73 12 30 13
REMARK SMILES IDX 31 14 32 15 67 16 33 17 72 18 66 19 68 20 34 21 71 22 65 23
REMARK SMILES IDX 64 24 35 26 57 27 42 28 56 29 43 30 46 31 55 32 69 33 44 34
REMARK SMILES IDX 45 35 54 37 70 38 47 39 36 40 37 41 41 42 38 43 40 44 39 45
REMARK SMILES IDX 58 46 59 47 63 48 60 49 62 50 61 51 48 52 49 53 53 54 50 55
REMARK SMILES IDX 52 56 51 57 7 58 8 59 9 60 10 61 11 62 12 64 13 65 14 66
REMARK SMILES IDX 26 67 15 68 17 69 16 70 18 71 19 72 20 73 25 74 21 75 23 76
REMARK SMILES IDX 22 77 24 78
REMARK H PARENT 3 7 68 25 46 36 10 63
REMARK Flexibility Score: inf
ROOT
ATOM      1  C   UNL A   1      34.793  22.724  24.569  1.00  0.00     0.002 C 
ENDROOT
BRANCH   1   2
ATOM      2  C   UNL A   1      35.153  23.438  25.871  1.00  0.00     0.021 C 
BRANCH   2   3
ATOM      3  C   UNL A   1      36.591  23.937  25.930  1.00  0.00     0.116 C 
BRANCH   3   4
ATOM      4  N   UNL A   1      37.556  22.848  25.964  1.00  0.00    -0.352 N 
ATOM      5  O   UNL A   1      39.601  21.898  26.099  1.00  0.00    -0.269 OA
ATOM      6  C   UNL A   1      38.890  22.876  26.296  1.00  0.00     0.251 C 
ATOM      7  H   UNL A   1      37.203  21.964  25.714  1.00  0.00     0.163 HD
BRANCH   6   8
ATOM      8  C   UNL A   1      39.468  24.111  26.865  1.00  0.00     0.039 A 
ATOM      9  C   UNL A   1      39.339  24.388  28.227  1.00  0.00     0.014 A 
ATOM     10  C   UNL A   1      40.118  25.017  26.022  1.00  0.00     0.014 A 
ATOM     11  C   UNL A   1      39.686  25.643  28.708  1.00  0.00     0.010 A 
ATOM     12  C   UNL A   1      40.566  26.237  26.533  1.00  0.00     0.010 A 
ATOM     13  C   UNL A   1      40.310  26.582  27.870  1.00  0.00    -0.014 A 
BRANCH  13  14
ATOM     14  C   UNL A   1      40.705  27.901  28.428  1.00  0.00     0.031 A 
ATOM     15  C   UNL A   1      39.687  28.984  28.668  1.00  0.00     0.074 A 
ATOM     16  C   UNL A   1      41.994  28.103  28.764  1.00  0.00     0.049 A 
ATOM     17  N   UNL A   1      39.856  30.169  29.200  1.00  0.00    -0.248 NA
ATOM     18  C   UNL A   1      38.302  28.708  28.253  1.00  0.00     0.031 C 
ATOM     19  C   UNL A   1      43.076  27.131  28.584  1.00  0.00     0.029 A 
ATOM     20  N   UNL A   1      42.609  29.178  29.353  1.00  0.00    -0.354 N 
ATOM     21  C   UNL A   1      38.613  30.789  29.157  1.00  0.00     0.074 A 
ATOM     22  C   UNL A   1      37.703  29.860  28.524  1.00  0.00     0.031 C 
ATOM     23  C   UNL A   1      44.205  27.628  29.109  1.00  0.00     0.029 A 
ATOM     24  C   UNL A   1      43.946  28.978  29.594  1.00  0.00     0.049 A 
ATOM     25  H   UNL A   1      42.139  30.012  29.580  1.00  0.00     0.167 HD
ATOM     26  C   UNL A   1      38.261  32.018  29.607  1.00  0.00     0.031 A 
ATOM     27  C   UNL A   1      44.871  29.792  30.135  1.00  0.00     0.031 A 
ATOM     28  C   UNL A   1      39.169  32.943  30.236  1.00  0.00     0.049 A 
ATOM     29  C   UNL A   1      44.458  31.162  30.587  1.00  0.00     0.074 A 
ATOM     30  C   UNL A   1      38.899  34.196  30.759  1.00  0.00     0.029 A 
ATOM     31  N   UNL A   1      40.526  32.721  30.416  1.00  0.00    -0.354 N 
ATOM     32  N   UNL A   1      43.269  31.714  30.580  1.00  0.00    -0.248 NA
ATOM     33  C   UNL A   1      45.520  32.020  31.130  1.00  0.00     0.031 C 
ATOM     34  C   UNL A   1      40.104  34.759  31.195  1.00  0.00     0.029 A 
ATOM     35  C   UNL A   1      41.111  33.826  31.015  1.00  0.00     0.049 A 
ATOM     36  H   UNL A   1      41.004  31.900  30.156  1.00  0.00     0.167 HD
ATOM     37  C   UNL A   1      43.432  32.969  31.150  1.00  0.00     0.074 A 
ATOM     38  C   UNL A   1      44.833  33.088  31.505  1.00  0.00     0.031 C 
ATOM     39  C   UNL A   1      42.505  33.934  31.364  1.00  0.00     0.031 A 
BRANCH  26  40
ATOM     40  C   UNL A   1      36.834  32.456  29.398  1.00  0.00    -0.014 A 
ATOM     41  C   UNL A   1      35.845  32.239  30.372  1.00  0.00     0.009 A 
ATOM     42  C   UNL A   1      36.482  33.130  28.218  1.00  0.00     0.009 A 
ATOM     43  C   UNL A   1      34.529  32.654  30.149  1.00  0.00     0.001 A 
ATOM     44  C   UNL A   1      35.174  33.572  28.012  1.00  0.00     0.001 A 
ATOM     45  C   UNL A   1      34.195  33.323  28.972  1.00  0.00     0.000 A 
ENDBRANCH  26  40
BRANCH  27  46
ATOM     46  C   UNL A   1      46.276  29.332  30.277  1.00  0.00    -0.014 A 
ATOM     47  C   UNL A   1      46.703  28.694  31.452  1.00  0.00     0.009 A 
ATOM     48  C   UNL A   1      47.200  29.530  29.240  1.00  0.00     0.009 A 
ATOM     49  C   UNL A   1      48.032  28.292  31.596  1.00  0.00     0.001 A 
ATOM     50  C   UNL A   1      48.520  29.095  29.372  1.00  0.00     0.001 A 
ATOM     51  C   UNL A   1      48.938  28.488  30.554  1.00  0.00     0.000 A 
ENDBRANCH  27  46
BRANCH  39  52
ATOM     52  C   UNL A   1      42.965  35.180  32.071  1.00  0.00    -0.014 A 
ATOM     53  C   UNL A   1      42.805  35.348  33.455  1.00  0.00     0.009 A 
ATOM     54  C   UNL A   1      43.588  36.199  31.332  1.00  0.00     0.009 A 
ATOM     55  C   UNL A   1      43.214  36.531  34.074  1.00  0.00     0.001 A 
ATOM     56  C   UNL A   1      44.029  37.365  31.959  1.00  0.00     0.001 A 
ATOM     57  C   UNL A   1      43.829  37.535  33.328  1.00  0.00     0.000 A 
ENDBRANCH  39  52
ENDBRANCH  13  14
ENDBRANCH   6   8
ENDBRANCH   3   4
ENDBRANCH   2   3
ENDBRANCH   1   2
BRANCH   1  58
ATOM     58  C   UNL A   1      34.467  21.234  24.723  1.00  0.00     0.002 C 
BRANCH  58  59
ATOM     59  C   UNL A   1      33.261  20.924  25.622  1.00  0.00     0.021 C 
BRANCH  59  60
ATOM     60  C   UNL A   1      31.937  21.464  25.082  1.00  0.00     0.116 C 
BRANCH  60  61
ATOM     61  N   UNL A   1      31.159  22.070  26.145  1.00  0.00    -0.356 N 
ATOM     62  C   UNL A   1      30.689  23.342  26.276  1.00  0.00     0.225 C 
ATOM     63  H   UNL A   1      30.936  21.467  26.890  1.00  0.00     0.163 HD
ATOM     64  O   UNL A   1      30.064  23.627  27.295  1.00  0.00    -0.275 OA
BRANCH  62  65
ATOM     65  C   UNL A   1      30.920  24.330  25.156  1.00  0.00     0.107 C 
ATOM     66  C   UNL A   1      29.749  25.293  24.938  1.00  0.00     0.115 C 
ATOM     67  C   UNL A   1      32.068  25.272  25.466  1.00  0.00     0.133 C 
ATOM     68  C   UNL A   1      30.424  26.516  24.369  1.00  0.00     0.223 C 
ATOM     69  N   UNL A   1      31.766  26.446  24.694  1.00  0.00    -0.338 N 
ATOM     70  O   UNL A   1      29.869  27.407  23.745  1.00  0.00    -0.275 OA
BRANCH  69  71
ATOM     71  C   UNL A   1      32.765  27.431  24.316  1.00  0.00     0.155 C 
BRANCH  71  72
ATOM     72  C   UNL A   1      33.013  28.465  25.387  1.00  0.00    -0.027 A 
ATOM     73  C   UNL A   1      34.079  28.330  26.294  1.00  0.00     0.005 A 
ATOM     74  C   UNL A   1      32.176  29.584  25.497  1.00  0.00     0.026 A 
ATOM     75  C   UNL A   1      34.282  29.269  27.305  1.00  0.00     0.002 A 
ATOM     76  C   UNL A   1      32.399  30.535  26.493  1.00  0.00     0.041 A 
ATOM     77  C   UNL A   1      33.441  30.375  27.404  1.00  0.00     0.020 A 
ATOM     78  Cl  UNL A   1      31.384  31.920  26.596  1.00  0.00    -0.084 Cl
ENDBRANCH  71  72
ENDBRANCH  69  71
ENDBRANCH  62  65
ENDBRANCH  60  61
ENDBRANCH  59  60
ENDBRANCH  58  59
ENDBRANCH   1  58
TORSDOF 15
ENDMDL
