MODEL 1
REMARK VINA RESULT:     -10.4      0.000      0.000
REMARK SMILES CC[NH2+][C@@]1(C(=O)NCCCCCCNC(=O)c2ccc(-c3c4nc(c(-c5ccccc5)c5ccc([nH]5)c(-c5ccccc5)c5nc(c(-c6ccccc6)c6ccc3[nH]6)C=C5)C=C4)cc2)CC[C@@H]([NH+]2CC[NH+](C(C)C)CC2)C1
REMARK SMILES IDX 10 1 9 2 8 3 7 4 5 5 6 6 4 8 65 9 77 10 66 11 67 12 3 13
REMARK SMILES IDX 2 16 1 17 68 18 69 19 76 20 70 22 75 23 71 24 72 26 73 27
REMARK SMILES IDX 74 28 11 29 12 30 13 31 14 32 15 33 16 35 17 36 18 37 64 38
REMARK SMILES IDX 19 39 63 40 20 41 21 42 22 43 57 44 23 45 62 46 56 47 58 48
REMARK SMILES IDX 24 49 61 50 55 51 54 52 25 54 47 55 32 56 46 57 33 58 36 59
REMARK SMILES IDX 45 60 59 61 34 62 35 63 44 65 60 66 37 67 26 68 27 69 31 70
REMARK SMILES IDX 28 71 30 72 29 73 48 74 49 75 53 76 50 77 52 78 51 79 38 80
REMARK SMILES IDX 39 81 43 82 40 83 42 84 41 85
REMARK H PARENT 7 7 3 14 3 15 68 21 71 25 14 34 58 53 36 64
REMARK Flexibility Score: inf
ROOT
ATOM      1  C   UNL A   1      36.084  20.621  24.985  1.00  0.00     0.002 C 
ENDROOT
BRANCH   1   2
ATOM      2  C   UNL A   1      36.745  21.908  24.487  1.00  0.00     0.021 C 
BRANCH   2   3
ATOM      3  C   UNL A   1      36.676  23.045  25.504  1.00  0.00     0.116 C 
BRANCH   3   4
ATOM      4  N   UNL A   1      35.683  22.806  26.513  1.00  0.00    -0.351 N 
ATOM      5  C   UNL A   1      34.412  23.253  26.678  1.00  0.00     0.281 C 
ATOM      6  O   UNL A   1      33.893  22.867  27.735  1.00  0.00    -0.268 OA
ATOM      7  H   UNL A   1      35.982  22.196  27.226  1.00  0.00     0.163 HD
BRANCH   5   8
ATOM      8  C   UNL A   1      33.655  24.199  25.649  1.00  0.00     0.181 C 
ATOM      9  C   UNL A   1      34.413  25.462  25.206  1.00  0.00     0.085 C 
ATOM     10  C   UNL A   1      32.324  24.710  26.245  1.00  0.00     0.144 C 
ATOM     11  C   UNL A   1      33.758  26.688  25.831  1.00  0.00     0.072 C 
ATOM     12  C   UNL A   1      32.444  26.225  26.479  1.00  0.00     0.191 C 
BRANCH   8  13
ATOM     13  N   UNL A   1      33.297  23.376  24.448  1.00  0.00    -0.334 N 
ATOM     14  H   UNL A   1      33.666  22.436  24.590  1.00  0.00     0.347 HD
ATOM     15  H   UNL A   1      32.280  23.414  24.378  1.00  0.00     0.347 HD
BRANCH  13  16
ATOM     16  C   UNL A   1      33.806  23.870  23.167  1.00  0.00     0.257 C 
ATOM     17  C   UNL A   1      33.218  23.039  22.038  1.00  0.00     0.071 C 
ENDBRANCH  13  16
ENDBRANCH   8  13
BRANCH  12  18
ATOM     18  N   UNL A   1      31.289  27.088  26.212  1.00  0.00    -0.323 N 
ATOM     19  C   UNL A   1      31.554  28.485  25.848  1.00  0.00     0.324 C 
ATOM     20  C   UNL A   1      30.285  26.503  25.302  1.00  0.00     0.324 C 
ATOM     21  H   UNL A   1      30.891  27.134  27.150  1.00  0.00     0.348 HD
ATOM     22  C   UNL A   1      31.813  28.746  24.357  1.00  0.00     0.324 C 
ATOM     23  C   UNL A   1      30.419  26.840  23.792  1.00  0.00     0.324 C 
ATOM     24  N   UNL A   1      30.792  28.223  23.447  1.00  0.00    -0.324 N 
ATOM     25  H   UNL A   1      31.257  28.197  22.539  1.00  0.00     0.348 HD
BRANCH  24  26
ATOM     26  C   UNL A   1      29.661  29.106  23.119  1.00  0.00     0.178 C 
ATOM     27  C   UNL A   1      29.787  29.943  21.843  1.00  0.00     0.075 C 
ATOM     28  C   UNL A   1      28.325  28.348  23.099  1.00  0.00     0.075 C 
ENDBRANCH  24  26
ENDBRANCH  12  18
ENDBRANCH   5   8
ENDBRANCH   3   4
ENDBRANCH   2   3
ENDBRANCH   1   2
BRANCH   1  29
ATOM     29  C   UNL A   1      36.982  19.378  24.922  1.00  0.00     0.002 C 
BRANCH  29  30
ATOM     30  C   UNL A   1      38.474  19.668  24.735  1.00  0.00     0.021 C 
BRANCH  30  31
ATOM     31  C   UNL A   1      39.261  19.735  26.039  1.00  0.00     0.116 C 
BRANCH  31  32
ATOM     32  N   UNL A   1      40.541  19.053  25.919  1.00  0.00    -0.352 N 
ATOM     33  C   UNL A   1      41.808  19.571  25.945  1.00  0.00     0.251 C 
ATOM     34  H   UNL A   1      40.488  18.076  25.803  1.00  0.00     0.163 HD
ATOM     35  O   UNL A   1      42.760  18.911  25.545  1.00  0.00    -0.269 OA
BRANCH  33  36
ATOM     36  C   UNL A   1      42.022  20.934  26.467  1.00  0.00     0.039 A 
ATOM     37  C   UNL A   1      41.962  21.155  27.845  1.00  0.00     0.014 A 
ATOM     38  C   UNL A   1      42.254  21.994  25.587  1.00  0.00     0.014 A 
ATOM     39  C   UNL A   1      42.183  22.438  28.345  1.00  0.00     0.010 A 
ATOM     40  C   UNL A   1      42.543  23.257  26.090  1.00  0.00     0.010 A 
ATOM     41  C   UNL A   1      42.500  23.492  27.472  1.00  0.00    -0.014 A 
BRANCH  41  42
ATOM     42  C   UNL A   1      42.780  24.858  27.976  1.00  0.00     0.031 A 
ATOM     43  C   UNL A   1      44.179  25.233  28.380  1.00  0.00     0.074 A 
ATOM     44  C   UNL A   1      41.766  25.727  28.143  1.00  0.00     0.049 A 
ATOM     45  N   UNL A   1      44.611  26.339  28.931  1.00  0.00    -0.248 NA
ATOM     46  C   UNL A   1      45.229  24.222  28.163  1.00  0.00     0.031 C 
ATOM     47  C   UNL A   1      40.361  25.469  27.815  1.00  0.00     0.029 A 
ATOM     48  N   UNL A   1      41.760  27.004  28.645  1.00  0.00    -0.354 N 
ATOM     49  C   UNL A   1      45.968  26.146  29.152  1.00  0.00     0.074 A 
ATOM     50  C   UNL A   1      46.284  24.805  28.711  1.00  0.00     0.031 C 
ATOM     51  C   UNL A   1      39.636  26.561  28.101  1.00  0.00     0.029 A 
ATOM     52  C   UNL A   1      40.511  27.578  28.674  1.00  0.00     0.049 A 
ATOM     53  H   UNL A   1      42.572  27.466  28.954  1.00  0.00     0.167 HD
ATOM     54  C   UNL A   1      46.873  27.013  29.663  1.00  0.00     0.031 A 
ATOM     55  C   UNL A   1      40.118  28.784  29.123  1.00  0.00     0.031 A 
ATOM     56  C   UNL A   1      46.559  28.355  30.076  1.00  0.00     0.049 A 
ATOM     57  C   UNL A   1      41.143  29.719  29.701  1.00  0.00     0.074 A 
ATOM     58  C   UNL A   1      47.419  29.336  30.535  1.00  0.00     0.029 A 
ATOM     59  N   UNL A   1      45.285  28.899  30.081  1.00  0.00    -0.354 N 
ATOM     60  N   UNL A   1      42.437  29.551  29.832  1.00  0.00    -0.248 NA
ATOM     61  C   UNL A   1      40.653  31.017  30.189  1.00  0.00     0.031 C 
ATOM     62  C   UNL A   1      46.657  30.459  30.871  1.00  0.00     0.029 A 
ATOM     63  C   UNL A   1      45.331  30.195  30.566  1.00  0.00     0.049 A 
ATOM     64  H   UNL A   1      44.469  28.435  29.785  1.00  0.00     0.167 HD
ATOM     65  C   UNL A   1      42.919  30.732  30.380  1.00  0.00     0.074 A 
ATOM     66  C   UNL A   1      41.781  31.611  30.548  1.00  0.00     0.031 C 
ATOM     67  C   UNL A   1      44.191  31.060  30.714  1.00  0.00     0.031 A 
BRANCH  54  68
ATOM     68  C   UNL A   1      48.289  26.536  29.819  1.00  0.00    -0.014 A 
ATOM     69  C   UNL A   1      49.245  26.740  28.810  1.00  0.00     0.009 A 
ATOM     70  C   UNL A   1      48.688  25.923  31.016  1.00  0.00     0.009 A 
ATOM     71  C   UNL A   1      50.563  26.311  28.987  1.00  0.00     0.001 A 
ATOM     72  C   UNL A   1      50.011  25.520  31.202  1.00  0.00     0.001 A 
ATOM     73  C   UNL A   1      50.946  25.709  30.185  1.00  0.00     0.000 A 
ENDBRANCH  54  68
BRANCH  55  74
ATOM     74  C   UNL A   1      38.690  29.189  29.040  1.00  0.00    -0.014 A 
ATOM     75  C   UNL A   1      38.185  29.769  27.867  1.00  0.00     0.009 A 
ATOM     76  C   UNL A   1      37.831  29.024  30.138  1.00  0.00     0.009 A 
ATOM     77  C   UNL A   1      36.861  30.210  27.806  1.00  0.00     0.001 A 
ATOM     78  C   UNL A   1      36.500  29.437  30.064  1.00  0.00     0.001 A 
ATOM     79  C   UNL A   1      36.019  30.041  28.904  1.00  0.00     0.000 A 
ENDBRANCH  55  74
BRANCH  67  80
ATOM     80  C   UNL A   1      44.428  32.445  31.245  1.00  0.00    -0.014 A 
ATOM     81  C   UNL A   1      44.407  32.713  32.622  1.00  0.00     0.009 A 
ATOM     82  C   UNL A   1      44.730  33.485  30.352  1.00  0.00     0.009 A 
ATOM     83  C   UNL A   1      44.654  34.005  33.091  1.00  0.00     0.001 A 
ATOM     84  C   UNL A   1      45.007  34.766  30.825  1.00  0.00     0.001 A 
ATOM     85  C   UNL A   1      44.960  35.028  32.193  1.00  0.00     0.000 A 
ENDBRANCH  67  80
ENDBRANCH  41  42
ENDBRANCH  33  36
ENDBRANCH  31  32
ENDBRANCH  30  31
ENDBRANCH  29  30
ENDBRANCH   1  29
TORSDOF 17
ENDMDL
MODEL 2
REMARK VINA RESULT:     -10.4      0.641      5.885
REMARK SMILES CC[NH2+][C@@]1(C(=O)NCCCCCCNC(=O)c2ccc(-c3c4nc(c(-c5ccccc5)c5ccc([nH]5)c(-c5ccccc5)c5nc(c(-c6ccccc6)c6ccc3[nH]6)C=C5)C=C4)cc2)CC[C@@H]([NH+]2CC[NH+](C(C)C)CC2)C1
REMARK SMILES IDX 10 1 9 2 8 3 7 4 5 5 6 6 4 8 65 9 77 10 66 11 67 12 3 13
REMARK SMILES IDX 2 16 1 17 68 18 69 19 76 20 70 22 75 23 71 24 72 26 73 27
REMARK SMILES IDX 74 28 11 29 12 30 13 31 14 32 15 33 16 35 17 36 18 37 64 38
REMARK SMILES IDX 19 39 63 40 20 41 21 42 22 43 57 44 23 45 62 46 56 47 58 48
REMARK SMILES IDX 24 49 61 50 55 51 54 52 25 54 47 55 32 56 46 57 33 58 36 59
REMARK SMILES IDX 45 60 59 61 34 62 35 63 44 65 60 66 37 67 26 68 27 69 31 70
REMARK SMILES IDX 28 71 30 72 29 73 48 74 49 75 53 76 50 77 52 78 51 79 38 80
REMARK SMILES IDX 39 81 43 82 40 83 42 84 41 85
REMARK H PARENT 7 7 3 14 3 15 68 21 71 25 14 34 58 53 36 64
REMARK Flexibility Score: inf
ROOT
ATOM      1  C   UNL A   1      35.936  20.950  24.747  1.00  0.00     0.002 C 
ENDROOT
BRANCH   1   2
ATOM      2  C   UNL A   1      36.742  22.211  24.429  1.00  0.00     0.021 C 
BRANCH   2   3
ATOM      3  C   UNL A   1      36.726  23.231  25.563  1.00  0.00     0.116 C 
BRANCH   3   4
ATOM      4  N   UNL A   1      35.753  22.904  26.568  1.00  0.00    -0.351 N 
ATOM      5  C   UNL A   1      34.443  23.225  26.719  1.00  0.00     0.281 C 
ATOM      6  O   UNL A   1      33.956  22.800  27.776  1.00  0.00    -0.268 OA
ATOM      7  H   UNL A   1      36.105  22.334  27.289  1.00  0.00     0.163 HD
BRANCH   5   8
ATOM      8  C   UNL A   1      33.604  24.082  25.675  1.00  0.00     0.181 C 
ATOM      9  C   UNL A   1      34.326  25.293  25.059  1.00  0.00     0.085 C 
ATOM     10  C   UNL A   1      32.329  24.656  26.331  1.00  0.00     0.144 C 
ATOM     11  C   UNL A   1      33.726  26.576  25.623  1.00  0.00     0.072 C 
ATOM     12  C   UNL A   1      32.470  26.185  26.416  1.00  0.00     0.191 C 
BRANCH   8  13
ATOM     13  N   UNL A   1      33.147  23.158  24.587  1.00  0.00    -0.334 N 
ATOM     14  H   UNL A   1      33.054  23.703  23.730  1.00  0.00     0.347 HD
ATOM     15  H   UNL A   1      33.851  22.422  24.533  1.00  0.00     0.347 HD
BRANCH  13  16
ATOM     16  C   UNL A   1      31.873  22.478  24.828  1.00  0.00     0.257 C 
ATOM     17  C   UNL A   1      32.113  20.979  24.920  1.00  0.00     0.071 C 
ENDBRANCH  13  16
ENDBRANCH   8  13
BRANCH  12  18
ATOM     18  N   UNL A   1      31.298  27.032  26.168  1.00  0.00    -0.323 N 
ATOM     19  C   UNL A   1      31.535  28.444  25.851  1.00  0.00     0.324 C 
ATOM     20  C   UNL A   1      30.313  26.454  25.234  1.00  0.00     0.324 C 
ATOM     21  H   UNL A   1      30.893  27.039  27.105  1.00  0.00     0.348 HD
ATOM     22  C   UNL A   1      31.797  28.759  24.371  1.00  0.00     0.324 C 
ATOM     23  C   UNL A   1      30.449  26.843  23.736  1.00  0.00     0.324 C 
ATOM     24  N   UNL A   1      30.794  28.243  23.438  1.00  0.00    -0.324 N 
ATOM     25  H   UNL A   1      31.266  28.257  22.533  1.00  0.00     0.348 HD
BRANCH  24  26
ATOM     26  C   UNL A   1      29.647  29.111  23.131  1.00  0.00     0.178 C 
ATOM     27  C   UNL A   1      29.773  30.010  21.898  1.00  0.00     0.075 C 
ATOM     28  C   UNL A   1      28.331  28.321  23.050  1.00  0.00     0.075 C 
ENDBRANCH  24  26
ENDBRANCH  12  18
ENDBRANCH   5   8
ENDBRANCH   3   4
ENDBRANCH   2   3
ENDBRANCH   1   2
BRANCH   1  29
ATOM     29  C   UNL A   1      36.783  19.686  24.951  1.00  0.00     0.002 C 
BRANCH  29  30
ATOM     30  C   UNL A   1      38.286  19.872  24.719  1.00  0.00     0.021 C 
BRANCH  30  31
ATOM     31  C   UNL A   1      39.105  19.957  26.001  1.00  0.00     0.116 C 
BRANCH  31  32
ATOM     32  N   UNL A   1      40.335  19.188  25.894  1.00  0.00    -0.352 N 
ATOM     33  C   UNL A   1      41.636  19.612  25.969  1.00  0.00     0.251 C 
ATOM     34  H   UNL A   1      40.216  18.222  25.748  1.00  0.00     0.163 HD
ATOM     35  O   UNL A   1      42.548  18.896  25.574  1.00  0.00    -0.269 OA
BRANCH  33  36
ATOM     36  C   UNL A   1      41.932  20.941  26.536  1.00  0.00     0.039 A 
ATOM     37  C   UNL A   1      41.937  21.106  27.923  1.00  0.00     0.014 A 
ATOM     38  C   UNL A   1      42.177  22.026  25.691  1.00  0.00     0.014 A 
ATOM     39  C   UNL A   1      42.237  22.356  28.465  1.00  0.00     0.010 A 
ATOM     40  C   UNL A   1      42.544  23.252  26.232  1.00  0.00     0.010 A 
ATOM     41  C   UNL A   1      42.566  23.431  27.623  1.00  0.00    -0.014 A 
BRANCH  41  42
ATOM     42  C   UNL A   1      42.928  24.760  28.170  1.00  0.00     0.031 A 
ATOM     43  C   UNL A   1      41.858  25.789  28.404  1.00  0.00     0.074 A 
ATOM     44  C   UNL A   1      44.223  25.064  28.378  1.00  0.00     0.049 A 
ATOM     45  N   UNL A   1      41.979  27.036  28.785  1.00  0.00    -0.248 NA
ATOM     46  C   UNL A   1      40.467  25.373  28.152  1.00  0.00     0.031 C 
ATOM     47  C   UNL A   1      45.355  24.159  28.159  1.00  0.00     0.029 A 
ATOM     48  N   UNL A   1      44.808  26.228  28.809  1.00  0.00    -0.354 N 
ATOM     49  C   UNL A   1      40.692  27.557  28.787  1.00  0.00     0.074 A 
ATOM     50  C   UNL A   1      39.807  26.506  28.336  1.00  0.00     0.031 C 
ATOM     51  C   UNL A   1      46.493  24.794  28.482  1.00  0.00     0.029 A 
ATOM     52  C   UNL A   1      46.178  26.161  28.883  1.00  0.00     0.049 A 
ATOM     53  H   UNL A   1      44.294  27.034  29.044  1.00  0.00     0.167 HD
ATOM     54  C   UNL A   1      40.283  28.796  29.147  1.00  0.00     0.031 A 
ATOM     55  C   UNL A   1      47.079  27.101  29.226  1.00  0.00     0.031 A 
ATOM     56  C   UNL A   1      41.164  29.830  29.620  1.00  0.00     0.049 A 
ATOM     57  C   UNL A   1      46.595  28.473  29.605  1.00  0.00     0.074 A 
ATOM     58  C   UNL A   1      40.838  31.093  30.081  1.00  0.00     0.029 A 
ATOM     59  N   UNL A   1      42.544  29.718  29.688  1.00  0.00    -0.354 N 
ATOM     60  N   UNL A   1      45.367  28.927  29.678  1.00  0.00    -0.248 NA
ATOM     61  C   UNL A   1      47.624  29.462  29.957  1.00  0.00     0.031 C 
ATOM     62  C   UNL A   1      42.026  31.767  30.377  1.00  0.00     0.029 A 
ATOM     63  C   UNL A   1      43.087  30.903  30.155  1.00  0.00     0.049 A 
ATOM     64  H   UNL A   1      43.060  28.918  29.442  1.00  0.00     0.167 HD
ATOM     65  C   UNL A   1      45.475  30.239  30.118  1.00  0.00     0.074 A 
ATOM     66  C   UNL A   1      46.885  30.505  30.305  1.00  0.00     0.031 C 
ATOM     67  C   UNL A   1      44.493  31.145  30.348  1.00  0.00     0.031 A 
BRANCH  54  68
ATOM     68  C   UNL A   1      38.818  29.111  29.032  1.00  0.00    -0.014 A 
ATOM     69  C   UNL A   1      37.964  29.033  30.144  1.00  0.00     0.009 A 
ATOM     70  C   UNL A   1      38.295  29.545  27.805  1.00  0.00     0.009 A 
ATOM     71  C   UNL A   1      36.610  29.355  30.019  1.00  0.00     0.001 A 
ATOM     72  C   UNL A   1      36.949  29.893  27.689  1.00  0.00     0.001 A 
ATOM     73  C   UNL A   1      36.106  29.791  28.794  1.00  0.00     0.000 A 
ENDBRANCH  54  68
BRANCH  55  74
ATOM     74  C   UNL A   1      48.531  26.783  29.239  1.00  0.00    -0.014 A 
ATOM     75  C   UNL A   1      49.129  26.250  30.391  1.00  0.00     0.009 A 
ATOM     76  C   UNL A   1      49.331  27.035  28.114  1.00  0.00     0.009 A 
ATOM     77  C   UNL A   1      50.505  26.010  30.429  1.00  0.00     0.001 A 
ATOM     78  C   UNL A   1      50.701  26.764  28.145  1.00  0.00     0.001 A 
ATOM     79  C   UNL A   1      51.289  26.264  29.305  1.00  0.00     0.000 A 
ENDBRANCH  55  74
BRANCH  67  80
ATOM     80  C   UNL A   1      44.904  32.489  30.878  1.00  0.00    -0.014 A 
ATOM     81  C   UNL A   1      45.037  32.722  32.255  1.00  0.00     0.009 A 
ATOM     82  C   UNL A   1      45.213  33.520  29.978  1.00  0.00     0.009 A 
ATOM     83  C   UNL A   1      45.443  33.974  32.720  1.00  0.00     0.001 A 
ATOM     84  C   UNL A   1      45.649  34.759  30.443  1.00  0.00     0.001 A 
ATOM     85  C   UNL A   1      45.756  34.989  31.814  1.00  0.00     0.000 A 
ENDBRANCH  67  80
ENDBRANCH  41  42
ENDBRANCH  33  36
ENDBRANCH  31  32
ENDBRANCH  30  31
ENDBRANCH  29  30
ENDBRANCH   1  29
TORSDOF 17
ENDMDL
MODEL 3
REMARK VINA RESULT:     -10.2      3.559      9.195
REMARK SMILES CC[NH2+][C@@]1(C(=O)NCCCCCCNC(=O)c2ccc(-c3c4nc(c(-c5ccccc5)c5ccc([nH]5)c(-c5ccccc5)c5nc(c(-c6ccccc6)c6ccc3[nH]6)C=C5)C=C4)cc2)CC[C@@H]([NH+]2CC[NH+](C(C)C)CC2)C1
REMARK SMILES IDX 10 1 9 2 8 3 7 4 5 5 6 6 4 8 65 9 77 10 66 11 67 12 3 13
REMARK SMILES IDX 2 16 1 17 68 18 69 19 76 20 70 22 75 23 71 24 72 26 73 27
REMARK SMILES IDX 74 28 11 29 12 30 13 31 14 32 15 33 16 35 17 36 18 37 64 38
REMARK SMILES IDX 19 39 63 40 20 41 21 42 22 43 57 44 23 45 62 46 56 47 58 48
REMARK SMILES IDX 24 49 61 50 55 51 54 52 25 54 47 55 32 56 46 57 33 58 36 59
REMARK SMILES IDX 45 60 59 61 34 62 35 63 44 65 60 66 37 67 26 68 27 69 31 70
REMARK SMILES IDX 28 71 30 72 29 73 48 74 49 75 53 76 50 77 52 78 51 79 38 80
REMARK SMILES IDX 39 81 43 82 40 83 42 84 41 85
REMARK H PARENT 7 7 3 14 3 15 68 21 71 25 14 34 58 53 36 64
REMARK Flexibility Score: inf
ROOT
ATOM      1  C   UNL A   1      32.265  29.644  26.328  1.00  0.00     0.002 C 
ENDROOT
BRANCH   1   2
ATOM      2  C   UNL A   1      31.660  28.366  26.911  1.00  0.00     0.021 C 
BRANCH   2   3
ATOM      3  C   UNL A   1      32.145  27.101  26.208  1.00  0.00     0.116 C 
BRANCH   3   4
ATOM      4  N   UNL A   1      31.523  25.919  26.736  1.00  0.00    -0.351 N 
ATOM      5  C   UNL A   1      31.707  24.596  26.494  1.00  0.00     0.281 C 
ATOM      6  O   UNL A   1      30.912  23.873  27.110  1.00  0.00    -0.268 OA
ATOM      7  H   UNL A   1      30.827  26.105  27.407  1.00  0.00     0.163 HD
BRANCH   5   8
ATOM      8  C   UNL A   1      32.805  24.011  25.504  1.00  0.00     0.181 C 
ATOM      9  C   UNL A   1      32.450  24.038  24.008  1.00  0.00     0.085 C 
ATOM     10  C   UNL A   1      33.105  22.530  25.827  1.00  0.00     0.144 C 
ATOM     11  C   UNL A   1      32.182  22.616  23.528  1.00  0.00     0.072 C 
ATOM     12  C   UNL A   1      32.597  21.664  24.662  1.00  0.00     0.191 C 
BRANCH   8  13
ATOM     13  N   UNL A   1      34.079  24.766  25.735  1.00  0.00    -0.334 N 
ATOM     14  H   UNL A   1      34.268  25.326  24.904  1.00  0.00     0.347 HD
ATOM     15  H   UNL A   1      33.926  25.318  26.579  1.00  0.00     0.347 HD
BRANCH  13  16
ATOM     16  C   UNL A   1      35.261  23.945  26.003  1.00  0.00     0.257 C 
ATOM     17  C   UNL A   1      36.064  23.786  24.720  1.00  0.00     0.071 C 
ENDBRANCH  13  16
ENDBRANCH   8  13
BRANCH  12  18
ATOM     18  N   UNL A   1      33.382  20.502  24.233  1.00  0.00    -0.323 N 
ATOM     19  C   UNL A   1      33.809  19.552  25.265  1.00  0.00     0.324 C 
ATOM     20  C   UNL A   1      32.823  19.782  23.072  1.00  0.00     0.324 C 
ATOM     21  H   UNL A   1      34.239  20.974  23.942  1.00  0.00     0.348 HD
ATOM     22  C   UNL A   1      32.795  18.455  25.621  1.00  0.00     0.324 C 
ATOM     23  C   UNL A   1      31.891  18.576  23.372  1.00  0.00     0.324 C 
ATOM     24  N   UNL A   1      32.279  17.692  24.484  1.00  0.00    -0.324 N 
ATOM     25  H   UNL A   1      31.427  17.258  24.841  1.00  0.00     0.348 HD
BRANCH  24  26
ATOM     26  C   UNL A   1      33.021  16.486  24.085  1.00  0.00     0.178 C 
ATOM     27  C   UNL A   1      34.196  16.685  23.123  1.00  0.00     0.075 C 
ATOM     28  C   UNL A   1      33.494  15.672  25.300  1.00  0.00     0.075 C 
ENDBRANCH  24  26
ENDBRANCH  12  18
ENDBRANCH   5   8
ENDBRANCH   3   4
ENDBRANCH   2   3
ENDBRANCH   1   2
BRANCH   1  29
ATOM     29  C   UNL A   1      31.243  30.614  25.719  1.00  0.00     0.002 C 
BRANCH  29  30
ATOM     30  C   UNL A   1      31.181  31.991  26.388  1.00  0.00     0.021 C 
BRANCH  30  31
ATOM     31  C   UNL A   1      32.481  32.408  27.067  1.00  0.00     0.116 C 
BRANCH  31  32
ATOM     32  N   UNL A   1      32.429  33.797  27.496  1.00  0.00    -0.352 N 
ATOM     33  C   UNL A   1      33.194  34.448  28.428  1.00  0.00     0.251 C 
ATOM     34  H   UNL A   1      31.747  34.350  27.051  1.00  0.00     0.163 HD
ATOM     35  O   UNL A   1      32.839  35.532  28.878  1.00  0.00    -0.269 OA
BRANCH  33  36
ATOM     36  C   UNL A   1      34.457  33.837  28.884  1.00  0.00     0.039 A 
ATOM     37  C   UNL A   1      35.647  34.158  28.227  1.00  0.00     0.014 A 
ATOM     38  C   UNL A   1      34.453  32.926  29.943  1.00  0.00     0.014 A 
ATOM     39  C   UNL A   1      36.846  33.599  28.668  1.00  0.00     0.010 A 
ATOM     40  C   UNL A   1      35.656  32.423  30.424  1.00  0.00     0.010 A 
ATOM     41  C   UNL A   1      36.861  32.747  29.784  1.00  0.00    -0.014 A 
BRANCH  41  42
ATOM     42  C   UNL A   1      38.125  32.168  30.301  1.00  0.00     0.031 A 
ATOM     43  C   UNL A   1      38.640  30.874  29.736  1.00  0.00     0.074 A 
ATOM     44  C   UNL A   1      38.759  32.765  31.327  1.00  0.00     0.049 A 
ATOM     45  N   UNL A   1      39.669  30.159  30.114  1.00  0.00    -0.248 NA
ATOM     46  C   UNL A   1      37.885  30.290  28.614  1.00  0.00     0.031 C 
ATOM     47  C   UNL A   1      38.340  34.008  31.979  1.00  0.00     0.029 A 
ATOM     48  N   UNL A   1      39.889  32.396  32.012  1.00  0.00    -0.354 N 
ATOM     49  C   UNL A   1      39.666  29.033  29.302  1.00  0.00     0.074 A 
ATOM     50  C   UNL A   1      38.514  29.138  28.434  1.00  0.00     0.031 C 
ATOM     51  C   UNL A   1      39.215  34.311  32.952  1.00  0.00     0.029 A 
ATOM     52  C   UNL A   1      40.228  33.263  33.023  1.00  0.00     0.049 A 
ATOM     53  H   UNL A   1      40.409  31.588  31.799  1.00  0.00     0.167 HD
ATOM     54  C   UNL A   1      40.552  28.011  29.272  1.00  0.00     0.031 A 
ATOM     55  C   UNL A   1      41.235  33.211  33.914  1.00  0.00     0.031 A 
ATOM     56  C   UNL A   1      41.711  27.923  30.120  1.00  0.00     0.049 A 
ATOM     57  C   UNL A   1      42.193  32.053  33.867  1.00  0.00     0.074 A 
ATOM     58  C   UNL A   1      42.710  26.967  30.114  1.00  0.00     0.029 A 
ATOM     59  N   UNL A   1      42.021  28.826  31.124  1.00  0.00    -0.354 N 
ATOM     60  N   UNL A   1      42.222  31.035  33.042  1.00  0.00    -0.248 NA
ATOM     61  C   UNL A   1      43.265  32.042  34.874  1.00  0.00     0.031 C 
ATOM     62  C   UNL A   1      43.597  27.259  31.153  1.00  0.00     0.029 A 
ATOM     63  C   UNL A   1      43.182  28.430  31.767  1.00  0.00     0.049 A 
ATOM     64  H   UNL A   1      41.496  29.627  31.348  1.00  0.00     0.167 HD
ATOM     65  C   UNL A   1      43.332  30.285  33.405  1.00  0.00     0.074 A 
ATOM     66  C   UNL A   1      43.956  30.969  34.517  1.00  0.00     0.031 C 
ATOM     67  C   UNL A   1      43.796  29.132  32.864  1.00  0.00     0.031 A 
BRANCH  54  68
ATOM     68  C   UNL A   1      40.298  26.892  28.301  1.00  0.00    -0.014 A 
ATOM     69  C   UNL A   1      40.848  26.907  27.009  1.00  0.00     0.009 A 
ATOM     70  C   UNL A   1      39.543  25.780  28.703  1.00  0.00     0.009 A 
ATOM     71  C   UNL A   1      40.621  25.844  26.131  1.00  0.00     0.001 A 
ATOM     72  C   UNL A   1      39.340  24.707  27.835  1.00  0.00     0.001 A 
ATOM     73  C   UNL A   1      39.873  24.743  26.547  1.00  0.00     0.000 A 
ENDBRANCH  54  68
BRANCH  55  74
ATOM     74  C   UNL A   1      41.403  34.288  34.925  1.00  0.00    -0.014 A 
ATOM     75  C   UNL A   1      42.201  35.407  34.642  1.00  0.00     0.009 A 
ATOM     76  C   UNL A   1      40.790  34.193  36.185  1.00  0.00     0.009 A 
ATOM     77  C   UNL A   1      42.413  36.390  35.612  1.00  0.00     0.001 A 
ATOM     78  C   UNL A   1      40.979  35.193  37.141  1.00  0.00     0.001 A 
ATOM     79  C   UNL A   1      41.800  36.283  36.859  1.00  0.00     0.000 A 
ENDBRANCH  55  74
BRANCH  67  80
ATOM     80  C   UNL A   1      45.065  28.565  33.433  1.00  0.00    -0.014 A 
ATOM     81  C   UNL A   1      46.322  28.959  32.951  1.00  0.00     0.009 A 
ATOM     82  C   UNL A   1      44.998  27.661  34.504  1.00  0.00     0.009 A 
ATOM     83  C   UNL A   1      47.487  28.434  33.513  1.00  0.00     0.001 A 
ATOM     84  C   UNL A   1      46.163  27.162  35.084  1.00  0.00     0.001 A 
ATOM     85  C   UNL A   1      47.407  27.543  34.583  1.00  0.00     0.000 A 
ENDBRANCH  67  80
ENDBRANCH  41  42
ENDBRANCH  33  36
ENDBRANCH  31  32
ENDBRANCH  30  31
ENDBRANCH  29  30
ENDBRANCH   1  29
TORSDOF 17
ENDMDL
