MODEL 1
REMARK VINA RESULT:     -12.1      0.000      0.000
REMARK SMILES CCc1cc(N2CCC(O)(C(=O)NCCCCCCNC(=O)c3ccc(-c4c5nc(c(-c6ccccc6)c6ccc([nH]6)c(-c6ccccc6)c6nc(c(-c7ccccc7)c7ccc4[nH]7)C=C6)C=C5)cc3)CC2)nc(N2CCOCC2)n1
REMARK SMILES IDX 16 1 15 2 14 3 13 4 11 5 12 6 9 8 6 9 7 10 72 11 8 12 71 13
REMARK SMILES IDX 5 14 3 15 4 16 81 17 74 18 73 19 2 20 1 21 75 22 76 23 80 24
REMARK SMILES IDX 77 25 79 26 78 27 10 28 17 30 18 31 19 32 20 33 21 34 22 36
REMARK SMILES IDX 23 37 24 38 70 39 25 40 69 41 26 42 27 43 28 44 63 45 29 46
REMARK SMILES IDX 68 47 62 48 64 49 30 50 67 51 61 52 60 53 31 55 53 56 38 57
REMARK SMILES IDX 52 58 39 59 42 60 51 61 65 62 40 63 41 64 50 66 66 67 43 68
REMARK SMILES IDX 32 69 33 70 37 71 34 72 36 73 35 74 54 75 55 76 59 77 56 78
REMARK SMILES IDX 58 79 57 80 44 81 45 82 49 83 46 84 48 85 47 86
REMARK H PARENT 13 7 10 29 20 35 64 54 42 65
REMARK Flexibility Score: inf
ROOT
ATOM      1  C   UNL A   1      32.737  29.952  27.239  1.00  0.00     0.002 C 
ENDROOT
BRANCH   1   2
ATOM      2  C   UNL A   1      32.980  28.479  26.885  1.00  0.00     0.021 C 
BRANCH   2   3
ATOM      3  C   UNL A   1      31.696  27.655  26.790  1.00  0.00     0.116 C 
BRANCH   3   4
ATOM      4  N   UNL A   1      31.371  27.391  25.405  1.00  0.00    -0.354 N 
ATOM      5  C   UNL A   1      31.196  26.205  24.755  1.00  0.00     0.252 C 
ATOM      6  O   UNL A   1      30.991  26.264  23.539  1.00  0.00    -0.272 OA
ATOM      7  H   UNL A   1      31.261  28.191  24.843  1.00  0.00     0.163 HD
BRANCH   5   8
ATOM      8  C   UNL A   1      31.241  24.857  25.529  1.00  0.00     0.146 C 
ATOM      9  N   UNL A   1      32.273  22.211  25.929  1.00  0.00    -0.356 N 
ATOM     10  C   UNL A   1      32.617  23.256  26.876  1.00  0.00     0.121 C 
ATOM     11  C   UNL A   1      31.066  22.334  25.132  1.00  0.00     0.121 C 
ATOM     12  C   UNL A   1      32.614  24.603  26.163  1.00  0.00     0.067 C 
ATOM     13  C   UNL A   1      30.935  23.723  24.524  1.00  0.00     0.067 C 
BRANCH   9  14
ATOM     14  C   UNL A   1      33.279  21.364  25.506  1.00  0.00     0.134 A 
ATOM     15  C   UNL A   1      35.550  20.982  25.038  1.00  0.00     0.048 A 
ATOM     16  C   UNL A   1      34.551  21.871  25.356  1.00  0.00     0.071 A 
ATOM     17  N   UNL A   1      35.304  19.672  24.861  1.00  0.00    -0.218 NA
ATOM     18  C   UNL A   1      34.027  19.268  24.940  1.00  0.00     0.227 A 
ATOM     19  N   UNL A   1      33.006  20.073  25.272  1.00  0.00    -0.196 NA
BRANCH  15  20
ATOM     20  C   UNL A   1      36.968  21.464  24.895  1.00  0.00     0.053 C 
ATOM     21  C   UNL A   1      37.176  22.823  25.548  1.00  0.00     0.011 C 
ENDBRANCH  15  20
BRANCH  18  22
ATOM     22  N   UNL A   1      33.751  17.965  24.661  1.00  0.00    -0.336 N 
ATOM     23  C   UNL A   1      32.446  17.396  24.940  1.00  0.00     0.148 C 
ATOM     24  C   UNL A   1      34.772  17.086  24.127  1.00  0.00     0.148 C 
ATOM     25  C   UNL A   1      32.603  16.101  25.746  1.00  0.00     0.181 C 
ATOM     26  C   UNL A   1      34.833  15.826  25.009  1.00  0.00     0.181 C 
ATOM     27  O   UNL A   1      33.541  15.198  25.130  1.00  0.00    -0.378 OA
ENDBRANCH  18  22
ENDBRANCH   9  14
BRANCH   8  28
ATOM     28  O   UNL A   1      30.261  24.891  26.579  1.00  0.00    -0.380 OA
ATOM     29  H   UNL A   1      29.379  25.019  26.194  1.00  0.00     0.212 HD
ENDBRANCH   8  28
ENDBRANCH   5   8
ENDBRANCH   3   4
ENDBRANCH   2   3
ENDBRANCH   1   2
BRANCH   1  30
ATOM     30  C   UNL A   1      31.700  30.656  26.361  1.00  0.00     0.002 C 
BRANCH  30  31
ATOM     31  C   UNL A   1      31.487  32.135  26.690  1.00  0.00     0.021 C 
BRANCH  31  32
ATOM     32  C   UNL A   1      32.711  32.817  27.288  1.00  0.00     0.116 C 
BRANCH  32  33
ATOM     33  N   UNL A   1      32.444  34.208  27.622  1.00  0.00    -0.352 N 
ATOM     34  C   UNL A   1      33.005  34.977  28.609  1.00  0.00     0.251 C 
ATOM     35  H   UNL A   1      31.769  34.659  27.064  1.00  0.00     0.163 HD
ATOM     36  O   UNL A   1      32.524  36.067  28.905  1.00  0.00    -0.269 OA
BRANCH  34  37
ATOM     37  C   UNL A   1      34.191  34.472  29.327  1.00  0.00     0.039 A 
ATOM     38  C   UNL A   1      34.026  33.846  30.564  1.00  0.00     0.014 A 
ATOM     39  C   UNL A   1      35.463  34.605  28.763  1.00  0.00     0.014 A 
ATOM     40  C   UNL A   1      35.134  33.300  31.212  1.00  0.00     0.010 A 
ATOM     41  C   UNL A   1      36.551  33.990  29.368  1.00  0.00     0.010 A 
ATOM     42  C   UNL A   1      36.400  33.342  30.605  1.00  0.00    -0.014 A 
BRANCH  42  43
ATOM     43  C   UNL A   1      37.591  32.732  31.244  1.00  0.00     0.031 A 
ATOM     44  C   UNL A   1      38.262  31.553  30.596  1.00  0.00     0.074 A 
ATOM     45  C   UNL A   1      38.011  33.172  32.443  1.00  0.00     0.049 A 
ATOM     46  N   UNL A   1      39.241  30.809  31.045  1.00  0.00    -0.248 NA
ATOM     47  C   UNL A   1      37.740  31.136  29.285  1.00  0.00     0.031 C 
ATOM     48  C   UNL A   1      37.422  34.285  33.192  1.00  0.00     0.029 A 
ATOM     49  N   UNL A   1      39.024  32.724  33.253  1.00  0.00    -0.354 N 
ATOM     50  C   UNL A   1      39.432  29.823  30.086  1.00  0.00     0.074 A 
ATOM     51  C   UNL A   1      38.431  30.030  29.061  1.00  0.00     0.031 C 
ATOM     52  C   UNL A   1      38.093  34.440  34.344  1.00  0.00     0.029 A 
ATOM     53  C   UNL A   1      39.126  33.412  34.437  1.00  0.00     0.049 A 
ATOM     54  H   UNL A   1      39.621  31.980  33.008  1.00  0.00     0.167 HD
ATOM     55  C   UNL A   1      40.365  28.842  30.050  1.00  0.00     0.031 A 
ATOM     56  C   UNL A   1      39.945  33.226  35.489  1.00  0.00     0.031 A 
ATOM     57  C   UNL A   1      41.356  28.640  31.072  1.00  0.00     0.049 A 
ATOM     58  C   UNL A   1      40.962  32.121  35.443  1.00  0.00     0.074 A 
ATOM     59  C   UNL A   1      42.383  27.714  31.105  1.00  0.00     0.029 A 
ATOM     60  N   UNL A   1      41.437  29.371  32.248  1.00  0.00    -0.354 N 
ATOM     61  N   UNL A   1      41.177  31.237  34.499  1.00  0.00    -0.248 NA
ATOM     62  C   UNL A   1      41.856  31.994  36.602  1.00  0.00     0.031 C 
ATOM     63  C   UNL A   1      43.045  27.841  32.331  1.00  0.00     0.029 A 
ATOM     64  C   UNL A   1      42.477  28.895  33.029  1.00  0.00     0.049 A 
ATOM     65  H   UNL A   1      40.843  30.117  32.491  1.00  0.00     0.167 HD
ATOM     66  C   UNL A   1      42.250  30.469  34.934  1.00  0.00     0.074 A 
ATOM     67  C   UNL A   1      42.645  30.997  36.225  1.00  0.00     0.031 C 
ATOM     68  C   UNL A   1      42.857  29.427  34.314  1.00  0.00     0.031 A 
BRANCH  55  69
ATOM     69  C   UNL A   1      40.326  27.900  28.876  1.00  0.00    -0.014 A 
ATOM     70  C   UNL A   1      39.623  26.685  28.932  1.00  0.00     0.009 A 
ATOM     71  C   UNL A   1      41.011  28.231  27.697  1.00  0.00     0.009 A 
ATOM     72  C   UNL A   1      39.660  25.795  27.856  1.00  0.00     0.001 A 
ATOM     73  C   UNL A   1      41.013  27.357  26.609  1.00  0.00     0.001 A 
ATOM     74  C   UNL A   1      40.353  26.133  26.695  1.00  0.00     0.000 A 
ENDBRANCH  55  69
BRANCH  56  75
ATOM     75  C   UNL A   1      39.833  34.123  36.669  1.00  0.00    -0.014 A 
ATOM     76  C   UNL A   1      40.441  35.388  36.665  1.00  0.00     0.009 A 
ATOM     77  C   UNL A   1      39.085  33.734  37.791  1.00  0.00     0.009 A 
ATOM     78  C   UNL A   1      40.311  36.239  37.765  1.00  0.00     0.001 A 
ATOM     79  C   UNL A   1      38.932  34.599  38.877  1.00  0.00     0.001 A 
ATOM     80  C   UNL A   1      39.550  35.847  38.866  1.00  0.00     0.000 A 
ENDBRANCH  56  75
BRANCH  68  81
ATOM     81  C   UNL A   1      44.045  28.807  34.999  1.00  0.00    -0.014 A 
ATOM     82  C   UNL A   1      45.349  29.275  34.777  1.00  0.00     0.009 A 
ATOM     83  C   UNL A   1      43.841  27.780  35.935  1.00  0.00     0.009 A 
ATOM     84  C   UNL A   1      46.426  28.710  35.463  1.00  0.00     0.001 A 
ATOM     85  C   UNL A   1      44.915  27.239  36.642  1.00  0.00     0.001 A 
ATOM     86  C   UNL A   1      46.208  27.701  36.400  1.00  0.00     0.000 A 
ENDBRANCH  68  81
ENDBRANCH  42  43
ENDBRANCH  34  37
ENDBRANCH  32  33
ENDBRANCH  31  32
ENDBRANCH  30  31
ENDBRANCH   1  30
TORSDOF 17
ENDMDL
MODEL 2
REMARK VINA RESULT:     -11.9      4.235     10.196
REMARK SMILES CCc1cc(N2CCC(O)(C(=O)NCCCCCCNC(=O)c3ccc(-c4c5nc(c(-c6ccccc6)c6ccc([nH]6)c(-c6ccccc6)c6nc(c(-c7ccccc7)c7ccc4[nH]7)C=C6)C=C5)cc3)CC2)nc(N2CCOCC2)n1
REMARK SMILES IDX 16 1 15 2 14 3 13 4 11 5 12 6 9 8 6 9 7 10 72 11 8 12 71 13
REMARK SMILES IDX 5 14 3 15 4 16 81 17 74 18 73 19 2 20 1 21 75 22 76 23 80 24
REMARK SMILES IDX 77 25 79 26 78 27 10 28 17 30 18 31 19 32 20 33 21 34 22 36
REMARK SMILES IDX 23 37 24 38 70 39 25 40 69 41 26 42 27 43 28 44 63 45 29 46
REMARK SMILES IDX 68 47 62 48 64 49 30 50 67 51 61 52 60 53 31 55 53 56 38 57
REMARK SMILES IDX 52 58 39 59 42 60 51 61 65 62 40 63 41 64 50 66 66 67 43 68
REMARK SMILES IDX 32 69 33 70 37 71 34 72 36 73 35 74 54 75 55 76 59 77 56 78
REMARK SMILES IDX 58 79 57 80 44 81 45 82 49 83 46 84 48 85 47 86
REMARK H PARENT 13 7 10 29 20 35 64 54 42 65
REMARK Flexibility Score: inf
ROOT
ATOM      1  C   UNL A   1      36.336  21.349  25.214  1.00  0.00     0.002 C 
ENDROOT
BRANCH   1   2
ATOM      2  C   UNL A   1      36.509  22.299  24.023  1.00  0.00     0.021 C 
BRANCH   2   3
ATOM      3  C   UNL A   1      35.200  22.928  23.549  1.00  0.00     0.116 C 
BRANCH   3   4
ATOM      4  N   UNL A   1      34.090  22.424  24.330  1.00  0.00    -0.354 N 
ATOM      5  C   UNL A   1      32.784  22.815  24.355  1.00  0.00     0.252 C 
ATOM      6  O   UNL A   1      32.053  22.254  25.176  1.00  0.00    -0.272 OA
ATOM      7  H   UNL A   1      34.312  21.684  24.939  1.00  0.00     0.163 HD
BRANCH   5   8
ATOM      8  C   UNL A   1      32.259  23.905  23.378  1.00  0.00     0.146 C 
ATOM      9  N   UNL A   1      31.209  26.520  22.844  1.00  0.00    -0.356 N 
ATOM     10  C   UNL A   1      32.568  26.207  22.442  1.00  0.00     0.121 C 
ATOM     11  C   UNL A   1      30.247  25.446  23.020  1.00  0.00     0.121 C 
ATOM     12  C   UNL A   1      33.144  25.158  23.385  1.00  0.00     0.067 C 
ATOM     13  C   UNL A   1      30.832  24.296  23.826  1.00  0.00     0.067 C 
BRANCH   9  14
ATOM     14  C   UNL A   1      30.977  27.740  23.450  1.00  0.00     0.134 A 
ATOM     15  C   UNL A   1      31.552  29.347  25.064  1.00  0.00     0.048 A 
ATOM     16  C   UNL A   1      31.730  28.085  24.550  1.00  0.00     0.071 A 
ATOM     17  N   UNL A   1      30.669  30.211  24.534  1.00  0.00    -0.218 NA
ATOM     18  C   UNL A   1      29.911  29.773  23.517  1.00  0.00     0.227 A 
ATOM     19  N   UNL A   1      30.048  28.565  22.948  1.00  0.00    -0.196 NA
BRANCH  15  20
ATOM     20  C   UNL A   1      32.370  29.801  26.244  1.00  0.00     0.053 C 
ATOM     21  C   UNL A   1      32.792  28.635  27.125  1.00  0.00     0.011 C 
ENDBRANCH  15  20
BRANCH  18  22
ATOM     22  N   UNL A   1      28.942  30.600  23.040  1.00  0.00    -0.336 N 
ATOM     23  C   UNL A   1      28.218  30.286  21.823  1.00  0.00     0.148 C 
ATOM     24  C   UNL A   1      28.641  31.853  23.702  1.00  0.00     0.148 C 
ATOM     25  C   UNL A   1      28.249  31.489  20.872  1.00  0.00     0.181 C 
ATOM     26  C   UNL A   1      28.696  32.979  22.654  1.00  0.00     0.181 C 
ATOM     27  O   UNL A   1      27.836  32.702  21.531  1.00  0.00    -0.378 OA
ENDBRANCH  18  22
ENDBRANCH   9  14
BRANCH   8  28
ATOM     28  O   UNL A   1      32.250  23.369  22.045  1.00  0.00    -0.380 OA
ATOM     29  H   UNL A   1      32.012  22.429  22.076  1.00  0.00     0.212 HD
ENDBRANCH   8  28
ENDBRANCH   5   8
ENDBRANCH   3   4
ENDBRANCH   2   3
ENDBRANCH   1   2
BRANCH   1  30
ATOM     30  C   UNL A   1      36.871  19.933  24.984  1.00  0.00     0.002 C 
BRANCH  30  31
ATOM     31  C   UNL A   1      38.372  19.860  24.698  1.00  0.00     0.021 C 
BRANCH  31  32
ATOM     32  C   UNL A   1      39.248  20.170  25.904  1.00  0.00     0.116 C 
BRANCH  32  33
ATOM     33  N   UNL A   1      40.366  19.244  26.012  1.00  0.00    -0.352 N 
ATOM     34  C   UNL A   1      41.687  19.519  26.260  1.00  0.00     0.251 C 
ATOM     35  H   UNL A   1      40.146  18.293  25.891  1.00  0.00     0.163 HD
ATOM     36  O   UNL A   1      42.546  18.655  26.107  1.00  0.00    -0.269 OA
BRANCH  34  37
ATOM     37  C   UNL A   1      42.070  20.874  26.698  1.00  0.00     0.039 A 
ATOM     38  C   UNL A   1      42.421  21.829  25.740  1.00  0.00     0.014 A 
ATOM     39  C   UNL A   1      42.062  21.202  28.057  1.00  0.00     0.014 A 
ATOM     40  C   UNL A   1      42.711  23.133  26.144  1.00  0.00     0.010 A 
ATOM     41  C   UNL A   1      42.270  22.518  28.448  1.00  0.00     0.010 A 
ATOM     42  C   UNL A   1      42.609  23.494  27.497  1.00  0.00    -0.014 A 
BRANCH  42  43
ATOM     43  C   UNL A   1      42.866  24.881  27.954  1.00  0.00     0.031 A 
ATOM     44  C   UNL A   1      44.253  25.284  28.369  1.00  0.00     0.074 A 
ATOM     45  C   UNL A   1      41.844  25.746  28.085  1.00  0.00     0.049 A 
ATOM     46  N   UNL A   1      44.664  26.407  28.901  1.00  0.00    -0.248 NA
ATOM     47  C   UNL A   1      45.311  24.277  28.193  1.00  0.00     0.031 C 
ATOM     48  C   UNL A   1      40.446  25.465  27.750  1.00  0.00     0.029 A 
ATOM     49  N   UNL A   1      41.823  27.036  28.553  1.00  0.00    -0.354 N 
ATOM     50  C   UNL A   1      46.019  26.230  29.147  1.00  0.00     0.074 A 
ATOM     51  C   UNL A   1      46.346  24.875  28.760  1.00  0.00     0.031 C 
ATOM     52  C   UNL A   1      39.707  26.555  28.011  1.00  0.00     0.029 A 
ATOM     53  C   UNL A   1      40.567  27.592  28.573  1.00  0.00     0.049 A 
ATOM     54  H   UNL A   1      42.631  27.517  28.846  1.00  0.00     0.167 HD
ATOM     55  C   UNL A   1      46.916  27.119  29.636  1.00  0.00     0.031 A 
ATOM     56  C   UNL A   1      40.151  28.795  29.012  1.00  0.00     0.031 A 
ATOM     57  C   UNL A   1      46.585  28.465  30.021  1.00  0.00     0.049 A 
ATOM     58  C   UNL A   1      41.154  29.763  29.571  1.00  0.00     0.074 A 
ATOM     59  C   UNL A   1      47.428  29.464  30.473  1.00  0.00     0.029 A 
ATOM     60  N   UNL A   1      45.304  28.996  30.009  1.00  0.00    -0.354 N 
ATOM     61  N   UNL A   1      42.446  29.608  29.735  1.00  0.00    -0.248 NA
ATOM     62  C   UNL A   1      40.646  31.075  29.994  1.00  0.00     0.031 C 
ATOM     63  C   UNL A   1      46.647  30.580  30.796  1.00  0.00     0.029 A 
ATOM     64  C   UNL A   1      45.329  30.299  30.476  1.00  0.00     0.049 A 
ATOM     65  H   UNL A   1      44.497  28.517  29.711  1.00  0.00     0.167 HD
ATOM     66  C   UNL A   1      42.911  30.811  30.250  1.00  0.00     0.074 A 
ATOM     67  C   UNL A   1      41.762  31.688  30.365  1.00  0.00     0.031 C 
ATOM     68  C   UNL A   1      44.177  31.160  30.589  1.00  0.00     0.031 A 
BRANCH  55  69
ATOM     69  C   UNL A   1      48.334  26.641  29.806  1.00  0.00    -0.014 A 
ATOM     70  C   UNL A   1      49.286  26.784  28.782  1.00  0.00     0.009 A 
ATOM     71  C   UNL A   1      48.721  26.030  31.008  1.00  0.00     0.009 A 
ATOM     72  C   UNL A   1      50.574  26.269  28.936  1.00  0.00     0.001 A 
ATOM     73  C   UNL A   1      50.022  25.552  31.174  1.00  0.00     0.001 A 
ATOM     74  C   UNL A   1      50.942  25.655  30.132  1.00  0.00     0.000 A 
ENDBRANCH  55  69
BRANCH  56  75
ATOM     75  C   UNL A   1      38.708  29.143  28.927  1.00  0.00    -0.014 A 
ATOM     76  C   UNL A   1      37.868  28.984  30.039  1.00  0.00     0.009 A 
ATOM     77  C   UNL A   1      38.173  29.675  27.743  1.00  0.00     0.009 A 
ATOM     78  C   UNL A   1      36.518  29.338  29.962  1.00  0.00     0.001 A 
ATOM     79  C   UNL A   1      36.830  30.056  27.678  1.00  0.00     0.001 A 
ATOM     80  C   UNL A   1      36.003  29.881  28.786  1.00  0.00     0.000 A 
ENDBRANCH  56  75
BRANCH  68  81
ATOM     81  C   UNL A   1      44.405  32.564  31.078  1.00  0.00    -0.014 A 
ATOM     82  C   UNL A   1      44.377  32.879  32.446  1.00  0.00     0.009 A 
ATOM     83  C   UNL A   1      44.722  33.572  30.154  1.00  0.00     0.009 A 
ATOM     84  C   UNL A   1      44.640  34.183  32.872  1.00  0.00     0.001 A 
ATOM     85  C   UNL A   1      45.015  34.866  30.586  1.00  0.00     0.001 A 
ATOM     86  C   UNL A   1      44.967  35.171  31.946  1.00  0.00     0.000 A 
ENDBRANCH  68  81
ENDBRANCH  42  43
ENDBRANCH  34  37
ENDBRANCH  32  33
ENDBRANCH  31  32
ENDBRANCH  30  31
ENDBRANCH   1  30
TORSDOF 17
ENDMDL
MODEL 3
REMARK VINA RESULT:     -11.9      0.607      5.702
REMARK SMILES CCc1cc(N2CCC(O)(C(=O)NCCCCCCNC(=O)c3ccc(-c4c5nc(c(-c6ccccc6)c6ccc([nH]6)c(-c6ccccc6)c6nc(c(-c7ccccc7)c7ccc4[nH]7)C=C6)C=C5)cc3)CC2)nc(N2CCOCC2)n1
REMARK SMILES IDX 16 1 15 2 14 3 13 4 11 5 12 6 9 8 6 9 7 10 72 11 8 12 71 13
REMARK SMILES IDX 5 14 3 15 4 16 81 17 74 18 73 19 2 20 1 21 75 22 76 23 80 24
REMARK SMILES IDX 77 25 79 26 78 27 10 28 17 30 18 31 19 32 20 33 21 34 22 36
REMARK SMILES IDX 23 37 24 38 70 39 25 40 69 41 26 42 27 43 28 44 63 45 29 46
REMARK SMILES IDX 68 47 62 48 64 49 30 50 67 51 61 52 60 53 31 55 53 56 38 57
REMARK SMILES IDX 52 58 39 59 42 60 51 61 65 62 40 63 41 64 50 66 66 67 43 68
REMARK SMILES IDX 32 69 33 70 37 71 34 72 36 73 35 74 54 75 55 76 59 77 56 78
REMARK SMILES IDX 58 79 57 80 44 81 45 82 49 83 46 84 48 85 47 86
REMARK H PARENT 13 7 10 29 20 35 64 54 42 65
REMARK Flexibility Score: inf
ROOT
ATOM      1  C   UNL A   1      32.066  29.801  27.137  1.00  0.00     0.002 C 
ENDROOT
BRANCH   1   2
ATOM      2  C   UNL A   1      33.262  28.962  26.670  1.00  0.00     0.021 C 
BRANCH   2   3
ATOM      3  C   UNL A   1      32.940  27.477  26.509  1.00  0.00     0.116 C 
BRANCH   3   4
ATOM      4  N   UNL A   1      32.102  27.270  25.346  1.00  0.00    -0.354 N 
ATOM      5  C   UNL A   1      31.503  26.134  24.887  1.00  0.00     0.252 C 
ATOM      6  O   UNL A   1      30.891  26.223  23.819  1.00  0.00    -0.272 OA
ATOM      7  H   UNL A   1      31.939  28.073  24.803  1.00  0.00     0.163 HD
BRANCH   5   8
ATOM      8  C   UNL A   1      31.586  24.807  25.693  1.00  0.00     0.146 C 
ATOM      9  N   UNL A   1      32.589  22.147  26.077  1.00  0.00    -0.356 N 
ATOM     10  C   UNL A   1      33.039  23.209  26.959  1.00  0.00     0.121 C 
ATOM     11  C   UNL A   1      31.319  22.280  25.386  1.00  0.00     0.121 C 
ATOM     12  C   UNL A   1      33.004  24.535  26.211  1.00  0.00     0.067 C 
ATOM     13  C   UNL A   1      31.166  23.654  24.752  1.00  0.00     0.067 C 
BRANCH   9  14
ATOM     14  C   UNL A   1      33.534  21.264  25.591  1.00  0.00     0.134 A 
ATOM     15  C   UNL A   1      35.760  20.790  25.008  1.00  0.00     0.048 A 
ATOM     16  C   UNL A   1      34.819  21.716  25.388  1.00  0.00     0.071 A 
ATOM     17  N   UNL A   1      35.446  19.496  24.822  1.00  0.00    -0.218 NA
ATOM     18  C   UNL A   1      34.157  19.148  24.956  1.00  0.00     0.227 A 
ATOM     19  N   UNL A   1      33.191  19.991  25.350  1.00  0.00    -0.196 NA
BRANCH  15  20
ATOM     20  C   UNL A   1      37.190  21.211  24.804  1.00  0.00     0.053 C 
ATOM     21  C   UNL A   1      37.450  22.616  25.325  1.00  0.00     0.011 C 
ENDBRANCH  15  20
BRANCH  18  22
ATOM     22  N   UNL A   1      33.809  17.864  24.669  1.00  0.00    -0.336 N 
ATOM     23  C   UNL A   1      32.475  17.366  24.948  1.00  0.00     0.148 C 
ATOM     24  C   UNL A   1      34.779  16.934  24.128  1.00  0.00     0.148 C 
ATOM     25  C   UNL A   1      32.562  16.059  25.746  1.00  0.00     0.181 C 
ATOM     26  C   UNL A   1      34.772  15.666  25.001  1.00  0.00     0.181 C 
ATOM     27  O   UNL A   1      33.448  15.110  25.121  1.00  0.00    -0.378 OA
ENDBRANCH  18  22
ENDBRANCH   9  14
BRANCH   8  28
ATOM     28  O   UNL A   1      30.704  24.894  26.824  1.00  0.00    -0.380 OA
ATOM     29  H   UNL A   1      30.065  25.610  26.681  1.00  0.00     0.212 HD
ENDBRANCH   8  28
ENDBRANCH   5   8
ENDBRANCH   3   4
ENDBRANCH   2   3
ENDBRANCH   1   2
BRANCH   1  30
ATOM     30  C   UNL A   1      31.536  30.791  26.096  1.00  0.00     0.002 C 
BRANCH  30  31
ATOM     31  C   UNL A   1      31.390  32.227  26.602  1.00  0.00     0.021 C 
BRANCH  31  32
ATOM     32  C   UNL A   1      32.668  32.807  27.195  1.00  0.00     0.116 C 
BRANCH  32  33
ATOM     33  N   UNL A   1      32.486  34.185  27.627  1.00  0.00    -0.352 N 
ATOM     34  C   UNL A   1      33.094  34.847  28.663  1.00  0.00     0.251 C 
ATOM     35  H   UNL A   1      31.840  34.714  27.106  1.00  0.00     0.163 HD
ATOM     36  O   UNL A   1      32.679  35.941  29.037  1.00  0.00    -0.269 OA
BRANCH  34  37
ATOM     37  C   UNL A   1      34.246  34.222  29.338  1.00  0.00     0.039 A 
ATOM     38  C   UNL A   1      34.028  33.413  30.456  1.00  0.00     0.014 A 
ATOM     39  C   UNL A   1      35.541  34.425  28.851  1.00  0.00     0.014 A 
ATOM     40  C   UNL A   1      35.107  32.760  31.053  1.00  0.00     0.010 A 
ATOM     41  C   UNL A   1      36.600  33.710  29.394  1.00  0.00     0.010 A 
ATOM     42  C   UNL A   1      36.396  32.880  30.508  1.00  0.00    -0.014 A 
BRANCH  42  43
ATOM     43  C   UNL A   1      37.557  32.163  31.089  1.00  0.00     0.031 A 
ATOM     44  C   UNL A   1      38.218  32.699  32.329  1.00  0.00     0.074 A 
ATOM     45  C   UNL A   1      38.072  31.093  30.458  1.00  0.00     0.049 A 
ATOM     46  N   UNL A   1      39.307  32.288  32.929  1.00  0.00    -0.248 NA
ATOM     47  C   UNL A   1      37.590  33.872  32.956  1.00  0.00     0.031 C 
ATOM     48  C   UNL A   1      37.544  30.498  29.229  1.00  0.00     0.029 A 
ATOM     49  N   UNL A   1      39.169  30.325  30.757  1.00  0.00    -0.354 N 
ATOM     50  C   UNL A   1      39.507  33.168  33.984  1.00  0.00     0.074 A 
ATOM     51  C   UNL A   1      38.461  34.165  33.907  1.00  0.00     0.031 C 
ATOM     52  C   UNL A   1      38.310  29.450  28.887  1.00  0.00     0.029 A 
ATOM     53  C   UNL A   1      39.406  29.328  29.843  1.00  0.00     0.049 A 
ATOM     54  H   UNL A   1      39.733  30.474  31.550  1.00  0.00     0.167 HD
ATOM     55  C   UNL A   1      40.463  33.141  34.942  1.00  0.00     0.031 A 
ATOM     56  C   UNL A   1      40.405  28.428  29.770  1.00  0.00     0.031 A 
ATOM     57  C   UNL A   1      41.501  32.147  35.013  1.00  0.00     0.049 A 
ATOM     58  C   UNL A   1      41.470  28.423  30.829  1.00  0.00     0.074 A 
ATOM     59  C   UNL A   1      42.484  31.995  35.974  1.00  0.00     0.029 A 
ATOM     60  N   UNL A   1      41.696  31.142  34.077  1.00  0.00    -0.354 N 
ATOM     61  N   UNL A   1      41.610  29.219  31.862  1.00  0.00    -0.248 NA
ATOM     62  C   UNL A   1      42.509  27.390  30.720  1.00  0.00     0.031 C 
ATOM     63  C   UNL A   1      43.313  30.937  35.585  1.00  0.00     0.029 A 
ATOM     64  C   UNL A   1      42.803  30.385  34.421  1.00  0.00     0.049 A 
ATOM     65  H   UNL A   1      41.130  30.990  33.286  1.00  0.00     0.167 HD
ATOM     66  C   UNL A   1      42.732  28.765  32.543  1.00  0.00     0.074 A 
ATOM     67  C   UNL A   1      43.231  27.620  31.808  1.00  0.00     0.031 C 
ATOM     68  C   UNL A   1      43.291  29.249  33.679  1.00  0.00     0.031 A 
BRANCH  55  69
ATOM     69  C   UNL A   1      40.439  34.242  35.968  1.00  0.00    -0.014 A 
ATOM     70  C   UNL A   1      39.672  34.137  37.141  1.00  0.00     0.009 A 
ATOM     71  C   UNL A   1      41.189  35.408  35.754  1.00  0.00     0.009 A 
ATOM     72  C   UNL A   1      39.609  35.200  38.044  1.00  0.00     0.001 A 
ATOM     73  C   UNL A   1      41.154  36.454  36.678  1.00  0.00     0.001 A 
ATOM     74  C   UNL A   1      40.351  36.357  37.813  1.00  0.00     0.000 A 
ENDBRANCH  55  69
BRANCH  56  75
ATOM     75  C   UNL A   1      40.427  27.451  28.649  1.00  0.00    -0.014 A 
ATOM     76  C   UNL A   1      39.727  26.239  28.744  1.00  0.00     0.009 A 
ATOM     77  C   UNL A   1      41.116  27.745  27.462  1.00  0.00     0.009 A 
ATOM     78  C   UNL A   1      39.728  25.336  27.678  1.00  0.00     0.001 A 
ATOM     79  C   UNL A   1      41.091  26.853  26.387  1.00  0.00     0.001 A 
ATOM     80  C   UNL A   1      40.402  25.647  26.499  1.00  0.00     0.000 A 
ENDBRANCH  56  75
BRANCH  68  81
ATOM     81  C   UNL A   1      44.487  28.521  34.231  1.00  0.00    -0.014 A 
ATOM     82  C   UNL A   1      45.796  28.879  33.873  1.00  0.00     0.009 A 
ATOM     83  C   UNL A   1      44.296  27.505  35.180  1.00  0.00     0.009 A 
ATOM     84  C   UNL A   1      46.886  28.216  34.439  1.00  0.00     0.001 A 
ATOM     85  C   UNL A   1      45.388  26.866  35.768  1.00  0.00     0.001 A 
ATOM     86  C   UNL A   1      46.683  27.218  35.391  1.00  0.00     0.000 A 
ENDBRANCH  68  81
ENDBRANCH  42  43
ENDBRANCH  34  37
ENDBRANCH  32  33
ENDBRANCH  31  32
ENDBRANCH  30  31
ENDBRANCH   1  30
TORSDOF 17
ENDMDL
