MODEL 1
REMARK VINA RESULT:      -8.7      0.000      0.000
REMARK SMILES CN(C)c1oc(/C=N/c2ccc(O)c(C(=O)NCCCCCCNC(=O)c3ccc(-c4c5nc(c(-c6ccccc6)c6ccc([nH]6)c(-c6ccccc6)c6nc(c(-c7ccccc7)c7ccc4[nH]7)C=C6)C=C5)cc3)c2)cc1Br
REMARK SMILES IDX 20 1 19 2 18 3 17 4 15 5 16 6 14 8 9 9 10 10 75 11 11 12
REMARK SMILES IDX 12 13 8 14 7 15 6 16 4 17 5 18 77 19 76 20 78 21 2 22 1 23
REMARK SMILES IDX 3 24 13 25 21 27 22 28 23 29 24 30 25 31 26 33 27 34 28 35
REMARK SMILES IDX 74 36 29 37 73 38 30 39 31 40 32 41 67 42 33 43 72 44 66 45
REMARK SMILES IDX 68 46 34 47 71 48 65 49 64 50 35 52 57 53 42 54 56 55 43 56
REMARK SMILES IDX 46 57 55 58 69 59 44 60 45 61 54 63 70 64 47 65 36 66 37 67
REMARK SMILES IDX 41 68 38 69 40 70 39 71 58 72 59 73 63 74 60 75 62 76 61 77
REMARK SMILES IDX 48 78 49 79 53 80 50 81 52 82 51 83
REMARK H PARENT 17 7 13 26 24 32 68 51 46 62
REMARK Flexibility Score: inf
ROOT
ATOM      1  C   UNL A   1      35.566  35.035  33.026  1.00  0.00     0.002 C 
ENDROOT
BRANCH   1   2
ATOM      2  C   UNL A   1      35.813  33.980  34.111  1.00  0.00     0.021 C 
BRANCH   2   3
ATOM      3  C   UNL A   1      37.197  34.082  34.763  1.00  0.00     0.116 C 
BRANCH   3   4
ATOM      4  N   UNL A   1      37.247  33.243  35.939  1.00  0.00    -0.352 N 
ATOM      5  C   UNL A   1      37.746  31.990  36.169  1.00  0.00     0.255 C 
ATOM      6  O   UNL A   1      37.536  31.527  37.294  1.00  0.00    -0.269 OA
ATOM      7  H   UNL A   1      36.841  33.656  36.735  1.00  0.00     0.163 HD
BRANCH   5   8
ATOM      8  C   UNL A   1      38.578  31.192  35.216  1.00  0.00     0.083 A 
ATOM      9  C   UNL A   1      40.787  30.142  34.958  1.00  0.00     0.064 A 
ATOM     10  C   UNL A   1      40.394  29.618  33.729  1.00  0.00     0.032 A 
ATOM     11  C   UNL A   1      39.890  30.941  35.671  1.00  0.00     0.046 A 
ATOM     12  C   UNL A   1      39.103  29.844  33.255  1.00  0.00     0.049 A 
ATOM     13  C   UNL A   1      38.186  30.585  34.016  1.00  0.00     0.128 A 
BRANCH   9  14
ATOM     14  N   UNL A   1      41.963  29.731  35.589  1.00  0.00    -0.253 NA
ATOM     15  C   UNL A   1      42.537  28.629  35.239  1.00  0.00     0.158 C 
BRANCH  15  16
ATOM     16  C   UNL A   1      43.675  28.183  35.989  1.00  0.00     0.149 A 
ATOM     17  C   UNL A   1      44.940  26.688  37.015  1.00  0.00     0.210 A 
ATOM     18  O   UNL A   1      43.862  26.845  36.179  1.00  0.00    -0.438 OA
ATOM     19  C   UNL A   1      45.452  27.937  37.306  1.00  0.00     0.082 A 
ATOM     20  C   UNL A   1      44.660  28.892  36.644  1.00  0.00     0.070 A 
ATOM     21  Br  UNL A   1      46.933  28.428  38.348  1.00  0.00    -0.045 Br
BRANCH  17  22
ATOM     22  N   UNL A   1      45.237  25.415  37.381  1.00  0.00    -0.348 N 
ATOM     23  C   UNL A   1      45.882  24.497  36.462  1.00  0.00     0.146 C 
ATOM     24  C   UNL A   1      44.936  24.958  38.726  1.00  0.00     0.146 C 
ENDBRANCH  17  22
ENDBRANCH  15  16
ENDBRANCH   9  14
BRANCH  13  25
ATOM     25  O   UNL A   1      36.895  30.603  33.576  1.00  0.00    -0.507 OA
ATOM     26  H   UNL A   1      36.711  30.584  32.657  1.00  0.00     0.293 HD
ENDBRANCH  13  25
ENDBRANCH   5   8
ENDBRANCH   3   4
ENDBRANCH   2   3
ENDBRANCH   1   2
BRANCH   1  27
ATOM     27  C   UNL A   1      34.351  35.938  33.273  1.00  0.00     0.002 C 
BRANCH  27  28
ATOM     28  C   UNL A   1      33.201  35.775  32.273  1.00  0.00     0.021 C 
BRANCH  28  29
ATOM     29  C   UNL A   1      33.472  36.352  30.885  1.00  0.00     0.116 C 
BRANCH  29  30
ATOM     30  N   UNL A   1      32.778  35.608  29.846  1.00  0.00    -0.352 N 
ATOM     31  C   UNL A   1      33.225  34.585  29.050  1.00  0.00     0.251 C 
ATOM     32  H   UNL A   1      31.844  35.881  29.691  1.00  0.00     0.163 HD
ATOM     33  O   UNL A   1      32.565  34.231  28.078  1.00  0.00    -0.269 OA
BRANCH  31  34
ATOM     34  C   UNL A   1      34.507  33.908  29.347  1.00  0.00     0.039 A 
ATOM     35  C   UNL A   1      35.639  34.263  28.609  1.00  0.00     0.014 A 
ATOM     36  C   UNL A   1      34.587  32.898  30.310  1.00  0.00     0.014 A 
ATOM     37  C   UNL A   1      36.862  33.642  28.871  1.00  0.00     0.010 A 
ATOM     38  C   UNL A   1      35.820  32.319  30.611  1.00  0.00     0.010 A 
ATOM     39  C   UNL A   1      36.968  32.684  29.892  1.00  0.00    -0.014 A 
BRANCH  39  40
ATOM     40  C   UNL A   1      38.278  32.069  30.221  1.00  0.00     0.031 A 
ATOM     41  C   UNL A   1      39.244  32.767  31.138  1.00  0.00     0.074 A 
ATOM     42  C   UNL A   1      38.616  30.893  29.659  1.00  0.00     0.049 A 
ATOM     43  N   UNL A   1      40.433  32.382  31.531  1.00  0.00    -0.248 NA
ATOM     44  C   UNL A   1      38.831  34.076  31.669  1.00  0.00     0.031 C 
ATOM     45  C   UNL A   1      37.787  30.135  28.718  1.00  0.00     0.029 A 
ATOM     46  N   UNL A   1      39.747  30.128  29.796  1.00  0.00    -0.354 N 
ATOM     47  C   UNL A   1      40.912  33.402  32.342  1.00  0.00     0.074 A 
ATOM     48  C   UNL A   1      39.906  34.442  32.352  1.00  0.00     0.031 C 
ATOM     49  C   UNL A   1      38.426  29.000  28.388  1.00  0.00     0.029 A 
ATOM     50  C   UNL A   1      39.717  28.965  29.067  1.00  0.00     0.049 A 
ATOM     51  H   UNL A   1      40.508  30.390  30.363  1.00  0.00     0.167 HD
ATOM     52  C   UNL A   1      42.077  33.460  33.033  1.00  0.00     0.031 A 
ATOM     53  C   UNL A   1      40.624  27.977  28.960  1.00  0.00     0.031 A 
ATOM     54  C   UNL A   1      43.075  32.424  33.034  1.00  0.00     0.049 A 
ATOM     55  C   UNL A   1      41.906  28.067  29.738  1.00  0.00     0.074 A 
ATOM     56  C   UNL A   1      44.263  32.371  33.745  1.00  0.00     0.029 A 
ATOM     57  N   UNL A   1      43.005  31.260  32.286  1.00  0.00    -0.354 N 
ATOM     58  N   UNL A   1      42.313  29.009  30.553  1.00  0.00    -0.248 NA
ATOM     59  C   UNL A   1      42.847  26.947  29.589  1.00  0.00     0.031 C 
ATOM     60  C   UNL A   1      44.929  31.192  33.395  1.00  0.00     0.029 A 
ATOM     61  C   UNL A   1      44.135  30.491  32.501  1.00  0.00     0.049 A 
ATOM     62  H   UNL A   1      42.260  31.016  31.690  1.00  0.00     0.167 HD
ATOM     63  C   UNL A   1      43.547  28.587  31.029  1.00  0.00     0.074 A 
ATOM     64  C   UNL A   1      43.811  27.296  30.428  1.00  0.00     0.031 C 
ATOM     65  C   UNL A   1      44.388  29.214  31.887  1.00  0.00     0.031 A 
BRANCH  52  66
ATOM     66  C   UNL A   1      42.334  34.697  33.849  1.00  0.00    -0.014 A 
ATOM     67  C   UNL A   1      42.929  35.832  33.276  1.00  0.00     0.009 A 
ATOM     68  C   UNL A   1      41.940  34.742  35.195  1.00  0.00     0.009 A 
ATOM     69  C   UNL A   1      43.154  36.976  34.045  1.00  0.00     0.001 A 
ATOM     70  C   UNL A   1      42.144  35.895  35.954  1.00  0.00     0.001 A 
ATOM     71  C   UNL A   1      42.758  37.008  35.382  1.00  0.00     0.000 A 
ENDBRANCH  52  66
BRANCH  53  72
ATOM     72  C   UNL A   1      40.346  26.803  28.096  1.00  0.00    -0.014 A 
ATOM     73  C   UNL A   1      39.579  25.731  28.580  1.00  0.00     0.009 A 
ATOM     74  C   UNL A   1      40.849  26.742  26.788  1.00  0.00     0.009 A 
ATOM     75  C   UNL A   1      39.346  24.610  27.781  1.00  0.00     0.001 A 
ATOM     76  C   UNL A   1      40.592  25.631  25.982  1.00  0.00     0.001 A 
ATOM     77  C   UNL A   1      39.848  24.563  26.482  1.00  0.00     0.000 A 
ENDBRANCH  53  72
BRANCH  65  78
ATOM     78  C   UNL A   1      45.662  28.498  32.236  1.00  0.00    -0.014 A 
ATOM     79  C   UNL A   1      46.854  28.764  31.545  1.00  0.00     0.009 A 
ATOM     80  C   UNL A   1      45.670  27.557  33.277  1.00  0.00     0.009 A 
ATOM     81  C   UNL A   1      48.024  28.072  31.867  1.00  0.00     0.001 A 
ATOM     82  C   UNL A   1      46.847  26.887  33.613  1.00  0.00     0.001 A 
ATOM     83  C   UNL A   1      48.020  27.137  32.902  1.00  0.00     0.000 A 
ENDBRANCH  65  78
ENDBRANCH  39  40
ENDBRANCH  31  34
ENDBRANCH  29  30
ENDBRANCH  28  29
ENDBRANCH  27  28
ENDBRANCH   1  27
TORSDOF 17
ENDMDL
MODEL 2
REMARK VINA RESULT:      -8.0      4.533     11.372
REMARK SMILES CN(C)c1oc(/C=N/c2ccc(O)c(C(=O)NCCCCCCNC(=O)c3ccc(-c4c5nc(c(-c6ccccc6)c6ccc([nH]6)c(-c6ccccc6)c6nc(c(-c7ccccc7)c7ccc4[nH]7)C=C6)C=C5)cc3)c2)cc1Br
REMARK SMILES IDX 20 1 19 2 18 3 17 4 15 5 16 6 14 8 9 9 10 10 75 11 11 12
REMARK SMILES IDX 12 13 8 14 7 15 6 16 4 17 5 18 77 19 76 20 78 21 2 22 1 23
REMARK SMILES IDX 3 24 13 25 21 27 22 28 23 29 24 30 25 31 26 33 27 34 28 35
REMARK SMILES IDX 74 36 29 37 73 38 30 39 31 40 32 41 67 42 33 43 72 44 66 45
REMARK SMILES IDX 68 46 34 47 71 48 65 49 64 50 35 52 57 53 42 54 56 55 43 56
REMARK SMILES IDX 46 57 55 58 69 59 44 60 45 61 54 63 70 64 47 65 36 66 37 67
REMARK SMILES IDX 41 68 38 69 40 70 39 71 58 72 59 73 63 74 60 75 62 76 61 77
REMARK SMILES IDX 48 78 49 79 53 80 50 81 52 82 51 83
REMARK H PARENT 17 7 13 26 24 32 68 51 46 62
REMARK Flexibility Score: inf
ROOT
ATOM      1  C   UNL A   1      45.133  24.306  31.490  1.00  0.00     0.002 C 
ENDROOT
BRANCH   1   2
ATOM      2  C   UNL A   1      43.872  23.829  30.760  1.00  0.00     0.021 C 
BRANCH   2   3
ATOM      3  C   UNL A   1      44.164  22.919  29.561  1.00  0.00     0.116 C 
BRANCH   3   4
ATOM      4  N   UNL A   1      44.105  23.686  28.337  1.00  0.00    -0.352 N 
ATOM      5  C   UNL A   1      43.598  23.420  27.094  1.00  0.00     0.255 C 
ATOM      6  O   UNL A   1      43.802  24.283  26.236  1.00  0.00    -0.269 OA
ATOM      7  H   UNL A   1      44.512  24.579  28.412  1.00  0.00     0.163 HD
BRANCH   5   8
ATOM      8  C   UNL A   1      42.764  22.235  26.726  1.00  0.00     0.083 A 
ATOM      9  C   UNL A   1      40.442  21.529  26.327  1.00  0.00     0.064 A 
ATOM     10  C   UNL A   1      40.890  20.260  25.968  1.00  0.00     0.032 A 
ATOM     11  C   UNL A   1      41.375  22.487  26.726  1.00  0.00     0.046 A 
ATOM     12  C   UNL A   1      42.255  19.980  25.953  1.00  0.00     0.049 A 
ATOM     13  C   UNL A   1      43.188  20.976  26.282  1.00  0.00     0.128 A 
BRANCH   9  14
ATOM     14  N   UNL A   1      39.123  21.931  26.108  1.00  0.00    -0.253 NA
ATOM     15  C   UNL A   1      38.306  21.161  25.469  1.00  0.00     0.158 C 
BRANCH  15  16
ATOM     16  C   UNL A   1      36.996  21.658  25.162  1.00  0.00     0.149 A 
ATOM     17  C   UNL A   1      34.803  21.806  25.394  1.00  0.00     0.210 A 
ATOM     18  O   UNL A   1      35.948  21.306  25.962  1.00  0.00    -0.438 OA
ATOM     19  C   UNL A   1      35.151  22.515  24.260  1.00  0.00     0.082 A 
ATOM     20  C   UNL A   1      36.548  22.436  24.115  1.00  0.00     0.070 A 
ATOM     21  Br  UNL A   1      34.081  23.476  23.055  1.00  0.00    -0.045 Br
BRANCH  17  22
ATOM     22  N   UNL A   1      33.637  21.493  26.015  1.00  0.00    -0.348 N 
ATOM     23  C   UNL A   1      33.365  21.927  27.371  1.00  0.00     0.146 C 
ATOM     24  C   UNL A   1      32.622  20.734  25.308  1.00  0.00     0.146 C 
ENDBRANCH  17  22
ENDBRANCH  15  16
ENDBRANCH   9  14
BRANCH  13  25
ATOM     25  O   UNL A   1      44.502  20.683  26.063  1.00  0.00    -0.507 OA
ATOM     26  H   UNL A   1      44.979  20.170  26.686  1.00  0.00     0.293 HD
ENDBRANCH  13  25
ENDBRANCH   5   8
ENDBRANCH   3   4
ENDBRANCH   2   3
ENDBRANCH   1   2
BRANCH   1  27
ATOM     27  C   UNL A   1      44.969  24.484  33.004  1.00  0.00     0.002 C 
BRANCH  27  28
ATOM     28  C   UNL A   1      46.023  23.778  33.864  1.00  0.00     0.021 C 
BRANCH  28  29
ATOM     29  C   UNL A   1      47.272  24.607  34.156  1.00  0.00     0.116 C 
BRANCH  29  30
ATOM     30  N   UNL A   1      47.344  25.003  35.553  1.00  0.00    -0.352 N 
ATOM     31  C   UNL A   1      46.679  26.001  36.219  1.00  0.00     0.251 C 
ATOM     32  H   UNL A   1      47.964  24.474  36.106  1.00  0.00     0.163 HD
ATOM     33  O   UNL A   1      47.032  26.328  37.347  1.00  0.00    -0.269 OA
BRANCH  31  34
ATOM     34  C   UNL A   1      45.539  26.697  35.581  1.00  0.00     0.039 A 
ATOM     35  C   UNL A   1      45.801  27.789  34.749  1.00  0.00     0.014 A 
ATOM     36  C   UNL A   1      44.219  26.311  35.836  1.00  0.00     0.014 A 
ATOM     37  C   UNL A   1      44.744  28.463  34.133  1.00  0.00     0.010 A 
ATOM     38  C   UNL A   1      43.168  26.947  35.175  1.00  0.00     0.010 A 
ATOM     39  C   UNL A   1      43.421  28.031  34.320  1.00  0.00    -0.014 A 
BRANCH  39  40
ATOM     40  C   UNL A   1      42.299  28.699  33.615  1.00  0.00     0.031 A 
ATOM     41  C   UNL A   1      41.430  29.698  34.328  1.00  0.00     0.074 A 
ATOM     42  C   UNL A   1      42.039  28.376  32.334  1.00  0.00     0.049 A 
ATOM     43  N   UNL A   1      40.405  30.373  33.872  1.00  0.00    -0.248 NA
ATOM     44  C   UNL A   1      41.739  29.958  35.743  1.00  0.00     0.031 C 
ATOM     45  C   UNL A   1      42.778  27.391  31.541  1.00  0.00     0.029 A 
ATOM     46  N   UNL A   1      41.077  28.841  31.472  1.00  0.00    -0.354 N 
ATOM     47  C   UNL A   1      39.942  31.128  34.941  1.00  0.00     0.074 A 
ATOM     48  C   UNL A   1      40.769  30.795  36.082  1.00  0.00     0.031 C 
ATOM     49  C   UNL A   1      42.262  27.348  30.301  1.00  0.00     0.029 A 
ATOM     50  C   UNL A   1      41.141  28.278  30.221  1.00  0.00     0.049 A 
ATOM     51  H   UNL A   1      40.405  29.514  31.727  1.00  0.00     0.167 HD
ATOM     52  C   UNL A   1      38.932  32.030  34.969  1.00  0.00     0.031 A 
ATOM     53  C   UNL A   1      40.384  28.489  29.129  1.00  0.00     0.031 A 
ATOM     54  C   UNL A   1      38.113  32.370  33.836  1.00  0.00     0.049 A 
ATOM     55  C   UNL A   1      39.271  29.496  29.187  1.00  0.00     0.074 A 
ATOM     56  C   UNL A   1      37.100  33.312  33.754  1.00  0.00     0.029 A 
ATOM     57  N   UNL A   1      38.212  31.781  32.586  1.00  0.00    -0.354 N 
ATOM     58  N   UNL A   1      38.890  30.248  30.190  1.00  0.00    -0.248 NA
ATOM     59  C   UNL A   1      38.493  29.690  27.955  1.00  0.00     0.031 C 
ATOM     60  C   UNL A   1      36.560  33.262  32.465  1.00  0.00     0.029 A 
ATOM     61  C   UNL A   1      37.267  32.323  31.732  1.00  0.00     0.049 A 
ATOM     62  H   UNL A   1      38.860  31.081  32.342  1.00  0.00     0.167 HD
ATOM     63  C   UNL A   1      37.842  31.020  29.705  1.00  0.00     0.074 A 
ATOM     64  C   UNL A   1      37.662  30.658  28.314  1.00  0.00     0.031 C 
ATOM     65  C   UNL A   1      37.094  31.944  30.354  1.00  0.00     0.031 A 
BRANCH  52  66
ATOM     66  C   UNL A   1      38.653  32.714  36.279  1.00  0.00    -0.014 A 
ATOM     67  C   UNL A   1      39.216  33.965  36.577  1.00  0.00     0.009 A 
ATOM     68  C   UNL A   1      37.786  32.120  37.209  1.00  0.00     0.009 A 
ATOM     69  C   UNL A   1      38.942  34.593  37.794  1.00  0.00     0.001 A 
ATOM     70  C   UNL A   1      37.495  32.762  38.414  1.00  0.00     0.001 A 
ATOM     71  C   UNL A   1      38.079  33.992  38.710  1.00  0.00     0.000 A 
ENDBRANCH  52  66
BRANCH  53  72
ATOM     72  C   UNL A   1      40.665  27.745  27.875  1.00  0.00    -0.014 A 
ATOM     73  C   UNL A   1      41.518  28.291  26.903  1.00  0.00     0.009 A 
ATOM     74  C   UNL A   1      40.078  26.493  27.640  1.00  0.00     0.009 A 
ATOM     75  C   UNL A   1      41.755  27.609  25.708  1.00  0.00     0.001 A 
ATOM     76  C   UNL A   1      40.338  25.801  26.455  1.00  0.00     0.001 A 
ATOM     77  C   UNL A   1      41.169  26.364  25.487  1.00  0.00     0.000 A 
ENDBRANCH  53  72
BRANCH  65  78
ATOM     78  C   UNL A   1      36.026  32.637  29.556  1.00  0.00    -0.014 A 
ATOM     79  C   UNL A   1      34.792  32.018  29.306  1.00  0.00     0.009 A 
ATOM     80  C   UNL A   1      36.255  33.930  29.062  1.00  0.00     0.009 A 
ATOM     81  C   UNL A   1      33.820  32.667  28.542  1.00  0.00     0.001 A 
ATOM     82  C   UNL A   1      35.271  34.587  28.322  1.00  0.00     0.001 A 
ATOM     83  C   UNL A   1      34.059  33.952  28.054  1.00  0.00     0.000 A 
ENDBRANCH  65  78
ENDBRANCH  39  40
ENDBRANCH  31  34
ENDBRANCH  29  30
ENDBRANCH  28  29
ENDBRANCH  27  28
ENDBRANCH   1  27
TORSDOF 17
ENDMDL
MODEL 3
REMARK VINA RESULT:      -7.9      5.799      9.682
REMARK SMILES CN(C)c1oc(/C=N/c2ccc(O)c(C(=O)NCCCCCCNC(=O)c3ccc(-c4c5nc(c(-c6ccccc6)c6ccc([nH]6)c(-c6ccccc6)c6nc(c(-c7ccccc7)c7ccc4[nH]7)C=C6)C=C5)cc3)c2)cc1Br
REMARK SMILES IDX 20 1 19 2 18 3 17 4 15 5 16 6 14 8 9 9 10 10 75 11 11 12
REMARK SMILES IDX 12 13 8 14 7 15 6 16 4 17 5 18 77 19 76 20 78 21 2 22 1 23
REMARK SMILES IDX 3 24 13 25 21 27 22 28 23 29 24 30 25 31 26 33 27 34 28 35
REMARK SMILES IDX 74 36 29 37 73 38 30 39 31 40 32 41 67 42 33 43 72 44 66 45
REMARK SMILES IDX 68 46 34 47 71 48 65 49 64 50 35 52 57 53 42 54 56 55 43 56
REMARK SMILES IDX 46 57 55 58 69 59 44 60 45 61 54 63 70 64 47 65 36 66 37 67
REMARK SMILES IDX 41 68 38 69 40 70 39 71 58 72 59 73 63 74 60 75 62 76 61 77
REMARK SMILES IDX 48 78 49 79 53 80 50 81 52 82 51 83
REMARK H PARENT 17 7 13 26 24 32 68 51 46 62
REMARK Flexibility Score: inf
ROOT
ATOM      1  C   UNL A   1      31.406  29.907  25.029  1.00  0.00     0.002 C 
ENDROOT
BRANCH   1   2
ATOM      2  C   UNL A   1      30.756  31.289  25.161  1.00  0.00     0.021 C 
BRANCH   2   3
ATOM      3  C   UNL A   1      29.391  31.393  24.471  1.00  0.00     0.116 C 
BRANCH   3   4
ATOM      4  N   UNL A   1      29.533  31.120  23.058  1.00  0.00    -0.352 N 
ATOM      5  C   UNL A   1      29.516  29.963  22.327  1.00  0.00     0.255 C 
ATOM      6  O   UNL A   1      29.764  30.086  21.124  1.00  0.00    -0.269 OA
ATOM      7  H   UNL A   1      29.670  31.928  22.512  1.00  0.00     0.163 HD
BRANCH   5   8
ATOM      8  C   UNL A   1      29.148  28.608  22.842  1.00  0.00     0.083 A 
ATOM      9  C   UNL A   1      30.099  26.417  23.429  1.00  0.00     0.064 A 
ATOM     10  C   UNL A   1      28.848  25.993  23.869  1.00  0.00     0.032 A 
ATOM     11  C   UNL A   1      30.229  27.702  22.898  1.00  0.00     0.046 A 
ATOM     12  C   UNL A   1      27.762  26.866  23.833  1.00  0.00     0.049 A 
ATOM     13  C   UNL A   1      27.922  28.181  23.367  1.00  0.00     0.128 A 
BRANCH   9  14
ATOM     14  N   UNL A   1      31.256  25.680  23.686  1.00  0.00    -0.253 NA
ATOM     15  C   UNL A   1      31.583  24.695  22.919  1.00  0.00     0.158 C 
BRANCH  15  16
ATOM     16  C   UNL A   1      32.713  23.890  23.283  1.00  0.00     0.149 A 
ATOM     17  C   UNL A   1      33.762  22.292  24.393  1.00  0.00     0.210 A 
ATOM     18  O   UNL A   1      32.527  22.818  24.106  1.00  0.00    -0.438 OA
ATOM     19  C   UNL A   1      34.716  23.017  23.705  1.00  0.00     0.082 A 
ATOM     20  C   UNL A   1      34.053  24.026  22.985  1.00  0.00     0.070 A 
ATOM     21  Br  UNL A   1      36.578  22.799  23.623  1.00  0.00    -0.045 Br
BRANCH  17  22
ATOM     22  N   UNL A   1      33.785  21.252  25.265  1.00  0.00    -0.348 N 
ATOM     23  C   UNL A   1      33.653  21.463  26.694  1.00  0.00     0.146 C 
ATOM     24  C   UNL A   1      33.915  19.894  24.769  1.00  0.00     0.146 C 
ENDBRANCH  17  22
ENDBRANCH  15  16
ENDBRANCH   9  14
BRANCH  13  25
ATOM     25  O   UNL A   1      26.865  29.026  23.537  1.00  0.00    -0.507 OA
ATOM     26  H   UNL A   1      26.548  29.215  24.398  1.00  0.00     0.293 HD
ENDBRANCH  13  25
ENDBRANCH   5   8
ENDBRANCH   3   4
ENDBRANCH   2   3
ENDBRANCH   1   2
BRANCH   1  27
ATOM     27  C   UNL A   1      31.474  29.101  26.332  1.00  0.00     0.002 C 
BRANCH  27  28
ATOM     28  C   UNL A   1      32.622  28.090  26.418  1.00  0.00     0.021 C 
BRANCH  28  29
ATOM     29  C   UNL A   1      33.843  28.571  27.198  1.00  0.00     0.116 C 
BRANCH  29  30
ATOM     30  N   UNL A   1      33.691  29.945  27.649  1.00  0.00    -0.352 N 
ATOM     31  C   UNL A   1      34.557  30.740  28.355  1.00  0.00     0.251 C 
ATOM     32  H   UNL A   1      32.834  30.370  27.410  1.00  0.00     0.163 HD
ATOM     33  O   UNL A   1      34.167  31.799  28.835  1.00  0.00    -0.269 OA
BRANCH  31  34
ATOM     34  C   UNL A   1      35.964  30.325  28.552  1.00  0.00     0.039 A 
ATOM     35  C   UNL A   1      36.343  29.811  29.796  1.00  0.00     0.014 A 
ATOM     36  C   UNL A   1      36.916  30.483  27.541  1.00  0.00     0.014 A 
ATOM     37  C   UNL A   1      37.663  29.409  30.009  1.00  0.00     0.010 A 
ATOM     38  C   UNL A   1      38.220  30.028  27.735  1.00  0.00     0.010 A 
ATOM     39  C   UNL A   1      38.606  29.490  28.971  1.00  0.00    -0.014 A 
BRANCH  39  40
ATOM     40  C   UNL A   1      39.994  29.002  29.170  1.00  0.00     0.031 A 
ATOM     41  C   UNL A   1      41.040  29.891  29.783  1.00  0.00     0.074 A 
ATOM     42  C   UNL A   1      40.322  27.762  28.759  1.00  0.00     0.049 A 
ATOM     43  N   UNL A   1      42.301  29.634  30.027  1.00  0.00    -0.248 NA
ATOM     44  C   UNL A   1      40.622  31.252  30.155  1.00  0.00     0.031 C 
ATOM     45  C   UNL A   1      39.413  26.816  28.109  1.00  0.00     0.029 A 
ATOM     46  N   UNL A   1      41.514  27.085  28.826  1.00  0.00    -0.354 N 
ATOM     47  C   UNL A   1      42.827  30.799  30.568  1.00  0.00     0.074 A 
ATOM     48  C   UNL A   1      41.762  31.779  30.577  1.00  0.00     0.031 C 
ATOM     49  C   UNL A   1      40.072  25.671  27.866  1.00  0.00     0.029 A 
ATOM     50  C   UNL A   1      41.453  25.813  28.313  1.00  0.00     0.049 A 
ATOM     51  H   UNL A   1      42.335  27.475  29.206  1.00  0.00     0.167 HD
ATOM     52  C   UNL A   1      44.079  31.029  31.032  1.00  0.00     0.031 A 
ATOM     53  C   UNL A   1      42.402  24.863  28.217  1.00  0.00     0.031 A 
ATOM     54  C   UNL A   1      45.138  30.055  31.033  1.00  0.00     0.049 A 
ATOM     55  C   UNL A   1      43.781  25.144  28.742  1.00  0.00     0.074 A 
ATOM     56  C   UNL A   1      46.425  30.179  31.532  1.00  0.00     0.029 A 
ATOM     57  N   UNL A   1      45.035  28.777  30.509  1.00  0.00    -0.354 N 
ATOM     58  N   UNL A   1      44.243  26.230  29.310  1.00  0.00    -0.248 NA
ATOM     59  C   UNL A   1      44.765  24.059  28.621  1.00  0.00     0.031 C 
ATOM     60  C   UNL A   1      47.111  28.989  31.272  1.00  0.00     0.029 A 
ATOM     61  C   UNL A   1      46.239  28.108  30.653  1.00  0.00     0.049 A 
ATOM     62  H   UNL A   1      44.225  28.400  30.096  1.00  0.00     0.167 HD
ATOM     63  C   UNL A   1      45.564  25.953  29.634  1.00  0.00     0.074 A 
ATOM     64  C   UNL A   1      45.823  24.591  29.216  1.00  0.00     0.031 C 
ATOM     65  C   UNL A   1      46.483  26.757  30.222  1.00  0.00     0.031 A 
BRANCH  52  66
ATOM     66  C   UNL A   1      44.372  32.399  31.579  1.00  0.00    -0.014 A 
ATOM     67  C   UNL A   1      44.177  32.694  32.937  1.00  0.00     0.009 A 
ATOM     68  C   UNL A   1      44.887  33.394  30.734  1.00  0.00     0.009 A 
ATOM     69  C   UNL A   1      44.461  33.968  33.432  1.00  0.00     0.001 A 
ATOM     70  C   UNL A   1      45.194  34.660  31.237  1.00  0.00     0.001 A 
ATOM     71  C   UNL A   1      44.973  34.949  32.583  1.00  0.00     0.000 A 
ENDBRANCH  52  66
BRANCH  53  72
ATOM     72  C   UNL A   1      42.076  23.545  27.617  1.00  0.00    -0.014 A 
ATOM     73  C   UNL A   1      41.498  22.532  28.399  1.00  0.00     0.009 A 
ATOM     74  C   UNL A   1      42.346  23.289  26.264  1.00  0.00     0.009 A 
ATOM     75  C   UNL A   1      41.224  21.281  27.845  1.00  0.00     0.001 A 
ATOM     76  C   UNL A   1      42.046  22.044  25.706  1.00  0.00     0.001 A 
ATOM     77  C   UNL A   1      41.494  21.039  26.499  1.00  0.00     0.000 A 
ENDBRANCH  53  72
BRANCH  65  78
ATOM     78  C   UNL A   1      47.845  26.170  30.463  1.00  0.00    -0.014 A 
ATOM     79  C   UNL A   1      48.204  25.666  31.722  1.00  0.00     0.009 A 
ATOM     80  C   UNL A   1      48.773  26.109  29.412  1.00  0.00     0.009 A 
ATOM     81  C   UNL A   1      49.482  25.145  31.935  1.00  0.00     0.001 A 
ATOM     82  C   UNL A   1      50.041  25.564  29.621  1.00  0.00     0.001 A 
ATOM     83  C   UNL A   1      50.397  25.092  30.883  1.00  0.00     0.000 A 
ENDBRANCH  65  78
ENDBRANCH  39  40
ENDBRANCH  31  34
ENDBRANCH  29  30
ENDBRANCH  28  29
ENDBRANCH  27  28
ENDBRANCH   1  27
TORSDOF 17
ENDMDL
