MODEL 1
REMARK VINA RESULT:      -9.1      0.000      0.000
REMARK SMILES C[C@@H](C(=O)NCCCCCCNC(=O)c1ccc(-c2c3nc(c(-c4ccccc4)c4ccc([nH]4)c(-c4ccccc4)c4nc(c(-c5ccccc5)c5ccc2[nH]5)C=C4)C=C3)cc1)N1C(=O)/C(=C/c2nc3ccccc3[nH]2)SC1=S
REMARK SMILES IDX 8 1 7 2 6 3 5 4 3 5 4 6 2 8 1 9 63 10 64 11 78 12 65 13
REMARK SMILES IDX 66 14 77 15 79 16 67 17 68 18 69 19 76 20 70 21 75 22 71 24
REMARK SMILES IDX 74 25 72 26 73 27 9 28 10 29 11 30 12 31 13 32 14 34 15 35
REMARK SMILES IDX 16 36 62 37 17 38 61 39 18 40 19 41 20 42 55 43 21 44 60 45
REMARK SMILES IDX 54 46 56 47 22 48 59 49 53 50 52 51 23 53 45 54 30 55 44 56
REMARK SMILES IDX 31 57 34 58 43 59 57 60 32 61 33 62 42 64 58 65 35 66 24 67
REMARK SMILES IDX 25 68 29 69 26 70 28 71 27 72 46 73 47 74 51 75 48 76 50 77
REMARK SMILES IDX 49 78 36 79 37 80 41 81 38 82 40 83 39 84
REMARK H PARENT 5 7 76 23 12 33 56 52 34 63
REMARK Flexibility Score: inf
ROOT
ATOM      1  C   UNL A   1      37.698  33.404  29.600  1.00  0.00     0.002 C 
ENDROOT
BRANCH   1   2
ATOM      2  C   UNL A   1      38.376  34.072  30.804  1.00  0.00     0.021 C 
BRANCH   2   3
ATOM      3  C   UNL A   1      37.627  33.892  32.124  1.00  0.00     0.116 C 
BRANCH   3   4
ATOM      4  N   UNL A   1      38.189  34.716  33.169  1.00  0.00    -0.354 N 
ATOM      5  C   UNL A   1      38.464  34.436  34.469  1.00  0.00     0.242 C 
ATOM      6  O   UNL A   1      39.153  35.271  35.065  1.00  0.00    -0.273 OA
ATOM      7  H   UNL A   1      38.409  35.635  32.893  1.00  0.00     0.163 HD
BRANCH   5   8
ATOM      8  C   UNL A   1      38.045  33.102  35.133  1.00  0.00     0.178 C 
ATOM      9  C   UNL A   1      37.505  33.117  36.564  1.00  0.00     0.042 C 
BRANCH   8  10
ATOM     10  N   UNL A   1      39.176  32.156  35.014  1.00  0.00    -0.281 N 
ATOM     11  C   UNL A   1      39.142  31.198  34.011  1.00  0.00     0.267 C 
ATOM     12  C   UNL A   1      40.279  32.133  35.853  1.00  0.00     0.149 C 
ATOM     13  O   UNL A   1      38.263  31.051  33.171  1.00  0.00    -0.268 OA
ATOM     14  C   UNL A   1      40.301  30.280  34.143  1.00  0.00     0.084 C 
ATOM     15  S   UNL A   1      41.414  30.932  35.285  1.00  0.00    -0.054 SA
ATOM     16  S   UNL A   1      40.615  33.028  37.225  1.00  0.00    -0.052 S 
ATOM     17  C   UNL A   1      40.375  29.095  33.513  1.00  0.00     0.068 C 
BRANCH  17  18
ATOM     18  C   UNL A   1      41.378  28.169  33.885  1.00  0.00     0.132 A 
ATOM     19  N   UNL A   1      42.556  27.980  33.331  1.00  0.00    -0.229 NA
ATOM     20  N   UNL A   1      41.161  27.249  34.884  1.00  0.00    -0.338 N 
ATOM     21  C   UNL A   1      43.006  26.787  33.811  1.00  0.00     0.089 A 
ATOM     22  C   UNL A   1      42.163  26.306  34.804  1.00  0.00     0.066 A 
ATOM     23  H   UNL A   1      40.426  27.263  35.537  1.00  0.00     0.168 HD
ATOM     24  C   UNL A   1      44.116  26.036  33.403  1.00  0.00     0.030 A 
ATOM     25  C   UNL A   1      42.388  25.094  35.460  1.00  0.00     0.028 A 
ATOM     26  C   UNL A   1      44.342  24.804  34.018  1.00  0.00     0.002 A 
ATOM     27  C   UNL A   1      43.497  24.348  35.034  1.00  0.00     0.002 A 
ENDBRANCH  17  18
ENDBRANCH   8  10
ENDBRANCH   5   8
ENDBRANCH   3   4
ENDBRANCH   2   3
ENDBRANCH   1   2
BRANCH   1  28
ATOM     28  C   UNL A   1      36.503  34.164  29.014  1.00  0.00     0.002 C 
BRANCH  28  29
ATOM     29  C   UNL A   1      35.179  33.964  29.756  1.00  0.00     0.021 C 
BRANCH  29  30
ATOM     30  C   UNL A   1      34.815  32.508  30.026  1.00  0.00     0.116 C 
BRANCH  30  31
ATOM     31  N   UNL A   1      34.130  31.895  28.899  1.00  0.00    -0.352 N 
ATOM     32  C   UNL A   1      34.572  30.934  28.022  1.00  0.00     0.251 C 
ATOM     33  H   UNL A   1      33.214  32.217  28.741  1.00  0.00     0.163 HD
ATOM     34  O   UNL A   1      33.930  30.678  27.011  1.00  0.00    -0.269 OA
BRANCH  32  35
ATOM     35  C   UNL A   1      35.843  30.225  28.285  1.00  0.00     0.039 A 
ATOM     36  C   UNL A   1      36.826  30.216  27.292  1.00  0.00     0.014 A 
ATOM     37  C   UNL A   1      36.072  29.585  29.506  1.00  0.00     0.014 A 
ATOM     38  C   UNL A   1      38.072  29.643  27.558  1.00  0.00     0.010 A 
ATOM     39  C   UNL A   1      37.336  29.072  29.793  1.00  0.00     0.010 A 
ATOM     40  C   UNL A   1      38.354  29.115  28.829  1.00  0.00    -0.014 A 
BRANCH  40  41
ATOM     41  C   UNL A   1      39.727  28.673  29.186  1.00  0.00     0.031 A 
ATOM     42  C   UNL A   1      40.685  29.611  29.867  1.00  0.00     0.074 A 
ATOM     43  C   UNL A   1      40.136  27.441  28.817  1.00  0.00     0.049 A 
ATOM     44  N   UNL A   1      41.940  29.414  30.187  1.00  0.00    -0.248 NA
ATOM     45  C   UNL A   1      40.179  30.947  30.220  1.00  0.00     0.031 C 
ATOM     46  C   UNL A   1      39.316  26.452  28.112  1.00  0.00     0.029 A 
ATOM     47  N   UNL A   1      41.348  26.813  28.972  1.00  0.00    -0.354 N 
ATOM     48  C   UNL A   1      42.375  30.601  30.762  1.00  0.00     0.074 A 
ATOM     49  C   UNL A   1      41.264  31.525  30.718  1.00  0.00     0.031 C 
ATOM     50  C   UNL A   1      40.041  25.341  27.911  1.00  0.00     0.029 A 
ATOM     51  C   UNL A   1      41.390  25.552  28.425  1.00  0.00     0.049 A 
ATOM     52  H   UNL A   1      42.113  27.227  29.431  1.00  0.00     0.167 HD
ATOM     53  C   UNL A   1      43.590  30.888  31.286  1.00  0.00     0.031 A 
ATOM     54  C   UNL A   1      42.404  24.672  28.325  1.00  0.00     0.031 A 
ATOM     55  C   UNL A   1      44.692  29.964  31.340  1.00  0.00     0.049 A 
ATOM     56  C   UNL A   1      43.749  25.038  28.890  1.00  0.00     0.074 A 
ATOM     57  C   UNL A   1      45.933  30.142  31.928  1.00  0.00     0.029 A 
ATOM     58  N   UNL A   1      44.693  28.698  30.778  1.00  0.00    -0.354 N 
ATOM     59  N   UNL A   1      44.111  26.127  29.522  1.00  0.00    -0.248 NA
ATOM     60  C   UNL A   1      44.826  24.049  28.729  1.00  0.00     0.031 C 
ATOM     61  C   UNL A   1      46.710  29.013  31.657  1.00  0.00     0.029 A 
ATOM     62  C   UNL A   1      45.931  28.105  30.960  1.00  0.00     0.049 A 
ATOM     63  H   UNL A   1      43.928  28.283  30.318  1.00  0.00     0.167 HD
ATOM     64  C   UNL A   1      45.449  25.946  29.851  1.00  0.00     0.074 A 
ATOM     65  C   UNL A   1      45.825  24.632  29.376  1.00  0.00     0.031 C 
ATOM     66  C   UNL A   1      46.293  26.797  30.480  1.00  0.00     0.031 A 
BRANCH  53  67
ATOM     67  C   UNL A   1      43.815  32.268  31.840  1.00  0.00    -0.014 A 
ATOM     68  C   UNL A   1      43.788  32.513  33.221  1.00  0.00     0.009 A 
ATOM     69  C   UNL A   1      44.163  33.315  30.971  1.00  0.00     0.009 A 
ATOM     70  C   UNL A   1      44.089  33.783  33.719  1.00  0.00     0.001 A 
ATOM     71  C   UNL A   1      44.489  34.576  31.472  1.00  0.00     0.001 A 
ATOM     72  C   UNL A   1      44.448  34.809  32.846  1.00  0.00     0.000 A 
ENDBRANCH  53  67
BRANCH  54  73
ATOM     73  C   UNL A   1      42.210  23.370  27.631  1.00  0.00    -0.014 A 
ATOM     74  C   UNL A   1      41.726  22.251  28.326  1.00  0.00     0.009 A 
ATOM     75  C   UNL A   1      42.557  23.227  26.278  1.00  0.00     0.009 A 
ATOM     76  C   UNL A   1      41.637  21.008  27.692  1.00  0.00     0.001 A 
ATOM     77  C   UNL A   1      42.432  21.993  25.638  1.00  0.00     0.001 A 
ATOM     78  C   UNL A   1      41.987  20.881  26.350  1.00  0.00     0.000 A 
ENDBRANCH  54  73
BRANCH  66  79
ATOM     79  C   UNL A   1      47.703  26.327  30.707  1.00  0.00    -0.014 A 
ATOM     80  C   UNL A   1      48.102  25.806  31.947  1.00  0.00     0.009 A 
ATOM     81  C   UNL A   1      48.629  26.364  29.653  1.00  0.00     0.009 A 
ATOM     82  C   UNL A   1      49.412  25.362  32.137  1.00  0.00     0.001 A 
ATOM     83  C   UNL A   1      49.929  25.889  29.836  1.00  0.00     0.001 A 
ATOM     84  C   UNL A   1      50.322  25.397  31.080  1.00  0.00     0.000 A 
ENDBRANCH  66  79
ENDBRANCH  40  41
ENDBRANCH  32  35
ENDBRANCH  30  31
ENDBRANCH  29  30
ENDBRANCH  28  29
ENDBRANCH   1  28
TORSDOF 15
ENDMDL
MODEL 2
REMARK VINA RESULT:      -8.7      4.071     10.028
REMARK SMILES C[C@@H](C(=O)NCCCCCCNC(=O)c1ccc(-c2c3nc(c(-c4ccccc4)c4ccc([nH]4)c(-c4ccccc4)c4nc(c(-c5ccccc5)c5ccc2[nH]5)C=C4)C=C3)cc1)N1C(=O)/C(=C/c2nc3ccccc3[nH]2)SC1=S
REMARK SMILES IDX 8 1 7 2 6 3 5 4 3 5 4 6 2 8 1 9 63 10 64 11 78 12 65 13
REMARK SMILES IDX 66 14 77 15 79 16 67 17 68 18 69 19 76 20 70 21 75 22 71 24
REMARK SMILES IDX 74 25 72 26 73 27 9 28 10 29 11 30 12 31 13 32 14 34 15 35
REMARK SMILES IDX 16 36 62 37 17 38 61 39 18 40 19 41 20 42 55 43 21 44 60 45
REMARK SMILES IDX 54 46 56 47 22 48 59 49 53 50 52 51 23 53 45 54 30 55 44 56
REMARK SMILES IDX 31 57 34 58 43 59 57 60 32 61 33 62 42 64 58 65 35 66 24 67
REMARK SMILES IDX 25 68 29 69 26 70 28 71 27 72 46 73 47 74 51 75 48 76 50 77
REMARK SMILES IDX 49 78 36 79 37 80 41 81 38 82 40 83 39 84
REMARK H PARENT 5 7 76 23 12 33 56 52 34 63
REMARK Flexibility Score: inf
ROOT
ATOM      1  C   UNL A   1      46.091  23.132  24.487  1.00  0.00     0.002 C 
ENDROOT
BRANCH   1   2
ATOM      2  C   UNL A   1      45.593  24.496  24.987  1.00  0.00     0.021 C 
BRANCH   2   3
ATOM      3  C   UNL A   1      46.709  25.462  25.385  1.00  0.00     0.116 C 
BRANCH   3   4
ATOM      4  N   UNL A   1      46.648  26.686  24.619  1.00  0.00    -0.354 N 
ATOM      5  C   UNL A   1      46.198  27.922  24.957  1.00  0.00     0.242 C 
ATOM      6  O   UNL A   1      46.480  28.831  24.168  1.00  0.00    -0.273 OA
ATOM      7  H   UNL A   1      46.988  26.611  23.699  1.00  0.00     0.163 HD
BRANCH   5   8
ATOM      8  C   UNL A   1      45.480  28.202  26.298  1.00  0.00     0.178 C 
ATOM      9  C   UNL A   1      44.018  27.782  26.466  1.00  0.00     0.042 C 
BRANCH   8  10
ATOM     10  N   UNL A   1      45.649  29.636  26.618  1.00  0.00    -0.281 N 
ATOM     11  C   UNL A   1      44.555  30.480  26.500  1.00  0.00     0.267 C 
ATOM     12  C   UNL A   1      46.841  30.222  27.013  1.00  0.00     0.149 C 
ATOM     13  O   UNL A   1      43.420  30.163  26.167  1.00  0.00    -0.268 OA
ATOM     14  C   UNL A   1      44.965  31.886  26.744  1.00  0.00     0.084 C 
ATOM     15  S   UNL A   1      46.562  31.905  27.391  1.00  0.00    -0.054 SA
ATOM     16  S   UNL A   1      48.376  29.572  27.148  1.00  0.00    -0.052 S 
ATOM     17  C   UNL A   1      44.204  32.942  26.412  1.00  0.00     0.068 C 
BRANCH  17  18
ATOM     18  C   UNL A   1      44.764  34.241  26.437  1.00  0.00     0.132 A 
ATOM     19  N   UNL A   1      45.642  34.765  25.609  1.00  0.00    -0.229 NA
ATOM     20  N   UNL A   1      44.484  35.116  27.461  1.00  0.00    -0.338 N 
ATOM     21  C   UNL A   1      46.112  35.885  26.225  1.00  0.00     0.089 A 
ATOM     22  C   UNL A   1      45.394  36.148  27.384  1.00  0.00     0.066 A 
ATOM     23  H   UNL A   1      43.765  35.022  28.126  1.00  0.00     0.168 HD
ATOM     24  C   UNL A   1      47.188  36.704  25.862  1.00  0.00     0.030 A 
ATOM     25  C   UNL A   1      45.676  37.236  28.214  1.00  0.00     0.028 A 
ATOM     26  C   UNL A   1      47.514  37.777  26.693  1.00  0.00     0.002 A 
ATOM     27  C   UNL A   1      46.763  38.041  27.842  1.00  0.00     0.002 A 
ENDBRANCH  17  18
ENDBRANCH   8  10
ENDBRANCH   5   8
ENDBRANCH   3   4
ENDBRANCH   2   3
ENDBRANCH   1   2
BRANCH   1  28
ATOM     28  C   UNL A   1      45.679  21.929  25.344  1.00  0.00     0.002 C 
BRANCH  28  29
ATOM     29  C   UNL A   1      45.011  20.785  24.578  1.00  0.00     0.021 C 
BRANCH  29  30
ATOM     30  C   UNL A   1      44.734  19.538  25.412  1.00  0.00     0.116 C 
BRANCH  30  31
ATOM     31  N   UNL A   1      43.368  19.064  25.253  1.00  0.00    -0.352 N 
ATOM     32  C   UNL A   1      42.196  19.581  25.752  1.00  0.00     0.251 C 
ATOM     33  H   UNL A   1      43.268  18.252  24.707  1.00  0.00     0.163 HD
ATOM     34  O   UNL A   1      41.158  18.938  25.681  1.00  0.00    -0.269 OA
BRANCH  32  35
ATOM     35  C   UNL A   1      42.196  20.908  26.405  1.00  0.00     0.039 A 
ATOM     36  C   UNL A   1      42.279  20.973  27.798  1.00  0.00     0.014 A 
ATOM     37  C   UNL A   1      42.128  22.082  25.650  1.00  0.00     0.014 A 
ATOM     38  C   UNL A   1      42.385  22.215  28.428  1.00  0.00     0.010 A 
ATOM     39  C   UNL A   1      42.300  23.317  26.273  1.00  0.00     0.010 A 
ATOM     40  C   UNL A   1      42.450  23.394  27.666  1.00  0.00    -0.014 A 
BRANCH  40  41
ATOM     41  C   UNL A   1      42.750  24.701  28.305  1.00  0.00     0.031 A 
ATOM     42  C   UNL A   1      41.675  25.739  28.477  1.00  0.00     0.074 A 
ATOM     43  C   UNL A   1      44.021  24.982  28.658  1.00  0.00     0.049 A 
ATOM     44  N   UNL A   1      41.776  26.956  28.948  1.00  0.00    -0.248 NA
ATOM     45  C   UNL A   1      40.315  25.372  28.048  1.00  0.00     0.031 C 
ATOM     46  C   UNL A   1      45.163  24.076  28.504  1.00  0.00     0.029 A 
ATOM     47  N   UNL A   1      44.571  26.114  29.208  1.00  0.00    -0.354 N 
ATOM     48  C   UNL A   1      40.503  27.504  28.860  1.00  0.00     0.074 A 
ATOM     49  C   UNL A   1      39.652  26.501  28.259  1.00  0.00     0.031 C 
ATOM     50  C   UNL A   1      46.270  24.682  28.962  1.00  0.00     0.029 A 
ATOM     51  C   UNL A   1      45.931  26.032  29.396  1.00  0.00     0.049 A 
ATOM     52  H   UNL A   1      44.042  26.909  29.446  1.00  0.00     0.167 HD
ATOM     53  C   UNL A   1      40.083  28.730  29.252  1.00  0.00     0.031 A 
ATOM     54  C   UNL A   1      46.812  26.946  29.844  1.00  0.00     0.031 A 
ATOM     55  C   UNL A   1      40.928  29.723  29.861  1.00  0.00     0.049 A 
ATOM     56  C   UNL A   1      46.315  28.310  30.241  1.00  0.00     0.074 A 
ATOM     57  C   UNL A   1      40.570  30.962  30.367  1.00  0.00     0.029 A 
ATOM     58  N   UNL A   1      42.297  29.600  30.035  1.00  0.00    -0.354 N 
ATOM     59  N   UNL A   1      45.089  28.772  30.246  1.00  0.00    -0.248 NA
ATOM     60  C   UNL A   1      47.325  29.276  30.698  1.00  0.00     0.031 C 
ATOM     61  C   UNL A   1      41.733  31.617  30.779  1.00  0.00     0.029 A 
ATOM     62  C   UNL A   1      42.805  30.762  30.593  1.00  0.00     0.049 A 
ATOM     63  H   UNL A   1      42.829  28.806  29.798  1.00  0.00     0.167 HD
ATOM     64  C   UNL A   1      45.179  30.074  30.723  1.00  0.00     0.074 A 
ATOM     65  C   UNL A   1      46.573  30.316  31.026  1.00  0.00     0.031 C 
ATOM     66  C   UNL A   1      44.196  30.991  30.886  1.00  0.00     0.031 A 
BRANCH  53  67
ATOM     67  C   UNL A   1      38.640  29.090  29.030  1.00  0.00    -0.014 A 
ATOM     68  C   UNL A   1      37.689  28.955  30.052  1.00  0.00     0.009 A 
ATOM     69  C   UNL A   1      38.251  29.672  27.812  1.00  0.00     0.009 A 
ATOM     70  C   UNL A   1      36.373  29.381  29.853  1.00  0.00     0.001 A 
ATOM     71  C   UNL A   1      36.943  30.120  27.625  1.00  0.00     0.001 A 
ATOM     72  C   UNL A   1      36.005  29.971  28.645  1.00  0.00     0.000 A 
ENDBRANCH  53  67
BRANCH  54  73
ATOM     73  C   UNL A   1      48.265  26.629  29.909  1.00  0.00    -0.014 A 
ATOM     74  C   UNL A   1      49.074  26.731  28.766  1.00  0.00     0.009 A 
ATOM     75  C   UNL A   1      48.840  26.172  31.106  1.00  0.00     0.009 A 
ATOM     76  C   UNL A   1      50.415  26.340  28.811  1.00  0.00     0.001 A 
ATOM     77  C   UNL A   1      50.189  25.817  31.156  1.00  0.00     0.001 A 
ATOM     78  C   UNL A   1      50.971  25.886  30.005  1.00  0.00     0.000 A 
ENDBRANCH  54  73
BRANCH  66  79
ATOM     79  C   UNL A   1      44.590  32.334  31.432  1.00  0.00    -0.014 A 
ATOM     80  C   UNL A   1      44.702  32.551  32.814  1.00  0.00     0.009 A 
ATOM     81  C   UNL A   1      44.897  33.383  30.550  1.00  0.00     0.009 A 
ATOM     82  C   UNL A   1      45.082  33.802  33.303  1.00  0.00     0.001 A 
ATOM     83  C   UNL A   1      45.309  34.623  31.042  1.00  0.00     0.001 A 
ATOM     84  C   UNL A   1      45.391  34.834  32.417  1.00  0.00     0.000 A 
ENDBRANCH  66  79
ENDBRANCH  40  41
ENDBRANCH  32  35
ENDBRANCH  30  31
ENDBRANCH  29  30
ENDBRANCH  28  29
ENDBRANCH   1  28
TORSDOF 15
ENDMDL
MODEL 3
REMARK VINA RESULT:      -8.7      0.399      5.842
REMARK SMILES C[C@@H](C(=O)NCCCCCCNC(=O)c1ccc(-c2c3nc(c(-c4ccccc4)c4ccc([nH]4)c(-c4ccccc4)c4nc(c(-c5ccccc5)c5ccc2[nH]5)C=C4)C=C3)cc1)N1C(=O)/C(=C/c2nc3ccccc3[nH]2)SC1=S
REMARK SMILES IDX 8 1 7 2 6 3 5 4 3 5 4 6 2 8 1 9 63 10 64 11 78 12 65 13
REMARK SMILES IDX 66 14 77 15 79 16 67 17 68 18 69 19 76 20 70 21 75 22 71 24
REMARK SMILES IDX 74 25 72 26 73 27 9 28 10 29 11 30 12 31 13 32 14 34 15 35
REMARK SMILES IDX 16 36 62 37 17 38 61 39 18 40 19 41 20 42 55 43 21 44 60 45
REMARK SMILES IDX 54 46 56 47 22 48 59 49 53 50 52 51 23 53 45 54 30 55 44 56
REMARK SMILES IDX 31 57 34 58 43 59 57 60 32 61 33 62 42 64 58 65 35 66 24 67
REMARK SMILES IDX 25 68 29 69 26 70 28 71 27 72 46 73 47 74 51 75 48 76 50 77
REMARK SMILES IDX 49 78 36 79 37 80 41 81 38 82 40 83 39 84
REMARK H PARENT 5 7 76 23 12 33 56 52 34 63
REMARK Flexibility Score: inf
ROOT
ATOM      1  C   UNL A   1      37.975  33.343  29.515  1.00  0.00     0.002 C 
ENDROOT
BRANCH   1   2
ATOM      2  C   UNL A   1      38.485  34.239  30.653  1.00  0.00     0.021 C 
BRANCH   2   3
ATOM      3  C   UNL A   1      37.791  34.003  31.994  1.00  0.00     0.116 C 
BRANCH   3   4
ATOM      4  N   UNL A   1      38.436  34.735  33.060  1.00  0.00    -0.354 N 
ATOM      5  C   UNL A   1      38.704  34.382  34.343  1.00  0.00     0.242 C 
ATOM      6  O   UNL A   1      39.470  35.132  34.959  1.00  0.00    -0.273 OA
ATOM      7  H   UNL A   1      38.729  35.642  32.815  1.00  0.00     0.163 HD
BRANCH   5   8
ATOM      8  C   UNL A   1      38.182  33.064  34.963  1.00  0.00     0.178 C 
ATOM      9  C   UNL A   1      37.623  33.076  36.386  1.00  0.00     0.042 C 
BRANCH   8  10
ATOM     10  N   UNL A   1      39.245  32.043  34.830  1.00  0.00    -0.281 N 
ATOM     11  C   UNL A   1      39.173  31.136  33.783  1.00  0.00     0.267 C 
ATOM     12  C   UNL A   1      40.317  31.901  35.698  1.00  0.00     0.149 C 
ATOM     13  O   UNL A   1      38.311  31.091  32.913  1.00  0.00    -0.268 OA
ATOM     14  C   UNL A   1      40.257  30.130  33.904  1.00  0.00     0.084 C 
ATOM     15  S   UNL A   1      41.379  30.646  35.105  1.00  0.00    -0.054 SA
ATOM     16  S   UNL A   1      40.674  32.706  37.118  1.00  0.00    -0.052 S 
ATOM     17  C   UNL A   1      40.265  28.972  33.221  1.00  0.00     0.068 C 
BRANCH  17  18
ATOM     18  C   UNL A   1      41.186  27.959  33.575  1.00  0.00     0.132 A 
ATOM     19  N   UNL A   1      41.094  27.080  34.550  1.00  0.00    -0.229 NA
ATOM     20  N   UNL A   1      42.399  27.845  32.937  1.00  0.00    -0.338 N 
ATOM     21  C   UNL A   1      42.342  26.555  34.698  1.00  0.00     0.089 A 
ATOM     22  C   UNL A   1      43.186  26.999  33.689  1.00  0.00     0.066 A 
ATOM     23  H   UNL A   1      42.657  28.286  32.096  1.00  0.00     0.168 HD
ATOM     24  C   UNL A   1      42.831  25.720  35.710  1.00  0.00     0.030 A 
ATOM     25  C   UNL A   1      44.527  26.620  33.608  1.00  0.00     0.028 A 
ATOM     26  C   UNL A   1      44.178  25.355  35.672  1.00  0.00     0.002 A 
ATOM     27  C   UNL A   1      45.006  25.791  34.634  1.00  0.00     0.002 A 
ENDBRANCH  17  18
ENDBRANCH   8  10
ENDBRANCH   5   8
ENDBRANCH   3   4
ENDBRANCH   2   3
ENDBRANCH   1   2
BRANCH   1  28
ATOM     28  C   UNL A   1      36.740  33.864  28.771  1.00  0.00     0.002 C 
BRANCH  28  29
ATOM     29  C   UNL A   1      35.471  33.978  29.620  1.00  0.00     0.021 C 
BRANCH  29  30
ATOM     30  C   UNL A   1      34.946  32.652  30.161  1.00  0.00     0.116 C 
BRANCH  30  31
ATOM     31  N   UNL A   1      34.123  31.950  29.189  1.00  0.00    -0.352 N 
ATOM     32  C   UNL A   1      34.458  30.934  28.326  1.00  0.00     0.251 C 
ATOM     33  H   UNL A   1      33.187  32.247  29.142  1.00  0.00     0.163 HD
ATOM     34  O   UNL A   1      33.686  30.597  27.439  1.00  0.00    -0.269 OA
BRANCH  32  35
ATOM     35  C   UNL A   1      35.771  30.264  28.452  1.00  0.00     0.039 A 
ATOM     36  C   UNL A   1      36.639  30.272  27.358  1.00  0.00     0.014 A 
ATOM     37  C   UNL A   1      36.152  29.643  29.645  1.00  0.00     0.014 A 
ATOM     38  C   UNL A   1      37.922  29.736  27.488  1.00  0.00     0.010 A 
ATOM     39  C   UNL A   1      37.453  29.168  29.795  1.00  0.00     0.010 A 
ATOM     40  C   UNL A   1      38.358  29.229  28.724  1.00  0.00    -0.014 A 
BRANCH  40  41
ATOM     41  C   UNL A   1      39.774  28.830  28.931  1.00  0.00     0.031 A 
ATOM     42  C   UNL A   1      40.251  27.456  28.545  1.00  0.00     0.074 A 
ATOM     43  C   UNL A   1      40.613  29.688  29.546  1.00  0.00     0.049 A 
ATOM     44  N   UNL A   1      41.432  26.919  28.719  1.00  0.00    -0.248 NA
ATOM     45  C   UNL A   1      39.274  26.565  27.899  1.00  0.00     0.031 C 
ATOM     46  C   UNL A   1      40.261  31.034  30.008  1.00  0.00     0.029 A 
ATOM     47  N   UNL A   1      41.933  29.553  29.902  1.00  0.00    -0.354 N 
ATOM     48  C   UNL A   1      41.338  25.626  28.219  1.00  0.00     0.074 A 
ATOM     49  C   UNL A   1      39.976  25.447  27.766  1.00  0.00     0.031 C 
ATOM     50  C   UNL A   1      41.340  31.603  30.569  1.00  0.00     0.029 A 
ATOM     51  C   UNL A   1      42.444  30.650  30.554  1.00  0.00     0.049 A 
ATOM     52  H   UNL A   1      42.463  28.747  29.707  1.00  0.00     0.167 HD
ATOM     53  C   UNL A   1      42.302  24.680  28.139  1.00  0.00     0.031 A 
ATOM     54  C   UNL A   1      43.656  30.861  31.101  1.00  0.00     0.031 A 
ATOM     55  C   UNL A   1      43.660  24.864  28.579  1.00  0.00     0.049 A 
ATOM     56  C   UNL A   1      44.694  29.775  31.022  1.00  0.00     0.074 A 
ATOM     57  C   UNL A   1      44.727  23.988  28.460  1.00  0.00     0.029 A 
ATOM     58  N   UNL A   1      44.137  25.989  29.231  1.00  0.00    -0.354 N 
ATOM     59  N   UNL A   1      44.616  28.598  30.452  1.00  0.00    -0.248 NA
ATOM     60  C   UNL A   1      45.991  30.050  31.659  1.00  0.00     0.031 C 
ATOM     61  C   UNL A   1      45.829  24.553  29.106  1.00  0.00     0.029 A 
ATOM     62  C   UNL A   1      45.468  25.808  29.567  1.00  0.00     0.049 A 
ATOM     63  H   UNL A   1      43.608  26.796  29.427  1.00  0.00     0.167 HD
ATOM     64  C   UNL A   1      45.855  28.001  30.646  1.00  0.00     0.074 A 
ATOM     65  C   UNL A   1      46.676  28.957  31.357  1.00  0.00     0.031 C 
ATOM     66  C   UNL A   1      46.273  26.767  30.278  1.00  0.00     0.031 A 
BRANCH  53  67
ATOM     67  C   UNL A   1      41.936  23.340  27.564  1.00  0.00    -0.014 A 
ATOM     68  C   UNL A   1      42.206  23.023  26.224  1.00  0.00     0.009 A 
ATOM     69  C   UNL A   1      41.407  22.347  28.404  1.00  0.00     0.009 A 
ATOM     70  C   UNL A   1      41.940  21.742  25.734  1.00  0.00     0.001 A 
ATOM     71  C   UNL A   1      41.167  21.060  27.919  1.00  0.00     0.001 A 
ATOM     72  C   UNL A   1      41.431  20.760  26.584  1.00  0.00     0.000 A 
ENDBRANCH  53  67
BRANCH  54  73
ATOM     73  C   UNL A   1      43.956  32.135  31.810  1.00  0.00    -0.014 A 
ATOM     74  C   UNL A   1      44.438  33.251  31.108  1.00  0.00     0.009 A 
ATOM     75  C   UNL A   1      43.808  32.225  33.203  1.00  0.00     0.009 A 
ATOM     76  C   UNL A   1      44.807  34.412  31.793  1.00  0.00     0.001 A 
ATOM     77  C   UNL A   1      44.143  33.399  33.880  1.00  0.00     0.001 A 
ATOM     78  C   UNL A   1      44.657  34.486  33.176  1.00  0.00     0.000 A 
ENDBRANCH  54  73
BRANCH  66  79
ATOM     79  C   UNL A   1      47.686  26.387  30.621  1.00  0.00    -0.014 A 
ATOM     80  C   UNL A   1      48.735  26.600  29.713  1.00  0.00     0.009 A 
ATOM     81  C   UNL A   1      47.977  25.850  31.885  1.00  0.00     0.009 A 
ATOM     82  C   UNL A   1      50.043  26.252  30.053  1.00  0.00     0.001 A 
ATOM     83  C   UNL A   1      49.291  25.535  32.234  1.00  0.00     0.001 A 
ATOM     84  C   UNL A   1      50.321  25.727  31.315  1.00  0.00     0.000 A 
ENDBRANCH  66  79
ENDBRANCH  40  41
ENDBRANCH  32  35
ENDBRANCH  30  31
ENDBRANCH  29  30
ENDBRANCH  28  29
ENDBRANCH   1  28
TORSDOF 15
ENDMDL
