MODEL 1
REMARK VINA RESULT:     -11.9      0.000      0.000
REMARK SMILES O=C(Cc1c(C(=O)c2cc3c(cn2)CCCC3)[nH]c2cc(Cl)ccc12)NCCCCCCNC(=O)c1ccc(-c2c3nc(c(-c4ccccc4)c4ccc([nH]4)c(-c4ccccc4)c4nc(c(-c5ccccc5)c5ccc2[nH]5)C=C4)C=C3)cc1
REMARK SMILES IDX 29 1 28 2 27 3 26 4 1 5 2 6 3 8 4 9 5 10 25 11 18 12 19 13
REMARK SMILES IDX 24 14 20 16 23 17 21 18 22 19 6 20 7 21 8 22 9 23 13 24
REMARK SMILES IDX 10 25 12 26 11 27 17 28 14 29 16 30 15 31 30 32 31 33 32 34
REMARK SMILES IDX 33 35 34 36 35 38 36 39 37 40 83 41 38 42 82 43 39 44 40 45
REMARK SMILES IDX 41 46 76 47 42 48 81 49 75 50 77 51 43 52 80 53 74 54 73 55
REMARK SMILES IDX 44 57 66 58 51 59 65 60 52 61 55 62 64 63 78 64 53 65 54 66
REMARK SMILES IDX 63 68 79 69 56 70 45 71 46 72 50 73 47 74 49 75 48 76 67 77
REMARK SMILES IDX 68 78 72 79 69 80 71 81 70 82 57 83 58 84 62 85 59 86 61 87
REMARK SMILES IDX 60 88
REMARK H PARENT 26 7 18 15 33 37 77 56 55 67
REMARK Flexibility Score: inf
ROOT
ATOM      1  C   UNL A   1      35.744  22.346  23.816  1.00  0.00     0.002 C 
ENDROOT
BRANCH   1   2
ATOM      2  C   UNL A   1      34.923  23.625  24.033  1.00  0.00     0.021 C 
BRANCH   2   3
ATOM      3  C   UNL A   1      35.229  24.372  25.328  1.00  0.00     0.116 C 
BRANCH   3   4
ATOM      4  N   UNL A   1      34.058  25.039  25.850  1.00  0.00    -0.356 N 
ATOM      5  O   UNL A   1      34.296  26.967  24.628  1.00  0.00    -0.275 OA
ATOM      6  C   UNL A   1      33.668  26.298  25.445  1.00  0.00     0.224 C 
ATOM      7  H   UNL A   1      33.513  24.573  26.525  1.00  0.00     0.163 HD
BRANCH   6   8
ATOM      8  C   UNL A   1      32.417  26.818  26.132  1.00  0.00     0.138 C 
BRANCH   8   9
ATOM      9  C   UNL A   1      31.145  26.704  25.322  1.00  0.00    -0.002 A 
ATOM     10  C   UNL A   1      30.297  25.590  25.295  1.00  0.00     0.093 A 
ATOM     11  C   UNL A   1      30.555  27.711  24.478  1.00  0.00     0.004 A 
ATOM     12  N   UNL A   1      29.223  25.931  24.502  1.00  0.00    -0.351 N 
ATOM     13  C   UNL A   1      29.384  27.175  23.950  1.00  0.00     0.048 A 
ATOM     14  C   UNL A   1      30.906  29.029  24.106  1.00  0.00     0.012 A 
ATOM     15  H   UNL A   1      28.440  25.353  24.351  1.00  0.00     0.167 HD
ATOM     16  C   UNL A   1      28.563  27.868  23.049  1.00  0.00     0.047 A 
ATOM     17  C   UNL A   1      30.107  29.735  23.197  1.00  0.00     0.021 A 
ATOM     18  C   UNL A   1      28.957  29.154  22.675  1.00  0.00     0.043 A 
ATOM     19  Cl  UNL A   1      27.995  30.037  21.553  1.00  0.00    -0.084 Cl
BRANCH  10  20
ATOM     20  C   UNL A   1      30.445  24.313  25.997  1.00  0.00     0.227 C 
ATOM     21  O   UNL A   1      30.097  24.139  27.163  1.00  0.00    -0.285 OA
BRANCH  20  22
ATOM     22  C   UNL A   1      31.071  23.162  25.282  1.00  0.00     0.113 A 
ATOM     23  C   UNL A   1      31.617  22.102  25.999  1.00  0.00     0.036 A 
ATOM     24  N   UNL A   1      31.066  23.233  23.930  1.00  0.00    -0.252 NA
ATOM     25  C   UNL A   1      32.200  21.047  25.290  1.00  0.00    -0.041 A 
ATOM     26  C   UNL A   1      31.616  22.195  23.268  1.00  0.00     0.115 A 
ATOM     27  C   UNL A   1      32.207  21.097  23.888  1.00  0.00    -0.026 A 
ATOM     28  C   UNL A   1      32.855  19.912  26.037  1.00  0.00     0.036 C 
ATOM     29  C   UNL A   1      32.759  19.973  23.051  1.00  0.00     0.037 C 
ATOM     30  C   UNL A   1      33.094  18.675  25.170  1.00  0.00     0.005 C 
ATOM     31  C   UNL A   1      33.708  19.065  23.830  1.00  0.00     0.005 C 
ENDBRANCH  20  22
ENDBRANCH  10  20
ENDBRANCH   8   9
ENDBRANCH   6   8
ENDBRANCH   3   4
ENDBRANCH   2   3
ENDBRANCH   1   2
BRANCH   1  32
ATOM     32  C   UNL A   1      36.217  21.635  25.087  1.00  0.00     0.002 C 
BRANCH  32  33
ATOM     33  C   UNL A   1      37.311  20.586  24.889  1.00  0.00     0.021 C 
BRANCH  33  34
ATOM     34  C   UNL A   1      38.598  20.832  25.669  1.00  0.00     0.116 C 
BRANCH  34  35
ATOM     35  N   UNL A   1      39.537  19.722  25.596  1.00  0.00    -0.352 N 
ATOM     36  C   UNL A   1      40.869  19.693  25.942  1.00  0.00     0.251 C 
ATOM     37  H   UNL A   1      39.169  18.876  25.253  1.00  0.00     0.163 HD
ATOM     38  O   UNL A   1      41.551  18.699  25.718  1.00  0.00    -0.269 OA
BRANCH  36  39
ATOM     39  C   UNL A   1      41.488  20.895  26.543  1.00  0.00     0.039 A 
ATOM     40  C   UNL A   1      41.445  21.103  27.923  1.00  0.00     0.014 A 
ATOM     41  C   UNL A   1      42.064  21.852  25.705  1.00  0.00     0.014 A 
ATOM     42  C   UNL A   1      41.815  22.339  28.444  1.00  0.00     0.010 A 
ATOM     43  C   UNL A   1      42.505  23.066  26.239  1.00  0.00     0.010 A 
ATOM     44  C   UNL A   1      42.329  23.342  27.604  1.00  0.00    -0.014 A 
BRANCH  44  45
ATOM     45  C   UNL A   1      42.636  24.683  28.165  1.00  0.00     0.031 A 
ATOM     46  C   UNL A   1      44.057  25.073  28.476  1.00  0.00     0.074 A 
ATOM     47  C   UNL A   1      41.643  25.576  28.334  1.00  0.00     0.049 A 
ATOM     48  N   UNL A   1      44.513  26.207  28.950  1.00  0.00    -0.248 NA
ATOM     49  C   UNL A   1      45.102  24.068  28.224  1.00  0.00     0.031 C 
ATOM     50  C   UNL A   1      40.230  25.331  28.039  1.00  0.00     0.029 A 
ATOM     51  N   UNL A   1      41.673  26.877  28.768  1.00  0.00    -0.354 N 
ATOM     52  C   UNL A   1      45.888  26.043  29.069  1.00  0.00     0.074 A 
ATOM     53  C   UNL A   1      46.193  24.697  28.643  1.00  0.00     0.031 C 
ATOM     54  C   UNL A   1      39.538  26.460  28.250  1.00  0.00     0.029 A 
ATOM     55  C   UNL A   1      40.443  27.489  28.752  1.00  0.00     0.049 A 
ATOM     56  H   UNL A   1      42.497  27.329  29.064  1.00  0.00     0.167 HD
ATOM     57  C   UNL A   1      46.814  26.940  29.487  1.00  0.00     0.031 A 
ATOM     58  C   UNL A   1      40.078  28.735  29.108  1.00  0.00     0.031 A 
ATOM     59  C   UNL A   1      46.516  28.286  29.895  1.00  0.00     0.049 A 
ATOM     60  C   UNL A   1      41.116  29.693  29.616  1.00  0.00     0.074 A 
ATOM     61  C   UNL A   1      47.394  29.268  30.319  1.00  0.00     0.029 A 
ATOM     62  N   UNL A   1      45.247  28.841  29.927  1.00  0.00    -0.354 N 
ATOM     63  N   UNL A   1      42.410  29.518  29.729  1.00  0.00    -0.248 NA
ATOM     64  C   UNL A   1      40.646  31.015  30.053  1.00  0.00     0.031 C 
ATOM     65  C   UNL A   1      46.653  30.403  30.653  1.00  0.00     0.029 A 
ATOM     66  C   UNL A   1      45.318  30.145  30.385  1.00  0.00     0.049 A 
ATOM     67  H   UNL A   1      44.420  28.378  29.664  1.00  0.00     0.167 HD
ATOM     68  C   UNL A   1      42.910  30.709  30.237  1.00  0.00     0.074 A 
ATOM     69  C   UNL A   1      41.784  31.605  30.397  1.00  0.00     0.031 C 
ATOM     70  C   UNL A   1      44.190  31.026  30.545  1.00  0.00     0.031 A 
BRANCH  57  71
ATOM     71  C   UNL A   1      48.249  26.497  29.538  1.00  0.00    -0.014 A 
ATOM     72  C   UNL A   1      48.771  25.966  30.728  1.00  0.00     0.009 A 
ATOM     73  C   UNL A   1      49.108  26.691  28.445  1.00  0.00     0.009 A 
ATOM     74  C   UNL A   1      50.126  25.645  30.827  1.00  0.00     0.001 A 
ATOM     75  C   UNL A   1      50.459  26.346  28.539  1.00  0.00     0.001 A 
ATOM     76  C   UNL A   1      50.967  25.832  29.732  1.00  0.00     0.000 A 
ENDBRANCH  57  71
BRANCH  58  77
ATOM     77  C   UNL A   1      38.653  29.135  28.988  1.00  0.00    -0.014 A 
ATOM     78  C   UNL A   1      38.170  29.703  27.798  1.00  0.00     0.009 A 
ATOM     79  C   UNL A   1      37.783  29.002  30.079  1.00  0.00     0.009 A 
ATOM     80  C   UNL A   1      36.852  30.157  27.713  1.00  0.00     0.001 A 
ATOM     81  C   UNL A   1      36.457  29.432  29.983  1.00  0.00     0.001 A 
ATOM     82  C   UNL A   1      35.996  30.018  28.803  1.00  0.00     0.000 A 
ENDBRANCH  58  77
BRANCH  70  83
ATOM     83  C   UNL A   1      44.463  32.402  31.081  1.00  0.00    -0.014 A 
ATOM     84  C   UNL A   1      44.387  32.639  32.463  1.00  0.00     0.009 A 
ATOM     85  C   UNL A   1      44.688  33.480  30.214  1.00  0.00     0.009 A 
ATOM     86  C   UNL A   1      44.515  33.934  32.966  1.00  0.00     0.001 A 
ATOM     87  C   UNL A   1      44.839  34.772  30.722  1.00  0.00     0.001 A 
ATOM     88  C   UNL A   1      44.742  34.999  32.095  1.00  0.00     0.000 A 
ENDBRANCH  70  83
ENDBRANCH  44  45
ENDBRANCH  36  39
ENDBRANCH  34  35
ENDBRANCH  33  34
ENDBRANCH  32  33
ENDBRANCH   1  32
TORSDOF 16
ENDMDL
MODEL 2
REMARK VINA RESULT:     -11.9      0.167      5.631
REMARK SMILES O=C(Cc1c(C(=O)c2cc3c(cn2)CCCC3)[nH]c2cc(Cl)ccc12)NCCCCCCNC(=O)c1ccc(-c2c3nc(c(-c4ccccc4)c4ccc([nH]4)c(-c4ccccc4)c4nc(c(-c5ccccc5)c5ccc2[nH]5)C=C4)C=C3)cc1
REMARK SMILES IDX 29 1 28 2 27 3 26 4 1 5 2 6 3 8 4 9 5 10 25 11 18 12 19 13
REMARK SMILES IDX 24 14 20 16 23 17 21 18 22 19 6 20 7 21 8 22 9 23 13 24
REMARK SMILES IDX 10 25 12 26 11 27 17 28 14 29 16 30 15 31 30 32 31 33 32 34
REMARK SMILES IDX 33 35 34 36 35 38 36 39 37 40 83 41 38 42 82 43 39 44 40 45
REMARK SMILES IDX 41 46 76 47 42 48 81 49 75 50 77 51 43 52 80 53 74 54 73 55
REMARK SMILES IDX 44 57 66 58 51 59 65 60 52 61 55 62 64 63 78 64 53 65 54 66
REMARK SMILES IDX 63 68 79 69 56 70 45 71 46 72 50 73 47 74 49 75 48 76 67 77
REMARK SMILES IDX 68 78 72 79 69 80 71 81 70 82 57 83 58 84 62 85 59 86 61 87
REMARK SMILES IDX 60 88
REMARK H PARENT 26 7 18 15 33 37 77 56 55 67
REMARK Flexibility Score: inf
ROOT
ATOM      1  C   UNL A   1      35.727  22.312  23.846  1.00  0.00     0.002 C 
ENDROOT
BRANCH   1   2
ATOM      2  C   UNL A   1      34.889  23.587  24.010  1.00  0.00     0.021 C 
BRANCH   2   3
ATOM      3  C   UNL A   1      35.235  24.428  25.237  1.00  0.00     0.116 C 
BRANCH   3   4
ATOM      4  N   UNL A   1      34.069  25.093  25.773  1.00  0.00    -0.356 N 
ATOM      5  O   UNL A   1      34.230  26.979  24.474  1.00  0.00    -0.275 OA
ATOM      6  C   UNL A   1      33.643  26.329  25.336  1.00  0.00     0.224 C 
ATOM      7  H   UNL A   1      33.557  24.644  26.484  1.00  0.00     0.163 HD
BRANCH   6   8
ATOM      8  C   UNL A   1      32.406  26.853  26.046  1.00  0.00     0.138 C 
BRANCH   8   9
ATOM      9  C   UNL A   1      31.119  26.744  25.259  1.00  0.00    -0.002 A 
ATOM     10  C   UNL A   1      30.261  25.637  25.257  1.00  0.00     0.093 A 
ATOM     11  C   UNL A   1      30.524  27.749  24.418  1.00  0.00     0.004 A 
ATOM     12  N   UNL A   1      29.177  25.981  24.479  1.00  0.00    -0.351 N 
ATOM     13  C   UNL A   1      29.338  27.219  23.914  1.00  0.00     0.048 A 
ATOM     14  C   UNL A   1      30.879  29.061  24.028  1.00  0.00     0.012 A 
ATOM     15  H   UNL A   1      28.386  25.408  24.347  1.00  0.00     0.167 HD
ATOM     16  C   UNL A   1      28.508  27.912  23.023  1.00  0.00     0.047 A 
ATOM     17  C   UNL A   1      30.071  29.767  23.128  1.00  0.00     0.021 A 
ATOM     18  C   UNL A   1      28.907  29.192  22.631  1.00  0.00     0.043 A 
ATOM     19  Cl  UNL A   1      27.933  30.074  21.519  1.00  0.00    -0.084 Cl
BRANCH  10  20
ATOM     20  C   UNL A   1      30.411  24.365  25.966  1.00  0.00     0.227 C 
ATOM     21  O   UNL A   1      30.070  24.199  27.135  1.00  0.00    -0.285 OA
BRANCH  20  22
ATOM     22  C   UNL A   1      31.029  23.207  25.255  1.00  0.00     0.113 A 
ATOM     23  C   UNL A   1      31.581  22.152  25.976  1.00  0.00     0.036 A 
ATOM     24  N   UNL A   1      31.012  23.267  23.902  1.00  0.00    -0.252 NA
ATOM     25  C   UNL A   1      32.156  21.091  25.270  1.00  0.00    -0.041 A 
ATOM     26  C   UNL A   1      31.555  22.223  23.243  1.00  0.00     0.115 A 
ATOM     27  C   UNL A   1      32.151  21.129  23.867  1.00  0.00    -0.026 A 
ATOM     28  C   UNL A   1      32.817  19.961  26.020  1.00  0.00     0.036 C 
ATOM     29  C   UNL A   1      32.695  19.998  23.034  1.00  0.00     0.037 C 
ATOM     30  C   UNL A   1      33.047  18.717  25.161  1.00  0.00     0.005 C 
ATOM     31  C   UNL A   1      33.649  19.096  23.813  1.00  0.00     0.005 C 
ENDBRANCH  20  22
ENDBRANCH  10  20
ENDBRANCH   8   9
ENDBRANCH   6   8
ENDBRANCH   3   4
ENDBRANCH   2   3
ENDBRANCH   1   2
BRANCH   1  32
ATOM     32  C   UNL A   1      36.283  21.708  25.139  1.00  0.00     0.002 C 
BRANCH  32  33
ATOM     33  C   UNL A   1      37.354  20.633  24.959  1.00  0.00     0.021 C 
BRANCH  33  34
ATOM     34  C   UNL A   1      38.669  20.897  25.684  1.00  0.00     0.116 C 
BRANCH  34  35
ATOM     35  N   UNL A   1      39.573  19.755  25.671  1.00  0.00    -0.352 N 
ATOM     36  C   UNL A   1      40.903  19.703  26.020  1.00  0.00     0.251 C 
ATOM     37  H   UNL A   1      39.178  18.904  25.372  1.00  0.00     0.163 HD
ATOM     38  O   UNL A   1      41.553  18.677  25.850  1.00  0.00    -0.269 OA
BRANCH  36  39
ATOM     39  C   UNL A   1      41.560  20.914  26.558  1.00  0.00     0.039 A 
ATOM     40  C   UNL A   1      41.533  21.190  27.927  1.00  0.00     0.014 A 
ATOM     41  C   UNL A   1      42.157  21.813  25.671  1.00  0.00     0.014 A 
ATOM     42  C   UNL A   1      41.941  22.439  28.385  1.00  0.00     0.010 A 
ATOM     43  C   UNL A   1      42.635  23.038  26.143  1.00  0.00     0.010 A 
ATOM     44  C   UNL A   1      42.476  23.385  27.494  1.00  0.00    -0.014 A 
BRANCH  44  45
ATOM     45  C   UNL A   1      42.825  24.742  27.987  1.00  0.00     0.031 A 
ATOM     46  C   UNL A   1      41.751  25.772  28.216  1.00  0.00     0.074 A 
ATOM     47  C   UNL A   1      44.105  25.030  28.291  1.00  0.00     0.049 A 
ATOM     48  N   UNL A   1      41.869  26.998  28.662  1.00  0.00    -0.248 NA
ATOM     49  C   UNL A   1      40.366  25.379  27.910  1.00  0.00     0.031 C 
ATOM     50  C   UNL A   1      45.233  24.108  28.144  1.00  0.00     0.029 A 
ATOM     51  N   UNL A   1      44.668  26.167  28.811  1.00  0.00    -0.354 N 
ATOM     52  C   UNL A   1      40.583  27.525  28.671  1.00  0.00     0.074 A 
ATOM     53  C   UNL A   1      39.701  26.498  28.164  1.00  0.00     0.031 C 
ATOM     54  C   UNL A   1      46.342  24.698  28.614  1.00  0.00     0.029 A 
ATOM     55  C   UNL A   1      46.018  26.057  29.038  1.00  0.00     0.049 A 
ATOM     56  H   UNL A   1      44.154  26.985  29.004  1.00  0.00     0.167 HD
ATOM     57  C   UNL A   1      40.173  28.752  29.075  1.00  0.00     0.031 A 
ATOM     58  C   UNL A   1      46.903  26.949  29.523  1.00  0.00     0.031 A 
ATOM     59  C   UNL A   1      41.046  29.769  29.595  1.00  0.00     0.049 A 
ATOM     60  C   UNL A   1      46.432  28.319  29.915  1.00  0.00     0.074 A 
ATOM     61  C   UNL A   1      40.714  31.036  30.043  1.00  0.00     0.029 A 
ATOM     62  N   UNL A   1      42.417  29.637  29.743  1.00  0.00    -0.354 N 
ATOM     63  N   UNL A   1      45.213  28.802  29.909  1.00  0.00    -0.248 NA
ATOM     64  C   UNL A   1      47.455  29.269  30.374  1.00  0.00     0.031 C 
ATOM     65  C   UNL A   1      41.890  31.689  30.417  1.00  0.00     0.029 A 
ATOM     66  C   UNL A   1      42.948  30.809  30.253  1.00  0.00     0.049 A 
ATOM     67  H   UNL A   1      42.935  28.832  29.518  1.00  0.00     0.167 HD
ATOM     68  C   UNL A   1      45.320  30.106  30.373  1.00  0.00     0.074 A 
ATOM     69  C   UNL A   1      46.720  30.335  30.666  1.00  0.00     0.031 C 
ATOM     70  C   UNL A   1      44.342  31.028  30.536  1.00  0.00     0.031 A 
BRANCH  57  71
ATOM     71  C   UNL A   1      38.711  29.078  28.962  1.00  0.00    -0.014 A 
ATOM     72  C   UNL A   1      38.209  29.624  27.770  1.00  0.00     0.009 A 
ATOM     73  C   UNL A   1      37.849  28.935  30.060  1.00  0.00     0.009 A 
ATOM     74  C   UNL A   1      36.876  30.029  27.681  1.00  0.00     0.001 A 
ATOM     75  C   UNL A   1      36.509  29.318  29.960  1.00  0.00     0.001 A 
ATOM     76  C   UNL A   1      36.027  29.872  28.775  1.00  0.00     0.000 A 
ENDBRANCH  57  71
BRANCH  58  77
ATOM     77  C   UNL A   1      48.328  26.555  29.660  1.00  0.00    -0.014 A 
ATOM     78  C   UNL A   1      48.799  25.992  30.857  1.00  0.00     0.009 A 
ATOM     79  C   UNL A   1      49.235  26.790  28.617  1.00  0.00     0.009 A 
ATOM     80  C   UNL A   1      50.155  25.699  31.017  1.00  0.00     0.001 A 
ATOM     81  C   UNL A   1      50.587  26.472  28.770  1.00  0.00     0.001 A 
ATOM     82  C   UNL A   1      51.046  25.936  29.973  1.00  0.00     0.000 A 
ENDBRANCH  58  77
BRANCH  70  83
ATOM     83  C   UNL A   1      44.733  32.378  31.065  1.00  0.00    -0.014 A 
ATOM     84  C   UNL A   1      44.611  32.650  32.437  1.00  0.00     0.009 A 
ATOM     85  C   UNL A   1      45.116  33.408  30.195  1.00  0.00     0.009 A 
ATOM     86  C   UNL A   1      44.851  33.935  32.927  1.00  0.00     0.001 A 
ATOM     87  C   UNL A   1      45.377  34.687  30.691  1.00  0.00     0.001 A 
ATOM     88  C   UNL A   1      45.235  34.952  32.054  1.00  0.00     0.000 A 
ENDBRANCH  70  83
ENDBRANCH  44  45
ENDBRANCH  36  39
ENDBRANCH  34  35
ENDBRANCH  33  34
ENDBRANCH  32  33
ENDBRANCH   1  32
TORSDOF 16
ENDMDL
MODEL 3
REMARK VINA RESULT:     -11.8      3.832      8.317
REMARK SMILES O=C(Cc1c(C(=O)c2cc3c(cn2)CCCC3)[nH]c2cc(Cl)ccc12)NCCCCCCNC(=O)c1ccc(-c2c3nc(c(-c4ccccc4)c4ccc([nH]4)c(-c4ccccc4)c4nc(c(-c5ccccc5)c5ccc2[nH]5)C=C4)C=C3)cc1
REMARK SMILES IDX 29 1 28 2 27 3 26 4 1 5 2 6 3 8 4 9 5 10 25 11 18 12 19 13
REMARK SMILES IDX 24 14 20 16 23 17 21 18 22 19 6 20 7 21 8 22 9 23 13 24
REMARK SMILES IDX 10 25 12 26 11 27 17 28 14 29 16 30 15 31 30 32 31 33 32 34
REMARK SMILES IDX 33 35 34 36 35 38 36 39 37 40 83 41 38 42 82 43 39 44 40 45
REMARK SMILES IDX 41 46 76 47 42 48 81 49 75 50 77 51 43 52 80 53 74 54 73 55
REMARK SMILES IDX 44 57 66 58 51 59 65 60 52 61 55 62 64 63 78 64 53 65 54 66
REMARK SMILES IDX 63 68 79 69 56 70 45 71 46 72 50 73 47 74 49 75 48 76 67 77
REMARK SMILES IDX 68 78 72 79 69 80 71 81 70 82 57 83 58 84 62 85 59 86 61 87
REMARK SMILES IDX 60 88
REMARK H PARENT 26 7 18 15 33 37 77 56 55 67
REMARK Flexibility Score: inf
ROOT
ATOM      1  C   UNL A   1      31.799  29.415  26.750  1.00  0.00     0.002 C 
ENDROOT
BRANCH   1   2
ATOM      2  C   UNL A   1      33.175  29.421  27.432  1.00  0.00     0.021 C 
BRANCH   2   3
ATOM      3  C   UNL A   1      34.320  28.893  26.570  1.00  0.00     0.116 C 
BRANCH   3   4
ATOM      4  N   UNL A   1      33.927  27.719  25.823  1.00  0.00    -0.356 N 
ATOM      5  O   UNL A   1      34.409  28.567  23.745  1.00  0.00    -0.275 OA
ATOM      6  C   UNL A   1      34.015  27.640  24.449  1.00  0.00     0.224 C 
ATOM      7  H   UNL A   1      33.580  26.941  26.317  1.00  0.00     0.163 HD
BRANCH   6   8
ATOM      8  C   UNL A   1      33.534  26.323  23.865  1.00  0.00     0.138 C 
BRANCH   8   9
ATOM      9  C   UNL A   1      32.092  25.978  24.161  1.00  0.00    -0.002 A 
ATOM     10  C   UNL A   1      31.654  24.831  24.834  1.00  0.00     0.093 A 
ATOM     11  C   UNL A   1      30.926  26.764  23.853  1.00  0.00     0.004 A 
ATOM     12  N   UNL A   1      30.287  24.945  24.960  1.00  0.00    -0.351 N 
ATOM     13  C   UNL A   1      29.818  26.066  24.326  1.00  0.00     0.048 A 
ATOM     14  C   UNL A   1      30.701  28.004  23.211  1.00  0.00     0.012 A 
ATOM     15  H   UNL A   1      29.719  24.302  25.445  1.00  0.00     0.167 HD
ATOM     16  C   UNL A   1      28.502  26.520  24.166  1.00  0.00     0.047 A 
ATOM     17  C   UNL A   1      29.393  28.470  23.029  1.00  0.00     0.021 A 
ATOM     18  C   UNL A   1      28.313  27.731  23.496  1.00  0.00     0.043 A 
ATOM     19  Cl  UNL A   1      26.713  28.319  23.254  1.00  0.00    -0.084 Cl
BRANCH  10  20
ATOM     20  C   UNL A   1      32.453  23.725  25.369  1.00  0.00     0.227 C 
ATOM     21  O   UNL A   1      33.164  23.826  26.365  1.00  0.00    -0.285 OA
BRANCH  20  22
ATOM     22  C   UNL A   1      32.431  22.410  24.664  1.00  0.00     0.113 A 
ATOM     23  C   UNL A   1      32.647  21.230  25.371  1.00  0.00     0.036 A 
ATOM     24  N   UNL A   1      32.196  22.457  23.332  1.00  0.00    -0.252 NA
ATOM     25  C   UNL A   1      32.625  20.020  24.671  1.00  0.00    -0.041 A 
ATOM     26  C   UNL A   1      32.160  21.275  22.682  1.00  0.00     0.115 A 
ATOM     27  C   UNL A   1      32.383  20.042  23.289  1.00  0.00    -0.026 A 
ATOM     28  C   UNL A   1      32.916  18.729  25.396  1.00  0.00     0.036 C 
ATOM     29  C   UNL A   1      32.284  18.779  22.475  1.00  0.00     0.037 C 
ATOM     30  C   UNL A   1      32.484  17.487  24.615  1.00  0.00     0.005 C 
ATOM     31  C   UNL A   1      32.933  17.579  23.161  1.00  0.00     0.005 C 
ENDBRANCH  20  22
ENDBRANCH  10  20
ENDBRANCH   8   9
ENDBRANCH   6   8
ENDBRANCH   3   4
ENDBRANCH   2   3
ENDBRANCH   1   2
BRANCH   1  32
ATOM     32  C   UNL A   1      31.470  30.647  25.903  1.00  0.00     0.002 C 
BRANCH  32  33
ATOM     33  C   UNL A   1      31.242  31.942  26.683  1.00  0.00     0.021 C 
BRANCH  33  34
ATOM     34  C   UNL A   1      32.333  32.995  26.531  1.00  0.00     0.116 C 
BRANCH  34  35
ATOM     35  N   UNL A   1      32.189  34.113  27.453  1.00  0.00    -0.352 N 
ATOM     36  C   UNL A   1      32.965  34.441  28.541  1.00  0.00     0.251 C 
ATOM     37  H   UNL A   1      31.432  34.717  27.274  1.00  0.00     0.163 HD
ATOM     38  O   UNL A   1      32.643  35.362  29.283  1.00  0.00    -0.269 OA
BRANCH  36  39
ATOM     39  C   UNL A   1      34.172  33.638  28.840  1.00  0.00     0.039 A 
ATOM     40  C   UNL A   1      34.056  32.323  29.296  1.00  0.00     0.014 A 
ATOM     41  C   UNL A   1      35.429  34.232  28.719  1.00  0.00     0.014 A 
ATOM     42  C   UNL A   1      35.177  31.668  29.797  1.00  0.00     0.010 A 
ATOM     43  C   UNL A   1      36.565  33.544  29.154  1.00  0.00     0.010 A 
ATOM     44  C   UNL A   1      36.440  32.280  29.751  1.00  0.00    -0.014 A 
BRANCH  44  45
ATOM     45  C   UNL A   1      37.608  31.601  30.368  1.00  0.00     0.031 A 
ATOM     46  C   UNL A   1      37.951  31.834  31.816  1.00  0.00     0.074 A 
ATOM     47  C   UNL A   1      38.325  30.721  29.643  1.00  0.00     0.049 A 
ATOM     48  N   UNL A   1      38.920  31.311  32.526  1.00  0.00    -0.248 NA
ATOM     49  C   UNL A   1      37.099  32.771  32.567  1.00  0.00     0.031 C 
ATOM     50  C   UNL A   1      38.074  30.384  28.241  1.00  0.00     0.029 A 
ATOM     51  N   UNL A   1      39.391  29.932  29.992  1.00  0.00    -0.354 N 
ATOM     52  C   UNL A   1      38.805  31.868  33.794  1.00  0.00     0.074 A 
ATOM     53  C   UNL A   1      37.690  32.787  33.754  1.00  0.00     0.031 C 
ATOM     54  C   UNL A   1      38.927  29.419  27.866  1.00  0.00     0.029 A 
ATOM     55  C   UNL A   1      39.822  29.112  28.977  1.00  0.00     0.049 A 
ATOM     56  H   UNL A   1      39.809  29.951  30.884  1.00  0.00     0.167 HD
ATOM     57  C   UNL A   1      39.556  31.627  34.896  1.00  0.00     0.031 A 
ATOM     58  C   UNL A   1      40.829  28.220  28.937  1.00  0.00     0.031 A 
ATOM     59  C   UNL A   1      40.655  30.702  34.944  1.00  0.00     0.049 A 
ATOM     60  C   UNL A   1      41.679  28.009  30.156  1.00  0.00     0.074 A 
ATOM     61  C   UNL A   1      41.462  30.383  36.022  1.00  0.00     0.029 A 
ATOM     62  N   UNL A   1      41.099  29.943  33.873  1.00  0.00    -0.354 N 
ATOM     63  N   UNL A   1      41.560  28.550  31.344  1.00  0.00    -0.248 NA
ATOM     64  C   UNL A   1      42.804  27.072  30.031  1.00  0.00     0.031 C 
ATOM     65  C   UNL A   1      42.425  29.468  35.593  1.00  0.00     0.029 A 
ATOM     66  C   UNL A   1      42.183  29.175  34.260  1.00  0.00     0.049 A 
ATOM     67  H   UNL A   1      40.703  29.950  32.972  1.00  0.00     0.167 HD
ATOM     68  C   UNL A   1      42.585  28.012  32.110  1.00  0.00     0.074 A 
ATOM     69  C   UNL A   1      43.308  27.090  31.258  1.00  0.00     0.031 C 
ATOM     70  C   UNL A   1      42.897  28.265  33.403  1.00  0.00     0.031 A 
BRANCH  57  71
ATOM     71  C   UNL A   1      39.228  32.385  36.152  1.00  0.00    -0.014 A 
ATOM     72  C   UNL A   1      39.997  33.503  36.511  1.00  0.00     0.009 A 
ATOM     73  C   UNL A   1      38.223  31.942  37.025  1.00  0.00     0.009 A 
ATOM     74  C   UNL A   1      39.774  34.158  37.723  1.00  0.00     0.001 A 
ATOM     75  C   UNL A   1      37.985  32.614  38.226  1.00  0.00     0.001 A 
ATOM     76  C   UNL A   1      38.766  33.715  38.578  1.00  0.00     0.000 A 
ENDBRANCH  57  71
BRANCH  58  77
ATOM     77  C   UNL A   1      41.077  27.461  27.684  1.00  0.00    -0.014 A 
ATOM     78  C   UNL A   1      40.481  26.206  27.483  1.00  0.00     0.009 A 
ATOM     79  C   UNL A   1      41.952  27.963  26.710  1.00  0.00     0.009 A 
ATOM     80  C   UNL A   1      40.779  25.455  26.344  1.00  0.00     0.001 A 
ATOM     81  C   UNL A   1      42.227  27.221  25.559  1.00  0.00     0.001 A 
ATOM     82  C   UNL A   1      41.648  25.964  25.382  1.00  0.00     0.000 A 
ENDBRANCH  58  77
BRANCH  70  83
ATOM     83  C   UNL A   1      44.067  27.535  33.998  1.00  0.00    -0.014 A 
ATOM     84  C   UNL A   1      43.879  26.265  34.567  1.00  0.00     0.009 A 
ATOM     85  C   UNL A   1      45.325  28.147  34.092  1.00  0.00     0.009 A 
ATOM     86  C   UNL A   1      44.927  25.628  35.234  1.00  0.00     0.001 A 
ATOM     87  C   UNL A   1      46.377  27.496  34.740  1.00  0.00     0.001 A 
ATOM     88  C   UNL A   1      46.175  26.243  35.318  1.00  0.00     0.000 A 
ENDBRANCH  70  83
ENDBRANCH  44  45
ENDBRANCH  36  39
ENDBRANCH  34  35
ENDBRANCH  33  34
ENDBRANCH  32  33
ENDBRANCH   1  32
TORSDOF 16
ENDMDL
