MODEL 1
REMARK VINA RESULT:     -11.9      0.000      0.000
REMARK SMILES CCOC(=O)c1cccc(Nc2c(-c3ccc(C(=O)NCCCCCCNC(=O)c4ccc(-c5c6nc(c(-c7ccccc7)c7ccc([nH]7)c(-c7ccccc7)c7nc(c(-c8ccccc8)c8ccc5[nH]8)C=C7)C=C6)cc4)cc3)nc3cnccn23)c1
REMARK SMILES IDX 21 1 20 2 18 3 19 4 17 6 14 7 15 8 79 9 16 10 78 11 13 12
REMARK SMILES IDX 12 13 86 14 80 15 81 16 85 17 82 18 84 19 83 20 11 21 10 23
REMARK SMILES IDX 6 24 7 25 87 26 8 27 9 28 4 29 5 30 3 31 2 32 1 33 22 34
REMARK SMILES IDX 23 35 24 36 25 37 26 38 27 39 28 40 29 42 30 43 31 44 77 45
REMARK SMILES IDX 32 46 76 47 33 48 34 49 35 50 70 51 36 52 75 53 69 54 71 55
REMARK SMILES IDX 37 56 74 57 68 58 67 59 38 61 60 62 45 63 59 64 46 65 49 66
REMARK SMILES IDX 58 67 72 68 47 69 48 70 57 72 73 73 50 74 39 75 40 76 44 77
REMARK SMILES IDX 41 78 43 79 42 80 61 81 62 82 66 83 63 84 65 85 64 86 51 87
REMARK SMILES IDX 52 88 56 89 53 90 55 91 54 92
REMARK H PARENT 20 5 11 22 27 41 71 60 49 71
REMARK Flexibility Score: inf
ROOT
ATOM      1  C   UNL A   1      34.325  31.384  27.999  1.00  0.00     0.116 C 
ENDROOT
BRANCH   1   2
ATOM      2  N   UNL A   1      33.055  31.682  27.367  1.00  0.00    -0.352 N 
ATOM      3  C   UNL A   1      32.206  30.916  26.612  1.00  0.00     0.251 C 
ATOM      4  O   UNL A   1      31.158  31.427  26.217  1.00  0.00    -0.269 OA
ATOM      5  H   UNL A   1      32.744  32.606  27.505  1.00  0.00     0.163 HD
BRANCH   3   6
ATOM      6  C   UNL A   1      32.474  29.488  26.293  1.00  0.00     0.039 A 
ATOM      7  C   UNL A   1      32.852  26.746  25.804  1.00  0.00     0.004 A 
ATOM      8  C   UNL A   1      31.860  27.168  26.694  1.00  0.00     0.011 A 
ATOM      9  C   UNL A   1      33.637  27.693  25.143  1.00  0.00     0.011 A 
ATOM     10  C   UNL A   1      31.677  28.531  26.939  1.00  0.00     0.014 A 
ATOM     11  C   UNL A   1      33.425  29.059  25.361  1.00  0.00     0.014 A 
BRANCH   7  12
ATOM     12  C   UNL A   1      33.039  25.342  25.523  1.00  0.00     0.114 A 
ATOM     13  C   UNL A   1      32.589  24.706  24.374  1.00  0.00     0.143 A 
ATOM     14  N   UNL A   1      33.032  23.408  24.512  1.00  0.00    -0.283 N 
ATOM     15  N   UNL A   1      33.685  24.477  26.375  1.00  0.00    -0.225 NA
ATOM     16  C   UNL A   1      33.638  23.325  25.743  1.00  0.00     0.157 A 
ATOM     17  C   UNL A   1      32.997  22.297  23.686  1.00  0.00     0.115 A 
ATOM     18  C   UNL A   1      34.160  22.054  26.162  1.00  0.00     0.158 A 
ATOM     19  C   UNL A   1      33.529  21.148  24.141  1.00  0.00     0.129 A 
ATOM     20  N   UNL A   1      34.106  21.000  25.392  1.00  0.00    -0.259 NA
BRANCH  13  21
ATOM     21  N   UNL A   1      31.940  25.184  23.278  1.00  0.00    -0.339 N 
ATOM     22  H   UNL A   1      32.307  24.964  22.390  1.00  0.00     0.168 HD
BRANCH  21  23
ATOM     23  C   UNL A   1      30.766  25.982  23.332  1.00  0.00     0.040 A 
ATOM     24  C   UNL A   1      29.695  28.125  22.893  1.00  0.00     0.062 A 
ATOM     25  C   UNL A   1      28.516  27.672  23.489  1.00  0.00     0.016 A 
ATOM     26  C   UNL A   1      30.806  27.277  22.792  1.00  0.00     0.041 A 
ATOM     27  C   UNL A   1      28.445  26.370  23.972  1.00  0.00     0.003 A 
ATOM     28  C   UNL A   1      29.562  25.535  23.896  1.00  0.00     0.026 A 
BRANCH  24  29
ATOM     29  C   UNL A   1      29.762  29.540  22.470  1.00  0.00     0.338 C 
ATOM     30  O   UNL A   1      29.868  29.880  21.304  1.00  0.00    -0.246 OA
BRANCH  29  31
ATOM     31  O   UNL A   1      29.727  30.354  23.553  1.00  0.00    -0.462 OA
BRANCH  31  32
ATOM     32  C   UNL A   1      28.914  31.529  23.409  1.00  0.00     0.230 C 
ATOM     33  C   UNL A   1      27.442  31.232  23.637  1.00  0.00     0.049 C 
ENDBRANCH  31  32
ENDBRANCH  29  31
ENDBRANCH  24  29
ENDBRANCH  21  23
ENDBRANCH  13  21
ENDBRANCH   7  12
ENDBRANCH   3   6
ENDBRANCH   1   2
BRANCH   1  34
ATOM     34  C   UNL A   1      34.561  32.325  29.183  1.00  0.00     0.021 C 
BRANCH  34  35
ATOM     35  C   UNL A   1      35.443  33.531  28.839  1.00  0.00     0.002 C 
BRANCH  35  36
ATOM     36  C   UNL A   1      34.699  34.714  28.208  1.00  0.00     0.002 C 
BRANCH  36  37
ATOM     37  C   UNL A   1      33.362  35.071  28.867  1.00  0.00     0.021 C 
BRANCH  37  38
ATOM     38  C   UNL A   1      33.396  36.313  29.754  1.00  0.00     0.116 C 
BRANCH  38  39
ATOM     39  N   UNL A   1      32.481  36.204  30.878  1.00  0.00    -0.352 N 
ATOM     40  C   UNL A   1      32.590  35.466  32.028  1.00  0.00     0.251 C 
ATOM     41  H   UNL A   1      31.659  36.740  30.802  1.00  0.00     0.163 HD
ATOM     42  O   UNL A   1      31.620  35.343  32.770  1.00  0.00    -0.269 OA
BRANCH  40  43
ATOM     43  C   UNL A   1      33.866  34.806  32.380  1.00  0.00     0.039 A 
ATOM     44  C   UNL A   1      33.852  33.441  32.676  1.00  0.00     0.014 A 
ATOM     45  C   UNL A   1      35.061  35.528  32.462  1.00  0.00     0.014 A 
ATOM     46  C   UNL A   1      35.041  32.790  33.011  1.00  0.00     0.010 A 
ATOM     47  C   UNL A   1      36.257  34.867  32.742  1.00  0.00     0.010 A 
ATOM     48  C   UNL A   1      36.256  33.493  33.023  1.00  0.00    -0.014 A 
BRANCH  48  49
ATOM     49  C   UNL A   1      37.529  32.789  33.317  1.00  0.00     0.031 A 
ATOM     50  C   UNL A   1      38.275  33.052  34.595  1.00  0.00     0.074 A 
ATOM     51  C   UNL A   1      38.031  31.930  32.410  1.00  0.00     0.049 A 
ATOM     52  N   UNL A   1      39.385  32.505  35.028  1.00  0.00    -0.248 NA
ATOM     53  C   UNL A   1      37.717  34.072  35.495  1.00  0.00     0.031 C 
ATOM     54  C   UNL A   1      37.430  31.626  31.109  1.00  0.00     0.029 A 
ATOM     55  N   UNL A   1      39.157  31.149  32.447  1.00  0.00    -0.354 N 
ATOM     56  C   UNL A   1      39.662  33.122  36.241  1.00  0.00     0.074 A 
ATOM     57  C   UNL A   1      38.628  34.113  36.456  1.00  0.00     0.031 C 
ATOM     58  C   UNL A   1      38.176  30.700  30.488  1.00  0.00     0.029 A 
ATOM     59  C   UNL A   1      39.317  30.362  31.334  1.00  0.00     0.049 A 
ATOM     60  H   UNL A   1      39.792  31.153  33.200  1.00  0.00     0.167 HD
ATOM     61  C   UNL A   1      40.673  32.874  37.108  1.00  0.00     0.031 A 
ATOM     62  C   UNL A   1      40.267  29.459  31.031  1.00  0.00     0.031 A 
ATOM     63  C   UNL A   1      41.696  31.884  36.902  1.00  0.00     0.049 A 
ATOM     64  C   UNL A   1      41.364  29.185  32.019  1.00  0.00     0.074 A 
ATOM     65  C   UNL A   1      42.732  31.521  37.748  1.00  0.00     0.029 A 
ATOM     66  N   UNL A   1      41.814  31.097  35.767  1.00  0.00    -0.354 N 
ATOM     67  N   UNL A   1      41.569  29.726  33.196  1.00  0.00    -0.248 NA
ATOM     68  C   UNL A   1      42.349  28.162  31.643  1.00  0.00     0.031 C 
ATOM     69  C   UNL A   1      43.498  30.542  37.108  1.00  0.00     0.029 A 
ATOM     70  C   UNL A   1      42.914  30.263  35.883  1.00  0.00     0.049 A 
ATOM     71  H   UNL A   1      41.206  31.127  34.994  1.00  0.00     0.167 HD
ATOM     72  C   UNL A   1      42.694  29.094  33.709  1.00  0.00     0.074 A 
ATOM     73  C   UNL A   1      43.113  28.116  32.725  1.00  0.00     0.031 C 
ATOM     74  C   UNL A   1      43.324  29.304  34.890  1.00  0.00     0.031 A 
BRANCH  61  75
ATOM     75  C   UNL A   1      40.720  33.697  38.365  1.00  0.00    -0.014 A 
ATOM     76  C   UNL A   1      41.459  34.888  38.424  1.00  0.00     0.009 A 
ATOM     77  C   UNL A   1      39.990  33.293  39.494  1.00  0.00     0.009 A 
ATOM     78  C   UNL A   1      41.495  35.641  39.600  1.00  0.00     0.001 A 
ATOM     79  C   UNL A   1      40.008  34.060  40.660  1.00  0.00     0.001 A 
ATOM     80  C   UNL A   1      40.767  35.229  40.716  1.00  0.00     0.000 A 
ENDBRANCH  61  75
BRANCH  62  81
ATOM     81  C   UNL A   1      40.201  28.717  29.748  1.00  0.00    -0.014 A 
ATOM     82  C   UNL A   1      40.801  29.243  28.593  1.00  0.00     0.009 A 
ATOM     83  C   UNL A   1      39.541  27.482  29.670  1.00  0.00     0.009 A 
ATOM     84  C   UNL A   1      40.720  28.556  27.379  1.00  0.00     0.001 A 
ATOM     85  C   UNL A   1      39.483  26.787  28.461  1.00  0.00     0.001 A 
ATOM     86  C   UNL A   1      40.065  27.327  27.316  1.00  0.00     0.000 A 
ENDBRANCH  62  81
BRANCH  74  87
ATOM     87  C   UNL A   1      44.520  28.443  35.183  1.00  0.00    -0.014 A 
ATOM     88  C   UNL A   1      44.383  27.214  35.848  1.00  0.00     0.009 A 
ATOM     89  C   UNL A   1      45.796  28.864  34.781  1.00  0.00     0.009 A 
ATOM     90  C   UNL A   1      45.509  26.443  36.140  1.00  0.00     0.001 A 
ATOM     91  C   UNL A   1      46.917  28.078  35.053  1.00  0.00     0.001 A 
ATOM     92  C   UNL A   1      46.774  26.874  35.741  1.00  0.00     0.000 A 
ENDBRANCH  74  87
ENDBRANCH  48  49
ENDBRANCH  40  43
ENDBRANCH  38  39
ENDBRANCH  37  38
ENDBRANCH  36  37
ENDBRANCH  35  36
ENDBRANCH  34  35
ENDBRANCH   1  34
TORSDOF 19
ENDMDL
MODEL 2
REMARK VINA RESULT:     -11.7      4.262      8.754
REMARK SMILES CCOC(=O)c1cccc(Nc2c(-c3ccc(C(=O)NCCCCCCNC(=O)c4ccc(-c5c6nc(c(-c7ccccc7)c7ccc([nH]7)c(-c7ccccc7)c7nc(c(-c8ccccc8)c8ccc5[nH]8)C=C7)C=C6)cc4)cc3)nc3cnccn23)c1
REMARK SMILES IDX 21 1 20 2 18 3 19 4 17 6 14 7 15 8 79 9 16 10 78 11 13 12
REMARK SMILES IDX 12 13 86 14 80 15 81 16 85 17 82 18 84 19 83 20 11 21 10 23
REMARK SMILES IDX 6 24 7 25 87 26 8 27 9 28 4 29 5 30 3 31 2 32 1 33 22 34
REMARK SMILES IDX 23 35 24 36 25 37 26 38 27 39 28 40 29 42 30 43 31 44 77 45
REMARK SMILES IDX 32 46 76 47 33 48 34 49 35 50 70 51 36 52 75 53 69 54 71 55
REMARK SMILES IDX 37 56 74 57 68 58 67 59 38 61 60 62 45 63 59 64 46 65 49 66
REMARK SMILES IDX 58 67 72 68 47 69 48 70 57 72 73 73 50 74 39 75 40 76 44 77
REMARK SMILES IDX 41 78 43 79 42 80 61 81 62 82 66 83 63 84 65 85 64 86 51 87
REMARK SMILES IDX 52 88 56 89 53 90 55 91 54 92
REMARK H PARENT 20 5 11 22 27 41 71 60 49 71
REMARK Flexibility Score: inf
ROOT
ATOM      1  C   UNL A   1      30.236  29.376  23.692  1.00  0.00     0.116 C 
ENDROOT
BRANCH   1   2
ATOM      2  N   UNL A   1      29.186  28.376  23.684  1.00  0.00    -0.352 N 
ATOM      3  C   UNL A   1      29.217  27.015  23.842  1.00  0.00     0.251 C 
ATOM      4  O   UNL A   1      28.150  26.403  23.817  1.00  0.00    -0.269 OA
ATOM      5  H   UNL A   1      28.284  28.741  23.536  1.00  0.00     0.163 HD
BRANCH   3   6
ATOM      6  C   UNL A   1      30.475  26.259  24.090  1.00  0.00     0.039 A 
ATOM      7  C   UNL A   1      32.832  24.870  24.729  1.00  0.00     0.004 A 
ATOM      8  C   UNL A   1      32.089  25.489  25.739  1.00  0.00     0.011 A 
ATOM      9  C   UNL A   1      32.385  24.925  23.408  1.00  0.00     0.011 A 
ATOM     10  C   UNL A   1      30.920  26.183  25.418  1.00  0.00     0.014 A 
ATOM     11  C   UNL A   1      31.193  25.587  23.095  1.00  0.00     0.014 A 
BRANCH   7  12
ATOM     12  C   UNL A   1      34.030  24.129  25.048  1.00  0.00     0.114 A 
ATOM     13  C   UNL A   1      34.058  22.776  25.355  1.00  0.00     0.143 A 
ATOM     14  N   UNL A   1      35.397  22.497  25.531  1.00  0.00    -0.283 N 
ATOM     15  N   UNL A   1      35.284  24.694  25.084  1.00  0.00    -0.225 NA
ATOM     16  C   UNL A   1      36.069  23.688  25.401  1.00  0.00     0.157 A 
ATOM     17  C   UNL A   1      36.103  21.329  25.765  1.00  0.00     0.115 A 
ATOM     18  C   UNL A   1      37.494  23.690  25.581  1.00  0.00     0.158 A 
ATOM     19  C   UNL A   1      37.439  21.409  25.896  1.00  0.00     0.129 A 
ATOM     20  N   UNL A   1      38.159  22.591  25.824  1.00  0.00    -0.259 NA
BRANCH  13  21
ATOM     21  N   UNL A   1      33.066  21.845  25.404  1.00  0.00    -0.339 N 
ATOM     22  H   UNL A   1      32.488  21.828  26.202  1.00  0.00     0.168 HD
BRANCH  21  23
ATOM     23  C   UNL A   1      32.811  20.898  24.379  1.00  0.00     0.040 A 
ATOM     24  C   UNL A   1      33.052  18.617  23.558  1.00  0.00     0.062 A 
ATOM     25  C   UNL A   1      32.440  18.972  22.354  1.00  0.00     0.016 A 
ATOM     26  C   UNL A   1      33.214  19.567  24.575  1.00  0.00     0.041 A 
ATOM     27  C   UNL A   1      31.981  20.272  22.171  1.00  0.00     0.003 A 
ATOM     28  C   UNL A   1      32.170  21.226  23.175  1.00  0.00     0.026 A 
BRANCH  24  29
ATOM     29  C   UNL A   1      33.603  17.251  23.682  1.00  0.00     0.338 C 
ATOM     30  O   UNL A   1      33.827  16.535  22.721  1.00  0.00    -0.246 OA
BRANCH  29  31
ATOM     31  O   UNL A   1      33.769  16.931  24.989  1.00  0.00    -0.462 OA
BRANCH  31  32
ATOM     32  C   UNL A   1      33.703  15.528  25.288  1.00  0.00     0.230 C 
ATOM     33  C   UNL A   1      32.302  15.099  25.690  1.00  0.00     0.049 C 
ENDBRANCH  31  32
ENDBRANCH  29  31
ENDBRANCH  24  29
ENDBRANCH  21  23
ENDBRANCH  13  21
ENDBRANCH   7  12
ENDBRANCH   3   6
ENDBRANCH   1   2
BRANCH   1  34
ATOM     34  C   UNL A   1      31.290  29.045  22.633  1.00  0.00     0.021 C 
BRANCH  34  35
ATOM     35  C   UNL A   1      32.708  28.912  23.204  1.00  0.00     0.002 C 
BRANCH  35  36
ATOM     36  C   UNL A   1      32.844  29.284  24.685  1.00  0.00     0.002 C 
BRANCH  36  37
ATOM     37  C   UNL A   1      33.955  28.551  25.444  1.00  0.00     0.021 C 
BRANCH  37  38
ATOM     38  C   UNL A   1      33.833  28.601  26.965  1.00  0.00     0.116 C 
BRANCH  38  39
ATOM     39  N   UNL A   1      33.752  29.965  27.459  1.00  0.00    -0.352 N 
ATOM     40  C   UNL A   1      34.646  30.678  28.216  1.00  0.00     0.251 C 
ATOM     41  H   UNL A   1      32.933  30.451  27.213  1.00  0.00     0.163 HD
ATOM     42  O   UNL A   1      34.311  31.751  28.709  1.00  0.00    -0.269 OA
BRANCH  40  43
ATOM     43  C   UNL A   1      36.011  30.159  28.455  1.00  0.00     0.039 A 
ATOM     44  C   UNL A   1      36.945  30.233  27.419  1.00  0.00     0.014 A 
ATOM     45  C   UNL A   1      36.359  29.563  29.672  1.00  0.00     0.014 A 
ATOM     46  C   UNL A   1      38.240  29.752  27.616  1.00  0.00     0.010 A 
ATOM     47  C   UNL A   1      37.668  29.133  29.887  1.00  0.00     0.010 A 
ATOM     48  C   UNL A   1      38.619  29.220  28.860  1.00  0.00    -0.014 A 
BRANCH  48  49
ATOM     49  C   UNL A   1      40.013  28.766  29.090  1.00  0.00     0.031 A 
ATOM     50  C   UNL A   1      40.452  27.390  28.673  1.00  0.00     0.074 A 
ATOM     51  C   UNL A   1      40.880  29.590  29.707  1.00  0.00     0.049 A 
ATOM     52  N   UNL A   1      41.637  26.840  28.771  1.00  0.00    -0.248 NA
ATOM     53  C   UNL A   1      39.427  26.511  28.091  1.00  0.00     0.031 C 
ATOM     54  C   UNL A   1      40.564  30.931  30.207  1.00  0.00     0.029 A 
ATOM     55  N   UNL A   1      42.206  29.424  30.015  1.00  0.00    -0.354 N 
ATOM     56  C   UNL A   1      41.497  25.550  28.273  1.00  0.00     0.074 A 
ATOM     57  C   UNL A   1      40.104  25.386  27.915  1.00  0.00     0.031 C 
ATOM     58  C   UNL A   1      41.675  31.477  30.727  1.00  0.00     0.029 A 
ATOM     59  C   UNL A   1      42.772  30.520  30.618  1.00  0.00     0.049 A 
ATOM     60  H   UNL A   1      42.706  28.597  29.821  1.00  0.00     0.167 HD
ATOM     61  C   UNL A   1      42.444  24.595  28.112  1.00  0.00     0.031 A 
ATOM     62  C   UNL A   1      44.034  30.736  31.028  1.00  0.00     0.031 A 
ATOM     63  C   UNL A   1      43.831  24.758  28.458  1.00  0.00     0.049 A 
ATOM     64  C   UNL A   1      45.071  29.672  30.816  1.00  0.00     0.074 A 
ATOM     65  C   UNL A   1      44.877  23.867  28.281  1.00  0.00     0.029 A 
ATOM     66  N   UNL A   1      44.366  25.889  29.054  1.00  0.00    -0.354 N 
ATOM     67  N   UNL A   1      44.936  28.484  30.276  1.00  0.00    -0.248 NA
ATOM     68  C   UNL A   1      46.438  29.986  31.253  1.00  0.00     0.031 C 
ATOM     69  C   UNL A   1      46.038  24.445  28.806  1.00  0.00     0.029 A 
ATOM     70  C   UNL A   1      45.723  25.713  29.268  1.00  0.00     0.049 A 
ATOM     71  H   UNL A   1      43.857  26.698  29.291  1.00  0.00     0.167 HD
ATOM     72  C   UNL A   1      46.204  27.919  30.290  1.00  0.00     0.074 A 
ATOM     73  C   UNL A   1      47.096  28.901  30.871  1.00  0.00     0.031 C 
ATOM     74  C   UNL A   1      46.595  26.694  29.859  1.00  0.00     0.031 A 
BRANCH  61  75
ATOM     75  C   UNL A   1      42.003  23.280  27.532  1.00  0.00    -0.014 A 
ATOM     76  C   UNL A   1      41.334  22.330  28.318  1.00  0.00     0.009 A 
ATOM     77  C   UNL A   1      42.233  23.001  26.176  1.00  0.00     0.009 A 
ATOM     78  C   UNL A   1      40.932  21.111  27.766  1.00  0.00     0.001 A 
ATOM     79  C   UNL A   1      41.809  21.792  25.621  1.00  0.00     0.001 A 
ATOM     80  C   UNL A   1      41.168  20.844  26.418  1.00  0.00     0.000 A 
ENDBRANCH  61  75
BRANCH  62  81
ATOM     81  C   UNL A   1      44.399  32.035  31.647  1.00  0.00    -0.014 A 
ATOM     82  C   UNL A   1      44.322  32.204  33.038  1.00  0.00     0.009 A 
ATOM     83  C   UNL A   1      44.825  33.110  30.853  1.00  0.00     0.009 A 
ATOM     84  C   UNL A   1      44.643  33.433  33.620  1.00  0.00     0.001 A 
ATOM     85  C   UNL A   1      45.168  34.330  31.440  1.00  0.00     0.001 A 
ATOM     86  C   UNL A   1      45.070  34.492  32.821  1.00  0.00     0.000 A 
ENDBRANCH  62  81
BRANCH  74  87
ATOM     87  C   UNL A   1      48.055  26.366  29.986  1.00  0.00    -0.014 A 
ATOM     88  C   UNL A   1      48.942  26.580  28.920  1.00  0.00     0.009 A 
ATOM     89  C   UNL A   1      48.548  25.844  31.191  1.00  0.00     0.009 A 
ATOM     90  C   UNL A   1      50.290  26.239  29.046  1.00  0.00     0.001 A 
ATOM     91  C   UNL A   1      49.901  25.527  31.322  1.00  0.00     0.001 A 
ATOM     92  C   UNL A   1      50.769  25.714  30.247  1.00  0.00     0.000 A 
ENDBRANCH  74  87
ENDBRANCH  48  49
ENDBRANCH  40  43
ENDBRANCH  38  39
ENDBRANCH  37  38
ENDBRANCH  36  37
ENDBRANCH  35  36
ENDBRANCH  34  35
ENDBRANCH   1  34
TORSDOF 19
ENDMDL
MODEL 3
REMARK VINA RESULT:     -11.5      3.753      6.738
REMARK SMILES CCOC(=O)c1cccc(Nc2c(-c3ccc(C(=O)NCCCCCCNC(=O)c4ccc(-c5c6nc(c(-c7ccccc7)c7ccc([nH]7)c(-c7ccccc7)c7nc(c(-c8ccccc8)c8ccc5[nH]8)C=C7)C=C6)cc4)cc3)nc3cnccn23)c1
REMARK SMILES IDX 21 1 20 2 18 3 19 4 17 6 14 7 15 8 79 9 16 10 78 11 13 12
REMARK SMILES IDX 12 13 86 14 80 15 81 16 85 17 82 18 84 19 83 20 11 21 10 23
REMARK SMILES IDX 6 24 7 25 87 26 8 27 9 28 4 29 5 30 3 31 2 32 1 33 22 34
REMARK SMILES IDX 23 35 24 36 25 37 26 38 27 39 28 40 29 42 30 43 31 44 77 45
REMARK SMILES IDX 32 46 76 47 33 48 34 49 35 50 70 51 36 52 75 53 69 54 71 55
REMARK SMILES IDX 37 56 74 57 68 58 67 59 38 61 60 62 45 63 59 64 46 65 49 66
REMARK SMILES IDX 58 67 72 68 47 69 48 70 57 72 73 73 50 74 39 75 40 76 44 77
REMARK SMILES IDX 41 78 43 79 42 80 61 81 62 82 66 83 63 84 65 85 64 86 51 87
REMARK SMILES IDX 52 88 56 89 53 90 55 91 54 92
REMARK H PARENT 20 5 11 22 27 41 71 60 49 71
REMARK Flexibility Score: inf
ROOT
ATOM      1  C   UNL A   1      30.051  29.247  23.517  1.00  0.00     0.116 C 
ENDROOT
BRANCH   1   2
ATOM      2  N   UNL A   1      29.010  28.243  23.611  1.00  0.00    -0.352 N 
ATOM      3  C   UNL A   1      29.059  26.894  23.848  1.00  0.00     0.251 C 
ATOM      4  O   UNL A   1      27.996  26.275  23.904  1.00  0.00    -0.269 OA
ATOM      5  H   UNL A   1      28.100  28.593  23.479  1.00  0.00     0.163 HD
BRANCH   3   6
ATOM      6  C   UNL A   1      30.331  26.161  24.088  1.00  0.00     0.039 A 
ATOM      7  C   UNL A   1      32.721  24.822  24.712  1.00  0.00     0.004 A 
ATOM      8  C   UNL A   1      31.999  25.470  25.719  1.00  0.00     0.011 A 
ATOM      9  C   UNL A   1      32.238  24.824  23.402  1.00  0.00     0.011 A 
ATOM     10  C   UNL A   1      30.813  26.139  25.405  1.00  0.00     0.014 A 
ATOM     11  C   UNL A   1      31.030  25.461  23.099  1.00  0.00     0.014 A 
BRANCH   7  12
ATOM     12  C   UNL A   1      33.936  24.106  25.023  1.00  0.00     0.114 A 
ATOM     13  C   UNL A   1      33.994  22.754  25.328  1.00  0.00     0.143 A 
ATOM     14  N   UNL A   1      35.339  22.503  25.498  1.00  0.00    -0.283 N 
ATOM     15  N   UNL A   1      35.178  24.698  25.055  1.00  0.00    -0.225 NA
ATOM     16  C   UNL A   1      35.986  23.708  25.367  1.00  0.00     0.157 A 
ATOM     17  C   UNL A   1      36.072  21.350  25.726  1.00  0.00     0.115 A 
ATOM     18  C   UNL A   1      37.412  23.740  25.540  1.00  0.00     0.158 A 
ATOM     19  C   UNL A   1      37.407  21.458  25.851  1.00  0.00     0.129 A 
ATOM     20  N   UNL A   1      38.101  22.655  25.777  1.00  0.00    -0.259 NA
BRANCH  13  21
ATOM     21  N   UNL A   1      33.022  21.802  25.380  1.00  0.00    -0.339 N 
ATOM     22  H   UNL A   1      32.449  21.771  26.181  1.00  0.00     0.168 HD
BRANCH  21  23
ATOM     23  C   UNL A   1      32.784  20.850  24.355  1.00  0.00     0.040 A 
ATOM     24  C   UNL A   1      33.091  18.582  23.519  1.00  0.00     0.062 A 
ATOM     25  C   UNL A   1      32.446  18.921  22.327  1.00  0.00     0.016 A 
ATOM     26  C   UNL A   1      33.237  19.534  24.538  1.00  0.00     0.041 A 
ATOM     27  C   UNL A   1      31.940  20.204  22.159  1.00  0.00     0.003 A 
ATOM     28  C   UNL A   1      32.111  21.161  23.164  1.00  0.00     0.026 A 
BRANCH  24  29
ATOM     29  C   UNL A   1      33.691  17.236  23.628  1.00  0.00     0.338 C 
ATOM     30  O   UNL A   1      34.027  16.578  22.658  1.00  0.00    -0.246 OA
BRANCH  29  31
ATOM     31  O   UNL A   1      33.764  16.860  24.929  1.00  0.00    -0.462 OA
BRANCH  31  32
ATOM     32  C   UNL A   1      33.628  15.450  25.167  1.00  0.00     0.230 C 
ATOM     33  C   UNL A   1      32.260  15.100  25.726  1.00  0.00     0.049 C 
ENDBRANCH  31  32
ENDBRANCH  29  31
ENDBRANCH  24  29
ENDBRANCH  21  23
ENDBRANCH  13  21
ENDBRANCH   7  12
ENDBRANCH   3   6
ENDBRANCH   1   2
BRANCH   1  34
ATOM     34  C   UNL A   1      30.967  28.950  22.328  1.00  0.00     0.021 C 
BRANCH  34  35
ATOM     35  C   UNL A   1      32.442  28.787  22.719  1.00  0.00     0.002 C 
BRANCH  35  36
ATOM     36  C   UNL A   1      32.763  29.130  24.178  1.00  0.00     0.002 C 
BRANCH  36  37
ATOM     37  C   UNL A   1      33.875  28.292  24.817  1.00  0.00     0.021 C 
BRANCH  37  38
ATOM     38  C   UNL A   1      33.991  28.430  26.333  1.00  0.00     0.116 C 
BRANCH  38  39
ATOM     39  N   UNL A   1      33.753  29.794  26.775  1.00  0.00    -0.352 N 
ATOM     40  C   UNL A   1      34.480  30.576  27.634  1.00  0.00     0.251 C 
ATOM     41  H   UNL A   1      32.950  30.221  26.399  1.00  0.00     0.163 HD
ATOM     42  O   UNL A   1      34.010  31.633  28.045  1.00  0.00    -0.269 OA
BRANCH  40  43
ATOM     43  C   UNL A   1      35.824  30.153  28.083  1.00  0.00     0.039 A 
ATOM     44  C   UNL A   1      35.955  29.575  29.348  1.00  0.00     0.014 A 
ATOM     45  C   UNL A   1      36.956  30.360  27.287  1.00  0.00     0.014 A 
ATOM     46  C   UNL A   1      37.211  29.165  29.799  1.00  0.00     0.010 A 
ATOM     47  C   UNL A   1      38.201  29.900  27.714  1.00  0.00     0.010 A 
ATOM     48  C   UNL A   1      38.340  29.303  28.975  1.00  0.00    -0.014 A 
BRANCH  48  49
ATOM     49  C   UNL A   1      39.665  28.810  29.428  1.00  0.00     0.031 A 
ATOM     50  C   UNL A   1      40.495  29.611  30.391  1.00  0.00     0.074 A 
ATOM     51  C   UNL A   1      40.135  27.645  28.942  1.00  0.00     0.049 A 
ATOM     52  N   UNL A   1      41.661  29.318  30.914  1.00  0.00    -0.248 NA
ATOM     53  C   UNL A   1      39.960  30.916  30.807  1.00  0.00     0.031 C 
ATOM     54  C   UNL A   1      39.450  26.799  27.961  1.00  0.00     0.029 A 
ATOM     55  N   UNL A   1      41.298  26.970  29.210  1.00  0.00    -0.354 N 
ATOM     56  C   UNL A   1      42.001  30.406  31.709  1.00  0.00     0.074 A 
ATOM     57  C   UNL A   1      40.941  31.381  31.566  1.00  0.00     0.031 C 
ATOM     58  C   UNL A   1      40.190  25.701  27.739  1.00  0.00     0.029 A 
ATOM     59  C   UNL A   1      41.408  25.777  28.539  1.00  0.00     0.049 A 
ATOM     60  H   UNL A   1      41.989  27.308  29.826  1.00  0.00     0.167 HD
ATOM     61  C   UNL A   1      43.088  30.570  32.501  1.00  0.00     0.031 A 
ATOM     62  C   UNL A   1      42.374  24.842  28.573  1.00  0.00     0.031 A 
ATOM     63  C   UNL A   1      44.139  29.599  32.653  1.00  0.00     0.049 A 
ATOM     64  C   UNL A   1      43.557  25.037  29.477  1.00  0.00     0.074 A 
ATOM     65  C   UNL A   1      45.253  29.652  33.473  1.00  0.00     0.029 A 
ATOM     66  N   UNL A   1      44.205  28.397  31.966  1.00  0.00    -0.354 N 
ATOM     67  N   UNL A   1      43.827  26.039  30.278  1.00  0.00    -0.248 NA
ATOM     68  C   UNL A   1      44.558  23.962  29.493  1.00  0.00     0.031 C 
ATOM     69  C   UNL A   1      46.014  28.499  33.254  1.00  0.00     0.029 A 
ATOM     70  C   UNL A   1      45.350  27.708  32.331  1.00  0.00     0.049 A 
ATOM     71  H   UNL A   1      43.538  28.081  31.315  1.00  0.00     0.167 HD
ATOM     72  C   UNL A   1      45.018  25.705  30.909  1.00  0.00     0.074 A 
ATOM     73  C   UNL A   1      45.405  24.401  30.413  1.00  0.00     0.031 C 
ATOM     74  C   UNL A   1      45.727  26.416  31.819  1.00  0.00     0.031 A 
BRANCH  61  75
ATOM     75  C   UNL A   1      43.193  31.860  33.267  1.00  0.00    -0.014 A 
ATOM     76  C   UNL A   1      42.661  31.981  34.559  1.00  0.00     0.009 A 
ATOM     77  C   UNL A   1      43.859  32.958  32.700  1.00  0.00     0.009 A 
ATOM     78  C   UNL A   1      42.764  33.186  35.258  1.00  0.00     0.001 A 
ATOM     79  C   UNL A   1      43.982  34.154  33.410  1.00  0.00     0.001 A 
ATOM     80  C   UNL A   1      43.426  34.271  34.684  1.00  0.00     0.000 A 
ENDBRANCH  61  75
BRANCH  62  81
ATOM     81  C   UNL A   1      42.244  23.614  27.750  1.00  0.00    -0.014 A 
ATOM     82  C   UNL A   1      41.521  22.512  28.232  1.00  0.00     0.009 A 
ATOM     83  C   UNL A   1      42.839  23.536  26.482  1.00  0.00     0.009 A 
ATOM     84  C   UNL A   1      41.417  21.347  27.469  1.00  0.00     0.001 A 
ATOM     85  C   UNL A   1      42.712  22.379  25.712  1.00  0.00     0.001 A 
ATOM     86  C   UNL A   1      42.009  21.283  26.209  1.00  0.00     0.000 A 
ENDBRANCH  62  81
BRANCH  74  87
ATOM     87  C   UNL A   1      46.982  25.781  32.346  1.00  0.00    -0.014 A 
ATOM     88  C   UNL A   1      46.956  24.953  33.479  1.00  0.00     0.009 A 
ATOM     89  C   UNL A   1      48.204  26.007  31.694  1.00  0.00     0.009 A 
ATOM     90  C   UNL A   1      48.137  24.397  33.973  1.00  0.00     0.001 A 
ATOM     91  C   UNL A   1      49.379  25.429  32.176  1.00  0.00     0.001 A 
ATOM     92  C   UNL A   1      49.347  24.634  33.321  1.00  0.00     0.000 A 
ENDBRANCH  74  87
ENDBRANCH  48  49
ENDBRANCH  40  43
ENDBRANCH  38  39
ENDBRANCH  37  38
ENDBRANCH  36  37
ENDBRANCH  35  36
ENDBRANCH  34  35
ENDBRANCH   1  34
TORSDOF 19
ENDMDL
