MODEL 1
REMARK VINA RESULT:     -11.0      0.000      0.000
REMARK SMILES COc1cc(OC(F)(F)F)cc2c1O[C@@H](C(F)(F)F)C(C(=O)NCCCCCCNC(=O)c1ccc(-c3c4nc(c(-c5ccccc5)c5ccc([nH]5)c(-c5ccccc5)c5nc(c(-c6ccccc6)c6ccc3[nH]6)C=C5)C=C4)cc1)=C2
REMARK SMILES IDX 26 1 25 2 24 3 23 4 21 5 22 6 20 8 3 9 4 10 13 11 5 12 12 13
REMARK SMILES IDX 14 14 11 15 81 16 15 17 2 18 1 19 6 20 7 21 8 22 9 23 10 24
REMARK SMILES IDX 16 25 17 26 18 27 19 28 27 29 28 30 29 31 30 32 31 33 32 35
REMARK SMILES IDX 33 36 34 37 80 38 35 39 79 40 36 41 37 42 38 43 73 44 39 45
REMARK SMILES IDX 78 46 72 47 74 48 40 49 77 50 71 51 70 52 41 54 63 55 48 56
REMARK SMILES IDX 62 57 49 58 52 59 61 60 75 61 50 62 51 63 60 65 76 66 53 67
REMARK SMILES IDX 42 68 43 69 47 70 44 71 46 72 45 73 64 74 65 75 69 76 66 77
REMARK SMILES IDX 68 78 67 79 54 80 55 81 59 82 56 83 58 84 57 85
REMARK H PARENT 23 7 30 34 74 53 52 64
REMARK Flexibility Score: inf
ROOT
ATOM      1  C   UNL A   1      40.413  22.087  27.102  1.00  0.00     0.002 C 
ENDROOT
BRANCH   1   2
ATOM      2  C   UNL A   1      39.342  22.971  26.447  1.00  0.00     0.021 C 
BRANCH   2   3
ATOM      3  C   UNL A   1      38.095  22.182  26.026  1.00  0.00     0.116 C 
BRANCH   3   4
ATOM      4  N   UNL A   1      37.767  22.513  24.651  1.00  0.00    -0.352 N 
ATOM      5  C   UNL A   1      36.611  22.878  24.044  1.00  0.00     0.251 C 
ATOM      6  O   UNL A   1      36.566  22.825  22.818  1.00  0.00    -0.270 OA
ATOM      7  H   UNL A   1      38.536  22.461  24.038  1.00  0.00     0.163 HD
BRANCH   5   8
ATOM      8  C   UNL A   1      35.444  23.423  24.788  1.00  0.00     0.067 C 
ATOM      9  C   UNL A   1      31.890  24.613  26.691  1.00  0.00     0.165 A 
ATOM     10  C   UNL A   1      31.487  25.953  26.631  1.00  0.00     0.097 A 
ATOM     11  C   UNL A   1      33.082  24.203  26.081  1.00  0.00     0.170 A 
ATOM     12  C   UNL A   1      32.294  26.900  26.003  1.00  0.00     0.134 A 
ATOM     13  C   UNL A   1      33.909  25.150  25.484  1.00  0.00     0.025 A 
ATOM     14  O   UNL A   1      33.339  22.867  25.995  1.00  0.00    -0.471 OA
ATOM     15  C   UNL A   1      33.513  26.494  25.449  1.00  0.00     0.059 A 
ATOM     16  C   UNL A   1      35.128  24.726  24.809  1.00  0.00     0.026 C 
ATOM     17  C   UNL A   1      34.689  22.435  25.673  1.00  0.00     0.314 C 
BRANCH   9  18
ATOM     18  O   UNL A   1      31.015  23.761  27.318  1.00  0.00    -0.493 OA
ATOM     19  C   UNL A   1      30.009  23.254  26.441  1.00  0.00     0.278 C 
ENDBRANCH   9  18
BRANCH  12  20
ATOM     20  O   UNL A   1      32.020  28.228  25.844  1.00  0.00    -0.406 OA
BRANCH  20  21
ATOM     21  C   UNL A   1      31.351  28.632  24.661  1.00  0.00     0.573 C 
ATOM     22  F   UNL A   1      32.217  28.790  23.638  1.00  0.00    -0.132 F 
ATOM     23  F   UNL A   1      30.399  27.740  24.318  1.00  0.00    -0.132 F 
ATOM     24  F   UNL A   1      30.751  29.820  24.891  1.00  0.00    -0.132 F 
ENDBRANCH  20  21
ENDBRANCH  12  20
BRANCH  17  25
ATOM     25  C   UNL A   1      34.585  20.970  25.185  1.00  0.00     0.429 C 
ATOM     26  F   UNL A   1      33.647  20.262  25.851  1.00  0.00    -0.167 F 
ATOM     27  F   UNL A   1      34.204  20.925  23.878  1.00  0.00    -0.167 F 
ATOM     28  F   UNL A   1      35.762  20.310  25.270  1.00  0.00    -0.167 F 
ENDBRANCH  17  25
ENDBRANCH   5   8
ENDBRANCH   3   4
ENDBRANCH   2   3
ENDBRANCH   1   2
BRANCH   1  29
ATOM     29  C   UNL A   1      41.460  21.532  26.130  1.00  0.00     0.002 C 
BRANCH  29  30
ATOM     30  C   UNL A   1      41.437  20.011  25.966  1.00  0.00     0.021 C 
BRANCH  30  31
ATOM     31  C   UNL A   1      42.723  19.322  26.411  1.00  0.00     0.116 C 
BRANCH  31  32
ATOM     32  N   UNL A   1      43.547  18.945  25.272  1.00  0.00    -0.352 N 
ATOM     33  C   UNL A   1      44.308  19.740  24.453  1.00  0.00     0.251 C 
ATOM     34  H   UNL A   1      43.559  17.984  25.060  1.00  0.00     0.163 HD
ATOM     35  O   UNL A   1      44.736  19.307  23.390  1.00  0.00    -0.269 OA
BRANCH  33  36
ATOM     36  C   UNL A   1      44.600  21.130  24.857  1.00  0.00     0.039 A 
ATOM     37  C   UNL A   1      44.280  22.173  23.985  1.00  0.00     0.014 A 
ATOM     38  C   UNL A   1      45.192  21.399  26.094  1.00  0.00     0.014 A 
ATOM     39  C   UNL A   1      44.497  23.493  24.382  1.00  0.00     0.010 A 
ATOM     40  C   UNL A   1      45.342  22.715  26.516  1.00  0.00     0.010 A 
ATOM     41  C   UNL A   1      44.997  23.775  25.664  1.00  0.00    -0.014 A 
BRANCH  41  42
ATOM     42  C   UNL A   1      45.146  25.172  26.140  1.00  0.00     0.031 A 
ATOM     43  C   UNL A   1      46.489  25.846  26.105  1.00  0.00     0.074 A 
ATOM     44  C   UNL A   1      44.082  25.808  26.668  1.00  0.00     0.049 A 
ATOM     45  N   UNL A   1      46.823  27.040  26.528  1.00  0.00    -0.248 NA
ATOM     46  C   UNL A   1      47.608  25.071  25.547  1.00  0.00     0.031 C 
ATOM     47  C   UNL A   1      42.734  25.248  26.789  1.00  0.00     0.029 A 
ATOM     48  N   UNL A   1      43.970  27.064  27.206  1.00  0.00    -0.354 N 
ATOM     49  C   UNL A   1      48.189  27.151  26.302  1.00  0.00     0.074 A 
ATOM     50  C   UNL A   1      48.631  25.889  25.750  1.00  0.00     0.031 C 
ATOM     51  C   UNL A   1      41.924  26.170  27.333  1.00  0.00     0.029 A 
ATOM     52  C   UNL A   1      42.702  27.364  27.643  1.00  0.00     0.049 A 
ATOM     53  H   UNL A   1      44.726  27.692  27.274  1.00  0.00     0.167 HD
ATOM     54  C   UNL A   1      49.000  28.213  26.521  1.00  0.00     0.031 A 
ATOM     55  C   UNL A   1      42.221  28.474  28.233  1.00  0.00     0.031 A 
ATOM     56  C   UNL A   1      48.556  29.469  27.065  1.00  0.00     0.049 A 
ATOM     57  C   UNL A   1      43.150  29.627  28.493  1.00  0.00     0.074 A 
ATOM     58  C   UNL A   1      49.287  30.629  27.261  1.00  0.00     0.029 A 
ATOM     59  N   UNL A   1      47.268  29.728  27.506  1.00  0.00    -0.354 N 
ATOM     60  N   UNL A   1      44.423  29.744  28.204  1.00  0.00    -0.248 NA
ATOM     61  C   UNL A   1      42.571  30.802  29.160  1.00  0.00     0.031 C 
ATOM     62  C   UNL A   1      48.456  31.568  27.880  1.00  0.00     0.029 A 
ATOM     63  C   UNL A   1      47.192  31.016  28.011  1.00  0.00     0.049 A 
ATOM     64  H   UNL A   1      46.519  29.090  27.467  1.00  0.00     0.167 HD
ATOM     65  C   UNL A   1      44.791  31.015  28.625  1.00  0.00     0.074 A 
ATOM     66  C   UNL A   1      43.603  31.634  29.176  1.00  0.00     0.031 C 
ATOM     67  C   UNL A   1      46.004  31.616  28.561  1.00  0.00     0.031 A 
BRANCH  54  68
ATOM     68  C   UNL A   1      50.458  28.054  26.190  1.00  0.00    -0.014 A 
ATOM     69  C   UNL A   1      50.958  28.365  24.915  1.00  0.00     0.009 A 
ATOM     70  C   UNL A   1      51.354  27.623  27.181  1.00  0.00     0.009 A 
ATOM     71  C   UNL A   1      52.316  28.211  24.629  1.00  0.00     0.001 A 
ATOM     72  C   UNL A   1      52.717  27.499  26.903  1.00  0.00     0.001 A 
ATOM     73  C   UNL A   1      53.194  27.784  25.625  1.00  0.00     0.000 A 
ENDBRANCH  54  68
BRANCH  55  74
ATOM     74  C   UNL A   1      40.784  28.558  28.606  1.00  0.00    -0.014 A 
ATOM     75  C   UNL A   1      40.347  28.088  29.854  1.00  0.00     0.009 A 
ATOM     76  C   UNL A   1      39.843  29.101  27.719  1.00  0.00     0.009 A 
ATOM     77  C   UNL A   1      38.994  28.136  30.195  1.00  0.00     0.001 A 
ATOM     78  C   UNL A   1      38.494  29.176  28.074  1.00  0.00     0.001 A 
ATOM     79  C   UNL A   1      38.069  28.683  29.307  1.00  0.00     0.000 A 
ENDBRANCH  55  74
BRANCH  67  80
ATOM     80  C   UNL A   1      46.101  33.025  29.074  1.00  0.00    -0.014 A 
ATOM     81  C   UNL A   1      46.464  33.295  30.403  1.00  0.00     0.009 A 
ATOM     82  C   UNL A   1      45.866  34.099  28.202  1.00  0.00     0.009 A 
ATOM     83  C   UNL A   1      46.557  34.613  30.855  1.00  0.00     0.001 A 
ATOM     84  C   UNL A   1      45.991  35.416  28.648  1.00  0.00     0.001 A 
ATOM     85  C   UNL A   1      46.327  35.671  29.976  1.00  0.00     0.000 A 
ENDBRANCH  67  80
ENDBRANCH  41  42
ENDBRANCH  33  36
ENDBRANCH  31  32
ENDBRANCH  30  31
ENDBRANCH  29  30
ENDBRANCH   1  29
TORSDOF 17
ENDMDL
MODEL 2
REMARK VINA RESULT:     -10.9      5.009     10.175
REMARK SMILES COc1cc(OC(F)(F)F)cc2c1O[C@@H](C(F)(F)F)C(C(=O)NCCCCCCNC(=O)c1ccc(-c3c4nc(c(-c5ccccc5)c5ccc([nH]5)c(-c5ccccc5)c5nc(c(-c6ccccc6)c6ccc3[nH]6)C=C5)C=C4)cc1)=C2
REMARK SMILES IDX 26 1 25 2 24 3 23 4 21 5 22 6 20 8 3 9 4 10 13 11 5 12 12 13
REMARK SMILES IDX 14 14 11 15 81 16 15 17 2 18 1 19 6 20 7 21 8 22 9 23 10 24
REMARK SMILES IDX 16 25 17 26 18 27 19 28 27 29 28 30 29 31 30 32 31 33 32 35
REMARK SMILES IDX 33 36 34 37 80 38 35 39 79 40 36 41 37 42 38 43 73 44 39 45
REMARK SMILES IDX 78 46 72 47 74 48 40 49 77 50 71 51 70 52 41 54 63 55 48 56
REMARK SMILES IDX 62 57 49 58 52 59 61 60 75 61 50 62 51 63 60 65 76 66 53 67
REMARK SMILES IDX 42 68 43 69 47 70 44 71 46 72 45 73 64 74 65 75 69 76 66 77
REMARK SMILES IDX 68 78 67 79 54 80 55 81 59 82 56 83 58 84 57 85
REMARK H PARENT 23 7 30 34 74 53 52 64
REMARK Flexibility Score: inf
ROOT
ATOM      1  C   UNL A   1      32.085  29.703  27.172  1.00  0.00     0.002 C 
ENDROOT
BRANCH   1   2
ATOM      2  C   UNL A   1      32.141  28.229  26.745  1.00  0.00     0.021 C 
BRANCH   2   3
ATOM      3  C   UNL A   1      33.450  27.866  26.031  1.00  0.00     0.116 C 
BRANCH   3   4
ATOM      4  N   UNL A   1      33.257  27.991  24.597  1.00  0.00    -0.352 N 
ATOM      5  C   UNL A   1      33.437  27.126  23.567  1.00  0.00     0.251 C 
ATOM      6  O   UNL A   1      33.463  27.589  22.430  1.00  0.00    -0.270 OA
ATOM      7  H   UNL A   1      32.933  28.877  24.318  1.00  0.00     0.163 HD
BRANCH   5   8
ATOM      8  C   UNL A   1      33.506  25.653  23.751  1.00  0.00     0.067 C 
ATOM      9  C   UNL A   1      33.282  21.521  24.494  1.00  0.00     0.165 A 
ATOM     10  C   UNL A   1      34.373  20.861  25.074  1.00  0.00     0.097 A 
ATOM     11  C   UNL A   1      33.348  22.893  24.220  1.00  0.00     0.170 A 
ATOM     12  C   UNL A   1      35.551  21.556  25.339  1.00  0.00     0.134 A 
ATOM     13  C   UNL A   1      34.534  23.584  24.450  1.00  0.00     0.025 A 
ATOM     14  O   UNL A   1      32.205  23.532  23.839  1.00  0.00    -0.471 OA
ATOM     15  C   UNL A   1      35.631  22.913  25.007  1.00  0.00     0.059 A 
ATOM     16  C   UNL A   1      34.595  25.019  24.209  1.00  0.00     0.026 C 
ATOM     17  C   UNL A   1      32.311  24.854  23.242  1.00  0.00     0.314 C 
BRANCH   9  18
ATOM     18  O   UNL A   1      32.167  20.748  24.289  1.00  0.00    -0.493 OA
ATOM     19  C   UNL A   1      32.471  19.470  23.732  1.00  0.00     0.278 C 
ENDBRANCH   9  18
BRANCH  12  20
ATOM     20  O   UNL A   1      36.680  21.055  25.923  1.00  0.00    -0.406 OA
BRANCH  20  21
ATOM     21  C   UNL A   1      37.721  20.599  25.075  1.00  0.00     0.573 C 
ATOM     22  F   UNL A   1      37.776  19.252  25.048  1.00  0.00    -0.132 F 
ATOM     23  F   UNL A   1      37.564  21.075  23.822  1.00  0.00    -0.132 F 
ATOM     24  F   UNL A   1      38.897  21.057  25.556  1.00  0.00    -0.132 F 
ENDBRANCH  20  21
ENDBRANCH  12  20
BRANCH  17  25
ATOM     25  C   UNL A   1      30.912  25.507  23.354  1.00  0.00     0.429 C 
ATOM     26  F   UNL A   1      30.689  26.435  22.397  1.00  0.00    -0.167 F 
ATOM     27  F   UNL A   1      29.932  24.576  23.181  1.00  0.00    -0.167 F 
ATOM     28  F   UNL A   1      30.700  26.076  24.561  1.00  0.00    -0.167 F 
ENDBRANCH  17  25
ENDBRANCH   5   8
ENDBRANCH   3   4
ENDBRANCH   2   3
ENDBRANCH   1   2
BRANCH   1  29
ATOM     29  C   UNL A   1      31.466  30.643  26.132  1.00  0.00     0.002 C 
BRANCH  29  30
ATOM     30  C   UNL A   1      31.378  32.108  26.568  1.00  0.00     0.021 C 
BRANCH  30  31
ATOM     31  C   UNL A   1      32.625  32.616  27.283  1.00  0.00     0.116 C 
BRANCH  31  32
ATOM     32  N   UNL A   1      32.474  34.001  27.699  1.00  0.00    -0.352 N 
ATOM     33  C   UNL A   1      33.161  34.697  28.661  1.00  0.00     0.251 C 
ATOM     34  H   UNL A   1      31.780  34.512  27.222  1.00  0.00     0.163 HD
ATOM     35  O   UNL A   1      32.745  35.776  29.065  1.00  0.00    -0.269 OA
BRANCH  33  36
ATOM     36  C   UNL A   1      34.407  34.130  29.217  1.00  0.00     0.039 A 
ATOM     37  C   UNL A   1      34.344  33.368  30.386  1.00  0.00     0.014 A 
ATOM     38  C   UNL A   1      35.632  34.354  28.583  1.00  0.00     0.014 A 
ATOM     39  C   UNL A   1      35.505  32.779  30.886  1.00  0.00     0.010 A 
ATOM     40  C   UNL A   1      36.775  33.709  29.042  1.00  0.00     0.010 A 
ATOM     41  C   UNL A   1      36.723  32.915  30.198  1.00  0.00    -0.014 A 
BRANCH  41  42
ATOM     42  C   UNL A   1      37.948  32.219  30.661  1.00  0.00     0.031 A 
ATOM     43  C   UNL A   1      38.796  32.816  31.748  1.00  0.00     0.074 A 
ATOM     44  C   UNL A   1      38.333  31.081  30.050  1.00  0.00     0.049 A 
ATOM     45  N   UNL A   1      39.928  32.381  32.244  1.00  0.00    -0.248 NA
ATOM     46  C   UNL A   1      38.327  34.080  32.339  1.00  0.00     0.031 C 
ATOM     47  C   UNL A   1      37.614  30.420  28.959  1.00  0.00     0.029 A 
ATOM     48  N   UNL A   1      39.428  30.282  30.258  1.00  0.00    -0.354 N 
ATOM     49  C   UNL A   1      40.311  33.324  33.190  1.00  0.00     0.074 A 
ATOM     50  C   UNL A   1      39.320  34.377  33.166  1.00  0.00     0.031 C 
ATOM     51  C   UNL A   1      38.268  29.299  28.618  1.00  0.00     0.029 A 
ATOM     52  C   UNL A   1      39.475  29.187  29.430  1.00  0.00     0.049 A 
ATOM     53  H   UNL A   1      40.116  30.475  30.936  1.00  0.00     0.167 HD
ATOM     54  C   UNL A   1      41.386  33.307  34.014  1.00  0.00     0.031 A 
ATOM     55  C   UNL A   1      40.392  28.206  29.331  1.00  0.00     0.031 A 
ATOM     56  C   UNL A   1      42.368  32.256  34.040  1.00  0.00     0.049 A 
ATOM     57  C   UNL A   1      41.591  28.228  30.237  1.00  0.00     0.074 A 
ATOM     58  C   UNL A   1      43.454  32.114  34.886  1.00  0.00     0.029 A 
ATOM     59  N   UNL A   1      42.387  31.172  33.176  1.00  0.00    -0.354 N 
ATOM     60  N   UNL A   1      41.899  29.086  31.178  1.00  0.00    -0.248 NA
ATOM     61  C   UNL A   1      42.566  27.142  30.066  1.00  0.00     0.031 C 
ATOM     62  C   UNL A   1      44.167  30.976  34.491  1.00  0.00     0.029 A 
ATOM     63  C   UNL A   1      43.489  30.376  33.443  1.00  0.00     0.049 A 
ATOM     64  H   UNL A   1      41.717  30.994  32.478  1.00  0.00     0.167 HD
ATOM     65  C   UNL A   1      43.087  28.629  31.732  1.00  0.00     0.074 A 
ATOM     66  C   UNL A   1      43.435  27.410  31.031  1.00  0.00     0.031 C 
ATOM     67  C   UNL A   1      43.825  29.170  32.733  1.00  0.00     0.031 A 
BRANCH  54  68
ATOM     68  C   UNL A   1      41.565  34.475  34.945  1.00  0.00    -0.014 A 
ATOM     69  C   UNL A   1      42.341  35.588  34.582  1.00  0.00     0.009 A 
ATOM     70  C   UNL A   1      40.914  34.480  36.188  1.00  0.00     0.009 A 
ATOM     71  C   UNL A   1      42.494  36.662  35.462  1.00  0.00     0.001 A 
ATOM     72  C   UNL A   1      41.042  35.569  37.053  1.00  0.00     0.001 A 
ATOM     73  C   UNL A   1      41.840  36.654  36.693  1.00  0.00     0.000 A 
ENDBRANCH  54  68
BRANCH  55  74
ATOM     74  C   UNL A   1      40.205  27.108  28.346  1.00  0.00    -0.014 A 
ATOM     75  C   UNL A   1      39.487  25.955  28.697  1.00  0.00     0.009 A 
ATOM     76  C   UNL A   1      40.746  27.203  27.055  1.00  0.00     0.009 A 
ATOM     77  C   UNL A   1      39.337  24.909  27.784  1.00  0.00     0.001 A 
ATOM     78  C   UNL A   1      40.569  26.168  26.134  1.00  0.00     0.001 A 
ATOM     79  C   UNL A   1      39.874  25.017  26.502  1.00  0.00     0.000 A 
ENDBRANCH  55  74
BRANCH  67  80
ATOM     80  C   UNL A   1      45.066  28.431  33.148  1.00  0.00    -0.014 A 
ATOM     81  C   UNL A   1      46.316  28.728  32.583  1.00  0.00     0.009 A 
ATOM     82  C   UNL A   1      44.988  27.452  34.151  1.00  0.00     0.009 A 
ATOM     83  C   UNL A   1      47.457  28.035  32.991  1.00  0.00     0.001 A 
ATOM     84  C   UNL A   1      46.136  26.783  34.579  1.00  0.00     0.001 A 
ATOM     85  C   UNL A   1      47.367  27.069  33.993  1.00  0.00     0.000 A 
ENDBRANCH  67  80
ENDBRANCH  41  42
ENDBRANCH  33  36
ENDBRANCH  31  32
ENDBRANCH  30  31
ENDBRANCH  29  30
ENDBRANCH   1  29
TORSDOF 17
ENDMDL
MODEL 3
REMARK VINA RESULT:     -10.8      0.325      5.713
REMARK SMILES COc1cc(OC(F)(F)F)cc2c1O[C@@H](C(F)(F)F)C(C(=O)NCCCCCCNC(=O)c1ccc(-c3c4nc(c(-c5ccccc5)c5ccc([nH]5)c(-c5ccccc5)c5nc(c(-c6ccccc6)c6ccc3[nH]6)C=C5)C=C4)cc1)=C2
REMARK SMILES IDX 26 1 25 2 24 3 23 4 21 5 22 6 20 8 3 9 4 10 13 11 5 12 12 13
REMARK SMILES IDX 14 14 11 15 81 16 15 17 2 18 1 19 6 20 7 21 8 22 9 23 10 24
REMARK SMILES IDX 16 25 17 26 18 27 19 28 27 29 28 30 29 31 30 32 31 33 32 35
REMARK SMILES IDX 33 36 34 37 80 38 35 39 79 40 36 41 37 42 38 43 73 44 39 45
REMARK SMILES IDX 78 46 72 47 74 48 40 49 77 50 71 51 70 52 41 54 63 55 48 56
REMARK SMILES IDX 62 57 49 58 52 59 61 60 75 61 50 62 51 63 60 65 76 66 53 67
REMARK SMILES IDX 42 68 43 69 47 70 44 71 46 72 45 73 64 74 65 75 69 76 66 77
REMARK SMILES IDX 68 78 67 79 54 80 55 81 59 82 56 83 58 84 57 85
REMARK H PARENT 23 7 30 34 74 53 52 64
REMARK Flexibility Score: inf
ROOT
ATOM      1  C   UNL A   1      40.456  22.270  27.109  1.00  0.00     0.002 C 
ENDROOT
BRANCH   1   2
ATOM      2  C   UNL A   1      39.340  23.081  26.434  1.00  0.00     0.021 C 
BRANCH   2   3
ATOM      3  C   UNL A   1      38.140  22.217  26.026  1.00  0.00     0.116 C 
BRANCH   3   4
ATOM      4  N   UNL A   1      37.786  22.519  24.650  1.00  0.00    -0.352 N 
ATOM      5  C   UNL A   1      36.613  22.855  24.056  1.00  0.00     0.251 C 
ATOM      6  O   UNL A   1      36.550  22.780  22.832  1.00  0.00    -0.270 OA
ATOM      7  H   UNL A   1      38.545  22.470  24.027  1.00  0.00     0.163 HD
BRANCH   5   8
ATOM      8  C   UNL A   1      35.450  23.393  24.809  1.00  0.00     0.067 C 
ATOM      9  C   UNL A   1      31.902  24.566  26.735  1.00  0.00     0.165 A 
ATOM     10  C   UNL A   1      31.502  25.907  26.693  1.00  0.00     0.097 A 
ATOM     11  C   UNL A   1      33.092  24.161  26.117  1.00  0.00     0.170 A 
ATOM     12  C   UNL A   1      32.310  26.861  26.076  1.00  0.00     0.134 A 
ATOM     13  C   UNL A   1      33.920  25.114  25.531  1.00  0.00     0.025 A 
ATOM     14  O   UNL A   1      33.345  22.825  26.013  1.00  0.00    -0.471 OA
ATOM     15  C   UNL A   1      33.527  26.459  25.514  1.00  0.00     0.059 A 
ATOM     16  C   UNL A   1      35.137  24.696  24.848  1.00  0.00     0.026 C 
ATOM     17  C   UNL A   1      34.694  22.395  25.683  1.00  0.00     0.314 C 
BRANCH   9  18
ATOM     18  O   UNL A   1      31.026  23.708  27.352  1.00  0.00    -0.493 OA
ATOM     19  C   UNL A   1      30.001  23.237  26.477  1.00  0.00     0.278 C 
ENDBRANCH   9  18
BRANCH  12  20
ATOM     20  O   UNL A   1      32.039  28.192  25.935  1.00  0.00    -0.406 OA
BRANCH  20  21
ATOM     21  C   UNL A   1      31.398  28.617  24.744  1.00  0.00     0.573 C 
ATOM     22  F   UNL A   1      32.262  28.654  23.709  1.00  0.00    -0.132 F 
ATOM     23  F   UNL A   1      30.359  27.810  24.442  1.00  0.00    -0.132 F 
ATOM     24  F   UNL A   1      30.919  29.865  24.937  1.00  0.00    -0.132 F 
ENDBRANCH  20  21
ENDBRANCH  12  20
BRANCH  17  25
ATOM     25  C   UNL A   1      34.586  20.937  25.176  1.00  0.00     0.429 C 
ATOM     26  F   UNL A   1      33.692  20.204  25.876  1.00  0.00    -0.167 F 
ATOM     27  F   UNL A   1      34.140  20.908  23.889  1.00  0.00    -0.167 F 
ATOM     28  F   UNL A   1      35.774  20.293  25.190  1.00  0.00    -0.167 F 
ENDBRANCH  17  25
ENDBRANCH   5   8
ENDBRANCH   3   4
ENDBRANCH   2   3
ENDBRANCH   1   2
BRANCH   1  29
ATOM     29  C   UNL A   1      41.508  21.713  26.144  1.00  0.00     0.002 C 
BRANCH  29  30
ATOM     30  C   UNL A   1      41.496  20.189  25.997  1.00  0.00     0.021 C 
BRANCH  30  31
ATOM     31  C   UNL A   1      42.822  19.524  26.347  1.00  0.00     0.116 C 
BRANCH  31  32
ATOM     32  N   UNL A   1      43.572  19.169  25.152  1.00  0.00    -0.352 N 
ATOM     33  C   UNL A   1      44.324  19.971  24.331  1.00  0.00     0.251 C 
ATOM     34  H   UNL A   1      43.535  18.219  24.897  1.00  0.00     0.163 HD
ATOM     35  O   UNL A   1      44.681  19.572  23.230  1.00  0.00    -0.269 OA
BRANCH  33  36
ATOM     36  C   UNL A   1      44.693  21.329  24.782  1.00  0.00     0.039 A 
ATOM     37  C   UNL A   1      44.361  22.424  23.981  1.00  0.00     0.014 A 
ATOM     38  C   UNL A   1      45.367  21.515  25.992  1.00  0.00     0.014 A 
ATOM     39  C   UNL A   1      44.653  23.714  24.425  1.00  0.00     0.010 A 
ATOM     40  C   UNL A   1      45.592  22.803  26.465  1.00  0.00     0.010 A 
ATOM     41  C   UNL A   1      45.237  23.915  25.686  1.00  0.00    -0.014 A 
BRANCH  41  42
ATOM     42  C   UNL A   1      45.468  25.280  26.217  1.00  0.00     0.031 A 
ATOM     43  C   UNL A   1      44.329  26.073  26.794  1.00  0.00     0.074 A 
ATOM     44  C   UNL A   1      46.693  25.831  26.116  1.00  0.00     0.049 A 
ATOM     45  N   UNL A   1      44.329  27.299  27.256  1.00  0.00    -0.248 NA
ATOM     46  C   UNL A   1      43.014  25.414  26.837  1.00  0.00     0.031 C 
ATOM     47  C   UNL A   1      47.872  25.176  25.544  1.00  0.00     0.029 A 
ATOM     48  N   UNL A   1      47.149  27.070  26.486  1.00  0.00    -0.354 N 
ATOM     49  C   UNL A   1      43.015  27.561  27.626  1.00  0.00     0.074 A 
ATOM     50  C   UNL A   1      42.239  26.388  27.292  1.00  0.00     0.031 C 
ATOM     51  C   UNL A   1      48.922  26.007  25.634  1.00  0.00     0.029 A 
ATOM     52  C   UNL A   1      48.483  27.267  26.223  1.00  0.00     0.049 A 
ATOM     53  H   UNL A   1      46.575  27.755  26.901  1.00  0.00     0.167 HD
ATOM     54  C   UNL A   1      42.505  28.675  28.204  1.00  0.00     0.031 A 
ATOM     55  C   UNL A   1      49.264  28.345  26.427  1.00  0.00     0.031 A 
ATOM     56  C   UNL A   1      43.282  29.838  28.540  1.00  0.00     0.049 A 
ATOM     57  C   UNL A   1      48.665  29.578  27.042  1.00  0.00     0.074 A 
ATOM     58  C   UNL A   1      42.870  30.989  29.190  1.00  0.00     0.029 A 
ATOM     59  N   UNL A   1      44.626  30.003  28.245  1.00  0.00    -0.354 N 
ATOM     60  N   UNL A   1      47.439  29.783  27.456  1.00  0.00    -0.248 NA
ATOM     61  C   UNL A   1      49.562  30.729  27.220  1.00  0.00     0.031 C 
ATOM     62  C   UNL A   1      43.951  31.876  29.231  1.00  0.00     0.029 A 
ATOM     63  C   UNL A   1      45.051  31.253  28.665  1.00  0.00     0.049 A 
ATOM     64  H   UNL A   1      45.193  29.332  27.802  1.00  0.00     0.167 HD
ATOM     65  C   UNL A   1      47.423  31.073  27.970  1.00  0.00     0.074 A 
ATOM     66  C   UNL A   1      48.766  31.596  27.829  1.00  0.00     0.031 C 
ATOM     67  C   UNL A   1      46.389  31.762  28.511  1.00  0.00     0.031 A 
BRANCH  54  68
ATOM     68  C   UNL A   1      41.029  28.693  28.492  1.00  0.00    -0.014 A 
ATOM     69  C   UNL A   1      40.105  29.179  27.553  1.00  0.00     0.009 A 
ATOM     70  C   UNL A   1      40.551  28.179  29.708  1.00  0.00     0.009 A 
ATOM     71  C   UNL A   1      38.739  29.185  27.841  1.00  0.00     0.001 A 
ATOM     72  C   UNL A   1      39.182  28.157  29.982  1.00  0.00     0.001 A 
ATOM     73  C   UNL A   1      38.279  28.670  29.053  1.00  0.00     0.000 A 
ENDBRANCH  54  68
BRANCH  55  74
ATOM     74  C   UNL A   1      50.704  28.302  26.061  1.00  0.00    -0.014 A 
ATOM     75  C   UNL A   1      51.112  28.599  24.752  1.00  0.00     0.009 A 
ATOM     76  C   UNL A   1      51.677  27.960  27.013  1.00  0.00     0.009 A 
ATOM     77  C   UNL A   1      52.460  28.529  24.396  1.00  0.00     0.001 A 
ATOM     78  C   UNL A   1      53.029  27.920  26.662  1.00  0.00     0.001 A 
ATOM     79  C   UNL A   1      53.418  28.194  25.352  1.00  0.00     0.000 A 
ENDBRANCH  55  74
BRANCH  67  80
ATOM     80  C   UNL A   1      46.677  33.148  29.017  1.00  0.00    -0.014 A 
ATOM     81  C   UNL A   1      46.435  34.280  28.223  1.00  0.00     0.009 A 
ATOM     82  C   UNL A   1      47.158  33.324  30.324  1.00  0.00     0.009 A 
ATOM     83  C   UNL A   1      46.701  35.558  28.718  1.00  0.00     0.001 A 
ATOM     84  C   UNL A   1      47.392  34.604  30.827  1.00  0.00     0.001 A 
ATOM     85  C   UNL A   1      47.173  35.719  30.021  1.00  0.00     0.000 A 
ENDBRANCH  67  80
ENDBRANCH  41  42
ENDBRANCH  33  36
ENDBRANCH  31  32
ENDBRANCH  30  31
ENDBRANCH  29  30
ENDBRANCH   1  29
TORSDOF 17
ENDMDL
