MODEL 1
REMARK VINA RESULT:     -11.9      0.000      0.000
REMARK SMILES NC(=O)[C@@H]1CCC[N@@H+]1[C@@H](C(=O)NCCCCCCNC(=O)c1ccc(-c2c3nc(c(-c4ccccc4)c4ccc([nH]4)c(-c4ccccc4)c4nc(c(-c5ccccc5)c5ccc2[nH]5)C=C4)C=C3)cc1)c1c[nH]c2cc(OCc3ccccc3)ccc12
REMARK SMILES IDX 14 1 13 2 12 3 10 4 11 5 9 7 8 8 4 9 5 10 6 11 7 12 2 14
REMARK SMILES IDX 1 15 3 18 70 19 71 20 86 21 72 22 73 23 85 24 74 26 84 27
REMARK SMILES IDX 75 28 76 29 77 30 78 31 79 32 83 33 80 34 82 35 81 36 15 37
REMARK SMILES IDX 16 38 17 39 18 40 19 41 20 42 21 44 22 45 23 46 69 47 24 48
REMARK SMILES IDX 68 49 25 50 26 51 27 52 62 53 28 54 67 55 61 56 63 57 29 58
REMARK SMILES IDX 66 59 60 60 59 61 30 63 52 64 37 65 51 66 38 67 41 68 50 69
REMARK SMILES IDX 64 70 39 71 40 72 49 74 65 75 42 76 31 77 32 78 36 79 33 80
REMARK SMILES IDX 35 81 34 82 53 83 54 84 58 85 55 86 57 87 56 88 43 89 44 90
REMARK SMILES IDX 48 91 45 92 47 93 46 94
REMARK H PARENT 12 6 8 13 1 16 1 17 72 25 19 43 63 62 41 73
REMARK Flexibility Score: inf
ROOT
ATOM      1  C   UNL A   1      35.358  22.561  26.009  1.00  0.00     0.021 C 
ENDROOT
BRANCH   1   2
ATOM      2  C   UNL A   1      34.715  23.927  25.709  1.00  0.00     0.116 C 
BRANCH   2   3
ATOM      3  N   UNL A   1      33.458  24.138  26.403  1.00  0.00    -0.351 N 
ATOM      4  C   UNL A   1      32.438  25.046  26.386  1.00  0.00     0.283 C 
ATOM      5  O   UNL A   1      31.570  24.751  27.218  1.00  0.00    -0.268 OA
ATOM      6  H   UNL A   1      33.295  23.431  27.069  1.00  0.00     0.163 HD
BRANCH   4   7
ATOM      7  C   UNL A   1      32.295  26.256  25.390  1.00  0.00     0.308 C 
BRANCH   7   8
ATOM      8  N   UNL A   1      31.588  27.538  25.870  1.00  0.00    -0.311 N 
ATOM      9  C   UNL A   1      31.996  28.872  25.358  1.00  0.00     0.275 C 
ATOM     10  C   UNL A   1      33.245  29.247  26.156  1.00  0.00     0.081 C 
ATOM     11  C   UNL A   1      33.017  28.578  27.503  1.00  0.00     0.068 C 
ATOM     12  C   UNL A   1      31.699  27.864  27.309  1.00  0.00     0.264 C 
ATOM     13  H   UNL A   1      30.686  27.217  25.517  1.00  0.00     0.349 HD
BRANCH   9  14
ATOM     14  C   UNL A   1      31.801  29.193  23.877  1.00  0.00     0.275 C 
ATOM     15  N   UNL A   1      30.620  29.821  23.565  1.00  0.00    -0.365 N 
ATOM     16  H   UNL A   1      30.422  30.061  22.631  1.00  0.00     0.159 HD
ATOM     17  H   UNL A   1      29.973  30.034  24.276  1.00  0.00     0.159 HD
ATOM     18  O   UNL A   1      32.650  29.043  23.037  1.00  0.00    -0.268 OA
ENDBRANCH   9  14
ENDBRANCH   7   8
BRANCH   7  19
ATOM     19  C   UNL A   1      31.627  25.833  23.992  1.00  0.00     0.044 A 
ATOM     20  C   UNL A   1      30.271  25.904  23.675  1.00  0.00     0.094 A 
ATOM     21  C   UNL A   1      32.011  24.756  23.106  1.00  0.00     0.009 A 
ATOM     22  N   UNL A   1      29.873  24.588  23.623  1.00  0.00    -0.361 N 
ATOM     23  C   UNL A   1      30.970  23.842  23.262  1.00  0.00     0.050 A 
ATOM     24  C   UNL A   1      33.148  24.315  22.399  1.00  0.00     0.015 A 
ATOM     25  H   UNL A   1      28.970  24.245  23.809  1.00  0.00     0.166 HD
ATOM     26  C   UNL A   1      31.195  22.470  23.208  1.00  0.00     0.073 A 
ATOM     27  C   UNL A   1      33.314  22.943  22.140  1.00  0.00     0.047 A 
ATOM     28  C   UNL A   1      32.409  22.033  22.672  1.00  0.00     0.121 A 
BRANCH  28  29
ATOM     29  O   UNL A   1      32.686  20.707  22.877  1.00  0.00    -0.489 OA
BRANCH  29  30
ATOM     30  C   UNL A   1      32.355  20.164  24.155  1.00  0.00     0.265 C 
BRANCH  30  31
ATOM     31  C   UNL A   1      32.777  18.717  24.318  1.00  0.00    -0.011 A 
ATOM     32  C   UNL A   1      32.634  18.095  25.563  1.00  0.00     0.007 A 
ATOM     33  C   UNL A   1      33.303  17.963  23.259  1.00  0.00     0.007 A 
ATOM     34  C   UNL A   1      33.066  16.779  25.751  1.00  0.00     0.000 A 
ATOM     35  C   UNL A   1      33.766  16.664  23.451  1.00  0.00     0.000 A 
ATOM     36  C   UNL A   1      33.652  16.074  24.701  1.00  0.00     0.000 A 
ENDBRANCH  30  31
ENDBRANCH  29  30
ENDBRANCH  28  29
ENDBRANCH   7  19
ENDBRANCH   4   7
ENDBRANCH   2   3
ENDBRANCH   1   2
BRANCH   1  37
ATOM     37  C   UNL A   1      35.935  21.826  24.795  1.00  0.00     0.002 C 
BRANCH  37  38
ATOM     38  C   UNL A   1      36.009  20.316  25.013  1.00  0.00     0.002 C 
BRANCH  38  39
ATOM     39  C   UNL A   1      37.381  19.681  24.751  1.00  0.00     0.021 C 
BRANCH  39  40
ATOM     40  C   UNL A   1      38.542  20.333  25.498  1.00  0.00     0.116 C 
BRANCH  40  41
ATOM     41  N   UNL A   1      39.618  19.379  25.724  1.00  0.00    -0.352 N 
ATOM     42  C   UNL A   1      40.924  19.637  26.050  1.00  0.00     0.251 C 
ATOM     43  H   UNL A   1      39.378  18.429  25.632  1.00  0.00     0.163 HD
ATOM     44  O   UNL A   1      41.795  18.782  25.890  1.00  0.00    -0.269 OA
BRANCH  42  45
ATOM     45  C   UNL A   1      41.278  20.955  26.607  1.00  0.00     0.039 A 
ATOM     46  C   UNL A   1      41.277  21.143  27.992  1.00  0.00     0.014 A 
ATOM     47  C   UNL A   1      41.607  22.008  25.748  1.00  0.00     0.014 A 
ATOM     48  C   UNL A   1      41.651  22.381  28.516  1.00  0.00     0.010 A 
ATOM     49  C   UNL A   1      42.043  23.218  26.275  1.00  0.00     0.010 A 
ATOM     50  C   UNL A   1      42.058  23.421  27.662  1.00  0.00    -0.014 A 
BRANCH  50  51
ATOM     51  C   UNL A   1      42.495  24.731  28.203  1.00  0.00     0.031 A 
ATOM     52  C   UNL A   1      41.490  25.828  28.426  1.00  0.00     0.074 A 
ATOM     53  C   UNL A   1      43.803  24.954  28.438  1.00  0.00     0.049 A 
ATOM     54  N   UNL A   1      41.683  27.050  28.850  1.00  0.00    -0.248 NA
ATOM     55  C   UNL A   1      40.087  25.518  28.105  1.00  0.00     0.031 C 
ATOM     56  C   UNL A   1      44.879  23.983  28.224  1.00  0.00     0.029 A 
ATOM     57  N   UNL A   1      44.448  26.070  28.904  1.00  0.00    -0.354 N 
ATOM     58  C   UNL A   1      40.433  27.657  28.833  1.00  0.00     0.074 A 
ATOM     59  C   UNL A   1      39.498  26.687  28.309  1.00  0.00     0.031 C 
ATOM     60  C   UNL A   1      46.047  24.537  28.588  1.00  0.00     0.029 A 
ATOM     61  C   UNL A   1      45.808  25.911  29.019  1.00  0.00     0.049 A 
ATOM     62  H   UNL A   1      43.983  26.906  29.134  1.00  0.00     0.167 HD
ATOM     63  C   UNL A   1      40.091  28.904  29.236  1.00  0.00     0.031 A 
ATOM     64  C   UNL A   1      46.758  26.777  29.422  1.00  0.00     0.031 A 
ATOM     65  C   UNL A   1      41.021  29.866  29.762  1.00  0.00     0.049 A 
ATOM     66  C   UNL A   1      46.353  28.163  29.842  1.00  0.00     0.074 A 
ATOM     67  C   UNL A   1      40.765  31.134  30.254  1.00  0.00     0.029 A 
ATOM     68  N   UNL A   1      42.390  29.667  29.860  1.00  0.00    -0.354 N 
ATOM     69  N   UNL A   1      45.157  28.695  29.894  1.00  0.00    -0.248 NA
ATOM     70  C   UNL A   1      47.433  29.063  30.272  1.00  0.00     0.031 C 
ATOM     71  C   UNL A   1      41.986  31.724  30.595  1.00  0.00     0.029 A 
ATOM     72  C   UNL A   1      42.995  30.800  30.376  1.00  0.00     0.049 A 
ATOM     73  H   UNL A   1      42.861  28.841  29.602  1.00  0.00     0.167 HD
ATOM     74  C   UNL A   1      45.335  29.981  30.388  1.00  0.00     0.074 A 
ATOM     75  C   UNL A   1      46.753  30.141  30.637  1.00  0.00     0.031 C 
ATOM     76  C   UNL A   1      44.408  30.943  30.616  1.00  0.00     0.031 A 
BRANCH  63  77
ATOM     77  C   UNL A   1      38.646  29.303  29.108  1.00  0.00    -0.014 A 
ATOM     78  C   UNL A   1      37.757  29.181  30.188  1.00  0.00     0.009 A 
ATOM     79  C   UNL A   1      38.175  29.845  27.901  1.00  0.00     0.009 A 
ATOM     80  C   UNL A   1      36.419  29.557  30.051  1.00  0.00     0.001 A 
ATOM     81  C   UNL A   1      36.845  30.248  27.777  1.00  0.00     0.001 A 
ATOM     82  C   UNL A   1      35.965  30.095  28.847  1.00  0.00     0.000 A 
ENDBRANCH  63  77
BRANCH  64  83
ATOM     83  C   UNL A   1      48.183  26.357  29.461  1.00  0.00    -0.014 A 
ATOM     84  C   UNL A   1      48.723  25.782  30.623  1.00  0.00     0.009 A 
ATOM     85  C   UNL A   1      49.014  26.536  28.345  1.00  0.00     0.009 A 
ATOM     86  C   UNL A   1      50.072  25.423  30.675  1.00  0.00     0.001 A 
ATOM     87  C   UNL A   1      50.355  26.148  28.389  1.00  0.00     0.001 A 
ATOM     88  C   UNL A   1      50.885  25.602  29.557  1.00  0.00     0.000 A 
ENDBRANCH  64  83
BRANCH  76  89
ATOM     89  C   UNL A   1      44.894  32.243  31.195  1.00  0.00    -0.014 A 
ATOM     90  C   UNL A   1      45.266  33.317  30.371  1.00  0.00     0.009 A 
ATOM     91  C   UNL A   1      44.941  32.406  32.588  1.00  0.00     0.009 A 
ATOM     92  C   UNL A   1      45.708  34.515  30.933  1.00  0.00     0.001 A 
ATOM     93  C   UNL A   1      45.353  33.616  33.147  1.00  0.00     0.001 A 
ATOM     94  C   UNL A   1      45.746  34.666  32.319  1.00  0.00     0.000 A 
ENDBRANCH  76  89
ENDBRANCH  50  51
ENDBRANCH  42  45
ENDBRANCH  40  41
ENDBRANCH  39  40
ENDBRANCH  38  39
ENDBRANCH  37  38
ENDBRANCH   1  37
TORSDOF 19
ENDMDL
MODEL 2
REMARK VINA RESULT:     -11.8      3.146      9.094
REMARK SMILES NC(=O)[C@@H]1CCC[N@@H+]1[C@@H](C(=O)NCCCCCCNC(=O)c1ccc(-c2c3nc(c(-c4ccccc4)c4ccc([nH]4)c(-c4ccccc4)c4nc(c(-c5ccccc5)c5ccc2[nH]5)C=C4)C=C3)cc1)c1c[nH]c2cc(OCc3ccccc3)ccc12
REMARK SMILES IDX 14 1 13 2 12 3 10 4 11 5 9 7 8 8 4 9 5 10 6 11 7 12 2 14
REMARK SMILES IDX 1 15 3 18 70 19 71 20 86 21 72 22 73 23 85 24 74 26 84 27
REMARK SMILES IDX 75 28 76 29 77 30 78 31 79 32 83 33 80 34 82 35 81 36 15 37
REMARK SMILES IDX 16 38 17 39 18 40 19 41 20 42 21 44 22 45 23 46 69 47 24 48
REMARK SMILES IDX 68 49 25 50 26 51 27 52 62 53 28 54 67 55 61 56 63 57 29 58
REMARK SMILES IDX 66 59 60 60 59 61 30 63 52 64 37 65 51 66 38 67 41 68 50 69
REMARK SMILES IDX 64 70 39 71 40 72 49 74 65 75 42 76 31 77 32 78 36 79 33 80
REMARK SMILES IDX 35 81 34 82 53 83 54 84 58 85 55 86 57 87 56 88 43 89 44 90
REMARK SMILES IDX 48 91 45 92 47 93 46 94
REMARK H PARENT 12 6 8 13 1 16 1 17 72 25 19 43 63 62 41 73
REMARK Flexibility Score: inf
ROOT
ATOM      1  C   UNL A   1      33.099  28.668  24.861  1.00  0.00     0.021 C 
ENDROOT
BRANCH   1   2
ATOM      2  C   UNL A   1      33.483  27.197  25.102  1.00  0.00     0.116 C 
BRANCH   2   3
ATOM      3  N   UNL A   1      33.834  26.486  23.887  1.00  0.00    -0.351 N 
ATOM      4  C   UNL A   1      34.055  25.194  23.505  1.00  0.00     0.283 C 
ATOM      5  O   UNL A   1      34.340  25.132  22.302  1.00  0.00    -0.268 OA
ATOM      6  H   UNL A   1      33.941  27.106  23.129  1.00  0.00     0.163 HD
BRANCH   4   7
ATOM      7  C   UNL A   1      33.880  23.919  24.411  1.00  0.00     0.308 C 
BRANCH   7   8
ATOM      8  N   UNL A   1      34.781  22.696  24.159  1.00  0.00    -0.311 N 
ATOM      9  C   UNL A   1      35.364  21.930  25.292  1.00  0.00     0.275 C 
ATOM     10  C   UNL A   1      36.576  22.743  25.748  1.00  0.00     0.081 C 
ATOM     11  C   UNL A   1      37.059  23.404  24.467  1.00  0.00     0.068 C 
ATOM     12  C   UNL A   1      36.052  22.937  23.441  1.00  0.00     0.264 C 
ATOM     13  H   UNL A   1      34.036  22.202  23.666  1.00  0.00     0.349 HD
BRANCH   9  14
ATOM     14  C   UNL A   1      34.431  21.181  26.242  1.00  0.00     0.275 C 
ATOM     15  N   UNL A   1      34.555  21.516  27.568  1.00  0.00    -0.365 N 
ATOM     16  H   UNL A   1      33.988  21.076  28.242  1.00  0.00     0.159 HD
ATOM     17  H   UNL A   1      35.210  22.197  27.845  1.00  0.00     0.159 HD
ATOM     18  O   UNL A   1      33.551  20.445  25.881  1.00  0.00    -0.268 OA
ENDBRANCH   9  14
ENDBRANCH   7   8
BRANCH   7  19
ATOM     19  C   UNL A   1      32.362  23.397  24.460  1.00  0.00     0.044 A 
ATOM     20  C   UNL A   1      31.778  22.483  23.584  1.00  0.00     0.094 A 
ATOM     21  C   UNL A   1      31.176  24.130  24.847  1.00  0.00     0.009 A 
ATOM     22  N   UNL A   1      30.903  23.245  22.845  1.00  0.00    -0.361 N 
ATOM     23  C   UNL A   1      30.509  24.299  23.635  1.00  0.00     0.050 A 
ATOM     24  C   UNL A   1      30.688  24.857  25.952  1.00  0.00     0.015 A 
ATOM     25  H   UNL A   1      30.612  23.068  21.922  1.00  0.00     0.166 HD
ATOM     26  C   UNL A   1      29.771  25.449  23.367  1.00  0.00     0.073 A 
ATOM     27  C   UNL A   1      29.774  25.905  25.743  1.00  0.00     0.047 A 
ATOM     28  C   UNL A   1      29.443  26.274  24.446  1.00  0.00     0.121 A 
BRANCH  28  29
ATOM     29  O   UNL A   1      28.949  27.504  24.101  1.00  0.00    -0.489 OA
BRANCH  29  30
ATOM     30  C   UNL A   1      29.476  28.108  22.919  1.00  0.00     0.265 C 
BRANCH  30  31
ATOM     31  C   UNL A   1      28.942  29.505  22.672  1.00  0.00    -0.011 A 
ATOM     32  C   UNL A   1      29.350  30.204  21.531  1.00  0.00     0.007 A 
ATOM     33  C   UNL A   1      28.039  30.131  23.544  1.00  0.00     0.007 A 
ATOM     34  C   UNL A   1      28.913  31.514  21.309  1.00  0.00     0.000 A 
ATOM     35  C   UNL A   1      27.630  31.446  23.345  1.00  0.00     0.000 A 
ATOM     36  C   UNL A   1      28.073  32.141  22.229  1.00  0.00     0.000 A 
ENDBRANCH  30  31
ENDBRANCH  29  30
ENDBRANCH  28  29
ENDBRANCH   7  19
ENDBRANCH   4   7
ENDBRANCH   2   3
ENDBRANCH   1   2
BRANCH   1  37
ATOM     37  C   UNL A   1      32.241  29.311  25.955  1.00  0.00     0.002 C 
BRANCH  37  38
ATOM     38  C   UNL A   1      31.263  30.342  25.393  1.00  0.00     0.002 C 
BRANCH  38  39
ATOM     39  C   UNL A   1      31.113  31.624  26.223  1.00  0.00     0.021 C 
BRANCH  39  40
ATOM     40  C   UNL A   1      32.377  32.067  26.954  1.00  0.00     0.116 C 
BRANCH  40  41
ATOM     41  N   UNL A   1      32.291  33.466  27.346  1.00  0.00    -0.352 N 
ATOM     42  C   UNL A   1      33.050  34.136  28.269  1.00  0.00     0.251 C 
ATOM     43  H   UNL A   1      31.600  33.999  26.889  1.00  0.00     0.163 HD
ATOM     44  O   UNL A   1      32.670  35.206  28.742  1.00  0.00    -0.269 OA
BRANCH  42  45
ATOM     45  C   UNL A   1      34.343  33.562  28.688  1.00  0.00     0.039 A 
ATOM     46  C   UNL A   1      35.492  33.829  27.940  1.00  0.00     0.014 A 
ATOM     47  C   UNL A   1      34.407  32.752  29.826  1.00  0.00     0.014 A 
ATOM     48  C   UNL A   1      36.720  33.316  28.362  1.00  0.00     0.010 A 
ATOM     49  C   UNL A   1      35.641  32.299  30.280  1.00  0.00     0.010 A 
ATOM     50  C   UNL A   1      36.807  32.566  29.548  1.00  0.00    -0.014 A 
BRANCH  50  51
ATOM     51  C   UNL A   1      38.107  32.045  30.033  1.00  0.00     0.031 A 
ATOM     52  C   UNL A   1      38.626  30.725  29.530  1.00  0.00     0.074 A 
ATOM     53  C   UNL A   1      38.793  32.729  30.969  1.00  0.00     0.049 A 
ATOM     54  N   UNL A   1      39.717  30.085  29.864  1.00  0.00    -0.248 NA
ATOM     55  C   UNL A   1      37.796  30.020  28.539  1.00  0.00     0.031 C 
ATOM     56  C   UNL A   1      38.376  34.001  31.564  1.00  0.00     0.029 A 
ATOM     57  N   UNL A   1      39.986  32.448  31.585  1.00  0.00    -0.354 N 
ATOM     58  C   UNL A   1      39.697  28.900  29.139  1.00  0.00     0.074 A 
ATOM     59  C   UNL A   1      38.462  28.885  28.386  1.00  0.00     0.031 C 
ATOM     60  C   UNL A   1      39.314  34.404  32.437  1.00  0.00     0.029 A 
ATOM     61  C   UNL A   1      40.373  33.402  32.494  1.00  0.00     0.049 A 
ATOM     62  H   UNL A   1      40.513  31.639  31.395  1.00  0.00     0.167 HD
ATOM     63  C   UNL A   1      40.631  27.921  29.090  1.00  0.00     0.031 A 
ATOM     64  C   UNL A   1      41.459  33.461  33.289  1.00  0.00     0.031 A 
ATOM     65  C   UNL A   1      41.861  27.941  29.835  1.00  0.00     0.049 A 
ATOM     66  C   UNL A   1      42.470  32.349  33.231  1.00  0.00     0.074 A 
ATOM     67  C   UNL A   1      42.900  27.027  29.808  1.00  0.00     0.029 A 
ATOM     68  N   UNL A   1      42.215  28.924  30.746  1.00  0.00    -0.354 N 
ATOM     69  N   UNL A   1      42.474  31.273  32.482  1.00  0.00    -0.248 NA
ATOM     70  C   UNL A   1      43.633  32.468  34.121  1.00  0.00     0.031 C 
ATOM     71  C   UNL A   1      43.856  27.427  30.746  1.00  0.00     0.029 A 
ATOM     72  C   UNL A   1      43.443  28.623  31.310  1.00  0.00     0.049 A 
ATOM     73  H   UNL A   1      41.674  29.719  30.959  1.00  0.00     0.167 HD
ATOM     74  C   UNL A   1      43.650  30.602  32.789  1.00  0.00     0.074 A 
ATOM     75  C   UNL A   1      44.342  31.402  33.778  1.00  0.00     0.031 C 
ATOM     76  C   UNL A   1      44.117  29.429  32.295  1.00  0.00     0.031 A 
BRANCH  63  77
ATOM     77  C   UNL A   1      40.349  26.737  28.206  1.00  0.00    -0.014 A 
ATOM     78  C   UNL A   1      39.522  25.687  28.635  1.00  0.00     0.009 A 
ATOM     79  C   UNL A   1      40.889  26.688  26.911  1.00  0.00     0.009 A 
ATOM     80  C   UNL A   1      39.271  24.596  27.800  1.00  0.00     0.001 A 
ATOM     81  C   UNL A   1      40.612  25.611  26.068  1.00  0.00     0.001 A 
ATOM     82  C   UNL A   1      39.812  24.561  26.515  1.00  0.00     0.000 A 
ENDBRANCH  63  77
BRANCH  64  83
ATOM     83  C   UNL A   1      41.656  34.619  34.199  1.00  0.00    -0.014 A 
ATOM     84  C   UNL A   1      41.160  34.585  35.512  1.00  0.00     0.009 A 
ATOM     85  C   UNL A   1      42.332  35.768  33.760  1.00  0.00     0.009 A 
ATOM     86  C   UNL A   1      41.310  35.689  36.355  1.00  0.00     0.001 A 
ATOM     87  C   UNL A   1      42.508  36.858  34.615  1.00  0.00     0.001 A 
ATOM     88  C   UNL A   1      41.988  36.822  35.908  1.00  0.00     0.000 A 
ENDBRANCH  64  83
BRANCH  76  89
ATOM     89  C   UNL A   1      45.455  28.958  32.792  1.00  0.00    -0.014 A 
ATOM     90  C   UNL A   1      46.646  29.327  32.148  1.00  0.00     0.009 A 
ATOM     91  C   UNL A   1      45.524  28.164  33.949  1.00  0.00     0.009 A 
ATOM     92  C   UNL A   1      47.877  28.882  32.633  1.00  0.00     0.001 A 
ATOM     93  C   UNL A   1      46.758  27.748  34.450  1.00  0.00     0.001 A 
ATOM     94  C   UNL A   1      47.932  28.098  33.786  1.00  0.00     0.000 A 
ENDBRANCH  76  89
ENDBRANCH  50  51
ENDBRANCH  42  45
ENDBRANCH  40  41
ENDBRANCH  39  40
ENDBRANCH  38  39
ENDBRANCH  37  38
ENDBRANCH   1  37
TORSDOF 19
ENDMDL
MODEL 3
REMARK VINA RESULT:     -11.6      3.014      9.020
REMARK SMILES NC(=O)[C@@H]1CCC[N@@H+]1[C@@H](C(=O)NCCCCCCNC(=O)c1ccc(-c2c3nc(c(-c4ccccc4)c4ccc([nH]4)c(-c4ccccc4)c4nc(c(-c5ccccc5)c5ccc2[nH]5)C=C4)C=C3)cc1)c1c[nH]c2cc(OCc3ccccc3)ccc12
REMARK SMILES IDX 14 1 13 2 12 3 10 4 11 5 9 7 8 8 4 9 5 10 6 11 7 12 2 14
REMARK SMILES IDX 1 15 3 18 70 19 71 20 86 21 72 22 73 23 85 24 74 26 84 27
REMARK SMILES IDX 75 28 76 29 77 30 78 31 79 32 83 33 80 34 82 35 81 36 15 37
REMARK SMILES IDX 16 38 17 39 18 40 19 41 20 42 21 44 22 45 23 46 69 47 24 48
REMARK SMILES IDX 68 49 25 50 26 51 27 52 62 53 28 54 67 55 61 56 63 57 29 58
REMARK SMILES IDX 66 59 60 60 59 61 30 63 52 64 37 65 51 66 38 67 41 68 50 69
REMARK SMILES IDX 64 70 39 71 40 72 49 74 65 75 42 76 31 77 32 78 36 79 33 80
REMARK SMILES IDX 35 81 34 82 53 83 54 84 58 85 55 86 57 87 56 88 43 89 44 90
REMARK SMILES IDX 48 91 45 92 47 93 46 94
REMARK H PARENT 12 6 8 13 1 16 1 17 72 25 19 43 63 62 41 73
REMARK Flexibility Score: inf
ROOT
ATOM      1  C   UNL A   1      33.257  28.578  25.168  1.00  0.00     0.021 C 
ENDROOT
BRANCH   1   2
ATOM      2  C   UNL A   1      33.590  27.102  25.455  1.00  0.00     0.116 C 
BRANCH   2   3
ATOM      3  N   UNL A   1      34.055  26.379  24.286  1.00  0.00    -0.351 N 
ATOM      4  C   UNL A   1      34.180  25.077  23.892  1.00  0.00     0.283 C 
ATOM      5  O   UNL A   1      34.656  25.005  22.752  1.00  0.00    -0.268 OA
ATOM      6  H   UNL A   1      34.363  26.995  23.583  1.00  0.00     0.163 HD
BRANCH   4   7
ATOM      7  C   UNL A   1      33.700  23.815  24.702  1.00  0.00     0.308 C 
BRANCH   7   8
ATOM      8  N   UNL A   1      34.414  22.470  24.478  1.00  0.00    -0.311 N 
ATOM      9  C   UNL A   1      34.903  21.665  25.628  1.00  0.00     0.275 C 
ATOM     10  C   UNL A   1      36.226  22.311  26.041  1.00  0.00     0.081 C 
ATOM     11  C   UNL A   1      36.775  22.858  24.733  1.00  0.00     0.068 C 
ATOM     12  C   UNL A   1      35.694  22.506  23.737  1.00  0.00     0.264 C 
ATOM     13  H   UNL A   1      33.599  22.072  24.012  1.00  0.00     0.349 HD
BRANCH   9  14
ATOM     14  C   UNL A   1      33.891  21.085  26.615  1.00  0.00     0.275 C 
ATOM     15  N   UNL A   1      33.234  19.958  26.185  1.00  0.00    -0.365 N 
ATOM     16  H   UNL A   1      32.567  19.525  26.765  1.00  0.00     0.159 HD
ATOM     17  H   UNL A   1      33.432  19.582  25.297  1.00  0.00     0.159 HD
ATOM     18  O   UNL A   1      33.749  21.477  27.743  1.00  0.00    -0.268 OA
ENDBRANCH   9  14
ENDBRANCH   7   8
BRANCH   7  19
ATOM     19  C   UNL A   1      32.122  23.552  24.561  1.00  0.00     0.044 A 
ATOM     20  C   UNL A   1      31.505  22.746  23.605  1.00  0.00     0.094 A 
ATOM     21  C   UNL A   1      31.035  24.472  24.818  1.00  0.00     0.009 A 
ATOM     22  N   UNL A   1      30.862  23.641  22.782  1.00  0.00    -0.361 N 
ATOM     23  C   UNL A   1      30.555  24.747  23.539  1.00  0.00     0.050 A 
ATOM     24  C   UNL A   1      30.544  25.272  25.870  1.00  0.00     0.015 A 
ATOM     25  H   UNL A   1      30.659  23.513  21.828  1.00  0.00     0.166 HD
ATOM     26  C   UNL A   1      30.054  26.002  23.206  1.00  0.00     0.073 A 
ATOM     27  C   UNL A   1      29.846  26.455  25.574  1.00  0.00     0.047 A 
ATOM     28  C   UNL A   1      29.739  26.872  24.253  1.00  0.00     0.121 A 
BRANCH  28  29
ATOM     29  O   UNL A   1      29.499  28.167  23.875  1.00  0.00    -0.489 OA
BRANCH  29  30
ATOM     30  C   UNL A   1      28.323  28.412  23.104  1.00  0.00     0.265 C 
BRANCH  30  31
ATOM     31  C   UNL A   1      28.205  29.848  22.634  1.00  0.00    -0.011 A 
ATOM     32  C   UNL A   1      28.130  30.118  21.263  1.00  0.00     0.007 A 
ATOM     33  C   UNL A   1      28.158  30.930  23.524  1.00  0.00     0.007 A 
ATOM     34  C   UNL A   1      28.075  31.437  20.803  1.00  0.00     0.000 A 
ATOM     35  C   UNL A   1      28.138  32.246  23.070  1.00  0.00     0.000 A 
ATOM     36  C   UNL A   1      28.103  32.500  21.706  1.00  0.00     0.000 A 
ENDBRANCH  30  31
ENDBRANCH  29  30
ENDBRANCH  28  29
ENDBRANCH   7  19
ENDBRANCH   4   7
ENDBRANCH   2   3
ENDBRANCH   1   2
BRANCH   1  37
ATOM     37  C   UNL A   1      32.263  29.227  26.137  1.00  0.00     0.002 C 
BRANCH  37  38
ATOM     38  C   UNL A   1      31.426  30.315  25.465  1.00  0.00     0.002 C 
BRANCH  38  39
ATOM     39  C   UNL A   1      31.238  31.598  26.286  1.00  0.00     0.021 C 
BRANCH  39  40
ATOM     40  C   UNL A   1      32.486  32.078  27.021  1.00  0.00     0.116 C 
BRANCH  40  41
ATOM     41  N   UNL A   1      32.367  33.481  27.391  1.00  0.00    -0.352 N 
ATOM     42  C   UNL A   1      33.092  34.176  28.323  1.00  0.00     0.251 C 
ATOM     43  H   UNL A   1      31.679  33.996  26.910  1.00  0.00     0.163 HD
ATOM     44  O   UNL A   1      32.683  35.246  28.771  1.00  0.00    -0.269 OA
BRANCH  42  45
ATOM     45  C   UNL A   1      34.383  33.631  28.780  1.00  0.00     0.039 A 
ATOM     46  C   UNL A   1      34.439  32.881  29.958  1.00  0.00     0.014 A 
ATOM     47  C   UNL A   1      35.542  33.872  28.037  1.00  0.00     0.014 A 
ATOM     48  C   UNL A   1      35.656  32.334  30.366  1.00  0.00     0.010 A 
ATOM     49  C   UNL A   1      36.740  33.271  28.410  1.00  0.00     0.010 A 
ATOM     50  C   UNL A   1      36.812  32.506  29.583  1.00  0.00    -0.014 A 
BRANCH  50  51
ATOM     51  C   UNL A   1      38.106  31.901  29.980  1.00  0.00     0.031 A 
ATOM     52  C   UNL A   1      39.036  32.647  30.897  1.00  0.00     0.074 A 
ATOM     53  C   UNL A   1      38.469  30.709  29.471  1.00  0.00     0.049 A 
ATOM     54  N   UNL A   1      40.225  32.304  31.325  1.00  0.00    -0.248 NA
ATOM     55  C   UNL A   1      38.583  33.963  31.377  1.00  0.00     0.031 C 
ATOM     56  C   UNL A   1      37.671  29.906  28.541  1.00  0.00     0.029 A 
ATOM     57  N   UNL A   1      39.607  29.966  29.662  1.00  0.00    -0.354 N 
ATOM     58  C   UNL A   1      40.665  33.364  32.108  1.00  0.00     0.074 A 
ATOM     59  C   UNL A   1      39.640  34.383  32.056  1.00  0.00     0.031 C 
ATOM     60  C   UNL A   1      38.331  28.768  28.268  1.00  0.00     0.029 A 
ATOM     61  C   UNL A   1      39.612  28.782  28.966  1.00  0.00     0.049 A 
ATOM     62  H   UNL A   1      40.348  30.255  30.240  1.00  0.00     0.167 HD
ATOM     63  C   UNL A   1      41.811  33.472  32.821  1.00  0.00     0.031 A 
ATOM     64  C   UNL A   1      40.548  27.816  28.894  1.00  0.00     0.031 A 
ATOM     65  C   UNL A   1      42.826  32.455  32.876  1.00  0.00     0.049 A 
ATOM     66  C   UNL A   1      41.821  27.971  29.679  1.00  0.00     0.074 A 
ATOM     67  C   UNL A   1      43.994  32.442  33.617  1.00  0.00     0.029 A 
ATOM     68  N   UNL A   1      42.795  31.271  32.155  1.00  0.00    -0.354 N 
ATOM     69  N   UNL A   1      42.188  28.944  30.477  1.00  0.00    -0.248 NA
ATOM     70  C   UNL A   1      42.805  26.885  29.562  1.00  0.00     0.031 C 
ATOM     71  C   UNL A   1      44.699  31.277  33.300  1.00  0.00     0.029 A 
ATOM     72  C   UNL A   1      43.939  30.534  32.411  1.00  0.00     0.049 A 
ATOM     73  H   UNL A   1      42.067  30.994  31.552  1.00  0.00     0.167 HD
ATOM     74  C   UNL A   1      43.430  28.576  30.978  1.00  0.00     0.074 A 
ATOM     75  C   UNL A   1      43.744  27.282  30.408  1.00  0.00     0.031 C 
ATOM     76  C   UNL A   1      44.237  29.248  31.834  1.00  0.00     0.031 A 
BRANCH  63  77
ATOM     77  C   UNL A   1      42.032  34.745  33.592  1.00  0.00    -0.014 A 
ATOM     78  C   UNL A   1      42.775  35.806  33.051  1.00  0.00     0.009 A 
ATOM     79  C   UNL A   1      41.456  34.900  34.863  1.00  0.00     0.009 A 
ATOM     80  C   UNL A   1      42.969  36.980  33.781  1.00  0.00     0.001 A 
ATOM     81  C   UNL A   1      41.625  36.086  35.578  1.00  0.00     0.001 A 
ATOM     82  C   UNL A   1      42.389  37.122  35.042  1.00  0.00     0.000 A 
ENDBRANCH  63  77
BRANCH  64  83
ATOM     83  C   UNL A   1      40.313  26.608  28.060  1.00  0.00    -0.014 A 
ATOM     84  C   UNL A   1      39.572  25.528  28.566  1.00  0.00     0.009 A 
ATOM     85  C   UNL A   1      40.833  26.523  26.760  1.00  0.00     0.009 A 
ATOM     86  C   UNL A   1      39.384  24.376  27.798  1.00  0.00     0.001 A 
ATOM     87  C   UNL A   1      40.617  25.383  25.982  1.00  0.00     0.001 A 
ATOM     88  C   UNL A   1      39.901  24.307  26.506  1.00  0.00     0.000 A 
ENDBRANCH  64  83
BRANCH  76  89
ATOM     89  C   UNL A   1      45.524  28.581  32.234  1.00  0.00    -0.014 A 
ATOM     90  C   UNL A   1      46.710  28.787  31.512  1.00  0.00     0.009 A 
ATOM     91  C   UNL A   1      45.555  27.764  33.375  1.00  0.00     0.009 A 
ATOM     92  C   UNL A   1      47.893  28.161  31.907  1.00  0.00     0.001 A 
ATOM     93  C   UNL A   1      46.746  27.165  33.786  1.00  0.00     0.001 A 
ATOM     94  C   UNL A   1      47.912  27.355  33.046  1.00  0.00     0.000 A 
ENDBRANCH  76  89
ENDBRANCH  50  51
ENDBRANCH  42  45
ENDBRANCH  40  41
ENDBRANCH  39  40
ENDBRANCH  38  39
ENDBRANCH  37  38
ENDBRANCH   1  37
TORSDOF 19
ENDMDL
