MODEL 1
REMARK VINA RESULT:     -10.9      0.000      0.000
REMARK SMILES CCCn1ncc(C(=O)N2CCC(C(=O)NCCCCCCNC(=O)c3ccc(-c4c5nc(c(-c6ccccc6)c6ccc([nH]6)c(-c6ccccc6)c6nc(c(-c7ccccc7)c7ccc4[nH]7)C=C6)C=C5)cc3)CC2)c1C
REMARK SMILES IDX 19 1 18 2 17 3 16 4 14 5 15 6 13 8 8 9 9 10 10 11 11 12
REMARK SMILES IDX 75 13 12 14 74 15 7 16 4 17 5 18 76 19 6 20 77 21 3 22 2 23
REMARK SMILES IDX 1 24 20 25 21 26 22 27 23 28 24 29 25 31 26 32 27 33 73 34
REMARK SMILES IDX 28 35 72 36 29 37 30 38 31 39 66 40 32 41 71 42 65 43 67 44
REMARK SMILES IDX 33 45 70 46 64 47 63 48 34 50 56 51 41 52 55 53 42 54 45 55
REMARK SMILES IDX 54 56 68 57 43 58 44 59 53 61 69 62 46 63 35 64 36 65 40 66
REMARK SMILES IDX 37 67 39 68 38 69 57 70 58 71 62 72 59 73 61 74 60 75 47 76
REMARK SMILES IDX 48 77 52 78 49 79 51 80 50 81
REMARK H PARENT 16 7 23 30 67 49 45 60
REMARK Flexibility Score: inf
ROOT
ATOM      1  C   UNL A   1      33.090  26.852  26.529  1.00  0.00     0.002 C 
ENDROOT
BRANCH   1   2
ATOM      2  C   UNL A   1      33.077  26.540  25.028  1.00  0.00     0.021 C 
BRANCH   2   3
ATOM      3  C   UNL A   1      32.360  25.246  24.653  1.00  0.00     0.116 C 
BRANCH   3   4
ATOM      4  N   UNL A   1      31.261  24.956  25.560  1.00  0.00    -0.356 N 
ATOM      5  C   UNL A   1      30.965  23.842  26.279  1.00  0.00     0.223 C 
ATOM      6  O   UNL A   1      29.947  23.862  26.976  1.00  0.00    -0.275 OA
ATOM      7  H   UNL A   1      30.622  25.696  25.672  1.00  0.00     0.163 HD
BRANCH   5   8
ATOM      8  C   UNL A   1      31.845  22.601  26.247  1.00  0.00     0.082 C 
ATOM      9  C   UNL A   1      35.381  21.872  24.756  1.00  0.00     0.257 C 
ATOM     10  O   UNL A   1      35.210  22.558  23.749  1.00  0.00    -0.269 OA
ATOM     11  N   UNL A   1      34.307  21.362  25.476  1.00  0.00    -0.338 N 
ATOM     12  C   UNL A   1      33.100  20.995  24.757  1.00  0.00     0.120 C 
ATOM     13  C   UNL A   1      34.129  21.646  26.893  1.00  0.00     0.120 C 
ATOM     14  C   UNL A   1      32.063  22.102  24.812  1.00  0.00     0.035 C 
ATOM     15  C   UNL A   1      33.127  22.787  27.081  1.00  0.00     0.035 C 
BRANCH   9  16
ATOM     16  C   UNL A   1      36.708  21.431  25.172  1.00  0.00     0.080 A 
ATOM     17  N   UNL A   1      38.852  21.446  25.717  1.00  0.00    -0.269 N 
ATOM     18  N   UNL A   1      38.597  20.161  25.387  1.00  0.00    -0.180 NA
ATOM     19  C   UNL A   1      37.717  22.223  25.711  1.00  0.00     0.048 A 
ATOM     20  C   UNL A   1      37.313  20.164  25.035  1.00  0.00     0.149 A 
ATOM     21  C   UNL A   1      37.658  23.637  26.155  1.00  0.00     0.067 C 
BRANCH  17  22
ATOM     22  C   UNL A   1      40.214  21.787  26.098  1.00  0.00     0.144 C 
BRANCH  22  23
ATOM     23  C   UNL A   1      40.714  21.237  27.442  1.00  0.00     0.020 C 
ATOM     24  C   UNL A   1      41.806  20.181  27.322  1.00  0.00     0.006 C 
ENDBRANCH  22  23
ENDBRANCH  17  22
ENDBRANCH   9  16
ENDBRANCH   5   8
ENDBRANCH   3   4
ENDBRANCH   2   3
ENDBRANCH   1   2
BRANCH   1  25
ATOM     25  C   UNL A   1      32.811  28.312  26.913  1.00  0.00     0.002 C 
BRANCH  25  26
ATOM     26  C   UNL A   1      33.907  29.332  26.576  1.00  0.00     0.021 C 
BRANCH  26  27
ATOM     27  C   UNL A   1      35.228  29.092  27.293  1.00  0.00     0.116 C 
BRANCH  27  28
ATOM     28  N   UNL A   1      35.353  29.880  28.515  1.00  0.00    -0.352 N 
ATOM     29  C   UNL A   1      36.345  29.818  29.466  1.00  0.00     0.251 C 
ATOM     30  H   UNL A   1      34.638  30.537  28.680  1.00  0.00     0.163 HD
ATOM     31  O   UNL A   1      36.150  30.234  30.608  1.00  0.00    -0.269 OA
BRANCH  29  32
ATOM     32  C   UNL A   1      37.650  29.240  29.105  1.00  0.00     0.039 A 
ATOM     33  C   UNL A   1      38.362  29.720  28.004  1.00  0.00     0.014 A 
ATOM     34  C   UNL A   1      38.169  28.216  29.895  1.00  0.00     0.014 A 
ATOM     35  C   UNL A   1      39.639  29.221  27.760  1.00  0.00     0.010 A 
ATOM     36  C   UNL A   1      39.476  27.816  29.733  1.00  0.00     0.010 A 
ATOM     37  C   UNL A   1      40.206  28.288  28.647  1.00  0.00    -0.014 A 
BRANCH  37  38
ATOM     38  C   UNL A   1      41.619  27.932  28.525  1.00  0.00     0.031 A 
ATOM     39  C   UNL A   1      41.865  26.694  27.740  1.00  0.00     0.074 A 
ATOM     40  C   UNL A   1      42.648  28.722  28.900  1.00  0.00     0.049 A 
ATOM     41  N   UNL A   1      42.288  25.560  28.189  1.00  0.00    -0.248 NA
ATOM     42  C   UNL A   1      41.466  26.669  26.322  1.00  0.00     0.031 C 
ATOM     43  C   UNL A   1      42.596  30.096  29.410  1.00  0.00     0.029 A 
ATOM     44  N   UNL A   1      43.988  28.493  28.795  1.00  0.00    -0.354 N 
ATOM     45  C   UNL A   1      42.422  24.739  27.075  1.00  0.00     0.074 A 
ATOM     46  C   UNL A   1      41.734  25.402  25.996  1.00  0.00     0.031 C 
ATOM     47  C   UNL A   1      43.826  30.653  29.340  1.00  0.00     0.029 A 
ATOM     48  C   UNL A   1      44.777  29.628  28.953  1.00  0.00     0.049 A 
ATOM     49  H   UNL A   1      44.366  27.600  28.622  1.00  0.00     0.167 HD
ATOM     50  C   UNL A   1      43.334  23.727  27.059  1.00  0.00     0.031 A 
ATOM     51  C   UNL A   1      46.116  29.727  28.767  1.00  0.00     0.031 A 
ATOM     52  C   UNL A   1      43.799  23.403  28.385  1.00  0.00     0.049 A 
ATOM     53  C   UNL A   1      46.679  28.365  28.859  1.00  0.00     0.074 A 
ATOM     54  C   UNL A   1      43.199  23.020  29.568  1.00  0.00     0.029 A 
ATOM     55  N   UNL A   1      45.050  23.858  28.730  1.00  0.00    -0.354 N 
ATOM     56  N   UNL A   1      46.719  27.679  29.963  1.00  0.00    -0.248 NA
ATOM     57  C   UNL A   1      46.833  27.592  27.639  1.00  0.00     0.031 C 
ATOM     58  C   UNL A   1      43.922  23.706  30.589  1.00  0.00     0.029 A 
ATOM     59  C   UNL A   1      44.969  24.405  29.984  1.00  0.00     0.049 A 
ATOM     60  H   UNL A   1      45.860  23.801  28.175  1.00  0.00     0.167 HD
ATOM     61  C   UNL A   1      46.422  26.383  29.576  1.00  0.00     0.074 A 
ATOM     62  C   UNL A   1      46.639  26.366  28.131  1.00  0.00     0.031 C 
ATOM     63  C   UNL A   1      45.756  25.538  30.419  1.00  0.00     0.031 A 
BRANCH  50  64
ATOM     64  C   UNL A   1      44.135  23.377  25.828  1.00  0.00    -0.014 A 
ATOM     65  C   UNL A   1      44.056  22.070  25.315  1.00  0.00     0.009 A 
ATOM     66  C   UNL A   1      45.185  24.183  25.344  1.00  0.00     0.009 A 
ATOM     67  C   UNL A   1      45.018  21.580  24.422  1.00  0.00     0.001 A 
ATOM     68  C   UNL A   1      46.121  23.712  24.421  1.00  0.00     0.001 A 
ATOM     69  C   UNL A   1      46.053  22.399  23.981  1.00  0.00     0.000 A 
ENDBRANCH  50  64
BRANCH  51  70
ATOM     70  C   UNL A   1      46.931  30.871  28.311  1.00  0.00    -0.014 A 
ATOM     71  C   UNL A   1      46.645  31.511  27.093  1.00  0.00     0.009 A 
ATOM     72  C   UNL A   1      47.794  31.525  29.207  1.00  0.00     0.009 A 
ATOM     73  C   UNL A   1      47.159  32.783  26.808  1.00  0.00     0.001 A 
ATOM     74  C   UNL A   1      48.310  32.793  28.921  1.00  0.00     0.001 A 
ATOM     75  C   UNL A   1      47.977  33.431  27.731  1.00  0.00     0.000 A 
ENDBRANCH  51  70
BRANCH  63  76
ATOM     76  C   UNL A   1      45.630  25.947  31.869  1.00  0.00    -0.014 A 
ATOM     77  C   UNL A   1      44.569  26.719  32.375  1.00  0.00     0.009 A 
ATOM     78  C   UNL A   1      46.574  25.446  32.778  1.00  0.00     0.009 A 
ATOM     79  C   UNL A   1      44.486  27.020  33.740  1.00  0.00     0.001 A 
ATOM     80  C   UNL A   1      46.478  25.725  34.143  1.00  0.00     0.001 A 
ATOM     81  C   UNL A   1      45.441  26.522  34.622  1.00  0.00     0.000 A 
ENDBRANCH  63  76
ENDBRANCH  37  38
ENDBRANCH  29  32
ENDBRANCH  27  28
ENDBRANCH  26  27
ENDBRANCH  25  26
ENDBRANCH   1  25
TORSDOF 16
ENDMDL
MODEL 2
REMARK VINA RESULT:     -10.6      2.359      6.529
REMARK SMILES CCCn1ncc(C(=O)N2CCC(C(=O)NCCCCCCNC(=O)c3ccc(-c4c5nc(c(-c6ccccc6)c6ccc([nH]6)c(-c6ccccc6)c6nc(c(-c7ccccc7)c7ccc4[nH]7)C=C6)C=C5)cc3)CC2)c1C
REMARK SMILES IDX 19 1 18 2 17 3 16 4 14 5 15 6 13 8 8 9 9 10 10 11 11 12
REMARK SMILES IDX 75 13 12 14 74 15 7 16 4 17 5 18 76 19 6 20 77 21 3 22 2 23
REMARK SMILES IDX 1 24 20 25 21 26 22 27 23 28 24 29 25 31 26 32 27 33 73 34
REMARK SMILES IDX 28 35 72 36 29 37 30 38 31 39 66 40 32 41 71 42 65 43 67 44
REMARK SMILES IDX 33 45 70 46 64 47 63 48 34 50 56 51 41 52 55 53 42 54 45 55
REMARK SMILES IDX 54 56 68 57 43 58 44 59 53 61 69 62 46 63 35 64 36 65 40 66
REMARK SMILES IDX 37 67 39 68 38 69 57 70 58 71 62 72 59 73 61 74 60 75 47 76
REMARK SMILES IDX 48 77 52 78 49 79 51 80 50 81
REMARK H PARENT 16 7 23 30 67 49 45 60
REMARK Flexibility Score: inf
ROOT
ATOM      1  C   UNL A   1      33.736  29.275  27.161  1.00  0.00     0.002 C 
ENDROOT
BRANCH   1   2
ATOM      2  C   UNL A   1      32.305  29.801  27.012  1.00  0.00     0.021 C 
BRANCH   2   3
ATOM      3  C   UNL A   1      31.781  29.821  25.578  1.00  0.00     0.116 C 
BRANCH   3   4
ATOM      4  N   UNL A   1      32.848  29.623  24.611  1.00  0.00    -0.356 N 
ATOM      5  C   UNL A   1      33.283  28.504  23.974  1.00  0.00     0.223 C 
ATOM      6  O   UNL A   1      34.232  28.619  23.194  1.00  0.00    -0.275 OA
ATOM      7  H   UNL A   1      33.340  30.443  24.376  1.00  0.00     0.163 HD
BRANCH   5   8
ATOM      8  C   UNL A   1      32.636  27.144  24.196  1.00  0.00     0.082 C 
ATOM      9  C   UNL A   1      33.677  23.503  23.240  1.00  0.00     0.257 C 
ATOM     10  O   UNL A   1      34.145  23.815  22.146  1.00  0.00    -0.269 OA
ATOM     11  N   UNL A   1      32.736  24.302  23.880  1.00  0.00    -0.338 N 
ATOM     12  C   UNL A   1      31.792  25.049  23.068  1.00  0.00     0.120 C 
ATOM     13  C   UNL A   1      32.958  24.823  25.221  1.00  0.00     0.120 C 
ATOM     14  C   UNL A   1      32.247  26.483  22.866  1.00  0.00     0.035 C 
ATOM     15  C   UNL A   1      33.465  26.265  25.151  1.00  0.00     0.035 C 
BRANCH   9  16
ATOM     16  C   UNL A   1      33.965  22.215  23.862  1.00  0.00     0.080 A 
ATOM     17  N   UNL A   1      33.726  20.161  24.648  1.00  0.00    -0.269 N 
ATOM     18  N   UNL A   1      34.813  20.643  25.289  1.00  0.00    -0.180 NA
ATOM     19  C   UNL A   1      33.250  21.033  23.696  1.00  0.00     0.048 A 
ATOM     20  C   UNL A   1      34.936  21.888  24.831  1.00  0.00     0.149 A 
ATOM     21  C   UNL A   1      32.152  20.730  22.747  1.00  0.00     0.067 C 
BRANCH  17  22
ATOM     22  C   UNL A   1      33.288  18.815  24.984  1.00  0.00     0.144 C 
BRANCH  22  23
ATOM     23  C   UNL A   1      33.766  17.683  24.064  1.00  0.00     0.020 C 
ATOM     24  C   UNL A   1      33.379  16.286  24.533  1.00  0.00     0.006 C 
ENDBRANCH  22  23
ENDBRANCH  17  22
ENDBRANCH   9  16
ENDBRANCH   5   8
ENDBRANCH   3   4
ENDBRANCH   2   3
ENDBRANCH   1   2
BRANCH   1  25
ATOM     25  C   UNL A   1      34.838  30.342  27.247  1.00  0.00     0.002 C 
BRANCH  25  26
ATOM     26  C   UNL A   1      34.392  31.760  27.629  1.00  0.00     0.021 C 
BRANCH  26  27
ATOM     27  C   UNL A   1      35.532  32.695  28.005  1.00  0.00     0.116 C 
BRANCH  27  28
ATOM     28  N   UNL A   1      35.526  33.044  29.423  1.00  0.00    -0.352 N 
ATOM     29  C   UNL A   1      36.083  32.347  30.470  1.00  0.00     0.251 C 
ATOM     30  H   UNL A   1      35.065  33.881  29.658  1.00  0.00     0.163 HD
ATOM     31  O   UNL A   1      35.692  32.524  31.623  1.00  0.00    -0.269 OA
BRANCH  29  32
ATOM     32  C   UNL A   1      37.156  31.376  30.195  1.00  0.00     0.039 A 
ATOM     33  C   UNL A   1      38.468  31.804  29.984  1.00  0.00     0.014 A 
ATOM     34  C   UNL A   1      36.838  30.019  30.169  1.00  0.00     0.014 A 
ATOM     35  C   UNL A   1      39.470  30.850  29.834  1.00  0.00     0.010 A 
ATOM     36  C   UNL A   1      37.842  29.078  30.151  1.00  0.00     0.010 A 
ATOM     37  C   UNL A   1      39.157  29.483  29.950  1.00  0.00    -0.014 A 
BRANCH  37  38
ATOM     38  C   UNL A   1      40.230  28.493  30.018  1.00  0.00     0.031 A 
ATOM     39  C   UNL A   1      40.788  28.297  31.381  1.00  0.00     0.074 A 
ATOM     40  C   UNL A   1      40.581  27.667  29.008  1.00  0.00     0.049 A 
ATOM     41  N   UNL A   1      41.961  28.641  31.798  1.00  0.00    -0.248 NA
ATOM     42  C   UNL A   1      39.898  27.789  32.439  1.00  0.00     0.031 C 
ATOM     43  C   UNL A   1      39.939  27.514  27.698  1.00  0.00     0.029 A 
ATOM     44  N   UNL A   1      41.539  26.696  28.987  1.00  0.00    -0.354 N 
ATOM     45  C   UNL A   1      42.041  28.192  33.111  1.00  0.00     0.074 A 
ATOM     46  C   UNL A   1      40.698  27.850  33.507  1.00  0.00     0.031 C 
ATOM     47  C   UNL A   1      40.361  26.367  27.118  1.00  0.00     0.029 A 
ATOM     48  C   UNL A   1      41.425  25.802  27.927  1.00  0.00     0.049 A 
ATOM     49  H   UNL A   1      42.250  26.632  29.665  1.00  0.00     0.167 HD
ATOM     50  C   UNL A   1      43.241  27.865  33.665  1.00  0.00     0.031 A 
ATOM     51  C   UNL A   1      42.143  24.671  27.729  1.00  0.00     0.031 A 
ATOM     52  C   UNL A   1      44.346  28.393  32.904  1.00  0.00     0.049 A 
ATOM     53  C   UNL A   1      43.382  24.786  28.523  1.00  0.00     0.074 A 
ATOM     54  C   UNL A   1      44.734  29.651  32.485  1.00  0.00     0.029 A 
ATOM     55  N   UNL A   1      45.032  27.506  32.110  1.00  0.00    -0.354 N 
ATOM     56  N   UNL A   1      44.332  25.630  28.250  1.00  0.00    -0.248 NA
ATOM     57  C   UNL A   1      43.397  24.245  29.871  1.00  0.00     0.031 C 
ATOM     58  C   UNL A   1      45.247  29.458  31.166  1.00  0.00     0.029 A 
ATOM     59  C   UNL A   1      45.219  28.090  30.885  1.00  0.00     0.049 A 
ATOM     60  H   UNL A   1      45.336  26.608  32.375  1.00  0.00     0.167 HD
ATOM     61  C   UNL A   1      44.757  26.085  29.488  1.00  0.00     0.074 A 
ATOM     62  C   UNL A   1      44.247  25.103  30.441  1.00  0.00     0.031 C 
ATOM     63  C   UNL A   1      45.230  27.358  29.638  1.00  0.00     0.031 A 
BRANCH  50  64
ATOM     64  C   UNL A   1      43.410  26.690  34.599  1.00  0.00    -0.014 A 
ATOM     65  C   UNL A   1      43.364  25.388  34.068  1.00  0.00     0.009 A 
ATOM     66  C   UNL A   1      43.306  26.805  36.000  1.00  0.00     0.009 A 
ATOM     67  C   UNL A   1      43.154  24.274  34.891  1.00  0.00     0.001 A 
ATOM     68  C   UNL A   1      43.140  25.693  36.827  1.00  0.00     0.001 A 
ATOM     69  C   UNL A   1      43.035  24.428  36.269  1.00  0.00     0.000 A 
ENDBRANCH  50  64
BRANCH  51  70
ATOM     70  C   UNL A   1      41.759  23.403  27.075  1.00  0.00    -0.014 A 
ATOM     71  C   UNL A   1      42.601  22.807  26.121  1.00  0.00     0.009 A 
ATOM     72  C   UNL A   1      40.713  22.625  27.602  1.00  0.00     0.009 A 
ATOM     73  C   UNL A   1      42.438  21.466  25.751  1.00  0.00     0.001 A 
ATOM     74  C   UNL A   1      40.549  21.287  27.231  1.00  0.00     0.001 A 
ATOM     75  C   UNL A   1      41.422  20.701  26.321  1.00  0.00     0.000 A 
ENDBRANCH  51  70
BRANCH  63  76
ATOM     76  C   UNL A   1      45.562  28.138  28.386  1.00  0.00    -0.014 A 
ATOM     77  C   UNL A   1      44.671  29.028  27.759  1.00  0.00     0.009 A 
ATOM     78  C   UNL A   1      46.866  28.042  27.876  1.00  0.00     0.009 A 
ATOM     79  C   UNL A   1      45.059  29.757  26.629  1.00  0.00     0.001 A 
ATOM     80  C   UNL A   1      47.261  28.788  26.764  1.00  0.00     0.001 A 
ATOM     81  C   UNL A   1      46.355  29.637  26.133  1.00  0.00     0.000 A 
ENDBRANCH  63  76
ENDBRANCH  37  38
ENDBRANCH  29  32
ENDBRANCH  27  28
ENDBRANCH  26  27
ENDBRANCH  25  26
ENDBRANCH   1  25
TORSDOF 16
ENDMDL
MODEL 3
REMARK VINA RESULT:     -10.4      1.405      2.043
REMARK SMILES CCCn1ncc(C(=O)N2CCC(C(=O)NCCCCCCNC(=O)c3ccc(-c4c5nc(c(-c6ccccc6)c6ccc([nH]6)c(-c6ccccc6)c6nc(c(-c7ccccc7)c7ccc4[nH]7)C=C6)C=C5)cc3)CC2)c1C
REMARK SMILES IDX 19 1 18 2 17 3 16 4 14 5 15 6 13 8 8 9 9 10 10 11 11 12
REMARK SMILES IDX 75 13 12 14 74 15 7 16 4 17 5 18 76 19 6 20 77 21 3 22 2 23
REMARK SMILES IDX 1 24 20 25 21 26 22 27 23 28 24 29 25 31 26 32 27 33 73 34
REMARK SMILES IDX 28 35 72 36 29 37 30 38 31 39 66 40 32 41 71 42 65 43 67 44
REMARK SMILES IDX 33 45 70 46 64 47 63 48 34 50 56 51 41 52 55 53 42 54 45 55
REMARK SMILES IDX 54 56 68 57 43 58 44 59 53 61 69 62 46 63 35 64 36 65 40 66
REMARK SMILES IDX 37 67 39 68 38 69 57 70 58 71 62 72 59 73 61 74 60 75 47 76
REMARK SMILES IDX 48 77 52 78 49 79 51 80 50 81
REMARK H PARENT 16 7 23 30 67 49 45 60
REMARK Flexibility Score: inf
ROOT
ATOM      1  C   UNL A   1      32.497  30.526  26.541  1.00  0.00     0.002 C 
ENDROOT
BRANCH   1   2
ATOM      2  C   UNL A   1      31.519  30.367  25.372  1.00  0.00     0.021 C 
BRANCH   2   3
ATOM      3  C   UNL A   1      31.006  28.945  25.162  1.00  0.00     0.116 C 
BRANCH   3   4
ATOM      4  N   UNL A   1      31.093  28.541  23.769  1.00  0.00    -0.356 N 
ATOM      5  C   UNL A   1      31.284  27.321  23.200  1.00  0.00     0.223 C 
ATOM      6  O   UNL A   1      31.326  27.261  21.969  1.00  0.00    -0.275 OA
ATOM      7  H   UNL A   1      30.996  29.280  23.125  1.00  0.00     0.163 HD
BRANCH   5   8
ATOM      8  C   UNL A   1      31.438  26.056  24.033  1.00  0.00     0.082 C 
ATOM      9  C   UNL A   1      33.536  22.794  23.573  1.00  0.00     0.257 C 
ATOM     10  O   UNL A   1      33.372  22.738  22.355  1.00  0.00    -0.269 OA
ATOM     11  N   UNL A   1      32.655  23.491  24.392  1.00  0.00    -0.338 N 
ATOM     12  C   UNL A   1      31.252  23.538  24.022  1.00  0.00     0.120 C 
ATOM     13  C   UNL A   1      33.108  24.562  25.268  1.00  0.00     0.120 C 
ATOM     14  C   UNL A   1      30.916  24.823  23.284  1.00  0.00     0.035 C 
ATOM     15  C   UNL A   1      32.859  25.922  24.612  1.00  0.00     0.035 C 
BRANCH   9  16
ATOM     16  C   UNL A   1      34.572  22.018  24.247  1.00  0.00     0.080 A 
ATOM     17  N   UNL A   1      36.536  21.152  24.779  1.00  0.00    -0.269 N 
ATOM     18  N   UNL A   1      35.636  20.303  25.321  1.00  0.00    -0.180 NA
ATOM     19  C   UNL A   1      35.942  22.259  24.220  1.00  0.00     0.048 A 
ATOM     20  C   UNL A   1      34.456  20.815  24.975  1.00  0.00     0.149 A 
ATOM     21  C   UNL A   1      36.675  23.423  23.668  1.00  0.00     0.067 C 
BRANCH  17  22
ATOM     22  C   UNL A   1      37.946  20.827  24.935  1.00  0.00     0.144 C 
BRANCH  22  23
ATOM     23  C   UNL A   1      38.757  21.710  25.894  1.00  0.00     0.020 C 
ATOM     24  C   UNL A   1      40.096  21.116  26.315  1.00  0.00     0.006 C 
ENDBRANCH  22  23
ENDBRANCH  17  22
ENDBRANCH   9  16
ENDBRANCH   5   8
ENDBRANCH   3   4
ENDBRANCH   2   3
ENDBRANCH   1   2
BRANCH   1  25
ATOM     25  C   UNL A   1      32.872  29.236  27.283  1.00  0.00     0.002 C 
BRANCH  25  26
ATOM     26  C   UNL A   1      34.333  28.779  27.172  1.00  0.00     0.021 C 
BRANCH  26  27
ATOM     27  C   UNL A   1      35.355  29.874  27.443  1.00  0.00     0.116 C 
BRANCH  27  28
ATOM     28  N   UNL A   1      35.459  30.203  28.862  1.00  0.00    -0.352 N 
ATOM     29  C   UNL A   1      36.353  29.707  29.783  1.00  0.00     0.251 C 
ATOM     30  H   UNL A   1      34.810  30.860  29.200  1.00  0.00     0.163 HD
ATOM     31  O   UNL A   1      36.107  29.756  30.988  1.00  0.00    -0.269 OA
BRANCH  29  32
ATOM     32  C   UNL A   1      37.612  29.109  29.311  1.00  0.00     0.039 A 
ATOM     33  C   UNL A   1      38.239  29.584  28.158  1.00  0.00     0.014 A 
ATOM     34  C   UNL A   1      38.176  28.070  30.050  1.00  0.00     0.014 A 
ATOM     35  C   UNL A   1      39.482  29.064  27.806  1.00  0.00     0.010 A 
ATOM     36  C   UNL A   1      39.458  27.648  29.777  1.00  0.00     0.010 A 
ATOM     37  C   UNL A   1      40.104  28.115  28.638  1.00  0.00    -0.014 A 
BRANCH  37  38
ATOM     38  C   UNL A   1      41.494  27.734  28.396  1.00  0.00     0.031 A 
ATOM     39  C   UNL A   1      41.653  26.422  27.716  1.00  0.00     0.074 A 
ATOM     40  C   UNL A   1      42.558  28.548  28.575  1.00  0.00     0.049 A 
ATOM     41  N   UNL A   1      42.125  25.334  28.226  1.00  0.00    -0.248 NA
ATOM     42  C   UNL A   1      41.100  26.261  26.360  1.00  0.00     0.031 C 
ATOM     43  C   UNL A   1      42.561  29.966  28.949  1.00  0.00     0.029 A 
ATOM     44  N   UNL A   1      43.879  28.296  28.347  1.00  0.00    -0.354 N 
ATOM     45  C   UNL A   1      42.136  24.406  27.192  1.00  0.00     0.074 A 
ATOM     46  C   UNL A   1      41.332  24.965  26.134  1.00  0.00     0.031 C 
ATOM     47  C   UNL A   1      43.776  30.500  28.690  1.00  0.00     0.029 A 
ATOM     48  C   UNL A   1      44.679  29.433  28.303  1.00  0.00     0.049 A 
ATOM     49  H   UNL A   1      44.236  27.387  28.223  1.00  0.00     0.167 HD
ATOM     50  C   UNL A   1      43.042  23.389  27.176  1.00  0.00     0.031 A 
ATOM     51  C   UNL A   1      45.989  29.500  27.963  1.00  0.00     0.031 A 
ATOM     52  C   UNL A   1      43.651  23.193  28.467  1.00  0.00     0.049 A 
ATOM     53  C   UNL A   1      46.560  28.148  28.127  1.00  0.00     0.074 A 
ATOM     54  C   UNL A   1      43.186  22.934  29.742  1.00  0.00     0.029 A 
ATOM     55  N   UNL A   1      44.931  23.667  28.626  1.00  0.00    -0.354 N 
ATOM     56  N   UNL A   1      46.723  27.575  29.282  1.00  0.00    -0.248 NA
ATOM     57  C   UNL A   1      46.579  27.257  26.980  1.00  0.00     0.031 C 
ATOM     58  C   UNL A   1      44.017  23.711  30.604  1.00  0.00     0.029 A 
ATOM     59  C   UNL A   1      44.990  24.336  29.821  1.00  0.00     0.049 A 
ATOM     60  H   UNL A   1      45.676  23.547  27.993  1.00  0.00     0.167 HD
ATOM     61  C   UNL A   1      46.386  26.249  29.061  1.00  0.00     0.074 A 
ATOM     62  C   UNL A   1      46.442  26.088  27.610  1.00  0.00     0.031 C 
ATOM     63  C   UNL A   1      45.818  25.499  30.052  1.00  0.00     0.031 A 
BRANCH  50  64
ATOM     64  C   UNL A   1      43.702  22.910  25.905  1.00  0.00    -0.014 A 
ATOM     65  C   UNL A   1      43.733  21.531  25.632  1.00  0.00     0.009 A 
ATOM     66  C   UNL A   1      44.552  23.726  25.131  1.00  0.00     0.009 A 
ATOM     67  C   UNL A   1      44.618  20.996  24.687  1.00  0.00     0.001 A 
ATOM     68  C   UNL A   1      45.404  23.201  24.157  1.00  0.00     0.001 A 
ATOM     69  C   UNL A   1      45.458  21.831  23.955  1.00  0.00     0.000 A 
ENDBRANCH  50  64
BRANCH  51  70
ATOM     70  C   UNL A   1      46.747  30.586  27.308  1.00  0.00    -0.014 A 
ATOM     71  C   UNL A   1      46.078  31.690  26.754  1.00  0.00     0.009 A 
ATOM     72  C   UNL A   1      48.137  30.686  27.491  1.00  0.00     0.009 A 
ATOM     73  C   UNL A   1      46.766  32.872  26.448  1.00  0.00     0.001 A 
ATOM     74  C   UNL A   1      48.825  31.864  27.182  1.00  0.00     0.001 A 
ATOM     75  C   UNL A   1      48.137  32.964  26.680  1.00  0.00     0.000 A 
ENDBRANCH  51  70
BRANCH  63  76
ATOM     76  C   UNL A   1      45.853  26.050  31.459  1.00  0.00    -0.014 A 
ATOM     77  C   UNL A   1      46.914  25.835  32.357  1.00  0.00     0.009 A 
ATOM     78  C   UNL A   1      44.813  26.904  31.858  1.00  0.00     0.009 A 
ATOM     79  C   UNL A   1      46.907  26.416  33.631  1.00  0.00     0.001 A 
ATOM     80  C   UNL A   1      44.818  27.503  33.119  1.00  0.00     0.001 A 
ATOM     81  C   UNL A   1      45.858  27.251  34.009  1.00  0.00     0.000 A 
ENDBRANCH  63  76
ENDBRANCH  37  38
ENDBRANCH  29  32
ENDBRANCH  27  28
ENDBRANCH  26  27
ENDBRANCH  25  26
ENDBRANCH   1  25
TORSDOF 16
ENDMDL
