MODEL 1
REMARK VINA RESULT:     -11.1      0.000      0.000
REMARK SMILES O=C(NCCCCCCNC(=O)c1ccccc1O[C@H]1CCOC2(CCSCC2)C1)c1ccc(-c2c3nc(c(-c4ccccc4)c4ccc([nH]4)c(-c4ccccc4)c4nc(c(-c5ccccc5)c5ccc2[nH]5)C=C4)C=C3)cc1
REMARK SMILES IDX 6 1 5 2 4 3 3 4 1 5 2 6 31 8 32 9 78 10 33 11 77 12 34 13
REMARK SMILES IDX 35 14 36 15 71 16 37 17 76 18 70 19 72 20 38 21 75 22 69 23
REMARK SMILES IDX 68 24 39 26 61 27 46 28 60 29 47 30 50 31 59 32 73 33 48 34
REMARK SMILES IDX 49 35 58 37 74 38 51 39 40 40 41 41 45 42 42 43 44 44 43 45
REMARK SMILES IDX 62 46 63 47 67 48 64 49 66 50 65 51 52 52 53 53 57 54 54 55
REMARK SMILES IDX 56 56 55 57 7 58 8 59 9 60 10 61 11 62 12 64 13 65 14 66
REMARK SMILES IDX 18 67 15 68 17 69 16 70 19 71 20 72 21 73 30 74 22 75 24 76
REMARK SMILES IDX 23 77 25 78 29 79 26 80 28 81 27 82
REMARK H PARENT 3 7 72 25 50 36 10 63
REMARK Flexibility Score: inf
ROOT
ATOM      1  C   UNL A   1      37.429  21.312  24.691  1.00  0.00     0.002 C 
ENDROOT
BRANCH   1   2
ATOM      2  C   UNL A   1      38.207  20.006  24.849  1.00  0.00     0.021 C 
BRANCH   2   3
ATOM      3  C   UNL A   1      39.116  19.937  26.069  1.00  0.00     0.116 C 
BRANCH   3   4
ATOM      4  N   UNL A   1      40.308  19.139  25.846  1.00  0.00    -0.352 N 
ATOM      5  O   UNL A   1      42.519  18.737  25.614  1.00  0.00    -0.269 OA
ATOM      6  C   UNL A   1      41.627  19.506  25.961  1.00  0.00     0.251 C 
ATOM      7  H   UNL A   1      40.150  18.207  25.575  1.00  0.00     0.163 HD
BRANCH   6   8
ATOM      8  C   UNL A   1      41.972  20.846  26.482  1.00  0.00     0.039 A 
ATOM      9  C   UNL A   1      41.992  21.095  27.856  1.00  0.00     0.014 A 
ATOM     10  C   UNL A   1      42.286  21.866  25.579  1.00  0.00     0.014 A 
ATOM     11  C   UNL A   1      42.198  22.388  28.321  1.00  0.00     0.010 A 
ATOM     12  C   UNL A   1      42.574  23.148  26.052  1.00  0.00     0.010 A 
ATOM     13  C   UNL A   1      42.510  23.425  27.426  1.00  0.00    -0.014 A 
BRANCH  13  14
ATOM     14  C   UNL A   1      42.846  24.769  27.960  1.00  0.00     0.031 A 
ATOM     15  C   UNL A   1      41.782  25.797  28.220  1.00  0.00     0.074 A 
ATOM     16  C   UNL A   1      44.135  25.044  28.233  1.00  0.00     0.049 A 
ATOM     17  N   UNL A   1      41.911  27.005  28.711  1.00  0.00    -0.248 NA
ATOM     18  C   UNL A   1      40.398  25.431  27.883  1.00  0.00     0.031 C 
ATOM     19  C   UNL A   1      45.258  24.127  28.015  1.00  0.00     0.029 A 
ATOM     20  N   UNL A   1      44.719  26.163  28.768  1.00  0.00    -0.354 N 
ATOM     21  C   UNL A   1      40.634  27.549  28.726  1.00  0.00     0.074 A 
ATOM     22  C   UNL A   1      39.744  26.548  28.174  1.00  0.00     0.031 C 
ATOM     23  C   UNL A   1      46.385  24.700  28.458  1.00  0.00     0.029 A 
ATOM     24  C   UNL A   1      46.079  26.044  28.930  1.00  0.00     0.049 A 
ATOM     25  H   UNL A   1      44.214  26.972  29.013  1.00  0.00     0.167 HD
ATOM     26  C   UNL A   1      40.239  28.770  29.163  1.00  0.00     0.031 A 
ATOM     27  C   UNL A   1      46.984  26.923  29.394  1.00  0.00     0.031 A 
ATOM     28  C   UNL A   1      41.128  29.765  29.706  1.00  0.00     0.049 A 
ATOM     29  C   UNL A   1      46.523  28.280  29.837  1.00  0.00     0.074 A 
ATOM     30  C   UNL A   1      40.817  31.019  30.204  1.00  0.00     0.029 A 
ATOM     31  N   UNL A   1      42.502  29.621  29.815  1.00  0.00    -0.354 N 
ATOM     32  N   UNL A   1      45.305  28.762  29.881  1.00  0.00    -0.248 NA
ATOM     33  C   UNL A   1      47.561  29.212  30.294  1.00  0.00     0.031 C 
ATOM     34  C   UNL A   1      42.010  31.654  30.567  1.00  0.00     0.029 A 
ATOM     35  C   UNL A   1      43.057  30.774  30.348  1.00  0.00     0.049 A 
ATOM     36  H   UNL A   1      43.010  28.819  29.554  1.00  0.00     0.167 HD
ATOM     37  C   UNL A   1      45.428  30.050  30.384  1.00  0.00     0.074 A 
ATOM     38  C   UNL A   1      46.835  30.261  30.652  1.00  0.00     0.031 C 
ATOM     39  C   UNL A   1      44.461  30.974  30.600  1.00  0.00     0.031 A 
BRANCH  26  40
ATOM     40  C   UNL A   1      38.779  29.114  29.047  1.00  0.00    -0.014 A 
ATOM     41  C   UNL A   1      37.906  28.972  30.137  1.00  0.00     0.009 A 
ATOM     42  C   UNL A   1      38.281  29.637  27.843  1.00  0.00     0.009 A 
ATOM     43  C   UNL A   1      36.559  29.322  30.014  1.00  0.00     0.001 A 
ATOM     44  C   UNL A   1      36.940  30.008  27.730  1.00  0.00     0.001 A 
ATOM     45  C   UNL A   1      36.079  29.844  28.813  1.00  0.00     0.000 A 
ENDBRANCH  26  40
BRANCH  27  46
ATOM     46  C   UNL A   1      48.420  26.547  29.444  1.00  0.00    -0.014 A 
ATOM     47  C   UNL A   1      48.950  25.899  30.569  1.00  0.00     0.009 A 
ATOM     48  C   UNL A   1      49.264  26.822  28.355  1.00  0.00     0.009 A 
ATOM     49  C   UNL A   1      50.302  25.551  30.610  1.00  0.00     0.001 A 
ATOM     50  C   UNL A   1      50.607  26.446  28.388  1.00  0.00     0.001 A 
ATOM     51  C   UNL A   1      51.128  25.819  29.518  1.00  0.00     0.000 A 
ENDBRANCH  27  46
BRANCH  39  52
ATOM     52  C   UNL A   1      44.898  32.289  31.178  1.00  0.00    -0.014 A 
ATOM     53  C   UNL A   1      45.254  33.364  30.349  1.00  0.00     0.009 A 
ATOM     54  C   UNL A   1      44.935  32.459  32.570  1.00  0.00     0.009 A 
ATOM     55  C   UNL A   1      45.674  34.573  30.906  1.00  0.00     0.001 A 
ATOM     56  C   UNL A   1      45.328  33.678  33.123  1.00  0.00     0.001 A 
ATOM     57  C   UNL A   1      45.707  34.730  32.291  1.00  0.00     0.000 A 
ENDBRANCH  39  52
ENDBRANCH  13  14
ENDBRANCH   6   8
ENDBRANCH   3   4
ENDBRANCH   2   3
ENDBRANCH   1   2
BRANCH   1  58
ATOM     58  C   UNL A   1      37.826  22.444  25.643  1.00  0.00     0.002 C 
BRANCH  58  59
ATOM     59  C   UNL A   1      37.083  23.773  25.458  1.00  0.00     0.021 C 
BRANCH  59  60
ATOM     60  C   UNL A   1      35.562  23.680  25.486  1.00  0.00     0.116 C 
BRANCH  60  61
ATOM     61  N   UNL A   1      35.059  23.240  26.769  1.00  0.00    -0.352 N 
ATOM     62  C   UNL A   1      34.160  22.245  27.045  1.00  0.00     0.255 C 
ATOM     63  H   UNL A   1      35.411  23.724  27.551  1.00  0.00     0.163 HD
ATOM     64  O   UNL A   1      33.807  22.055  28.209  1.00  0.00    -0.269 OA
BRANCH  62  65
ATOM     65  C   UNL A   1      33.547  21.437  25.968  1.00  0.00     0.081 A 
ATOM     66  C   UNL A   1      34.284  20.319  25.543  1.00  0.00     0.018 A 
ATOM     67  C   UNL A   1      32.349  21.791  25.322  1.00  0.00     0.132 A 
ATOM     68  C   UNL A   1      33.832  19.541  24.481  1.00  0.00     0.001 A 
ATOM     69  C   UNL A   1      31.941  21.028  24.220  1.00  0.00     0.047 A 
ATOM     70  C   UNL A   1      32.667  19.903  23.813  1.00  0.00     0.004 A 
BRANCH  67  71
ATOM     71  O   UNL A   1      31.659  22.868  25.810  1.00  0.00    -0.489 OA
BRANCH  71  72
ATOM     72  C   UNL A   1      31.860  24.163  25.230  1.00  0.00     0.178 C 
ATOM     73  C   UNL A   1      30.745  24.557  24.257  1.00  0.00     0.074 C 
ATOM     74  C   UNL A   1      31.853  25.192  26.373  1.00  0.00     0.080 C 
ATOM     75  C   UNL A   1      31.001  25.960  23.745  1.00  0.00     0.165 C 
ATOM     76  C   UNL A   1      32.012  26.638  25.851  1.00  0.00     0.073 C 
ATOM     77  O   UNL A   1      31.045  26.894  24.817  1.00  0.00    -0.375 OA
ATOM     78  C   UNL A   1      33.456  26.879  25.357  1.00  0.00     0.046 C 
ATOM     79  C   UNL A   1      31.663  27.624  26.990  1.00  0.00     0.046 C 
ATOM     80  C   UNL A   1      33.713  28.286  24.832  1.00  0.00     0.072 C 
ATOM     81  C   UNL A   1      31.769  29.092  26.584  1.00  0.00     0.072 C 
ATOM     82  S   UNL A   1      33.464  29.534  26.120  1.00  0.00    -0.162 SA
ENDBRANCH  71  72
ENDBRANCH  67  71
ENDBRANCH  62  65
ENDBRANCH  60  61
ENDBRANCH  59  60
ENDBRANCH  58  59
ENDBRANCH   1  58
TORSDOF 15
ENDMDL
MODEL 2
REMARK VINA RESULT:     -11.1      0.229      5.818
REMARK SMILES O=C(NCCCCCCNC(=O)c1ccccc1O[C@H]1CCOC2(CCSCC2)C1)c1ccc(-c2c3nc(c(-c4ccccc4)c4ccc([nH]4)c(-c4ccccc4)c4nc(c(-c5ccccc5)c5ccc2[nH]5)C=C4)C=C3)cc1
REMARK SMILES IDX 6 1 5 2 4 3 3 4 1 5 2 6 31 8 32 9 78 10 33 11 77 12 34 13
REMARK SMILES IDX 35 14 36 15 71 16 37 17 76 18 70 19 72 20 38 21 75 22 69 23
REMARK SMILES IDX 68 24 39 26 61 27 46 28 60 29 47 30 50 31 59 32 73 33 48 34
REMARK SMILES IDX 49 35 58 37 74 38 51 39 40 40 41 41 45 42 42 43 44 44 43 45
REMARK SMILES IDX 62 46 63 47 67 48 64 49 66 50 65 51 52 52 53 53 57 54 54 55
REMARK SMILES IDX 56 56 55 57 7 58 8 59 9 60 10 61 11 62 12 64 13 65 14 66
REMARK SMILES IDX 18 67 15 68 17 69 16 70 19 71 20 72 21 73 30 74 22 75 24 76
REMARK SMILES IDX 23 77 25 78 29 79 26 80 28 81 27 82
REMARK H PARENT 3 7 72 25 50 36 10 63
REMARK Flexibility Score: inf
ROOT
ATOM      1  C   UNL A   1      37.429  21.257  24.718  1.00  0.00     0.002 C 
ENDROOT
BRANCH   1   2
ATOM      2  C   UNL A   1      38.228  19.964  24.878  1.00  0.00     0.021 C 
BRANCH   2   3
ATOM      3  C   UNL A   1      39.169  19.928  26.074  1.00  0.00     0.116 C 
BRANCH   3   4
ATOM      4  N   UNL A   1      40.372  19.152  25.829  1.00  0.00    -0.352 N 
ATOM      5  O   UNL A   1      42.588  18.789  25.582  1.00  0.00    -0.269 OA
ATOM      6  C   UNL A   1      41.685  19.535  25.949  1.00  0.00     0.251 C 
ATOM      7  H   UNL A   1      40.226  18.224  25.536  1.00  0.00     0.163 HD
BRANCH   6   8
ATOM      8  C   UNL A   1      42.012  20.868  26.502  1.00  0.00     0.039 A 
ATOM      9  C   UNL A   1      42.032  21.084  27.881  1.00  0.00     0.014 A 
ATOM     10  C   UNL A   1      42.309  21.913  25.623  1.00  0.00     0.014 A 
ATOM     11  C   UNL A   1      42.221  22.368  28.377  1.00  0.00     0.010 A 
ATOM     12  C   UNL A   1      42.580  23.188  26.126  1.00  0.00     0.010 A 
ATOM     13  C   UNL A   1      42.516  23.431  27.506  1.00  0.00    -0.014 A 
BRANCH  13  14
ATOM     14  C   UNL A   1      42.834  24.766  28.072  1.00  0.00     0.031 A 
ATOM     15  C   UNL A   1      44.243  25.155  28.418  1.00  0.00     0.074 A 
ATOM     16  C   UNL A   1      41.826  25.641  28.251  1.00  0.00     0.049 A 
ATOM     17  N   UNL A   1      44.687  26.292  28.893  1.00  0.00    -0.248 NA
ATOM     18  C   UNL A   1      45.289  24.141  28.210  1.00  0.00     0.031 C 
ATOM     19  C   UNL A   1      40.415  25.373  27.959  1.00  0.00     0.029 A 
ATOM     20  N   UNL A   1      41.833  26.936  28.701  1.00  0.00    -0.354 N 
ATOM     21  C   UNL A   1      46.056  26.128  29.058  1.00  0.00     0.074 A 
ATOM     22  C   UNL A   1      46.369  24.772  28.653  1.00  0.00     0.031 C 
ATOM     23  C   UNL A   1      39.700  26.483  28.190  1.00  0.00     0.029 A 
ATOM     24  C   UNL A   1      40.588  27.518  28.706  1.00  0.00     0.049 A 
ATOM     25  H   UNL A   1      42.649  27.402  28.993  1.00  0.00     0.167 HD
ATOM     26  C   UNL A   1      46.969  27.026  29.503  1.00  0.00     0.031 A 
ATOM     27  C   UNL A   1      40.198  28.744  29.095  1.00  0.00     0.031 A 
ATOM     28  C   UNL A   1      46.652  28.371  29.910  1.00  0.00     0.049 A 
ATOM     29  C   UNL A   1      41.224  29.705  29.617  1.00  0.00     0.074 A 
ATOM     30  C   UNL A   1      47.513  29.364  30.346  1.00  0.00     0.029 A 
ATOM     31  N   UNL A   1      45.376  28.909  29.938  1.00  0.00    -0.354 N 
ATOM     32  N   UNL A   1      42.521  29.544  29.729  1.00  0.00    -0.248 NA
ATOM     33  C   UNL A   1      40.734  31.014  30.066  1.00  0.00     0.031 C 
ATOM     34  C   UNL A   1      46.750  30.486  30.687  1.00  0.00     0.029 A 
ATOM     35  C   UNL A   1      45.421  30.211  30.409  1.00  0.00     0.049 A 
ATOM     36  H   UNL A   1      44.556  28.436  29.664  1.00  0.00     0.167 HD
ATOM     37  C   UNL A   1      43.004  30.737  30.248  1.00  0.00     0.074 A 
ATOM     38  C   UNL A   1      41.864  31.618  30.404  1.00  0.00     0.031 C 
ATOM     39  C   UNL A   1      44.277  31.071  30.569  1.00  0.00     0.031 A 
BRANCH  26  40
ATOM     40  C   UNL A   1      48.400  26.574  29.602  1.00  0.00    -0.014 A 
ATOM     41  C   UNL A   1      49.303  26.772  28.545  1.00  0.00     0.009 A 
ATOM     42  C   UNL A   1      48.865  25.990  30.791  1.00  0.00     0.009 A 
ATOM     43  C   UNL A   1      50.634  26.368  28.669  1.00  0.00     0.001 A 
ATOM     44  C   UNL A   1      50.202  25.610  30.920  1.00  0.00     0.001 A 
ATOM     45  C   UNL A   1      51.084  25.793  29.857  1.00  0.00     0.000 A 
ENDBRANCH  26  40
BRANCH  27  46
ATOM     46  C   UNL A   1      38.764  29.122  29.018  1.00  0.00    -0.014 A 
ATOM     47  C   UNL A   1      37.923  28.967  30.129  1.00  0.00     0.009 A 
ATOM     48  C   UNL A   1      38.234  29.656  27.832  1.00  0.00     0.009 A 
ATOM     49  C   UNL A   1      36.575  29.322  30.049  1.00  0.00     0.001 A 
ATOM     50  C   UNL A   1      36.893  30.037  27.764  1.00  0.00     0.001 A 
ATOM     51  C   UNL A   1      36.062  29.862  28.869  1.00  0.00     0.000 A 
ENDBRANCH  27  46
BRANCH  39  52
ATOM     52  C   UNL A   1      44.501  32.458  31.100  1.00  0.00    -0.014 A 
ATOM     53  C   UNL A   1      44.486  32.720  32.478  1.00  0.00     0.009 A 
ATOM     54  C   UNL A   1      44.748  33.512  30.207  1.00  0.00     0.009 A 
ATOM     55  C   UNL A   1      44.679  34.020  32.950  1.00  0.00     0.001 A 
ATOM     56  C   UNL A   1      44.969  34.805  30.683  1.00  0.00     0.001 A 
ATOM     57  C   UNL A   1      44.924  35.059  32.053  1.00  0.00     0.000 A 
ENDBRANCH  39  52
ENDBRANCH  13  14
ENDBRANCH   6   8
ENDBRANCH   3   4
ENDBRANCH   2   3
ENDBRANCH   1   2
BRANCH   1  58
ATOM     58  C   UNL A   1      37.796  22.391  25.679  1.00  0.00     0.002 C 
BRANCH  58  59
ATOM     59  C   UNL A   1      37.098  23.734  25.436  1.00  0.00     0.021 C 
BRANCH  59  60
ATOM     60  C   UNL A   1      35.576  23.701  25.505  1.00  0.00     0.116 C 
BRANCH  60  61
ATOM     61  N   UNL A   1      35.091  23.227  26.783  1.00  0.00    -0.352 N 
ATOM     62  C   UNL A   1      34.180  22.239  27.045  1.00  0.00     0.255 C 
ATOM     63  H   UNL A   1      35.467  23.679  27.573  1.00  0.00     0.163 HD
ATOM     64  O   UNL A   1      33.848  22.016  28.208  1.00  0.00    -0.269 OA
BRANCH  62  65
ATOM     65  C   UNL A   1      33.533  21.476  25.954  1.00  0.00     0.081 A 
ATOM     66  C   UNL A   1      34.236  20.353  25.488  1.00  0.00     0.018 A 
ATOM     67  C   UNL A   1      32.336  21.878  25.335  1.00  0.00     0.132 A 
ATOM     68  C   UNL A   1      33.750  19.617  24.411  1.00  0.00     0.001 A 
ATOM     69  C   UNL A   1      31.894  21.157  24.218  1.00  0.00     0.047 A 
ATOM     70  C   UNL A   1      32.586  20.026  23.770  1.00  0.00     0.004 A 
BRANCH  67  71
ATOM     71  O   UNL A   1      31.680  22.959  25.863  1.00  0.00    -0.489 OA
BRANCH  71  72
ATOM     72  C   UNL A   1      31.860  24.254  25.277  1.00  0.00     0.178 C 
ATOM     73  C   UNL A   1      30.721  24.640  24.329  1.00  0.00     0.074 C 
ATOM     74  C   UNL A   1      31.872  25.284  26.419  1.00  0.00     0.080 C 
ATOM     75  C   UNL A   1      30.956  26.044  23.811  1.00  0.00     0.165 C 
ATOM     76  C   UNL A   1      32.009  26.731  25.892  1.00  0.00     0.073 C 
ATOM     77  O   UNL A   1      31.018  26.980  24.881  1.00  0.00    -0.375 OA
ATOM     78  C   UNL A   1      33.441  26.981  25.366  1.00  0.00     0.046 C 
ATOM     79  C   UNL A   1      31.680  27.715  27.038  1.00  0.00     0.046 C 
ATOM     80  C   UNL A   1      33.676  28.388  24.835  1.00  0.00     0.072 C 
ATOM     81  C   UNL A   1      31.767  29.184  26.630  1.00  0.00     0.072 C 
ATOM     82  S   UNL A   1      33.449  29.636  26.127  1.00  0.00    -0.162 SA
ENDBRANCH  71  72
ENDBRANCH  67  71
ENDBRANCH  62  65
ENDBRANCH  60  61
ENDBRANCH  59  60
ENDBRANCH  58  59
ENDBRANCH   1  58
TORSDOF 15
ENDMDL
MODEL 3
REMARK VINA RESULT:     -10.9      1.964      6.898
REMARK SMILES O=C(NCCCCCCNC(=O)c1ccccc1O[C@H]1CCOC2(CCSCC2)C1)c1ccc(-c2c3nc(c(-c4ccccc4)c4ccc([nH]4)c(-c4ccccc4)c4nc(c(-c5ccccc5)c5ccc2[nH]5)C=C4)C=C3)cc1
REMARK SMILES IDX 6 1 5 2 4 3 3 4 1 5 2 6 31 8 32 9 78 10 33 11 77 12 34 13
REMARK SMILES IDX 35 14 36 15 71 16 37 17 76 18 70 19 72 20 38 21 75 22 69 23
REMARK SMILES IDX 68 24 39 26 61 27 46 28 60 29 47 30 50 31 59 32 73 33 48 34
REMARK SMILES IDX 49 35 58 37 74 38 51 39 40 40 41 41 45 42 42 43 44 44 43 45
REMARK SMILES IDX 62 46 63 47 67 48 64 49 66 50 65 51 52 52 53 53 57 54 54 55
REMARK SMILES IDX 56 56 55 57 7 58 8 59 9 60 10 61 11 62 12 64 13 65 14 66
REMARK SMILES IDX 18 67 15 68 17 69 16 70 19 71 20 72 21 73 30 74 22 75 24 76
REMARK SMILES IDX 23 77 25 78 29 79 26 80 28 81 27 82
REMARK H PARENT 3 7 72 25 50 36 10 63
REMARK Flexibility Score: inf
ROOT
ATOM      1  C   UNL A   1      37.268  20.901  24.530  1.00  0.00     0.002 C 
ENDROOT
BRANCH   1   2
ATOM      2  C   UNL A   1      38.127  19.705  24.937  1.00  0.00     0.021 C 
BRANCH   2   3
ATOM      3  C   UNL A   1      39.191  19.998  25.987  1.00  0.00     0.116 C 
BRANCH   3   4
ATOM      4  N   UNL A   1      40.395  19.204  25.815  1.00  0.00    -0.352 N 
ATOM      5  O   UNL A   1      42.615  18.808  25.690  1.00  0.00    -0.269 OA
ATOM      6  C   UNL A   1      41.705  19.571  26.000  1.00  0.00     0.251 C 
ATOM      7  H   UNL A   1      40.252  18.274  25.527  1.00  0.00     0.163 HD
BRANCH   6   8
ATOM      8  C   UNL A   1      42.021  20.906  26.552  1.00  0.00     0.039 A 
ATOM      9  C   UNL A   1      41.985  21.137  27.929  1.00  0.00     0.014 A 
ATOM     10  C   UNL A   1      42.363  21.940  25.675  1.00  0.00     0.014 A 
ATOM     11  C   UNL A   1      42.165  22.425  28.418  1.00  0.00     0.010 A 
ATOM     12  C   UNL A   1      42.625  23.218  26.176  1.00  0.00     0.010 A 
ATOM     13  C   UNL A   1      42.505  23.476  27.550  1.00  0.00    -0.014 A 
BRANCH  13  14
ATOM     14  C   UNL A   1      42.811  24.814  28.114  1.00  0.00     0.031 A 
ATOM     15  C   UNL A   1      44.214  25.209  28.477  1.00  0.00     0.074 A 
ATOM     16  C   UNL A   1      41.799  25.687  28.277  1.00  0.00     0.049 A 
ATOM     17  N   UNL A   1      44.649  26.349  28.953  1.00  0.00    -0.248 NA
ATOM     18  C   UNL A   1      45.266  24.198  28.287  1.00  0.00     0.031 C 
ATOM     19  C   UNL A   1      40.392  25.413  27.967  1.00  0.00     0.029 A 
ATOM     20  N   UNL A   1      41.795  26.983  28.721  1.00  0.00    -0.354 N 
ATOM     21  C   UNL A   1      46.016  26.190  29.138  1.00  0.00     0.074 A 
ATOM     22  C   UNL A   1      46.338  24.834  28.743  1.00  0.00     0.031 C 
ATOM     23  C   UNL A   1      39.671  26.522  28.184  1.00  0.00     0.029 A 
ATOM     24  C   UNL A   1      40.549  27.561  28.707  1.00  0.00     0.049 A 
ATOM     25  H   UNL A   1      42.606  27.454  29.022  1.00  0.00     0.167 HD
ATOM     26  C   UNL A   1      46.920  27.093  29.591  1.00  0.00     0.031 A 
ATOM     27  C   UNL A   1      40.149  28.788  29.086  1.00  0.00     0.031 A 
ATOM     28  C   UNL A   1      46.594  28.439  29.989  1.00  0.00     0.049 A 
ATOM     29  C   UNL A   1      41.166  29.754  29.618  1.00  0.00     0.074 A 
ATOM     30  C   UNL A   1      47.445  29.436  30.432  1.00  0.00     0.029 A 
ATOM     31  N   UNL A   1      45.315  28.972  29.998  1.00  0.00    -0.354 N 
ATOM     32  N   UNL A   1      42.461  29.598  29.748  1.00  0.00    -0.248 NA
ATOM     33  C   UNL A   1      40.665  31.063  30.055  1.00  0.00     0.031 C 
ATOM     34  C   UNL A   1      46.675  30.557  30.759  1.00  0.00     0.029 A 
ATOM     35  C   UNL A   1      45.350  30.277  30.464  1.00  0.00     0.049 A 
ATOM     36  H   UNL A   1      44.501  28.496  29.714  1.00  0.00     0.167 HD
ATOM     37  C   UNL A   1      42.934  30.795  30.269  1.00  0.00     0.074 A 
ATOM     38  C   UNL A   1      41.789  31.672  30.406  1.00  0.00     0.031 C 
ATOM     39  C   UNL A   1      44.201  31.134  30.606  1.00  0.00     0.031 A 
BRANCH  26  40
ATOM     40  C   UNL A   1      48.351  26.646  29.711  1.00  0.00    -0.014 A 
ATOM     41  C   UNL A   1      48.818  25.994  30.864  1.00  0.00     0.009 A 
ATOM     42  C   UNL A   1      49.232  26.833  28.634  1.00  0.00     0.009 A 
ATOM     43  C   UNL A   1      50.145  25.565  30.943  1.00  0.00     0.001 A 
ATOM     44  C   UNL A   1      50.550  26.382  28.707  1.00  0.00     0.001 A 
ATOM     45  C   UNL A   1      51.008  25.754  29.864  1.00  0.00     0.000 A 
ENDBRANCH  26  40
BRANCH  27  46
ATOM     46  C   UNL A   1      38.716  29.161  28.989  1.00  0.00    -0.014 A 
ATOM     47  C   UNL A   1      37.866  29.029  30.096  1.00  0.00     0.009 A 
ATOM     48  C   UNL A   1      38.195  29.668  27.786  1.00  0.00     0.009 A 
ATOM     49  C   UNL A   1      36.517  29.379  29.996  1.00  0.00     0.001 A 
ATOM     50  C   UNL A   1      36.854  30.044  27.699  1.00  0.00     0.001 A 
ATOM     51  C   UNL A   1      36.014  29.892  28.800  1.00  0.00     0.000 A 
ENDBRANCH  27  46
BRANCH  39  52
ATOM     52  C   UNL A   1      44.414  32.524  31.133  1.00  0.00    -0.014 A 
ATOM     53  C   UNL A   1      44.359  32.795  32.509  1.00  0.00     0.009 A 
ATOM     54  C   UNL A   1      44.691  33.571  30.241  1.00  0.00     0.009 A 
ATOM     55  C   UNL A   1      44.542  34.097  32.978  1.00  0.00     0.001 A 
ATOM     56  C   UNL A   1      44.901  34.866  30.716  1.00  0.00     0.001 A 
ATOM     57  C   UNL A   1      44.817  35.130  32.082  1.00  0.00     0.000 A 
ENDBRANCH  39  52
ENDBRANCH  13  14
ENDBRANCH   6   8
ENDBRANCH   3   4
ENDBRANCH   2   3
ENDBRANCH   1   2
BRANCH   1  58
ATOM     58  C   UNL A   1      37.485  22.184  25.338  1.00  0.00     0.002 C 
BRANCH  58  59
ATOM     59  C   UNL A   1      36.811  23.448  24.792  1.00  0.00     0.021 C 
BRANCH  59  60
ATOM     60  C   UNL A   1      35.826  24.123  25.739  1.00  0.00     0.116 C 
BRANCH  60  61
ATOM     61  N   UNL A   1      35.218  23.190  26.662  1.00  0.00    -0.352 N 
ATOM     62  C   UNL A   1      33.891  22.919  26.863  1.00  0.00     0.255 C 
ATOM     63  H   UNL A   1      35.846  22.679  27.223  1.00  0.00     0.163 HD
ATOM     64  O   UNL A   1      33.564  22.126  27.744  1.00  0.00    -0.269 OA
BRANCH  62  65
ATOM     65  C   UNL A   1      32.836  23.612  26.091  1.00  0.00     0.081 A 
ATOM     66  C   UNL A   1      32.119  24.602  26.783  1.00  0.00     0.018 A 
ATOM     67  C   UNL A   1      32.482  23.260  24.777  1.00  0.00     0.132 A 
ATOM     68  C   UNL A   1      31.052  25.255  26.170  1.00  0.00     0.001 A 
ATOM     69  C   UNL A   1      31.372  23.889  24.199  1.00  0.00     0.047 A 
ATOM     70  C   UNL A   1      30.673  24.890  24.883  1.00  0.00     0.004 A 
BRANCH  67  71
ATOM     71  O   UNL A   1      33.246  22.314  24.146  1.00  0.00    -0.489 OA
BRANCH  71  72
ATOM     72  C   UNL A   1      32.784  20.960  24.073  1.00  0.00     0.178 C 
ATOM     73  C   UNL A   1      32.325  20.564  22.667  1.00  0.00     0.074 C 
ATOM     74  C   UNL A   1      33.962  20.045  24.443  1.00  0.00     0.080 C 
ATOM     75  C   UNL A   1      31.919  19.104  22.666  1.00  0.00     0.165 C 
ATOM     76  C   UNL A   1      33.586  18.548  24.346  1.00  0.00     0.073 C 
ATOM     77  O   UNL A   1      33.003  18.272  23.061  1.00  0.00    -0.375 OA
ATOM     78  C   UNL A   1      32.640  18.153  25.502  1.00  0.00     0.046 C 
ATOM     79  C   UNL A   1      34.879  17.702  24.399  1.00  0.00     0.046 C 
ATOM     80  C   UNL A   1      32.222  16.689  25.498  1.00  0.00     0.072 C 
ATOM     81  C   UNL A   1      34.633  16.199  24.294  1.00  0.00     0.072 C 
ATOM     82  S   UNL A   1      33.647  15.587  25.687  1.00  0.00    -0.162 SA
ENDBRANCH  71  72
ENDBRANCH  67  71
ENDBRANCH  62  65
ENDBRANCH  60  61
ENDBRANCH  59  60
ENDBRANCH  58  59
ENDBRANCH   1  58
TORSDOF 15
ENDMDL
