MODEL 1
REMARK VINA RESULT:     -11.3      0.000      0.000
REMARK SMILES O=C(NCCCCCCNC(=O)c1cc(-c2cccc(Cl)c2)oc1C(F)(F)F)c1ccc(-c2c3nc(c(-c4ccccc4)c4ccc([nH]4)c(-c4ccccc4)c4nc(c(-c5ccccc5)c5ccc2[nH]5)C=C4)C=C3)cc1
REMARK SMILES IDX 6 1 5 2 4 3 3 4 1 5 2 6 29 8 30 9 76 10 31 11 75 12 32 13
REMARK SMILES IDX 33 14 34 15 69 16 35 17 74 18 68 19 70 20 36 21 73 22 67 23
REMARK SMILES IDX 66 24 37 26 59 27 44 28 58 29 45 30 48 31 57 32 71 33 46 34
REMARK SMILES IDX 47 35 56 37 72 38 49 39 38 40 39 41 43 42 40 43 42 44 41 45
REMARK SMILES IDX 60 46 61 47 65 48 62 49 64 50 63 51 50 52 51 53 55 54 52 55
REMARK SMILES IDX 54 56 53 57 7 58 8 59 9 60 10 61 11 62 12 64 13 65 14 66
REMARK SMILES IDX 24 67 15 68 23 69 25 70 26 71 27 72 28 73 16 74 17 75 22 76
REMARK SMILES IDX 18 77 20 78 19 79 21 80
REMARK H PARENT 3 7 70 25 48 36 10 63
REMARK Flexibility Score: inf
ROOT
ATOM      1  C   UNL A   1      36.583  21.000  24.787  1.00  0.00     0.002 C 
ENDROOT
BRANCH   1   2
ATOM      2  C   UNL A   1      37.799  20.076  24.741  1.00  0.00     0.021 C 
BRANCH   2   3
ATOM      3  C   UNL A   1      38.843  20.324  25.820  1.00  0.00     0.116 C 
BRANCH   3   4
ATOM      4  N   UNL A   1      39.968  19.407  25.746  1.00  0.00    -0.352 N 
ATOM      5  O   UNL A   1      42.140  18.785  25.784  1.00  0.00    -0.269 OA
ATOM      6  C   UNL A   1      41.294  19.639  26.027  1.00  0.00     0.251 C 
ATOM      7  H   UNL A   1      39.751  18.492  25.454  1.00  0.00     0.163 HD
BRANCH   6   8
ATOM      8  C   UNL A   1      41.703  20.942  26.600  1.00  0.00     0.039 A 
ATOM      9  C   UNL A   1      41.688  21.146  27.979  1.00  0.00     0.014 A 
ATOM     10  C   UNL A   1      42.100  21.974  25.742  1.00  0.00     0.014 A 
ATOM     11  C   UNL A   1      41.918  22.417  28.491  1.00  0.00     0.010 A 
ATOM     12  C   UNL A   1      42.423  23.229  26.267  1.00  0.00     0.010 A 
ATOM     13  C   UNL A   1      42.305  23.471  27.644  1.00  0.00    -0.014 A 
BRANCH  13  14
ATOM     14  C   UNL A   1      42.643  24.783  28.250  1.00  0.00     0.031 A 
ATOM     15  C   UNL A   1      44.060  25.161  28.578  1.00  0.00     0.074 A 
ATOM     16  C   UNL A   1      41.647  25.672  28.442  1.00  0.00     0.049 A 
ATOM     17  N   UNL A   1      44.522  26.305  29.020  1.00  0.00    -0.248 NA
ATOM     18  C   UNL A   1      45.093  24.130  28.393  1.00  0.00     0.031 C 
ATOM     19  C   UNL A   1      40.227  25.413  28.180  1.00  0.00     0.029 A 
ATOM     20  N   UNL A   1      41.675  26.976  28.861  1.00  0.00    -0.354 N 
ATOM     21  C   UNL A   1      45.892  26.130  29.175  1.00  0.00     0.074 A 
ATOM     22  C   UNL A   1      46.184  24.760  28.807  1.00  0.00     0.031 C 
ATOM     23  C   UNL A   1      39.533  26.542  28.378  1.00  0.00     0.029 A 
ATOM     24  C   UNL A   1      40.443  27.583  28.839  1.00  0.00     0.049 A 
ATOM     25  H   UNL A   1      42.497  27.434  29.150  1.00  0.00     0.167 HD
ATOM     26  C   UNL A   1      46.821  27.030  29.580  1.00  0.00     0.031 A 
ATOM     27  C   UNL A   1      40.078  28.838  29.157  1.00  0.00     0.031 A 
ATOM     28  C   UNL A   1      46.528  28.391  29.954  1.00  0.00     0.049 A 
ATOM     29  C   UNL A   1      41.127  29.809  29.608  1.00  0.00     0.074 A 
ATOM     30  C   UNL A   1      47.405  29.377  30.375  1.00  0.00     0.029 A 
ATOM     31  N   UNL A   1      45.263  28.955  29.952  1.00  0.00    -0.354 N 
ATOM     32  N   UNL A   1      42.420  29.629  29.726  1.00  0.00    -0.248 NA
ATOM     33  C   UNL A   1      40.667  31.156  29.967  1.00  0.00     0.031 C 
ATOM     34  C   UNL A   1      46.662  30.528  30.665  1.00  0.00     0.029 A 
ATOM     35  C   UNL A   1      45.332  30.273  30.377  1.00  0.00     0.049 A 
ATOM     36  H   UNL A   1      44.437  28.490  29.688  1.00  0.00     0.167 HD
ATOM     37  C   UNL A   1      42.929  30.841  30.169  1.00  0.00     0.074 A 
ATOM     38  C   UNL A   1      41.810  31.756  30.264  1.00  0.00     0.031 C 
ATOM     39  C   UNL A   1      44.207  31.164  30.481  1.00  0.00     0.031 A 
BRANCH  26  40
ATOM     40  C   UNL A   1      48.250  26.569  29.655  1.00  0.00    -0.014 A 
ATOM     41  C   UNL A   1      48.747  25.930  30.801  1.00  0.00     0.009 A 
ATOM     42  C   UNL A   1      49.095  26.720  28.543  1.00  0.00     0.009 A 
ATOM     43  C   UNL A   1      50.067  25.474  30.842  1.00  0.00     0.001 A 
ATOM     44  C   UNL A   1      50.407  26.243  28.579  1.00  0.00     0.001 A 
ATOM     45  C   UNL A   1      50.893  25.627  29.730  1.00  0.00     0.000 A 
ENDBRANCH  26  40
BRANCH  27  46
ATOM     46  C   UNL A   1      38.650  29.235  29.075  1.00  0.00    -0.014 A 
ATOM     47  C   UNL A   1      37.820  29.174  30.204  1.00  0.00     0.009 A 
ATOM     48  C   UNL A   1      38.113  29.691  27.860  1.00  0.00     0.009 A 
ATOM     49  C   UNL A   1      36.475  29.540  30.111  1.00  0.00     0.001 A 
ATOM     50  C   UNL A   1      36.778  30.086  27.779  1.00  0.00     0.001 A 
ATOM     51  C   UNL A   1      35.958  30.001  28.902  1.00  0.00     0.000 A 
ENDBRANCH  27  46
BRANCH  39  52
ATOM     52  C   UNL A   1      44.452  32.572  30.943  1.00  0.00    -0.014 A 
ATOM     53  C   UNL A   1      44.392  32.907  32.304  1.00  0.00     0.009 A 
ATOM     54  C   UNL A   1      44.746  33.572  30.005  1.00  0.00     0.009 A 
ATOM     55  C   UNL A   1      44.580  34.229  32.714  1.00  0.00     0.001 A 
ATOM     56  C   UNL A   1      44.961  34.887  30.420  1.00  0.00     0.001 A 
ATOM     57  C   UNL A   1      44.866  35.216  31.772  1.00  0.00     0.000 A 
ENDBRANCH  39  52
ENDBRANCH  13  14
ENDBRANCH   6   8
ENDBRANCH   3   4
ENDBRANCH   2   3
ENDBRANCH   1   2
BRANCH   1  58
ATOM     58  C   UNL A   1      36.718  22.312  24.008  1.00  0.00     0.002 C 
BRANCH  58  59
ATOM     59  C   UNL A   1      36.099  23.547  24.669  1.00  0.00     0.021 C 
BRANCH  59  60
ATOM     60  C   UNL A   1      35.561  23.328  26.081  1.00  0.00     0.116 C 
BRANCH  60  61
ATOM     61  N   UNL A   1      34.216  23.854  26.242  1.00  0.00    -0.352 N 
ATOM     62  C   UNL A   1      33.030  23.326  25.810  1.00  0.00     0.255 C 
ATOM     63  H   UNL A   1      34.148  24.707  26.730  1.00  0.00     0.163 HD
ATOM     64  O   UNL A   1      31.991  23.983  25.891  1.00  0.00    -0.269 OA
BRANCH  62  65
ATOM     65  C   UNL A   1      33.046  21.990  25.267  1.00  0.00     0.091 A 
ATOM     66  C   UNL A   1      33.273  20.761  25.946  1.00  0.00     0.065 A 
ATOM     67  C   UNL A   1      32.823  21.661  23.941  1.00  0.00     0.221 A 
ATOM     68  C   UNL A   1      33.279  19.775  24.986  1.00  0.00     0.135 A 
ATOM     69  O   UNL A   1      33.002  20.311  23.764  1.00  0.00    -0.451 OA
BRANCH  67  70
ATOM     70  C   UNL A   1      32.496  22.468  22.738  1.00  0.00     0.450 C 
ATOM     71  F   UNL A   1      33.476  23.368  22.453  1.00  0.00    -0.163 F 
ATOM     72  F   UNL A   1      32.338  21.698  21.633  1.00  0.00    -0.163 F 
ATOM     73  F   UNL A   1      31.358  23.193  22.886  1.00  0.00    -0.163 F 
ENDBRANCH  67  70
BRANCH  68  74
ATOM     74  C   UNL A   1      33.538  18.350  25.040  1.00  0.00     0.019 A 
ATOM     75  C   UNL A   1      34.648  17.812  24.373  1.00  0.00     0.012 A 
ATOM     76  C   UNL A   1      32.640  17.487  25.681  1.00  0.00     0.032 A 
ATOM     77  C   UNL A   1      34.856  16.432  24.338  1.00  0.00     0.002 A 
ATOM     78  C   UNL A   1      32.845  16.109  25.630  1.00  0.00     0.041 A 
ATOM     79  C   UNL A   1      33.948  15.578  24.961  1.00  0.00     0.020 A 
ATOM     80  Cl  UNL A   1      31.708  15.050  26.371  1.00  0.00    -0.084 Cl
ENDBRANCH  68  74
ENDBRANCH  62  65
ENDBRANCH  60  61
ENDBRANCH  59  60
ENDBRANCH  58  59
ENDBRANCH   1  58
TORSDOF 15
ENDMDL
MODEL 2
REMARK VINA RESULT:     -11.0      0.448      5.898
REMARK SMILES O=C(NCCCCCCNC(=O)c1cc(-c2cccc(Cl)c2)oc1C(F)(F)F)c1ccc(-c2c3nc(c(-c4ccccc4)c4ccc([nH]4)c(-c4ccccc4)c4nc(c(-c5ccccc5)c5ccc2[nH]5)C=C4)C=C3)cc1
REMARK SMILES IDX 6 1 5 2 4 3 3 4 1 5 2 6 29 8 30 9 76 10 31 11 75 12 32 13
REMARK SMILES IDX 33 14 34 15 69 16 35 17 74 18 68 19 70 20 36 21 73 22 67 23
REMARK SMILES IDX 66 24 37 26 59 27 44 28 58 29 45 30 48 31 57 32 71 33 46 34
REMARK SMILES IDX 47 35 56 37 72 38 49 39 38 40 39 41 43 42 40 43 42 44 41 45
REMARK SMILES IDX 60 46 61 47 65 48 62 49 64 50 63 51 50 52 51 53 55 54 52 55
REMARK SMILES IDX 54 56 53 57 7 58 8 59 9 60 10 61 11 62 12 64 13 65 14 66
REMARK SMILES IDX 24 67 15 68 23 69 25 70 26 71 27 72 28 73 16 74 17 75 22 76
REMARK SMILES IDX 18 77 20 78 19 79 21 80
REMARK H PARENT 3 7 70 25 48 36 10 63
REMARK Flexibility Score: inf
ROOT
ATOM      1  C   UNL A   1      36.961  20.987  24.661  1.00  0.00     0.002 C 
ENDROOT
BRANCH   1   2
ATOM      2  C   UNL A   1      37.918  19.831  24.947  1.00  0.00     0.021 C 
BRANCH   2   3
ATOM      3  C   UNL A   1      38.976  20.112  26.005  1.00  0.00     0.116 C 
BRANCH   3   4
ATOM      4  N   UNL A   1      40.120  19.220  25.916  1.00  0.00    -0.352 N 
ATOM      5  O   UNL A   1      42.308  18.656  25.857  1.00  0.00    -0.269 OA
ATOM      6  C   UNL A   1      41.453  19.502  26.100  1.00  0.00     0.251 C 
ATOM      7  H   UNL A   1      39.913  18.284  25.691  1.00  0.00     0.163 HD
BRANCH   6   8
ATOM      8  C   UNL A   1      41.858  20.847  26.570  1.00  0.00     0.039 A 
ATOM      9  C   UNL A   1      41.828  21.163  27.928  1.00  0.00     0.014 A 
ATOM     10  C   UNL A   1      42.267  21.805  25.635  1.00  0.00     0.014 A 
ATOM     11  C   UNL A   1      42.054  22.472  28.336  1.00  0.00     0.010 A 
ATOM     12  C   UNL A   1      42.587  23.099  26.060  1.00  0.00     0.010 A 
ATOM     13  C   UNL A   1      42.452  23.452  27.411  1.00  0.00    -0.014 A 
BRANCH  13  14
ATOM     14  C   UNL A   1      42.786  24.809  27.912  1.00  0.00     0.031 A 
ATOM     15  C   UNL A   1      41.725  25.844  28.161  1.00  0.00     0.074 A 
ATOM     16  C   UNL A   1      44.074  25.079  28.209  1.00  0.00     0.049 A 
ATOM     17  N   UNL A   1      41.851  27.037  28.687  1.00  0.00    -0.248 NA
ATOM     18  C   UNL A   1      40.348  25.505  27.769  1.00  0.00     0.031 C 
ATOM     19  C   UNL A   1      45.197  24.162  27.993  1.00  0.00     0.029 A 
ATOM     20  N   UNL A   1      44.650  26.178  28.789  1.00  0.00    -0.354 N 
ATOM     21  C   UNL A   1      40.578  27.594  28.681  1.00  0.00     0.074 A 
ATOM     22  C   UNL A   1      39.697  26.620  28.072  1.00  0.00     0.031 C 
ATOM     23  C   UNL A   1      46.312  24.708  28.496  1.00  0.00     0.029 A 
ATOM     24  C   UNL A   1      45.998  26.034  29.013  1.00  0.00     0.049 A 
ATOM     25  H   UNL A   1      44.148  26.992  29.023  1.00  0.00     0.167 HD
ATOM     26  C   UNL A   1      40.180  28.804  29.146  1.00  0.00     0.031 A 
ATOM     27  C   UNL A   1      46.889  26.874  29.568  1.00  0.00     0.031 A 
ATOM     28  C   UNL A   1      41.059  29.776  29.744  1.00  0.00     0.049 A 
ATOM     29  C   UNL A   1      46.420  28.208  30.067  1.00  0.00     0.074 A 
ATOM     30  C   UNL A   1      40.745  31.027  30.247  1.00  0.00     0.029 A 
ATOM     31  N   UNL A   1      42.423  29.606  29.919  1.00  0.00    -0.354 N 
ATOM     32  N   UNL A   1      45.207  28.705  30.073  1.00  0.00    -0.248 NA
ATOM     33  C   UNL A   1      47.441  29.093  30.640  1.00  0.00     0.031 C 
ATOM     34  C   UNL A   1      41.929  31.631  30.692  1.00  0.00     0.029 A 
ATOM     35  C   UNL A   1      42.968  30.734  30.511  1.00  0.00     0.049 A 
ATOM     36  H   UNL A   1      42.929  28.802  29.661  1.00  0.00     0.167 HD
ATOM     37  C   UNL A   1      45.319  29.961  30.651  1.00  0.00     0.074 A 
ATOM     38  C   UNL A   1      46.710  30.132  31.016  1.00  0.00     0.031 C 
ATOM     39  C   UNL A   1      44.358  30.894  30.852  1.00  0.00     0.031 A 
BRANCH  26  40
ATOM     40  C   UNL A   1      38.724  29.154  29.015  1.00  0.00    -0.014 A 
ATOM     41  C   UNL A   1      37.837  28.987  30.090  1.00  0.00     0.009 A 
ATOM     42  C   UNL A   1      38.242  29.715  27.821  1.00  0.00     0.009 A 
ATOM     43  C   UNL A   1      36.494  29.351  29.964  1.00  0.00     0.001 A 
ATOM     44  C   UNL A   1      36.905  30.099  27.706  1.00  0.00     0.001 A 
ATOM     45  C   UNL A   1      36.031  29.911  28.774  1.00  0.00     0.000 A 
ENDBRANCH  26  40
BRANCH  27  46
ATOM     46  C   UNL A   1      48.317  26.479  29.662  1.00  0.00    -0.014 A 
ATOM     47  C   UNL A   1      48.794  25.764  30.771  1.00  0.00     0.009 A 
ATOM     48  C   UNL A   1      49.210  26.808  28.629  1.00  0.00     0.009 A 
ATOM     49  C   UNL A   1      50.142  25.408  30.853  1.00  0.00     0.001 A 
ATOM     50  C   UNL A   1      50.548  26.422  28.699  1.00  0.00     0.001 A 
ATOM     51  C   UNL A   1      51.016  25.732  29.815  1.00  0.00     0.000 A 
ENDBRANCH  27  46
BRANCH  39  52
ATOM     52  C   UNL A   1      44.789  32.175  31.506  1.00  0.00    -0.014 A 
ATOM     53  C   UNL A   1      45.223  33.268  30.740  1.00  0.00     0.009 A 
ATOM     54  C   UNL A   1      44.760  32.288  32.904  1.00  0.00     0.009 A 
ATOM     55  C   UNL A   1      45.660  34.438  31.365  1.00  0.00     0.001 A 
ATOM     56  C   UNL A   1      45.172  33.469  33.524  1.00  0.00     0.001 A 
ATOM     57  C   UNL A   1      45.633  34.537  32.755  1.00  0.00     0.000 A 
ENDBRANCH  39  52
ENDBRANCH  13  14
ENDBRANCH   6   8
ENDBRANCH   3   4
ENDBRANCH   2   3
ENDBRANCH   1   2
BRANCH   1  58
ATOM     58  C   UNL A   1      37.454  22.375  25.082  1.00  0.00     0.002 C 
BRANCH  58  59
ATOM     59  C   UNL A   1      36.447  23.234  25.854  1.00  0.00     0.021 C 
BRANCH  59  60
ATOM     60  C   UNL A   1      35.333  23.848  25.008  1.00  0.00     0.116 C 
BRANCH  60  61
ATOM     61  N   UNL A   1      34.141  24.127  25.791  1.00  0.00    -0.352 N 
ATOM     62  C   UNL A   1      33.002  23.380  25.916  1.00  0.00     0.255 C 
ATOM     63  H   UNL A   1      34.156  24.969  26.303  1.00  0.00     0.163 HD
ATOM     64  O   UNL A   1      32.018  23.841  26.496  1.00  0.00    -0.269 OA
BRANCH  62  65
ATOM     65  C   UNL A   1      33.001  22.053  25.352  1.00  0.00     0.091 A 
ATOM     66  C   UNL A   1      33.306  20.819  25.992  1.00  0.00     0.065 A 
ATOM     67  C   UNL A   1      32.681  21.739  24.043  1.00  0.00     0.221 A 
ATOM     68  C   UNL A   1      33.256  19.848  25.018  1.00  0.00     0.135 A 
ATOM     69  O   UNL A   1      32.873  20.395  23.830  1.00  0.00    -0.451 OA
BRANCH  67  70
ATOM     70  C   UNL A   1      32.244  22.556  22.883  1.00  0.00     0.450 C 
ATOM     71  F   UNL A   1      31.054  23.171  23.119  1.00  0.00    -0.163 F 
ATOM     72  F   UNL A   1      33.136  23.533  22.581  1.00  0.00    -0.163 F 
ATOM     73  F   UNL A   1      32.065  21.817  21.758  1.00  0.00    -0.163 F 
ENDBRANCH  67  70
BRANCH  68  74
ATOM     74  C   UNL A   1      33.546  18.427  25.028  1.00  0.00     0.019 A 
ATOM     75  C   UNL A   1      34.629  17.927  24.292  1.00  0.00     0.012 A 
ATOM     76  C   UNL A   1      32.703  17.534  25.699  1.00  0.00     0.032 A 
ATOM     77  C   UNL A   1      34.864  16.553  24.218  1.00  0.00     0.002 A 
ATOM     78  C   UNL A   1      32.933  16.161  25.608  1.00  0.00     0.041 A 
ATOM     79  C   UNL A   1      34.008  15.668  24.871  1.00  0.00     0.020 A 
ATOM     80  Cl  UNL A   1      31.860  15.064  26.388  1.00  0.00    -0.084 Cl
ENDBRANCH  68  74
ENDBRANCH  62  65
ENDBRANCH  60  61
ENDBRANCH  59  60
ENDBRANCH  58  59
ENDBRANCH   1  58
TORSDOF 15
ENDMDL
MODEL 3
REMARK VINA RESULT:     -11.0      5.117      9.912
REMARK SMILES O=C(NCCCCCCNC(=O)c1cc(-c2cccc(Cl)c2)oc1C(F)(F)F)c1ccc(-c2c3nc(c(-c4ccccc4)c4ccc([nH]4)c(-c4ccccc4)c4nc(c(-c5ccccc5)c5ccc2[nH]5)C=C4)C=C3)cc1
REMARK SMILES IDX 6 1 5 2 4 3 3 4 1 5 2 6 29 8 30 9 76 10 31 11 75 12 32 13
REMARK SMILES IDX 33 14 34 15 69 16 35 17 74 18 68 19 70 20 36 21 73 22 67 23
REMARK SMILES IDX 66 24 37 26 59 27 44 28 58 29 45 30 48 31 57 32 71 33 46 34
REMARK SMILES IDX 47 35 56 37 72 38 49 39 38 40 39 41 43 42 40 43 42 44 41 45
REMARK SMILES IDX 60 46 61 47 65 48 62 49 64 50 63 51 50 52 51 53 55 54 52 55
REMARK SMILES IDX 54 56 53 57 7 58 8 59 9 60 10 61 11 62 12 64 13 65 14 66
REMARK SMILES IDX 24 67 15 68 23 69 25 70 26 71 27 72 28 73 16 74 17 75 22 76
REMARK SMILES IDX 18 77 20 78 19 79 21 80
REMARK H PARENT 3 7 70 25 48 36 10 63
REMARK Flexibility Score: inf
ROOT
ATOM      1  C   UNL A   1      31.734  30.253  26.202  1.00  0.00     0.002 C 
ENDROOT
BRANCH   1   2
ATOM      2  C   UNL A   1      31.504  31.613  26.859  1.00  0.00     0.021 C 
BRANCH   2   3
ATOM      3  C   UNL A   1      32.757  32.453  27.066  1.00  0.00     0.116 C 
BRANCH   3   4
ATOM      4  N   UNL A   1      32.481  33.747  27.667  1.00  0.00    -0.352 N 
ATOM      5  O   UNL A   1      32.758  35.461  29.114  1.00  0.00    -0.269 OA
ATOM      6  C   UNL A   1      33.204  34.432  28.616  1.00  0.00     0.251 C 
ATOM      7  H   UNL A   1      31.664  34.197  27.352  1.00  0.00     0.163 HD
BRANCH   6   8
ATOM      8  C   UNL A   1      34.515  33.905  29.058  1.00  0.00     0.039 A 
ATOM      9  C   UNL A   1      35.678  34.210  28.350  1.00  0.00     0.014 A 
ATOM     10  C   UNL A   1      34.579  33.088  30.193  1.00  0.00     0.014 A 
ATOM     11  C   UNL A   1      36.871  33.581  28.680  1.00  0.00     0.010 A 
ATOM     12  C   UNL A   1      35.802  32.530  30.580  1.00  0.00     0.010 A 
ATOM     13  C   UNL A   1      36.953  32.746  29.808  1.00  0.00    -0.014 A 
BRANCH  13  14
ATOM     14  C   UNL A   1      38.274  32.182  30.182  1.00  0.00     0.031 A 
ATOM     15  C   UNL A   1      39.148  32.831  31.218  1.00  0.00     0.074 A 
ATOM     16  C   UNL A   1      38.653  31.018  29.614  1.00  0.00     0.049 A 
ATOM     17  N   UNL A   1      40.281  32.406  31.718  1.00  0.00    -0.248 NA
ATOM     18  C   UNL A   1      38.702  34.124  31.762  1.00  0.00     0.031 C 
ATOM     19  C   UNL A   1      37.898  30.302  28.581  1.00  0.00     0.029 A 
ATOM     20  N   UNL A   1      39.739  30.216  29.849  1.00  0.00    -0.354 N 
ATOM     21  C   UNL A   1      40.688  33.377  32.624  1.00  0.00     0.074 A 
ATOM     22  C   UNL A   1      39.695  34.430  32.585  1.00  0.00     0.031 C 
ATOM     23  C   UNL A   1      38.508  29.137  28.322  1.00  0.00     0.029 A 
ATOM     24  C   UNL A   1      39.724  29.051  29.122  1.00  0.00     0.049 A 
ATOM     25  H   UNL A   1      40.459  30.452  30.477  1.00  0.00     0.167 HD
ATOM     26  C   UNL A   1      41.785  33.387  33.421  1.00  0.00     0.031 A 
ATOM     27  C   UNL A   1      40.592  28.024  29.093  1.00  0.00     0.031 A 
ATOM     28  C   UNL A   1      42.778  32.343  33.453  1.00  0.00     0.049 A 
ATOM     29  C   UNL A   1      41.799  28.067  29.981  1.00  0.00     0.074 A 
ATOM     30  C   UNL A   1      43.922  32.265  34.230  1.00  0.00     0.029 A 
ATOM     31  N   UNL A   1      42.744  31.197  32.675  1.00  0.00    -0.354 N 
ATOM     32  N   UNL A   1      42.153  28.984  30.847  1.00  0.00    -0.248 NA
ATOM     33  C   UNL A   1      42.725  26.931  29.888  1.00  0.00     0.031 C 
ATOM     34  C   UNL A   1      44.601  31.088  33.892  1.00  0.00     0.029 A 
ATOM     35  C   UNL A   1      43.854  30.411  32.943  1.00  0.00     0.049 A 
ATOM     36  H   UNL A   1      42.037  30.974  32.028  1.00  0.00     0.167 HD
ATOM     37  C   UNL A   1      43.341  28.536  31.406  1.00  0.00     0.074 A 
ATOM     38  C   UNL A   1      43.626  27.248  30.806  1.00  0.00     0.031 C 
ATOM     39  C   UNL A   1      44.130  29.141  32.325  1.00  0.00     0.031 A 
BRANCH  26  40
ATOM     40  C   UNL A   1      41.981  34.576  34.319  1.00  0.00    -0.014 A 
ATOM     41  C   UNL A   1      42.683  35.710  33.880  1.00  0.00     0.009 A 
ATOM     42  C   UNL A   1      41.407  34.590  35.601  1.00  0.00     0.009 A 
ATOM     43  C   UNL A   1      42.826  36.822  34.714  1.00  0.00     0.001 A 
ATOM     44  C   UNL A   1      41.531  35.711  36.423  1.00  0.00     0.001 A 
ATOM     45  C   UNL A   1      42.245  36.823  35.982  1.00  0.00     0.000 A 
ENDBRANCH  26  40
BRANCH  27  46
ATOM     46  C   UNL A   1      40.353  26.880  28.177  1.00  0.00    -0.014 A 
ATOM     47  C   UNL A   1      40.860  26.888  26.870  1.00  0.00     0.009 A 
ATOM     48  C   UNL A   1      39.622  25.765  28.617  1.00  0.00     0.009 A 
ATOM     49  C   UNL A   1      40.619  25.810  26.014  1.00  0.00     0.001 A 
ATOM     50  C   UNL A   1      39.411  24.677  27.771  1.00  0.00     0.001 A 
ATOM     51  C   UNL A   1      39.901  24.705  26.467  1.00  0.00     0.000 A 
ENDBRANCH  27  46
BRANCH  39  52
ATOM     52  C   UNL A   1      45.371  28.402  32.737  1.00  0.00    -0.014 A 
ATOM     53  C   UNL A   1      45.363  27.531  33.837  1.00  0.00     0.009 A 
ATOM     54  C   UNL A   1      46.561  28.581  32.016  1.00  0.00     0.009 A 
ATOM     55  C   UNL A   1      46.535  26.884  34.233  1.00  0.00     0.001 A 
ATOM     56  C   UNL A   1      47.725  27.912  32.398  1.00  0.00     0.001 A 
ATOM     57  C   UNL A   1      47.714  27.073  33.512  1.00  0.00     0.000 A 
ENDBRANCH  39  52
ENDBRANCH  13  14
ENDBRANCH   6   8
ENDBRANCH   3   4
ENDBRANCH   2   3
ENDBRANCH   1   2
BRANCH   1  58
ATOM     58  C   UNL A   1      31.893  29.071  27.163  1.00  0.00     0.002 C 
BRANCH  58  59
ATOM     59  C   UNL A   1      32.972  28.050  26.791  1.00  0.00     0.021 C 
BRANCH  59  60
ATOM     60  C   UNL A   1      33.755  28.366  25.518  1.00  0.00     0.116 C 
BRANCH  60  61
ATOM     61  N   UNL A   1      33.829  27.223  24.623  1.00  0.00    -0.352 N 
ATOM     62  C   UNL A   1      32.875  26.739  23.770  1.00  0.00     0.255 C 
ATOM     63  H   UNL A   1      34.681  26.731  24.630  1.00  0.00     0.163 HD
ATOM     64  O   UNL A   1      33.043  25.662  23.197  1.00  0.00    -0.269 OA
BRANCH  62  65
ATOM     65  C   UNL A   1      31.685  27.529  23.571  1.00  0.00     0.091 A 
ATOM     66  C   UNL A   1      31.551  28.774  22.896  1.00  0.00     0.065 A 
ATOM     67  C   UNL A   1      30.416  27.192  24.011  1.00  0.00     0.221 A 
ATOM     68  C   UNL A   1      30.242  29.169  23.054  1.00  0.00     0.135 A 
ATOM     69  O   UNL A   1      29.542  28.213  23.726  1.00  0.00    -0.451 OA
BRANCH  67  70
ATOM     70  C   UNL A   1      29.876  26.016  24.739  1.00  0.00     0.450 C 
ATOM     71  F   UNL A   1      28.525  26.090  24.883  1.00  0.00    -0.163 F 
ATOM     72  F   UNL A   1      30.138  24.851  24.095  1.00  0.00    -0.163 F 
ATOM     73  F   UNL A   1      30.378  25.900  25.995  1.00  0.00    -0.163 F 
ENDBRANCH  67  70
BRANCH  68  74
ATOM     74  C   UNL A   1      29.524  30.369  22.673  1.00  0.00     0.019 A 
ATOM     75  C   UNL A   1      29.204  31.333  23.640  1.00  0.00     0.012 A 
ATOM     76  C   UNL A   1      29.067  30.538  21.360  1.00  0.00     0.032 A 
ATOM     77  C   UNL A   1      28.432  32.447  23.304  1.00  0.00     0.002 A 
ATOM     78  C   UNL A   1      28.283  31.644  21.035  1.00  0.00     0.041 A 
ATOM     79  C   UNL A   1      27.963  32.598  22.000  1.00  0.00     0.020 A 
ATOM     80  Cl  UNL A   1      27.676  31.818  19.433  1.00  0.00    -0.084 Cl
ENDBRANCH  68  74
ENDBRANCH  62  65
ENDBRANCH  60  61
ENDBRANCH  59  60
ENDBRANCH  58  59
ENDBRANCH   1  58
TORSDOF 15
ENDMDL
