MODEL 1
REMARK VINA RESULT:     -10.2      0.000      0.000
REMARK SMILES CN(CC[NH+](C)C)C(=O)N1CC(n2cc(C(=O)NCCCCCCNC(=O)c3ccc(-c4c5nc(c(-c6ccccc6)c6ccc([nH]6)c(-c6ccccc6)c6nc(c(-c7ccccc7)c7ccc4[nH]7)C=C6)C=C5)cc3)nn2)C1
REMARK SMILES IDX 20 1 19 2 18 3 16 4 17 5 15 7 13 8 14 9 77 10 76 11 12 12
REMARK SMILES IDX 8 13 9 14 10 15 11 16 78 17 2 18 1 19 3 20 4 21 5 22 6 23
REMARK SMILES IDX 7 24 21 26 22 27 23 28 24 29 25 30 26 31 27 33 28 34 29 35
REMARK SMILES IDX 75 36 30 37 74 38 31 39 32 40 33 41 68 42 34 43 73 44 67 45
REMARK SMILES IDX 69 46 35 47 72 48 66 49 65 50 36 52 58 53 43 54 57 55 44 56
REMARK SMILES IDX 47 57 56 58 70 59 45 60 46 61 55 63 71 64 48 65 37 66 38 67
REMARK SMILES IDX 42 68 39 69 41 70 40 71 59 72 60 73 64 74 61 75 63 76 62 77
REMARK SMILES IDX 49 78 50 79 54 80 51 81 53 82 52 83
REMARK H PARENT 18 6 5 25 25 32 69 51 47 62
REMARK Flexibility Score: inf
ROOT
ATOM      1  C   UNL A   1      35.597  29.729  28.383  1.00  0.00     0.021 C 
ENDROOT
BRANCH   1   2
ATOM      2  C   UNL A   1      34.859  29.446  27.074  1.00  0.00     0.116 C 
BRANCH   2   3
ATOM      3  N   UNL A   1      33.807  30.420  26.851  1.00  0.00    -0.351 N 
ATOM      4  C   UNL A   1      32.455  30.271  26.645  1.00  0.00     0.273 C 
ATOM      5  O   UNL A   1      31.777  31.298  26.613  1.00  0.00    -0.267 OA
ATOM      6  H   UNL A   1      34.116  31.355  26.848  1.00  0.00     0.163 HD
BRANCH   4   7
ATOM      7  C   UNL A   1      31.859  28.948  26.522  1.00  0.00     0.170 A 
ATOM      8  N   UNL A   1      31.253  26.954  25.929  1.00  0.00    -0.245 N 
ATOM      9  C   UNL A   1      31.645  28.155  25.410  1.00  0.00     0.145 A 
ATOM     10  N   UNL A   1      31.062  27.035  27.252  1.00  0.00    -0.066 NA
ATOM     11  N   UNL A   1      31.403  28.260  27.627  1.00  0.00    -0.125 NA
BRANCH   8  12
ATOM     12  C   UNL A   1      31.313  25.738  25.182  1.00  0.00     0.148 C 
ATOM     13  C   UNL A   1      32.172  22.788  24.649  1.00  0.00     0.320 C 
ATOM     14  O   UNL A   1      31.514  22.758  23.613  1.00  0.00    -0.248 OA
ATOM     15  N   UNL A   1      32.052  23.826  25.551  1.00  0.00    -0.320 N 
ATOM     16  C   UNL A   1      30.768  24.489  25.865  1.00  0.00     0.150 C 
ATOM     17  C   UNL A   1      32.711  25.117  25.333  1.00  0.00     0.150 C 
BRANCH  13  18
ATOM     18  N   UNL A   1      33.026  21.778  25.073  1.00  0.00    -0.322 N 
ATOM     19  C   UNL A   1      33.712  21.842  26.355  1.00  0.00     0.149 C 
BRANCH  18  20
ATOM     20  C   UNL A   1      33.137  20.549  24.289  1.00  0.00     0.182 C 
BRANCH  20  21
ATOM     21  C   UNL A   1      34.228  19.553  24.780  1.00  0.00     0.283 C 
BRANCH  21  22
ATOM     22  N   UNL A   1      33.907  18.127  24.967  1.00  0.00    -0.338 N 
ATOM     23  C   UNL A   1      32.525  17.880  25.353  1.00  0.00     0.332 C 
ATOM     24  C   UNL A   1      34.365  17.268  23.884  1.00  0.00     0.332 C 
ATOM     25  H   UNL A   1      34.462  17.848  25.776  1.00  0.00     0.347 HD
ENDBRANCH  21  22
ENDBRANCH  20  21
ENDBRANCH  18  20
ENDBRANCH  13  18
ENDBRANCH   8  12
ENDBRANCH   4   7
ENDBRANCH   2   3
ENDBRANCH   1   2
BRANCH   1  26
ATOM     26  C   UNL A   1      36.617  30.873  28.280  1.00  0.00     0.002 C 
BRANCH  26  27
ATOM     27  C   UNL A   1      36.029  32.267  28.001  1.00  0.00     0.002 C 
BRANCH  27  28
ATOM     28  C   UNL A   1      35.632  33.098  29.231  1.00  0.00     0.021 C 
BRANCH  28  29
ATOM     29  C   UNL A   1      34.782  32.329  30.230  1.00  0.00     0.116 C 
BRANCH  29  30
ATOM     30  N   UNL A   1      35.067  32.715  31.611  1.00  0.00    -0.352 N 
ATOM     31  C   UNL A   1      35.982  32.168  32.491  1.00  0.00     0.251 C 
ATOM     32  H   UNL A   1      34.535  33.467  31.962  1.00  0.00     0.163 HD
ATOM     33  O   UNL A   1      35.879  32.328  33.694  1.00  0.00    -0.269 OA
BRANCH  31  34
ATOM     34  C   UNL A   1      37.106  31.394  31.936  1.00  0.00     0.039 A 
ATOM     35  C   UNL A   1      38.280  32.014  31.498  1.00  0.00     0.014 A 
ATOM     36  C   UNL A   1      36.961  30.012  31.873  1.00  0.00     0.014 A 
ATOM     37  C   UNL A   1      39.338  31.218  31.065  1.00  0.00     0.010 A 
ATOM     38  C   UNL A   1      38.052  29.230  31.615  1.00  0.00     0.010 A 
ATOM     39  C   UNL A   1      39.217  29.824  31.141  1.00  0.00    -0.014 A 
BRANCH  39  40
ATOM     40  C   UNL A   1      40.335  28.937  30.844  1.00  0.00     0.031 A 
ATOM     41  C   UNL A   1      41.119  28.523  32.038  1.00  0.00     0.074 A 
ATOM     42  C   UNL A   1      40.445  28.324  29.643  1.00  0.00     0.049 A 
ATOM     43  N   UNL A   1      42.365  28.755  32.286  1.00  0.00    -0.248 NA
ATOM     44  C   UNL A   1      40.400  27.886  33.157  1.00  0.00     0.031 C 
ATOM     45  C   UNL A   1      39.522  28.410  28.501  1.00  0.00     0.029 A 
ATOM     46  N   UNL A   1      41.320  27.365  29.238  1.00  0.00    -0.354 N 
ATOM     47  C   UNL A   1      42.640  28.108  33.488  1.00  0.00     0.074 A 
ATOM     48  C   UNL A   1      41.366  27.772  34.068  1.00  0.00     0.031 C 
ATOM     49  C   UNL A   1      39.731  27.365  27.670  1.00  0.00     0.029 A 
ATOM     50  C   UNL A   1      40.903  26.641  28.124  1.00  0.00     0.049 A 
ATOM     51  H   UNL A   1      42.176  27.197  29.694  1.00  0.00     0.167 HD
ATOM     52  C   UNL A   1      43.891  27.643  33.768  1.00  0.00     0.031 A 
ATOM     53  C   UNL A   1      41.455  25.503  27.634  1.00  0.00     0.031 A 
ATOM     54  C   UNL A   1      44.874  28.206  32.878  1.00  0.00     0.049 A 
ATOM     55  C   UNL A   1      42.815  25.394  28.207  1.00  0.00     0.074 A 
ATOM     56  C   UNL A   1      45.301  29.483  32.574  1.00  0.00     0.029 A 
ATOM     57  N   UNL A   1      45.293  27.408  31.840  1.00  0.00    -0.354 N 
ATOM     58  N   UNL A   1      43.781  26.216  27.917  1.00  0.00    -0.248 NA
ATOM     59  C   UNL A   1      42.971  24.659  29.451  1.00  0.00     0.031 C 
ATOM     60  C   UNL A   1      45.522  29.467  31.166  1.00  0.00     0.029 A 
ATOM     61  C   UNL A   1      45.300  28.169  30.702  1.00  0.00     0.049 A 
ATOM     62  H   UNL A   1      45.544  26.458  31.904  1.00  0.00     0.167 HD
ATOM     63  C   UNL A   1      44.413  26.450  29.129  1.00  0.00     0.074 A 
ATOM     64  C   UNL A   1      43.942  25.385  30.013  1.00  0.00     0.031 C 
ATOM     65  C   UNL A   1      45.019  27.648  29.383  1.00  0.00     0.031 A 
BRANCH  52  66
ATOM     66  C   UNL A   1      44.151  26.354  34.514  1.00  0.00    -0.014 A 
ATOM     67  C   UNL A   1      43.771  25.142  33.908  1.00  0.00     0.009 A 
ATOM     68  C   UNL A   1      44.468  26.299  35.885  1.00  0.00     0.009 A 
ATOM     69  C   UNL A   1      43.624  23.967  34.656  1.00  0.00     0.001 A 
ATOM     70  C   UNL A   1      44.364  25.119  36.625  1.00  0.00     0.001 A 
ATOM     71  C   UNL A   1      43.911  23.959  36.016  1.00  0.00     0.000 A 
ENDBRANCH  52  66
BRANCH  53  72
ATOM     72  C   UNL A   1      40.812  24.375  26.924  1.00  0.00    -0.014 A 
ATOM     73  C   UNL A   1      41.562  23.260  26.514  1.00  0.00     0.009 A 
ATOM     74  C   UNL A   1      39.409  24.263  26.891  1.00  0.00     0.009 A 
ATOM     75  C   UNL A   1      40.933  22.068  26.126  1.00  0.00     0.001 A 
ATOM     76  C   UNL A   1      38.782  23.073  26.503  1.00  0.00     0.001 A 
ATOM     77  C   UNL A   1      39.544  21.970  26.136  1.00  0.00     0.000 A 
ENDBRANCH  53  72
BRANCH  65  78
ATOM     78  C   UNL A   1      45.194  28.610  28.233  1.00  0.00    -0.014 A 
ATOM     79  C   UNL A   1      44.229  29.567  27.867  1.00  0.00     0.009 A 
ATOM     80  C   UNL A   1      46.443  28.652  27.597  1.00  0.00     0.009 A 
ATOM     81  C   UNL A   1      44.499  30.515  26.873  1.00  0.00     0.001 A 
ATOM     82  C   UNL A   1      46.721  29.611  26.622  1.00  0.00     0.001 A 
ATOM     83  C   UNL A   1      45.748  30.539  26.256  1.00  0.00     0.000 A 
ENDBRANCH  65  78
ENDBRANCH  39  40
ENDBRANCH  31  34
ENDBRANCH  29  30
ENDBRANCH  28  29
ENDBRANCH  27  28
ENDBRANCH  26  27
ENDBRANCH   1  26
TORSDOF 18
ENDMDL
MODEL 2
REMARK VINA RESULT:      -9.9      2.427      4.011
REMARK SMILES CN(CC[NH+](C)C)C(=O)N1CC(n2cc(C(=O)NCCCCCCNC(=O)c3ccc(-c4c5nc(c(-c6ccccc6)c6ccc([nH]6)c(-c6ccccc6)c6nc(c(-c7ccccc7)c7ccc4[nH]7)C=C6)C=C5)cc3)nn2)C1
REMARK SMILES IDX 20 1 19 2 18 3 16 4 17 5 15 7 13 8 14 9 77 10 76 11 12 12
REMARK SMILES IDX 8 13 9 14 10 15 11 16 78 17 2 18 1 19 3 20 4 21 5 22 6 23
REMARK SMILES IDX 7 24 21 26 22 27 23 28 24 29 25 30 26 31 27 33 28 34 29 35
REMARK SMILES IDX 75 36 30 37 74 38 31 39 32 40 33 41 68 42 34 43 73 44 67 45
REMARK SMILES IDX 69 46 35 47 72 48 66 49 65 50 36 52 58 53 43 54 57 55 44 56
REMARK SMILES IDX 47 57 56 58 70 59 45 60 46 61 55 63 71 64 48 65 37 66 38 67
REMARK SMILES IDX 42 68 39 69 41 70 40 71 59 72 60 73 64 74 61 75 63 76 62 77
REMARK SMILES IDX 49 78 50 79 54 80 51 81 53 82 52 83
REMARK H PARENT 18 6 5 25 25 32 69 51 47 62
REMARK Flexibility Score: inf
ROOT
ATOM      1  C   UNL A   1      36.490  30.733  31.910  1.00  0.00     0.021 C 
ENDROOT
BRANCH   1   2
ATOM      2  C   UNL A   1      35.781  31.963  31.344  1.00  0.00     0.116 C 
BRANCH   2   3
ATOM      3  N   UNL A   1      36.592  32.608  30.329  1.00  0.00    -0.351 N 
ATOM      4  C   UNL A   1      36.377  32.818  28.986  1.00  0.00     0.273 C 
ATOM      5  O   UNL A   1      37.195  33.519  28.391  1.00  0.00    -0.267 OA
ATOM      6  H   UNL A   1      37.449  32.959  30.660  1.00  0.00     0.163 HD
BRANCH   4   7
ATOM      7  C   UNL A   1      35.201  32.271  28.324  1.00  0.00     0.170 A 
ATOM      8  N   UNL A   1      33.615  31.027  27.529  1.00  0.00    -0.245 N 
ATOM      9  C   UNL A   1      34.940  30.996  27.859  1.00  0.00     0.145 A 
ATOM     10  N   UNL A   1      33.123  32.270  27.611  1.00  0.00    -0.066 NA
ATOM     11  N   UNL A   1      34.092  33.050  28.070  1.00  0.00    -0.125 NA
BRANCH   8  12
ATOM     12  C   UNL A   1      32.829  29.842  27.388  1.00  0.00     0.148 C 
ATOM     13  C   UNL A   1      31.557  27.463  25.825  1.00  0.00     0.320 C 
ATOM     14  O   UNL A   1      31.086  27.003  26.861  1.00  0.00    -0.248 OA
ATOM     15  N   UNL A   1      32.482  28.488  25.845  1.00  0.00    -0.320 N 
ATOM     16  C   UNL A   1      33.546  28.604  26.865  1.00  0.00     0.150 C 
ATOM     17  C   UNL A   1      32.082  29.883  26.045  1.00  0.00     0.150 C 
BRANCH  13  18
ATOM     18  N   UNL A   1      31.297  26.974  24.551  1.00  0.00    -0.322 N 
ATOM     19  C   UNL A   1      30.168  27.447  23.763  1.00  0.00     0.149 C 
BRANCH  18  20
ATOM     20  C   UNL A   1      32.253  26.068  23.916  1.00  0.00     0.182 C 
BRANCH  20  21
ATOM     21  C   UNL A   1      32.511  24.740  24.687  1.00  0.00     0.283 C 
BRANCH  21  22
ATOM     22  N   UNL A   1      31.557  23.622  24.589  1.00  0.00    -0.338 N 
ATOM     23  C   UNL A   1      30.801  23.384  25.811  1.00  0.00     0.332 C 
ATOM     24  C   UNL A   1      30.726  23.654  23.394  1.00  0.00     0.332 C 
ATOM     25  H   UNL A   1      32.146  22.797  24.478  1.00  0.00     0.347 HD
ENDBRANCH  21  22
ENDBRANCH  20  21
ENDBRANCH  18  20
ENDBRANCH  13  18
ENDBRANCH   8  12
ENDBRANCH   4   7
ENDBRANCH   2   3
ENDBRANCH   1   2
BRANCH   1  26
ATOM     26  C   UNL A   1      37.060  30.944  33.320  1.00  0.00     0.002 C 
BRANCH  26  27
ATOM     27  C   UNL A   1      37.034  32.392  33.840  1.00  0.00     0.002 C 
BRANCH  27  28
ATOM     28  C   UNL A   1      38.396  33.027  34.155  1.00  0.00     0.021 C 
BRANCH  28  29
ATOM     29  C   UNL A   1      39.451  32.752  33.095  1.00  0.00     0.116 C 
BRANCH  29  30
ATOM     30  N   UNL A   1      39.299  33.617  31.926  1.00  0.00    -0.352 N 
ATOM     31  C   UNL A   1      39.963  33.558  30.714  1.00  0.00     0.251 C 
ATOM     32  H   UNL A   1      38.634  34.339  32.013  1.00  0.00     0.163 HD
ATOM     33  O   UNL A   1      40.014  34.522  29.972  1.00  0.00    -0.269 OA
BRANCH  31  34
ATOM     34  C   UNL A   1      40.598  32.286  30.329  1.00  0.00     0.039 A 
ATOM     35  C   UNL A   1      41.984  32.171  30.183  1.00  0.00     0.014 A 
ATOM     36  C   UNL A   1      39.765  31.190  30.125  1.00  0.00     0.014 A 
ATOM     37  C   UNL A   1      42.528  30.920  29.903  1.00  0.00     0.010 A 
ATOM     38  C   UNL A   1      40.307  29.940  30.024  1.00  0.00     0.010 A 
ATOM     39  C   UNL A   1      41.679  29.807  29.838  1.00  0.00    -0.014 A 
BRANCH  39  40
ATOM     40  C   UNL A   1      42.196  28.452  29.696  1.00  0.00     0.031 A 
ATOM     41  C   UNL A   1      42.868  27.924  30.913  1.00  0.00     0.074 A 
ATOM     42  C   UNL A   1      41.825  27.664  28.661  1.00  0.00     0.049 A 
ATOM     43  N   UNL A   1      44.100  27.559  31.041  1.00  0.00    -0.248 NA
ATOM     44  C   UNL A   1      42.114  27.924  32.180  1.00  0.00     0.031 C 
ATOM     45  C   UNL A   1      40.887  27.988  27.575  1.00  0.00     0.029 A 
ATOM     46  N   UNL A   1      42.080  26.347  28.441  1.00  0.00    -0.354 N 
ATOM     47  C   UNL A   1      44.222  27.080  32.344  1.00  0.00     0.074 A 
ATOM     48  C   UNL A   1      43.042  27.514  33.046  1.00  0.00     0.031 C 
ATOM     49  C   UNL A   1      40.456  26.848  26.992  1.00  0.00     0.029 A 
ATOM     50  C   UNL A   1      41.210  25.737  27.540  1.00  0.00     0.049 A 
ATOM     51  H   UNL A   1      42.817  25.865  28.881  1.00  0.00     0.167 HD
ATOM     52  C   UNL A   1      45.138  26.122  32.660  1.00  0.00     0.031 A 
ATOM     53  C   UNL A   1      41.087  24.408  27.293  1.00  0.00     0.031 A 
ATOM     54  C   UNL A   1      46.122  25.970  31.620  1.00  0.00     0.049 A 
ATOM     55  C   UNL A   1      42.309  23.752  27.809  1.00  0.00     0.074 A 
ATOM     56  C   UNL A   1      47.043  26.801  31.015  1.00  0.00     0.029 A 
ATOM     57  N   UNL A   1      45.959  24.902  30.770  1.00  0.00    -0.354 N 
ATOM     58  N   UNL A   1      43.490  23.935  27.294  1.00  0.00    -0.248 NA
ATOM     59  C   UNL A   1      42.292  23.264  29.178  1.00  0.00     0.031 C 
ATOM     60  C   UNL A   1      47.015  26.434  29.637  1.00  0.00     0.029 A 
ATOM     61  C   UNL A   1      46.147  25.351  29.490  1.00  0.00     0.049 A 
ATOM     62  H   UNL A   1      45.745  23.977  31.034  1.00  0.00     0.167 HD
ATOM     63  C   UNL A   1      44.334  24.038  28.390  1.00  0.00     0.074 A 
ATOM     64  C   UNL A   1      43.562  23.510  29.514  1.00  0.00     0.031 C 
ATOM     65  C   UNL A   1      45.459  24.812  28.338  1.00  0.00     0.031 A 
BRANCH  52  66
ATOM     66  C   UNL A   1      44.878  25.022  33.664  1.00  0.00    -0.014 A 
ATOM     67  C   UNL A   1      45.811  24.828  34.701  1.00  0.00     0.009 A 
ATOM     68  C   UNL A   1      43.938  23.993  33.465  1.00  0.00     0.009 A 
ATOM     69  C   UNL A   1      45.856  23.632  35.427  1.00  0.00     0.001 A 
ATOM     70  C   UNL A   1      43.954  22.816  34.217  1.00  0.00     0.001 A 
ATOM     71  C   UNL A   1      44.934  22.622  35.178  1.00  0.00     0.000 A 
ENDBRANCH  52  66
BRANCH  53  72
ATOM     72  C   UNL A   1      39.894  23.632  26.888  1.00  0.00    -0.014 A 
ATOM     73  C   UNL A   1      38.680  24.276  26.599  1.00  0.00     0.009 A 
ATOM     74  C   UNL A   1      40.018  22.280  26.517  1.00  0.00     0.009 A 
ATOM     75  C   UNL A   1      37.647  23.606  25.927  1.00  0.00     0.001 A 
ATOM     76  C   UNL A   1      38.987  21.610  25.848  1.00  0.00     0.001 A 
ATOM     77  C   UNL A   1      37.808  22.278  25.538  1.00  0.00     0.000 A 
ENDBRANCH  53  72
BRANCH  65  78
ATOM     78  C   UNL A   1      45.885  25.350  26.993  1.00  0.00    -0.014 A 
ATOM     79  C   UNL A   1      45.374  26.536  26.433  1.00  0.00     0.009 A 
ATOM     80  C   UNL A   1      46.953  24.717  26.342  1.00  0.00     0.009 A 
ATOM     81  C   UNL A   1      45.899  27.051  25.242  1.00  0.00     0.001 A 
ATOM     82  C   UNL A   1      47.492  25.242  25.166  1.00  0.00     0.001 A 
ATOM     83  C   UNL A   1      46.961  26.406  24.613  1.00  0.00     0.000 A 
ENDBRANCH  65  78
ENDBRANCH  39  40
ENDBRANCH  31  34
ENDBRANCH  29  30
ENDBRANCH  28  29
ENDBRANCH  27  28
ENDBRANCH  26  27
ENDBRANCH   1  26
TORSDOF 18
ENDMDL
MODEL 3
REMARK VINA RESULT:      -9.9      2.860      8.481
REMARK SMILES CN(CC[NH+](C)C)C(=O)N1CC(n2cc(C(=O)NCCCCCCNC(=O)c3ccc(-c4c5nc(c(-c6ccccc6)c6ccc([nH]6)c(-c6ccccc6)c6nc(c(-c7ccccc7)c7ccc4[nH]7)C=C6)C=C5)cc3)nn2)C1
REMARK SMILES IDX 20 1 19 2 18 3 16 4 17 5 15 7 13 8 14 9 77 10 76 11 12 12
REMARK SMILES IDX 8 13 9 14 10 15 11 16 78 17 2 18 1 19 3 20 4 21 5 22 6 23
REMARK SMILES IDX 7 24 21 26 22 27 23 28 24 29 25 30 26 31 27 33 28 34 29 35
REMARK SMILES IDX 75 36 30 37 74 38 31 39 32 40 33 41 68 42 34 43 73 44 67 45
REMARK SMILES IDX 69 46 35 47 72 48 66 49 65 50 36 52 58 53 43 54 57 55 44 56
REMARK SMILES IDX 47 57 56 58 70 59 45 60 46 61 55 63 71 64 48 65 37 66 38 67
REMARK SMILES IDX 42 68 39 69 41 70 40 71 59 72 60 73 64 74 61 75 63 76 62 77
REMARK SMILES IDX 49 78 50 79 54 80 51 81 53 82 52 83
REMARK H PARENT 18 6 5 25 25 32 69 51 47 62
REMARK Flexibility Score: inf
ROOT
ATOM      1  C   UNL A   1      39.325  23.708  27.296  1.00  0.00     0.021 C 
ENDROOT
BRANCH   1   2
ATOM      2  C   UNL A   1      38.345  23.398  26.165  1.00  0.00     0.116 C 
BRANCH   2   3
ATOM      3  N   UNL A   1      38.316  21.976  25.879  1.00  0.00    -0.351 N 
ATOM      4  C   UNL A   1      37.537  21.233  25.022  1.00  0.00     0.273 C 
ATOM      5  O   UNL A   1      37.827  20.044  24.891  1.00  0.00    -0.267 OA
ATOM      6  H   UNL A   1      38.972  21.448  26.389  1.00  0.00     0.163 HD
BRANCH   4   7
ATOM      7  C   UNL A   1      36.454  21.851  24.271  1.00  0.00     0.170 A 
ATOM      8  N   UNL A   1      34.606  22.756  23.592  1.00  0.00    -0.245 N 
ATOM      9  C   UNL A   1      35.089  21.844  24.487  1.00  0.00     0.145 A 
ATOM     10  N   UNL A   1      35.567  23.174  22.757  1.00  0.00    -0.066 NA
ATOM     11  N   UNL A   1      36.701  22.606  23.144  1.00  0.00    -0.125 NA
BRANCH   8  12
ATOM     12  C   UNL A   1      33.319  23.362  23.729  1.00  0.00     0.148 C 
ATOM     13  C   UNL A   1      31.296  25.735  23.717  1.00  0.00     0.320 C 
ATOM     14  O   UNL A   1      30.361  24.970  23.934  1.00  0.00    -0.248 OA
ATOM     15  N   UNL A   1      32.550  25.265  23.379  1.00  0.00    -0.320 N 
ATOM     16  C   UNL A   1      32.772  24.091  22.509  1.00  0.00     0.150 C 
ATOM     17  C   UNL A   1      33.475  24.742  24.389  1.00  0.00     0.150 C 
BRANCH  13  18
ATOM     18  N   UNL A   1      31.198  27.120  23.699  1.00  0.00    -0.322 N 
ATOM     19  C   UNL A   1      31.487  27.895  22.501  1.00  0.00     0.149 C 
BRANCH  18  20
ATOM     20  C   UNL A   1      30.655  27.821  24.863  1.00  0.00     0.182 C 
BRANCH  20  21
ATOM     21  C   UNL A   1      31.485  27.665  26.170  1.00  0.00     0.283 C 
BRANCH  21  22
ATOM     22  N   UNL A   1      32.580  28.603  26.474  1.00  0.00    -0.338 N 
ATOM     23  C   UNL A   1      33.908  28.017  26.352  1.00  0.00     0.332 C 
ATOM     24  C   UNL A   1      32.457  29.895  25.814  1.00  0.00     0.332 C 
ATOM     25  H   UNL A   1      32.470  28.804  27.469  1.00  0.00     0.347 HD
ENDBRANCH  21  22
ENDBRANCH  20  21
ENDBRANCH  18  20
ENDBRANCH  13  18
ENDBRANCH   8  12
ENDBRANCH   4   7
ENDBRANCH   2   3
ENDBRANCH   1   2
BRANCH   1  26
ATOM     26  C   UNL A   1      40.756  23.221  27.024  1.00  0.00     0.002 C 
BRANCH  26  27
ATOM     27  C   UNL A   1      41.321  22.210  28.036  1.00  0.00     0.002 C 
BRANCH  27  28
ATOM     28  C   UNL A   1      42.147  21.053  27.454  1.00  0.00     0.021 C 
BRANCH  28  29
ATOM     29  C   UNL A   1      42.146  21.015  25.934  1.00  0.00     0.116 C 
BRANCH  29  30
ATOM     30  N   UNL A   1      43.479  20.763  25.386  1.00  0.00    -0.352 N 
ATOM     31  C   UNL A   1      44.466  21.675  25.059  1.00  0.00     0.251 C 
ATOM     32  H   UNL A   1      43.703  19.816  25.230  1.00  0.00     0.163 HD
ATOM     33  O   UNL A   1      45.367  21.384  24.293  1.00  0.00    -0.269 OA
BRANCH  31  34
ATOM     34  C   UNL A   1      44.411  23.012  25.674  1.00  0.00     0.039 A 
ATOM     35  C   UNL A   1      43.718  24.069  25.074  1.00  0.00     0.014 A 
ATOM     36  C   UNL A   1      45.067  23.185  26.888  1.00  0.00     0.014 A 
ATOM     37  C   UNL A   1      43.632  25.283  25.750  1.00  0.00     0.010 A 
ATOM     38  C   UNL A   1      44.837  24.313  27.625  1.00  0.00     0.010 A 
ATOM     39  C   UNL A   1      44.185  25.390  27.033  1.00  0.00    -0.014 A 
BRANCH  39  40
ATOM     40  C   UNL A   1      44.004  26.581  27.853  1.00  0.00     0.031 A 
ATOM     41  C   UNL A   1      45.031  27.634  27.636  1.00  0.00     0.074 A 
ATOM     42  C   UNL A   1      42.845  26.809  28.513  1.00  0.00     0.049 A 
ATOM     43  N   UNL A   1      45.873  28.107  28.493  1.00  0.00    -0.248 NA
ATOM     44  C   UNL A   1      45.238  28.132  26.263  1.00  0.00     0.031 C 
ATOM     45  C   UNL A   1      41.632  25.977  28.515  1.00  0.00     0.029 A 
ATOM     46  N   UNL A   1      42.441  27.913  29.196  1.00  0.00    -0.354 N 
ATOM     47  C   UNL A   1      46.570  29.113  27.827  1.00  0.00     0.074 A 
ATOM     48  C   UNL A   1      46.283  28.944  26.427  1.00  0.00     0.031 C 
ATOM     49  C   UNL A   1      40.576  26.715  28.925  1.00  0.00     0.029 A 
ATOM     50  C   UNL A   1      41.063  28.005  29.375  1.00  0.00     0.049 A 
ATOM     51  H   UNL A   1      43.069  28.591  29.535  1.00  0.00     0.167 HD
ATOM     52  C   UNL A   1      47.089  30.177  28.503  1.00  0.00     0.031 A 
ATOM     53  C   UNL A   1      40.364  29.080  29.820  1.00  0.00     0.031 A 
ATOM     54  C   UNL A   1      47.130  29.931  29.921  1.00  0.00     0.049 A 
ATOM     55  C   UNL A   1      41.329  29.982  30.487  1.00  0.00     0.074 A 
ATOM     56  C   UNL A   1      47.727  28.988  30.734  1.00  0.00     0.029 A 
ATOM     57  N   UNL A   1      46.135  30.507  30.675  1.00  0.00    -0.354 N 
ATOM     58  N   UNL A   1      41.942  29.680  31.594  1.00  0.00    -0.248 NA
ATOM     59  C   UNL A   1      41.961  31.016  29.684  1.00  0.00     0.031 C 
ATOM     60  C   UNL A   1      46.759  28.714  31.746  1.00  0.00     0.029 A 
ATOM     61  C   UNL A   1      45.666  29.559  31.546  1.00  0.00     0.049 A 
ATOM     62  H   UNL A   1      45.815  31.435  30.603  1.00  0.00     0.167 HD
ATOM     63  C   UNL A   1      43.242  30.126  31.404  1.00  0.00     0.074 A 
ATOM     64  C   UNL A   1      43.167  31.034  30.260  1.00  0.00     0.031 C 
ATOM     65  C   UNL A   1      44.295  29.491  31.999  1.00  0.00     0.031 A 
BRANCH  52  66
ATOM     66  C   UNL A   1      47.115  31.582  27.947  1.00  0.00    -0.014 A 
ATOM     67  C   UNL A   1      45.894  32.268  27.804  1.00  0.00     0.009 A 
ATOM     68  C   UNL A   1      48.228  32.137  27.287  1.00  0.00     0.009 A 
ATOM     69  C   UNL A   1      45.780  33.388  26.971  1.00  0.00     0.001 A 
ATOM     70  C   UNL A   1      48.126  33.279  26.489  1.00  0.00     0.001 A 
ATOM     71  C   UNL A   1      46.894  33.886  26.305  1.00  0.00     0.000 A 
ENDBRANCH  52  66
BRANCH  53  72
ATOM     72  C   UNL A   1      38.989  29.513  29.487  1.00  0.00    -0.014 A 
ATOM     73  C   UNL A   1      38.595  29.697  28.152  1.00  0.00     0.009 A 
ATOM     74  C   UNL A   1      37.978  29.481  30.465  1.00  0.00     0.009 A 
ATOM     75  C   UNL A   1      37.240  29.802  27.805  1.00  0.00     0.001 A 
ATOM     76  C   UNL A   1      36.626  29.587  30.120  1.00  0.00     0.001 A 
ATOM     77  C   UNL A   1      36.256  29.731  28.787  1.00  0.00     0.000 A 
ENDBRANCH  53  72
BRANCH  65  78
ATOM     78  C   UNL A   1      43.991  28.452  33.053  1.00  0.00    -0.014 A 
ATOM     79  C   UNL A   1      43.806  27.087  32.767  1.00  0.00     0.009 A 
ATOM     80  C   UNL A   1      44.047  28.847  34.397  1.00  0.00     0.009 A 
ATOM     81  C   UNL A   1      43.652  26.152  33.799  1.00  0.00     0.001 A 
ATOM     82  C   UNL A   1      43.916  27.913  35.426  1.00  0.00     0.001 A 
ATOM     83  C   UNL A   1      43.713  26.567  35.128  1.00  0.00     0.000 A 
ENDBRANCH  65  78
ENDBRANCH  39  40
ENDBRANCH  31  34
ENDBRANCH  29  30
ENDBRANCH  28  29
ENDBRANCH  27  28
ENDBRANCH  26  27
ENDBRANCH   1  26
TORSDOF 18
ENDMDL
