MODEL 1
REMARK VINA RESULT:      -9.7      0.000      0.000
REMARK SMILES CC1(C)CCC(CCCO)(C(=O)NCCCCCCNC(=O)c2ccc(-c3c4nc(c(-c5ccccc5)c5ccc([nH]5)c(-c5ccccc5)c5nc(c(-c6ccccc6)c6ccc3[nH]6)C=C5)C=C4)cc2)CC1
REMARK SMILES IDX 15 1 14 2 13 3 11 4 12 5 6 7 1 8 2 9 3 10 4 11 72 12 5 13
REMARK SMILES IDX 71 14 7 15 8 16 9 17 10 18 16 20 17 21 18 22 19 23 20 24
REMARK SMILES IDX 21 25 22 27 23 28 24 29 70 30 25 31 69 32 26 33 27 34 28 35
REMARK SMILES IDX 63 36 29 37 68 38 62 39 64 40 30 41 67 42 61 43 60 44 31 46
REMARK SMILES IDX 53 47 38 48 52 49 39 50 42 51 51 52 65 53 40 54 41 55 50 57
REMARK SMILES IDX 66 58 43 59 32 60 33 61 37 62 34 63 36 64 35 65 54 66 55 67
REMARK SMILES IDX 59 68 56 69 58 70 57 71 44 72 45 73 49 74 46 75 48 76 47 77
REMARK H PARENT 13 6 10 19 20 26 64 45 42 56
REMARK Flexibility Score: inf
ROOT
ATOM      1  C   UNL A   1      38.021  23.610  26.198  1.00  0.00     0.021 C 
ENDROOT
BRANCH   1   2
ATOM      2  C   UNL A   1      36.602  23.655  25.641  1.00  0.00     0.116 C 
BRANCH   2   3
ATOM      3  N   UNL A   1      35.621  23.147  26.574  1.00  0.00    -0.356 N 
ATOM      4  C   UNL A   1      34.561  22.316  26.458  1.00  0.00     0.226 C 
ATOM      5  O   UNL A   1      34.181  21.834  27.534  1.00  0.00    -0.274 OA
ATOM      6  H   UNL A   1      35.753  23.478  27.492  1.00  0.00     0.163 HD
BRANCH   4   7
ATOM      7  C   UNL A   1      33.891  21.878  25.133  1.00  0.00     0.049 C 
ATOM      8  C   UNL A   1      30.786  23.555  23.564  1.00  0.00     0.011 C 
ATOM      9  C   UNL A   1      31.676  23.972  24.752  1.00  0.00    -0.035 C 
ATOM     10  C   UNL A   1      31.122  25.299  25.306  1.00  0.00     0.011 C 
ATOM     11  C   UNL A   1      31.624  22.895  25.854  1.00  0.00     0.007 C 
ATOM     12  C   UNL A   1      33.138  24.190  24.300  1.00  0.00     0.007 C 
ATOM     13  C   UNL A   1      32.386  21.611  25.485  1.00  0.00     0.017 C 
ATOM     14  C   UNL A   1      33.863  22.884  23.961  1.00  0.00     0.017 C 
BRANCH   7  15
ATOM     15  C   UNL A   1      34.487  20.517  24.659  1.00  0.00     0.019 C 
BRANCH  15  16
ATOM     16  C   UNL A   1      33.578  19.279  24.669  1.00  0.00     0.029 C 
BRANCH  16  17
ATOM     17  C   UNL A   1      34.273  17.950  24.368  1.00  0.00     0.156 C 
BRANCH  17  18
ATOM     18  O   UNL A   1      35.615  17.958  24.832  1.00  0.00    -0.396 OA
ATOM     19  H   UNL A   1      36.188  17.540  24.171  1.00  0.00     0.210 HD
ENDBRANCH  17  18
ENDBRANCH  16  17
ENDBRANCH  15  16
ENDBRANCH   7  15
ENDBRANCH   4   7
ENDBRANCH   2   3
ENDBRANCH   1   2
BRANCH   1  20
ATOM     20  C   UNL A   1      38.764  22.282  26.022  1.00  0.00     0.002 C 
BRANCH  20  21
ATOM     21  C   UNL A   1      38.099  21.247  25.111  1.00  0.00     0.002 C 
BRANCH  21  22
ATOM     22  C   UNL A   1      38.717  19.849  25.120  1.00  0.00     0.021 C 
BRANCH  22  23
ATOM     23  C   UNL A   1      39.651  19.555  26.286  1.00  0.00     0.116 C 
BRANCH  23  24
ATOM     24  N   UNL A   1      40.939  19.033  25.866  1.00  0.00    -0.352 N 
ATOM     25  C   UNL A   1      42.155  19.668  25.836  1.00  0.00     0.251 C 
ATOM     26  H   UNL A   1      40.940  18.098  25.562  1.00  0.00     0.163 HD
ATOM     27  O   UNL A   1      43.132  19.114  25.339  1.00  0.00    -0.269 OA
BRANCH  25  28
ATOM     28  C   UNL A   1      42.278  21.038  26.375  1.00  0.00     0.039 A 
ATOM     29  C   UNL A   1      42.182  21.227  27.756  1.00  0.00     0.014 A 
ATOM     30  C   UNL A   1      42.496  22.129  25.528  1.00  0.00     0.014 A 
ATOM     31  C   UNL A   1      42.361  22.502  28.292  1.00  0.00     0.010 A 
ATOM     32  C   UNL A   1      42.751  23.385  26.071  1.00  0.00     0.010 A 
ATOM     33  C   UNL A   1      42.678  23.586  27.457  1.00  0.00    -0.014 A 
BRANCH  33  34
ATOM     34  C   UNL A   1      42.920  24.940  28.016  1.00  0.00     0.031 A 
ATOM     35  C   UNL A   1      44.304  25.338  28.453  1.00  0.00     0.074 A 
ATOM     36  C   UNL A   1      41.889  25.793  28.174  1.00  0.00     0.049 A 
ATOM     37  N   UNL A   1      44.703  26.452  29.013  1.00  0.00    -0.248 NA
ATOM     38  C   UNL A   1      45.374  24.346  28.259  1.00  0.00     0.031 C 
ATOM     39  C   UNL A   1      40.496  25.515  27.822  1.00  0.00     0.029 A 
ATOM     40  N   UNL A   1      41.856  27.070  28.678  1.00  0.00    -0.354 N 
ATOM     41  C   UNL A   1      46.064  26.290  29.244  1.00  0.00     0.074 A 
ATOM     42  C   UNL A   1      46.410  24.951  28.821  1.00  0.00     0.031 C 
ATOM     43  C   UNL A   1      39.749  26.596  28.098  1.00  0.00     0.029 A 
ATOM     44  C   UNL A   1      40.600  27.626  28.684  1.00  0.00     0.049 A 
ATOM     45  H   UNL A   1      42.656  27.541  29.005  1.00  0.00     0.167 HD
ATOM     46  C   UNL A   1      46.953  27.182  29.741  1.00  0.00     0.031 A 
ATOM     47  C   UNL A   1      40.179  28.827  29.123  1.00  0.00     0.031 A 
ATOM     48  C   UNL A   1      46.610  28.515  30.159  1.00  0.00     0.049 A 
ATOM     49  C   UNL A   1      41.182  29.792  29.696  1.00  0.00     0.074 A 
ATOM     50  C   UNL A   1      47.445  29.508  30.642  1.00  0.00     0.029 A 
ATOM     51  N   UNL A   1      45.328  29.042  30.144  1.00  0.00    -0.354 N 
ATOM     52  N   UNL A   1      42.475  29.643  29.853  1.00  0.00    -0.248 NA
ATOM     53  C   UNL A   1      40.667  31.096  30.138  1.00  0.00     0.031 C 
ATOM     54  C   UNL A   1      46.660  30.618  30.968  1.00  0.00     0.029 A 
ATOM     55  C   UNL A   1      45.346  30.339  30.627  1.00  0.00     0.049 A 
ATOM     56  H   UNL A   1      44.525  28.565  29.834  1.00  0.00     0.167 HD
ATOM     57  C   UNL A   1      42.932  30.843  30.382  1.00  0.00     0.074 A 
ATOM     58  C   UNL A   1      41.781  31.715  30.501  1.00  0.00     0.031 C 
ATOM     59  C   UNL A   1      44.192  31.194  30.737  1.00  0.00     0.031 A 
BRANCH  46  60
ATOM     60  C   UNL A   1      48.386  26.742  29.857  1.00  0.00    -0.014 A 
ATOM     61  C   UNL A   1      48.846  26.061  30.996  1.00  0.00     0.009 A 
ATOM     62  C   UNL A   1      49.280  26.976  28.801  1.00  0.00     0.009 A 
ATOM     63  C   UNL A   1      50.179  25.655  31.088  1.00  0.00     0.001 A 
ATOM     64  C   UNL A   1      50.604  26.541  28.882  1.00  0.00     0.001 A 
ATOM     65  C   UNL A   1      51.056  25.890  30.030  1.00  0.00     0.000 A 
ENDBRANCH  46  60
BRANCH  47  66
ATOM     66  C   UNL A   1      38.739  29.192  29.038  1.00  0.00    -0.014 A 
ATOM     67  C   UNL A   1      38.200  29.714  27.852  1.00  0.00     0.009 A 
ATOM     68  C   UNL A   1      37.899  29.039  30.152  1.00  0.00     0.009 A 
ATOM     69  C   UNL A   1      36.861  30.107  27.794  1.00  0.00     0.001 A 
ATOM     70  C   UNL A   1      36.552  29.400  30.082  1.00  0.00     0.001 A 
ATOM     71  C   UNL A   1      36.037  29.946  28.908  1.00  0.00     0.000 A 
ENDBRANCH  47  66
BRANCH  59  72
ATOM     72  C   UNL A   1      44.401  32.593  31.245  1.00  0.00    -0.014 A 
ATOM     73  C   UNL A   1      44.671  33.658  30.371  1.00  0.00     0.009 A 
ATOM     74  C   UNL A   1      44.282  32.854  32.620  1.00  0.00     0.009 A 
ATOM     75  C   UNL A   1      44.854  34.949  30.870  1.00  0.00     0.001 A 
ATOM     76  C   UNL A   1      44.433  34.151  33.111  1.00  0.00     0.001 A 
ATOM     77  C   UNL A   1      44.730  35.196  32.237  1.00  0.00     0.000 A 
ENDBRANCH  59  72
ENDBRANCH  33  34
ENDBRANCH  25  28
ENDBRANCH  23  24
ENDBRANCH  22  23
ENDBRANCH  21  22
ENDBRANCH  20  21
ENDBRANCH   1  20
TORSDOF 17
ENDMDL
MODEL 2
REMARK VINA RESULT:      -9.6      1.312      2.346
REMARK SMILES CC1(C)CCC(CCCO)(C(=O)NCCCCCCNC(=O)c2ccc(-c3c4nc(c(-c5ccccc5)c5ccc([nH]5)c(-c5ccccc5)c5nc(c(-c6ccccc6)c6ccc3[nH]6)C=C5)C=C4)cc2)CC1
REMARK SMILES IDX 15 1 14 2 13 3 11 4 12 5 6 7 1 8 2 9 3 10 4 11 72 12 5 13
REMARK SMILES IDX 71 14 7 15 8 16 9 17 10 18 16 20 17 21 18 22 19 23 20 24
REMARK SMILES IDX 21 25 22 27 23 28 24 29 70 30 25 31 69 32 26 33 27 34 28 35
REMARK SMILES IDX 63 36 29 37 68 38 62 39 64 40 30 41 67 42 61 43 60 44 31 46
REMARK SMILES IDX 53 47 38 48 52 49 39 50 42 51 51 52 65 53 40 54 41 55 50 57
REMARK SMILES IDX 66 58 43 59 32 60 33 61 37 62 34 63 36 64 35 65 54 66 55 67
REMARK SMILES IDX 59 68 56 69 58 70 57 71 44 72 45 73 49 74 46 75 48 76 47 77
REMARK H PARENT 13 6 10 19 20 26 64 45 42 56
REMARK Flexibility Score: inf
ROOT
ATOM      1  C   UNL A   1      37.806  23.707  26.047  1.00  0.00     0.021 C 
ENDROOT
BRANCH   1   2
ATOM      2  C   UNL A   1      36.571  23.927  25.179  1.00  0.00     0.116 C 
BRANCH   2   3
ATOM      3  N   UNL A   1      35.368  24.116  25.960  1.00  0.00    -0.356 N 
ATOM      4  C   UNL A   1      34.051  23.942  25.706  1.00  0.00     0.226 C 
ATOM      5  O   UNL A   1      33.351  23.861  26.725  1.00  0.00    -0.274 OA
ATOM      6  H   UNL A   1      35.546  24.441  26.871  1.00  0.00     0.163 HD
BRANCH   4   7
ATOM      7  C   UNL A   1      33.413  23.752  24.309  1.00  0.00     0.049 C 
ATOM      8  C   UNL A   1      32.234  20.374  22.855  1.00  0.00     0.011 C 
ATOM      9  C   UNL A   1      32.707  20.763  24.271  1.00  0.00    -0.035 C 
ATOM     10  C   UNL A   1      32.641  19.497  25.148  1.00  0.00     0.011 C 
ATOM     11  C   UNL A   1      34.159  21.277  24.220  1.00  0.00     0.007 C 
ATOM     12  C   UNL A   1      31.788  21.845  24.884  1.00  0.00     0.007 C 
ATOM     13  C   UNL A   1      34.289  22.671  23.585  1.00  0.00     0.017 C 
ATOM     14  C   UNL A   1      31.965  23.221  24.233  1.00  0.00     0.017 C 
BRANCH   7  15
ATOM     15  C   UNL A   1      33.548  25.066  23.479  1.00  0.00     0.019 C 
BRANCH  15  16
ATOM     16  C   UNL A   1      32.396  25.459  22.541  1.00  0.00     0.029 C 
BRANCH  16  17
ATOM     17  C   UNL A   1      32.737  25.470  21.050  1.00  0.00     0.156 C 
BRANCH  17  18
ATOM     18  O   UNL A   1      31.639  25.930  20.278  1.00  0.00    -0.396 OA
ATOM     19  H   UNL A   1      31.595  25.431  19.448  1.00  0.00     0.210 HD
ENDBRANCH  17  18
ENDBRANCH  16  17
ENDBRANCH  15  16
ENDBRANCH   7  15
ENDBRANCH   4   7
ENDBRANCH   2   3
ENDBRANCH   1   2
BRANCH   1  20
ATOM     20  C   UNL A   1      38.467  22.329  25.930  1.00  0.00     0.002 C 
BRANCH  20  21
ATOM     21  C   UNL A   1      37.814  21.345  24.955  1.00  0.00     0.002 C 
BRANCH  21  22
ATOM     22  C   UNL A   1      38.381  19.925  24.957  1.00  0.00     0.021 C 
BRANCH  22  23
ATOM     23  C   UNL A   1      39.213  19.554  26.177  1.00  0.00     0.116 C 
BRANCH  23  24
ATOM     24  N   UNL A   1      40.495  18.965  25.833  1.00  0.00    -0.352 N 
ATOM     25  C   UNL A   1      41.741  19.537  25.871  1.00  0.00     0.251 C 
ATOM     26  H   UNL A   1      40.465  18.029  25.534  1.00  0.00     0.163 HD
ATOM     27  O   UNL A   1      42.716  18.932  25.433  1.00  0.00    -0.269 OA
BRANCH  25  28
ATOM     28  C   UNL A   1      41.903  20.904  26.410  1.00  0.00     0.039 A 
ATOM     29  C   UNL A   1      41.797  21.098  27.789  1.00  0.00     0.014 A 
ATOM     30  C   UNL A   1      42.166  21.986  25.565  1.00  0.00     0.014 A 
ATOM     31  C   UNL A   1      42.011  22.367  28.327  1.00  0.00     0.010 A 
ATOM     32  C   UNL A   1      42.456  23.233  26.109  1.00  0.00     0.010 A 
ATOM     33  C   UNL A   1      42.373  23.439  27.494  1.00  0.00    -0.014 A 
BRANCH  33  34
ATOM     34  C   UNL A   1      42.653  24.785  28.055  1.00  0.00     0.031 A 
ATOM     35  C   UNL A   1      44.042  25.134  28.515  1.00  0.00     0.074 A 
ATOM     36  C   UNL A   1      41.650  25.674  28.193  1.00  0.00     0.049 A 
ATOM     37  N   UNL A   1      44.470  26.235  29.080  1.00  0.00    -0.248 NA
ATOM     38  C   UNL A   1      45.080  24.106  28.342  1.00  0.00     0.031 C 
ATOM     39  C   UNL A   1      40.254  25.444  27.818  1.00  0.00     0.029 A 
ATOM     40  N   UNL A   1      41.653  26.952  28.694  1.00  0.00    -0.354 N 
ATOM     41  C   UNL A   1      45.820  26.026  29.335  1.00  0.00     0.074 A 
ATOM     42  C   UNL A   1      46.126  24.675  28.920  1.00  0.00     0.031 C 
ATOM     43  C   UNL A   1      39.541  26.551  28.078  1.00  0.00     0.029 A 
ATOM     44  C   UNL A   1      40.417  27.552  28.677  1.00  0.00     0.049 A 
ATOM     45  H   UNL A   1      42.463  27.396  29.034  1.00  0.00     0.167 HD
ATOM     46  C   UNL A   1      46.731  26.888  29.845  1.00  0.00     0.031 A 
ATOM     47  C   UNL A   1      40.031  28.768  29.106  1.00  0.00     0.031 A 
ATOM     48  C   UNL A   1      46.429  28.233  30.255  1.00  0.00     0.049 A 
ATOM     49  C   UNL A   1      41.057  29.699  29.694  1.00  0.00     0.074 A 
ATOM     50  C   UNL A   1      47.289  29.198  30.750  1.00  0.00     0.029 A 
ATOM     51  N   UNL A   1      45.166  28.805  30.216  1.00  0.00    -0.354 N 
ATOM     52  N   UNL A   1      42.341  29.505  29.874  1.00  0.00    -0.248 NA
ATOM     53  C   UNL A   1      40.580  31.021  30.125  1.00  0.00     0.031 C 
ATOM     54  C   UNL A   1      46.538  30.335  31.061  1.00  0.00     0.029 A 
ATOM     55  C   UNL A   1      45.221  30.102  30.697  1.00  0.00     0.049 A 
ATOM     56  H   UNL A   1      44.352  28.355  29.894  1.00  0.00     0.167 HD
ATOM     57  C   UNL A   1      42.831  30.690  30.409  1.00  0.00     0.074 A 
ATOM     58  C   UNL A   1      41.709  31.601  30.506  1.00  0.00     0.031 C 
ATOM     59  C   UNL A   1      44.096  30.997  30.785  1.00  0.00     0.031 A 
BRANCH  46  60
ATOM     60  C   UNL A   1      48.146  26.399  29.988  1.00  0.00    -0.014 A 
ATOM     61  C   UNL A   1      49.077  26.554  28.948  1.00  0.00     0.009 A 
ATOM     62  C   UNL A   1      48.566  25.809  31.190  1.00  0.00     0.009 A 
ATOM     63  C   UNL A   1      50.388  26.098  29.097  1.00  0.00     0.001 A 
ATOM     64  C   UNL A   1      49.887  25.383  31.348  1.00  0.00     0.001 A 
ATOM     65  C   UNL A   1      50.794  25.519  30.298  1.00  0.00     0.000 A 
ENDBRANCH  46  60
BRANCH  47  66
ATOM     66  C   UNL A   1      38.607  29.183  28.995  1.00  0.00    -0.014 A 
ATOM     67  C   UNL A   1      38.106  29.715  27.796  1.00  0.00     0.009 A 
ATOM     68  C   UNL A   1      37.744  29.069  30.096  1.00  0.00     0.009 A 
ATOM     69  C   UNL A   1      36.782  30.154  27.714  1.00  0.00     0.001 A 
ATOM     70  C   UNL A   1      36.412  29.477  30.002  1.00  0.00     0.001 A 
ATOM     71  C   UNL A   1      35.936  30.031  28.816  1.00  0.00     0.000 A 
ENDBRANCH  47  66
BRANCH  59  72
ATOM     72  C   UNL A   1      44.345  32.389  31.294  1.00  0.00    -0.014 A 
ATOM     73  C   UNL A   1      44.303  32.686  32.666  1.00  0.00     0.009 A 
ATOM     74  C   UNL A   1      44.669  33.410  30.386  1.00  0.00     0.009 A 
ATOM     75  C   UNL A   1      44.545  33.987  33.112  1.00  0.00     0.001 A 
ATOM     76  C   UNL A   1      44.942  34.701  30.839  1.00  0.00     0.001 A 
ATOM     77  C   UNL A   1      44.869  34.991  32.200  1.00  0.00     0.000 A 
ENDBRANCH  59  72
ENDBRANCH  33  34
ENDBRANCH  25  28
ENDBRANCH  23  24
ENDBRANCH  22  23
ENDBRANCH  21  22
ENDBRANCH  20  21
ENDBRANCH   1  20
TORSDOF 17
ENDMDL
MODEL 3
REMARK VINA RESULT:      -9.6      2.567      4.205
REMARK SMILES CC1(C)CCC(CCCO)(C(=O)NCCCCCCNC(=O)c2ccc(-c3c4nc(c(-c5ccccc5)c5ccc([nH]5)c(-c5ccccc5)c5nc(c(-c6ccccc6)c6ccc3[nH]6)C=C5)C=C4)cc2)CC1
REMARK SMILES IDX 15 1 14 2 13 3 11 4 12 5 6 7 1 8 2 9 3 10 4 11 72 12 5 13
REMARK SMILES IDX 71 14 7 15 8 16 9 17 10 18 16 20 17 21 18 22 19 23 20 24
REMARK SMILES IDX 21 25 22 27 23 28 24 29 70 30 25 31 69 32 26 33 27 34 28 35
REMARK SMILES IDX 63 36 29 37 68 38 62 39 64 40 30 41 67 42 61 43 60 44 31 46
REMARK SMILES IDX 53 47 38 48 52 49 39 50 42 51 51 52 65 53 40 54 41 55 50 57
REMARK SMILES IDX 66 58 43 59 32 60 33 61 37 62 34 63 36 64 35 65 54 66 55 67
REMARK SMILES IDX 59 68 56 69 58 70 57 71 44 72 45 73 49 74 46 75 48 76 47 77
REMARK H PARENT 13 6 10 19 20 26 64 45 42 56
REMARK Flexibility Score: inf
ROOT
ATOM      1  C   UNL A   1      33.362  22.884  27.387  1.00  0.00     0.021 C 
ENDROOT
BRANCH   1   2
ATOM      2  C   UNL A   1      32.009  22.741  26.697  1.00  0.00     0.116 C 
BRANCH   2   3
ATOM      3  N   UNL A   1      31.158  23.893  26.897  1.00  0.00    -0.356 N 
ATOM      4  C   UNL A   1      30.821  24.952  26.127  1.00  0.00     0.226 C 
ATOM      5  O   UNL A   1      29.794  25.536  26.500  1.00  0.00    -0.274 OA
ATOM      6  H   UNL A   1      30.731  23.909  27.784  1.00  0.00     0.163 HD
BRANCH   4   7
ATOM      7  C   UNL A   1      31.540  25.398  24.831  1.00  0.00     0.049 C 
ATOM      8  C   UNL A   1      33.856  28.474  24.532  1.00  0.00     0.011 C 
ATOM      9  C   UNL A   1      33.224  27.793  25.762  1.00  0.00    -0.035 C 
ATOM     10  C   UNL A   1      33.683  28.569  27.012  1.00  0.00     0.011 C 
ATOM     11  C   UNL A   1      31.686  27.843  25.663  1.00  0.00     0.007 C 
ATOM     12  C   UNL A   1      33.693  26.324  25.884  1.00  0.00     0.007 C 
ATOM     13  C   UNL A   1      31.114  26.890  24.601  1.00  0.00     0.017 C 
ATOM     14  C   UNL A   1      33.084  25.409  24.818  1.00  0.00     0.017 C 
BRANCH   7  15
ATOM     15  C   UNL A   1      30.998  24.586  23.615  1.00  0.00     0.019 C 
BRANCH  15  16
ATOM     16  C   UNL A   1      31.485  23.141  23.426  1.00  0.00     0.029 C 
BRANCH  16  17
ATOM     17  C   UNL A   1      32.471  22.925  22.277  1.00  0.00     0.156 C 
BRANCH  17  18
ATOM     18  O   UNL A   1      32.683  24.127  21.552  1.00  0.00    -0.396 OA
ATOM     19  H   UNL A   1      32.324  24.031  20.656  1.00  0.00     0.210 HD
ENDBRANCH  17  18
ENDBRANCH  16  17
ENDBRANCH  15  16
ENDBRANCH   7  15
ENDBRANCH   4   7
ENDBRANCH   2   3
ENDBRANCH   1   2
BRANCH   1  20
ATOM     20  C   UNL A   1      34.317  21.695  27.233  1.00  0.00     0.002 C 
BRANCH  20  21
ATOM     21  C   UNL A   1      35.537  21.917  26.335  1.00  0.00     0.002 C 
BRANCH  21  22
ATOM     22  C   UNL A   1      35.845  23.369  25.969  1.00  0.00     0.021 C 
BRANCH  22  23
ATOM     23  C   UNL A   1      37.086  23.578  25.113  1.00  0.00     0.116 C 
BRANCH  23  24
ATOM     24  N   UNL A   1      38.149  22.634  25.410  1.00  0.00    -0.352 N 
ATOM     25  C   UNL A   1      39.318  22.845  26.097  1.00  0.00     0.251 C 
ATOM     26  H   UNL A   1      38.011  21.720  25.075  1.00  0.00     0.163 HD
ATOM     27  O   UNL A   1      40.169  21.961  26.159  1.00  0.00    -0.269 OA
BRANCH  25  28
ATOM     28  C   UNL A   1      39.566  24.155  26.734  1.00  0.00     0.039 A 
ATOM     29  C   UNL A   1      39.104  24.367  28.034  1.00  0.00     0.014 A 
ATOM     30  C   UNL A   1      40.258  25.165  26.058  1.00  0.00     0.014 A 
ATOM     31  C   UNL A   1      39.385  25.572  28.679  1.00  0.00     0.010 A 
ATOM     32  C   UNL A   1      40.604  26.334  26.730  1.00  0.00     0.010 A 
ATOM     33  C   UNL A   1      40.163  26.553  28.043  1.00  0.00    -0.014 A 
BRANCH  33  34
ATOM     34  C   UNL A   1      40.513  27.820  28.733  1.00  0.00     0.031 A 
ATOM     35  C   UNL A   1      41.869  27.984  29.365  1.00  0.00     0.074 A 
ATOM     36  C   UNL A   1      39.597  28.803  28.833  1.00  0.00     0.049 A 
ATOM     37  N   UNL A   1      42.340  28.992  30.056  1.00  0.00    -0.248 NA
ATOM     38  C   UNL A   1      42.809  26.861  29.223  1.00  0.00     0.031 C 
ATOM     39  C   UNL A   1      38.237  28.753  28.294  1.00  0.00     0.029 A 
ATOM     40  N   UNL A   1      39.672  30.037  29.429  1.00  0.00    -0.354 N 
ATOM     41  C   UNL A   1      43.624  28.620  30.436  1.00  0.00     0.074 A 
ATOM     42  C   UNL A   1      43.836  27.273  29.953  1.00  0.00     0.031 C 
ATOM     43  C   UNL A   1      37.615  29.912  28.562  1.00  0.00     0.029 A 
ATOM     44  C   UNL A   1      38.514  30.769  29.327  1.00  0.00     0.049 A 
ATOM     45  H   UNL A   1      40.480  30.366  29.886  1.00  0.00     0.167 HD
ATOM     46  C   UNL A   1      44.553  29.341  31.105  1.00  0.00     0.031 A 
ATOM     47  C   UNL A   1      38.207  31.990  29.805  1.00  0.00     0.031 A 
ATOM     48  C   UNL A   1      44.344  30.681  31.583  1.00  0.00     0.049 A 
ATOM     49  C   UNL A   1      39.249  32.761  30.570  1.00  0.00     0.074 A 
ATOM     50  C   UNL A   1      45.236  31.511  32.241  1.00  0.00     0.029 A 
ATOM     51  N   UNL A   1      43.160  31.389  31.455  1.00  0.00    -0.354 N 
ATOM     52  N   UNL A   1      40.478  32.416  30.870  1.00  0.00    -0.248 NA
ATOM     53  C   UNL A   1      38.863  34.096  31.049  1.00  0.00     0.031 C 
ATOM     54  C   UNL A   1      44.574  32.701  32.557  1.00  0.00     0.029 A 
ATOM     55  C   UNL A   1      43.290  32.638  32.038  1.00  0.00     0.049 A 
ATOM     56  H   UNL A   1      42.346  31.054  31.014  1.00  0.00     0.167 HD
ATOM     57  C   UNL A   1      41.021  33.502  31.544  1.00  0.00     0.074 A 
ATOM     58  C   UNL A   1      39.994  34.523  31.592  1.00  0.00     0.031 C 
ATOM     59  C   UNL A   1      42.260  33.643  32.075  1.00  0.00     0.031 A 
BRANCH  46  60
ATOM     60  C   UNL A   1      45.885  28.691  31.360  1.00  0.00    -0.014 A 
ATOM     61  C   UNL A   1      46.940  28.814  30.441  1.00  0.00     0.009 A 
ATOM     62  C   UNL A   1      46.103  27.979  32.549  1.00  0.00     0.009 A 
ATOM     63  C   UNL A   1      48.173  28.208  30.693  1.00  0.00     0.001 A 
ATOM     64  C   UNL A   1      47.346  27.401  32.814  1.00  0.00     0.001 A 
ATOM     65  C   UNL A   1      48.377  27.507  31.881  1.00  0.00     0.000 A 
ENDBRANCH  46  60
BRANCH  47  66
ATOM     66  C   UNL A   1      36.855  32.564  29.576  1.00  0.00    -0.014 A 
ATOM     67  C   UNL A   1      35.794  32.271  30.447  1.00  0.00     0.009 A 
ATOM     68  C   UNL A   1      36.611  33.395  28.471  1.00  0.00     0.009 A 
ATOM     69  C   UNL A   1      34.512  32.767  30.196  1.00  0.00     0.001 A 
ATOM     70  C   UNL A   1      35.338  33.919  28.241  1.00  0.00     0.001 A 
ATOM     71  C   UNL A   1      34.286  33.594  29.096  1.00  0.00     0.000 A 
ENDBRANCH  47  66
BRANCH  59  72
ATOM     72  C   UNL A   1      42.589  34.963  32.715  1.00  0.00    -0.014 A 
ATOM     73  C   UNL A   1      42.208  35.254  34.034  1.00  0.00     0.009 A 
ATOM     74  C   UNL A   1      43.332  35.914  31.995  1.00  0.00     0.009 A 
ATOM     75  C   UNL A   1      42.533  36.486  34.605  1.00  0.00     0.001 A 
ATOM     76  C   UNL A   1      43.684  37.130  32.581  1.00  0.00     0.001 A 
ATOM     77  C   UNL A   1      43.274  37.420  33.882  1.00  0.00     0.000 A 
ENDBRANCH  59  72
ENDBRANCH  33  34
ENDBRANCH  25  28
ENDBRANCH  23  24
ENDBRANCH  22  23
ENDBRANCH  21  22
ENDBRANCH  20  21
ENDBRANCH   1  20
TORSDOF 17
ENDMDL
