MODEL 1
REMARK VINA RESULT:     -11.7      0.000      0.000
REMARK SMILES CCCCc1cc(S(F)(F)(F)(F)F)cc2c1O[C@@H](C(F)(F)F)C(C(=O)NCCCCCCNC(=O)c1ccc(-c3c4nc(c(-c5ccccc5)c5ccc([nH]5)c(-c5ccccc5)c5nc(c(-c6ccccc6)c6ccc3[nH]6)C=C5)C=C4)cc1)=C2
REMARK SMILES IDX 29 1 28 2 27 3 26 4 24 5 25 6 23 8 5 9 6 10 16 11 7 12 15 13
REMARK SMILES IDX 17 14 14 15 84 16 18 17 4 18 3 19 2 20 1 21 8 22 9 23 10 24
REMARK SMILES IDX 11 25 12 26 13 27 19 28 20 29 21 30 22 31 30 32 31 33 32 34
REMARK SMILES IDX 33 35 34 36 35 38 36 39 37 40 83 41 38 42 82 43 39 44 40 45
REMARK SMILES IDX 41 46 76 47 42 48 81 49 75 50 77 51 43 52 80 53 74 54 73 55
REMARK SMILES IDX 44 57 66 58 51 59 65 60 52 61 55 62 64 63 78 64 53 65 54 66
REMARK SMILES IDX 63 68 79 69 56 70 45 71 46 72 50 73 47 74 49 75 48 76 67 77
REMARK SMILES IDX 68 78 72 79 69 80 71 81 70 82 57 83 58 84 62 85 59 86 61 87
REMARK SMILES IDX 60 88
REMARK H PARENT 26 7 33 37 77 56 55 67
REMARK Flexibility Score: inf
ROOT
ATOM      1  C   UNL A   1      31.443  26.370  26.652  1.00  0.00     0.002 C 
ENDROOT
BRANCH   1   2
ATOM      2  C   UNL A   1      30.248  26.446  25.716  1.00  0.00     0.021 C 
BRANCH   2   3
ATOM      3  C   UNL A   1      30.196  25.193  24.857  1.00  0.00     0.116 C 
BRANCH   3   4
ATOM      4  N   UNL A   1      30.512  25.541  23.463  1.00  0.00    -0.352 N 
ATOM      5  C   UNL A   1      31.590  24.836  22.756  1.00  0.00     0.251 C 
ATOM      6  O   UNL A   1      31.863  25.136  21.552  1.00  0.00    -0.270 OA
ATOM      7  H   UNL A   1      30.001  26.248  23.005  1.00  0.00     0.163 HD
BRANCH   5   8
ATOM      8  C   UNL A   1      32.378  23.746  23.464  1.00  0.00     0.067 C 
ATOM      9  C   UNL A   1      34.918  20.850  25.078  1.00  0.00    -0.004 A 
ATOM     10  C   UNL A   1      34.597  19.509  24.964  1.00  0.00     0.032 A 
ATOM     11  C   UNL A   1      34.093  21.778  24.491  1.00  0.00     0.131 A 
ATOM     12  C   UNL A   1      33.482  19.108  24.277  1.00  0.00     0.108 A 
ATOM     13  C   UNL A   1      32.949  21.411  23.806  1.00  0.00     0.019 A 
ATOM     14  O   UNL A   1      34.484  23.095  24.516  1.00  0.00    -0.475 OA
ATOM     15  C   UNL A   1      32.658  20.055  23.707  1.00  0.00     0.036 A 
ATOM     16  C   UNL A   1      32.163  22.465  23.189  1.00  0.00     0.025 C 
ATOM     17  C   UNL A   1      33.431  24.099  24.505  1.00  0.00     0.314 C 
BRANCH   9  18
ATOM     18  C   UNL A   1      36.160  21.287  25.837  1.00  0.00     0.039 C 
BRANCH  18  19
ATOM     19  C   UNL A   1      37.343  21.343  24.884  1.00  0.00     0.005 C 
BRANCH  19  20
ATOM     20  C   UNL A   1      38.389  22.301  25.431  1.00  0.00    -0.003 C 
ATOM     21  C   UNL A   1      37.727  23.622  25.791  1.00  0.00     0.004 C 
ENDBRANCH  19  20
ENDBRANCH  18  19
ENDBRANCH   9  18
BRANCH  12  22
ATOM     22  S   UNL A   1      33.093  17.347  24.119  1.00  0.00     0.310 S 
ATOM     23  F   UNL A   1      34.377  16.924  24.948  1.00  0.00    -0.094 F 
ATOM     24  F   UNL A   1      33.994  17.294  22.828  1.00  0.00    -0.094 F 
ATOM     25  F   UNL A   1      32.759  15.835  23.983  1.00  0.00    -0.094 F 
ATOM     26  F   UNL A   1      32.311  17.387  25.491  1.00  0.00    -0.094 F 
ATOM     27  F   UNL A   1      33.515  18.855  24.333  1.00  0.00    -0.094 F 
ENDBRANCH  12  22
BRANCH  17  28
ATOM     28  C   UNL A   1      34.038  25.449  24.158  1.00  0.00     0.429 C 
ATOM     29  F   UNL A   1      33.070  26.354  24.041  1.00  0.00    -0.167 F 
ATOM     30  F   UNL A   1      34.875  25.819  25.123  1.00  0.00    -0.167 F 
ATOM     31  F   UNL A   1      34.700  25.356  23.008  1.00  0.00    -0.167 F 
ENDBRANCH  17  28
ENDBRANCH   5   8
ENDBRANCH   3   4
ENDBRANCH   2   3
ENDBRANCH   1   2
BRANCH   1  32
ATOM     32  C   UNL A   1      31.778  27.762  27.160  1.00  0.00     0.002 C 
BRANCH  32  33
ATOM     33  C   UNL A   1      32.916  28.343  26.337  1.00  0.00     0.021 C 
BRANCH  33  34
ATOM     34  C   UNL A   1      34.002  28.861  27.267  1.00  0.00     0.116 C 
BRANCH  34  35
ATOM     35  N   UNL A   1      33.619  30.187  27.776  1.00  0.00    -0.352 N 
ATOM     36  C   UNL A   1      34.608  31.017  28.478  1.00  0.00     0.251 C 
ATOM     37  H   UNL A   1      32.701  30.517  27.647  1.00  0.00     0.163 HD
ATOM     38  O   UNL A   1      34.278  32.163  28.919  1.00  0.00    -0.269 OA
BRANCH  36  39
ATOM     39  C   UNL A   1      36.026  30.506  28.677  1.00  0.00     0.039 A 
ATOM     40  C   UNL A   1      36.952  30.661  27.658  1.00  0.00     0.014 A 
ATOM     41  C   UNL A   1      36.352  29.919  29.821  1.00  0.00     0.014 A 
ATOM     42  C   UNL A   1      38.130  29.899  27.834  1.00  0.00     0.010 A 
ATOM     43  C   UNL A   1      37.576  29.311  29.971  1.00  0.00     0.010 A 
ATOM     44  C   UNL A   1      38.518  29.374  28.983  1.00  0.00    -0.014 A 
BRANCH  44  45
ATOM     45  C   UNL A   1      39.935  28.867  29.193  1.00  0.00     0.031 A 
ATOM     46  C   UNL A   1      40.254  27.572  28.780  1.00  0.00     0.074 A 
ATOM     47  C   UNL A   1      40.837  29.735  29.785  1.00  0.00     0.049 A 
ATOM     48  N   UNL A   1      41.441  26.968  28.843  1.00  0.00    -0.248 NA
ATOM     49  C   UNL A   1      39.289  26.637  28.182  1.00  0.00     0.031 C 
ATOM     50  C   UNL A   1      40.526  31.045  30.197  1.00  0.00     0.029 A 
ATOM     51  N   UNL A   1      42.163  29.505  30.079  1.00  0.00    -0.354 N 
ATOM     52  C   UNL A   1      41.359  25.737  28.333  1.00  0.00     0.074 A 
ATOM     53  C   UNL A   1      39.973  25.504  27.907  1.00  0.00     0.031 C 
ATOM     54  C   UNL A   1      41.643  31.593  30.742  1.00  0.00     0.029 A 
ATOM     55  C   UNL A   1      42.673  30.635  30.679  1.00  0.00     0.049 A 
ATOM     56  H   UNL A   1      42.660  28.676  29.894  1.00  0.00     0.167 HD
ATOM     57  C   UNL A   1      42.386  24.800  28.205  1.00  0.00     0.031 A 
ATOM     58  C   UNL A   1      43.959  30.837  31.154  1.00  0.00     0.031 A 
ATOM     59  C   UNL A   1      43.684  25.018  28.641  1.00  0.00     0.049 A 
ATOM     60  C   UNL A   1      44.972  29.878  31.079  1.00  0.00     0.074 A 
ATOM     61  C   UNL A   1      44.733  24.087  28.513  1.00  0.00     0.029 A 
ATOM     62  N   UNL A   1      44.187  26.139  29.263  1.00  0.00    -0.354 N 
ATOM     63  N   UNL A   1      44.900  28.662  30.534  1.00  0.00    -0.248 NA
ATOM     64  C   UNL A   1      46.329  30.069  31.608  1.00  0.00     0.031 C 
ATOM     65  C   UNL A   1      45.851  24.636  29.059  1.00  0.00     0.029 A 
ATOM     66  C   UNL A   1      45.519  25.918  29.538  1.00  0.00     0.049 A 
ATOM     67  H   UNL A   1      43.683  26.957  29.475  1.00  0.00     0.167 HD
ATOM     68  C   UNL A   1      46.077  28.042  30.634  1.00  0.00     0.074 A 
ATOM     69  C   UNL A   1      47.012  28.935  31.334  1.00  0.00     0.031 C 
ATOM     70  C   UNL A   1      46.411  26.770  30.169  1.00  0.00     0.031 A 
BRANCH  57  71
ATOM     71  C   UNL A   1      42.063  23.466  27.552  1.00  0.00    -0.014 A 
ATOM     72  C   UNL A   1      41.513  22.451  28.317  1.00  0.00     0.009 A 
ATOM     73  C   UNL A   1      42.312  23.297  26.259  1.00  0.00     0.009 A 
ATOM     74  C   UNL A   1      41.528  21.185  27.685  1.00  0.00     0.001 A 
ATOM     75  C   UNL A   1      42.175  22.060  25.677  1.00  0.00     0.001 A 
ATOM     76  C   UNL A   1      41.693  20.997  26.388  1.00  0.00     0.000 A 
ENDBRANCH  57  71
BRANCH  58  77
ATOM     77  C   UNL A   1      44.285  32.176  31.792  1.00  0.00    -0.014 A 
ATOM     78  C   UNL A   1      44.780  33.203  31.003  1.00  0.00     0.009 A 
ATOM     79  C   UNL A   1      44.092  32.342  33.096  1.00  0.00     0.009 A 
ATOM     80  C   UNL A   1      45.316  34.285  31.740  1.00  0.00     0.001 A 
ATOM     81  C   UNL A   1      44.520  33.485  33.727  1.00  0.00     0.001 A 
ATOM     82  C   UNL A   1      45.072  34.516  33.018  1.00  0.00     0.000 A 
ENDBRANCH  58  77
BRANCH  70  83
ATOM     83  C   UNL A   1      47.839  26.290  30.366  1.00  0.00    -0.014 A 
ATOM     84  C   UNL A   1      48.732  26.376  29.310  1.00  0.00     0.009 A 
ATOM     85  C   UNL A   1      48.208  25.793  31.541  1.00  0.00     0.009 A 
ATOM     86  C   UNL A   1      49.925  25.640  29.506  1.00  0.00     0.001 A 
ATOM     87  C   UNL A   1      49.442  25.208  31.697  1.00  0.00     0.001 A 
ATOM     88  C   UNL A   1      50.353  25.205  30.677  1.00  0.00     0.000 A 
ENDBRANCH  70  83
ENDBRANCH  44  45
ENDBRANCH  36  39
ENDBRANCH  34  35
ENDBRANCH  33  34
ENDBRANCH  32  33
ENDBRANCH   1  32
TORSDOF 18
ENDMDL
MODEL 2
REMARK VINA RESULT:     -10.8      3.054      4.554
REMARK SMILES CCCCc1cc(S(F)(F)(F)(F)F)cc2c1O[C@@H](C(F)(F)F)C(C(=O)NCCCCCCNC(=O)c1ccc(-c3c4nc(c(-c5ccccc5)c5ccc([nH]5)c(-c5ccccc5)c5nc(c(-c6ccccc6)c6ccc3[nH]6)C=C5)C=C4)cc1)=C2
REMARK SMILES IDX 29 1 28 2 27 3 26 4 24 5 25 6 23 8 5 9 6 10 16 11 7 12 15 13
REMARK SMILES IDX 17 14 14 15 84 16 18 17 4 18 3 19 2 20 1 21 8 22 9 23 10 24
REMARK SMILES IDX 11 25 12 26 13 27 19 28 20 29 21 30 22 31 30 32 31 33 32 34
REMARK SMILES IDX 33 35 34 36 35 38 36 39 37 40 83 41 38 42 82 43 39 44 40 45
REMARK SMILES IDX 41 46 76 47 42 48 81 49 75 50 77 51 43 52 80 53 74 54 73 55
REMARK SMILES IDX 44 57 66 58 51 59 65 60 52 61 55 62 64 63 78 64 53 65 54 66
REMARK SMILES IDX 63 68 79 69 56 70 45 71 46 72 50 73 47 74 49 75 48 76 67 77
REMARK SMILES IDX 68 78 72 79 69 80 71 81 70 82 57 83 58 84 62 85 59 86 61 87
REMARK SMILES IDX 60 88
REMARK H PARENT 26 7 33 37 77 56 55 67
REMARK Flexibility Score: inf
ROOT
ATOM      1  C   UNL A   1      34.050  29.863  27.195  1.00  0.00     0.002 C 
ENDROOT
BRANCH   1   2
ATOM      2  C   UNL A   1      32.534  29.756  27.223  1.00  0.00     0.021 C 
BRANCH   2   3
ATOM      3  C   UNL A   1      32.081  28.708  26.218  1.00  0.00     0.116 C 
BRANCH   3   4
ATOM      4  N   UNL A   1      31.977  29.322  24.885  1.00  0.00    -0.352 N 
ATOM      5  C   UNL A   1      32.176  28.503  23.681  1.00  0.00     0.251 C 
ATOM      6  O   UNL A   1      32.085  29.033  22.530  1.00  0.00    -0.270 OA
ATOM      7  H   UNL A   1      31.773  30.282  24.800  1.00  0.00     0.163 HD
BRANCH   5   8
ATOM      8  C   UNL A   1      32.489  27.021  23.813  1.00  0.00     0.067 C 
ATOM      9  C   UNL A   1      33.083  22.965  24.611  1.00  0.00    -0.004 A 
ATOM     10  C   UNL A   1      34.350  22.499  24.913  1.00  0.00     0.032 A 
ATOM     11  C   UNL A   1      32.907  24.312  24.406  1.00  0.00     0.131 A 
ATOM     12  C   UNL A   1      35.412  23.359  25.011  1.00  0.00     0.108 A 
ATOM     13  C   UNL A   1      33.959  25.207  24.479  1.00  0.00     0.019 A 
ATOM     14  O   UNL A   1      31.626  24.773  24.220  1.00  0.00    -0.475 OA
ATOM     15  C   UNL A   1      35.218  24.706  24.788  1.00  0.00     0.036 A 
ATOM     16  C   UNL A   1      33.663  26.616  24.283  1.00  0.00     0.025 C 
ATOM     17  C   UNL A   1      31.465  25.970  23.409  1.00  0.00     0.314 C 
BRANCH   9  18
ATOM     18  C   UNL A   1      31.909  22.006  24.510  1.00  0.00     0.039 C 
BRANCH  18  19
ATOM     19  C   UNL A   1      32.275  20.685  25.165  1.00  0.00     0.005 C 
BRANCH  19  20
ATOM     20  C   UNL A   1      32.495  19.630  24.093  1.00  0.00    -0.003 C 
ATOM     21  C   UNL A   1      32.129  20.206  22.734  1.00  0.00     0.004 C 
ENDBRANCH  19  20
ENDBRANCH  18  19
ENDBRANCH   9  18
BRANCH  12  22
ATOM     22  S   UNL A   1      37.057  22.732  25.430  1.00  0.00     0.310 S 
ATOM     23  F   UNL A   1      37.769  24.024  24.846  1.00  0.00    -0.094 F 
ATOM     24  F   UNL A   1      37.156  22.109  23.987  1.00  0.00    -0.094 F 
ATOM     25  F   UNL A   1      38.471  22.192  25.790  1.00  0.00    -0.094 F 
ATOM     26  F   UNL A   1      36.999  23.481  26.819  1.00  0.00    -0.094 F 
ATOM     27  F   UNL A   1      35.671  23.381  25.039  1.00  0.00    -0.094 F 
ENDBRANCH  12  22
BRANCH  17  28
ATOM     28  C   UNL A   1      30.068  26.531  23.626  1.00  0.00     0.429 C 
ATOM     29  F   UNL A   1      29.985  27.056  24.844  1.00  0.00    -0.167 F 
ATOM     30  F   UNL A   1      29.824  27.474  22.720  1.00  0.00    -0.167 F 
ATOM     31  F   UNL A   1      29.174  25.554  23.501  1.00  0.00    -0.167 F 
ENDBRANCH  17  28
ENDBRANCH   5   8
ENDBRANCH   3   4
ENDBRANCH   2   3
ENDBRANCH   1   2
BRANCH   1  32
ATOM     32  C   UNL A   1      34.472  31.215  27.746  1.00  0.00     0.002 C 
BRANCH  32  33
ATOM     33  C   UNL A   1      33.248  32.103  27.904  1.00  0.00     0.021 C 
BRANCH  33  34
ATOM     34  C   UNL A   1      33.645  33.555  27.695  1.00  0.00     0.116 C 
BRANCH  34  35
ATOM     35  N   UNL A   1      33.002  34.391  28.720  1.00  0.00    -0.352 N 
ATOM     36  C   UNL A   1      33.588  34.485  30.065  1.00  0.00     0.251 C 
ATOM     37  H   UNL A   1      32.180  34.887  28.505  1.00  0.00     0.163 HD
ATOM     38  O   UNL A   1      33.033  35.207  30.951  1.00  0.00    -0.269 OA
BRANCH  36  39
ATOM     39  C   UNL A   1      34.859  33.718  30.396  1.00  0.00     0.039 A 
ATOM     40  C   UNL A   1      36.060  34.125  29.839  1.00  0.00     0.014 A 
ATOM     41  C   UNL A   1      34.795  32.672  31.210  1.00  0.00     0.014 A 
ATOM     42  C   UNL A   1      37.104  33.180  29.977  1.00  0.00     0.010 A 
ATOM     43  C   UNL A   1      35.894  31.870  31.403  1.00  0.00     0.010 A 
ATOM     44  C   UNL A   1      37.099  32.178  30.838  1.00  0.00    -0.014 A 
BRANCH  44  45
ATOM     45  C   UNL A   1      38.365  31.410  31.180  1.00  0.00     0.031 A 
ATOM     46  C   UNL A   1      38.748  30.347  30.360  1.00  0.00     0.074 A 
ATOM     47  C   UNL A   1      39.073  31.822  32.296  1.00  0.00     0.049 A 
ATOM     48  N   UNL A   1      39.837  29.585  30.473  1.00  0.00    -0.248 NA
ATOM     49  C   UNL A   1      37.980  29.886  29.195  1.00  0.00     0.031 C 
ATOM     50  C   UNL A   1      38.698  32.899  33.123  1.00  0.00     0.029 A 
ATOM     51  N   UNL A   1      40.237  31.287  32.804  1.00  0.00    -0.354 N 
ATOM     52  C   UNL A   1      39.871  28.681  29.492  1.00  0.00     0.074 A 
ATOM     53  C   UNL A   1      38.674  28.858  28.659  1.00  0.00     0.031 C 
ATOM     54  C   UNL A   1      39.614  33.005  34.120  1.00  0.00     0.029 A 
ATOM     55  C   UNL A   1      40.579  31.996  33.934  1.00  0.00     0.049 A 
ATOM     56  H   UNL A   1      40.737  30.529  32.425  1.00  0.00     0.167 HD
ATOM     57  C   UNL A   1      40.854  27.718  29.257  1.00  0.00     0.031 A 
ATOM     58  C   UNL A   1      41.665  31.789  34.769  1.00  0.00     0.031 A 
ATOM     59  C   UNL A   1      41.964  27.539  30.068  1.00  0.00     0.049 A 
ATOM     60  C   UNL A   1      42.618  30.787  34.568  1.00  0.00     0.074 A 
ATOM     61  C   UNL A   1      42.968  26.578  29.842  1.00  0.00     0.029 A 
ATOM     62  N   UNL A   1      42.292  28.232  31.212  1.00  0.00    -0.354 N 
ATOM     63  N   UNL A   1      42.672  29.909  33.564  1.00  0.00    -0.248 NA
ATOM     64  C   UNL A   1      43.755  30.538  35.465  1.00  0.00     0.031 C 
ATOM     65  C   UNL A   1      43.885  26.684  30.841  1.00  0.00     0.029 A 
ATOM     66  C   UNL A   1      43.467  27.712  31.708  1.00  0.00     0.049 A 
ATOM     67  H   UNL A   1      41.776  28.971  31.608  1.00  0.00     0.167 HD
ATOM     68  C   UNL A   1      43.739  29.121  33.700  1.00  0.00     0.074 A 
ATOM     69  C   UNL A   1      44.447  29.508  34.929  1.00  0.00     0.031 C 
ATOM     70  C   UNL A   1      44.154  28.096  32.849  1.00  0.00     0.031 A 
BRANCH  57  71
ATOM     71  C   UNL A   1      40.698  26.815  28.044  1.00  0.00    -0.014 A 
ATOM     72  C   UNL A   1      39.992  25.630  28.166  1.00  0.00     0.009 A 
ATOM     73  C   UNL A   1      41.240  27.179  26.888  1.00  0.00     0.009 A 
ATOM     74  C   UNL A   1      40.160  24.749  27.072  1.00  0.00     0.001 A 
ATOM     75  C   UNL A   1      41.249  26.317  25.818  1.00  0.00     0.001 A 
ATOM     76  C   UNL A   1      40.622  25.104  25.887  1.00  0.00     0.000 A 
ENDBRANCH  57  71
BRANCH  58  77
ATOM     77  C   UNL A   1      41.829  32.702  35.972  1.00  0.00    -0.014 A 
ATOM     78  C   UNL A   1      41.233  32.357  37.175  1.00  0.00     0.009 A 
ATOM     79  C   UNL A   1      42.540  33.818  35.851  1.00  0.00     0.009 A 
ATOM     80  C   UNL A   1      41.206  33.406  38.123  1.00  0.00     0.001 A 
ATOM     81  C   UNL A   1      42.578  34.738  36.871  1.00  0.00     0.001 A 
ATOM     82  C   UNL A   1      41.962  34.488  38.067  1.00  0.00     0.000 A 
ENDBRANCH  58  77
BRANCH  70  83
ATOM     83  C   UNL A   1      45.436  27.355  33.194  1.00  0.00    -0.014 A 
ATOM     84  C   UNL A   1      45.365  26.215  33.979  1.00  0.00     0.009 A 
ATOM     85  C   UNL A   1      46.598  27.811  32.744  1.00  0.00     0.009 A 
ATOM     86  C   UNL A   1      46.618  25.785  34.478  1.00  0.00     0.001 A 
ATOM     87  C   UNL A   1      47.781  27.255  33.171  1.00  0.00     0.001 A 
ATOM     88  C   UNL A   1      47.787  26.163  33.994  1.00  0.00     0.000 A 
ENDBRANCH  70  83
ENDBRANCH  44  45
ENDBRANCH  36  39
ENDBRANCH  34  35
ENDBRANCH  33  34
ENDBRANCH  32  33
ENDBRANCH   1  32
TORSDOF 18
ENDMDL
MODEL 3
REMARK VINA RESULT:     -10.8      2.770      8.121
REMARK SMILES CCCCc1cc(S(F)(F)(F)(F)F)cc2c1O[C@@H](C(F)(F)F)C(C(=O)NCCCCCCNC(=O)c1ccc(-c3c4nc(c(-c5ccccc5)c5ccc([nH]5)c(-c5ccccc5)c5nc(c(-c6ccccc6)c6ccc3[nH]6)C=C5)C=C4)cc1)=C2
REMARK SMILES IDX 29 1 28 2 27 3 26 4 24 5 25 6 23 8 5 9 6 10 16 11 7 12 15 13
REMARK SMILES IDX 17 14 14 15 84 16 18 17 4 18 3 19 2 20 1 21 8 22 9 23 10 24
REMARK SMILES IDX 11 25 12 26 13 27 19 28 20 29 21 30 22 31 30 32 31 33 32 34
REMARK SMILES IDX 33 35 34 36 35 38 36 39 37 40 83 41 38 42 82 43 39 44 40 45
REMARK SMILES IDX 41 46 76 47 42 48 81 49 75 50 77 51 43 52 80 53 74 54 73 55
REMARK SMILES IDX 44 57 66 58 51 59 65 60 52 61 55 62 64 63 78 64 53 65 54 66
REMARK SMILES IDX 63 68 79 69 56 70 45 71 46 72 50 73 47 74 49 75 48 76 67 77
REMARK SMILES IDX 68 78 72 79 69 80 71 81 70 82 57 83 58 84 62 85 59 86 61 87
REMARK SMILES IDX 60 88
REMARK H PARENT 26 7 33 37 77 56 55 67
REMARK Flexibility Score: inf
ROOT
ATOM      1  C   UNL A   1      37.017  21.649  24.185  1.00  0.00     0.002 C 
ENDROOT
BRANCH   1   2
ATOM      2  C   UNL A   1      36.668  23.128  24.159  1.00  0.00     0.021 C 
BRANCH   2   3
ATOM      3  C   UNL A   1      35.511  23.359  23.199  1.00  0.00     0.116 C 
BRANCH   3   4
ATOM      4  N   UNL A   1      34.578  22.225  23.276  1.00  0.00    -0.352 N 
ATOM      5  C   UNL A   1      33.210  22.431  23.771  1.00  0.00     0.251 C 
ATOM      6  O   UNL A   1      32.403  21.451  23.837  1.00  0.00    -0.270 OA
ATOM      7  H   UNL A   1      34.871  21.327  22.996  1.00  0.00     0.163 HD
BRANCH   5   8
ATOM      8  C   UNL A   1      32.759  23.817  24.204  1.00  0.00     0.067 C 
ATOM      9  C   UNL A   1      31.141  27.389  25.641  1.00  0.00    -0.004 A 
ATOM     10  C   UNL A   1      30.568  28.290  24.763  1.00  0.00     0.032 A 
ATOM     11  C   UNL A   1      31.617  26.198  25.149  1.00  0.00     0.131 A 
ATOM     12  C   UNL A   1      30.469  28.005  23.426  1.00  0.00     0.108 A 
ATOM     13  C   UNL A   1      31.551  25.885  23.803  1.00  0.00     0.019 A 
ATOM     14  O   UNL A   1      32.080  25.268  26.048  1.00  0.00    -0.475 OA
ATOM     15  C   UNL A   1      30.964  26.811  22.949  1.00  0.00     0.036 A 
ATOM     16  C   UNL A   1      32.047  24.584  23.387  1.00  0.00     0.025 C 
ATOM     17  C   UNL A   1      33.114  24.355  25.583  1.00  0.00     0.314 C 
BRANCH   9  18
ATOM     18  C   UNL A   1      31.243  27.710  27.124  1.00  0.00     0.039 C 
BRANCH  18  19
ATOM     19  C   UNL A   1      32.681  28.059  27.470  1.00  0.00     0.005 C 
BRANCH  19  20
ATOM     20  C   UNL A   1      33.089  29.321  26.727  1.00  0.00    -0.003 C 
ATOM     21  C   UNL A   1      34.160  28.982  25.703  1.00  0.00     0.004 C 
ENDBRANCH  19  20
ENDBRANCH  18  19
ENDBRANCH   9  18
BRANCH  12  22
ATOM     22  S   UNL A   1      29.693  29.188  22.298  1.00  0.00     0.310 S 
ATOM     23  F   UNL A   1      29.606  30.302  23.423  1.00  0.00    -0.094 F 
ATOM     24  F   UNL A   1      28.282  28.683  22.785  1.00  0.00    -0.094 F 
ATOM     25  F   UNL A   1      29.025  30.203  21.328  1.00  0.00    -0.094 F 
ATOM     26  F   UNL A   1      31.110  29.777  21.926  1.00  0.00    -0.094 F 
ATOM     27  F   UNL A   1      30.381  28.241  23.359  1.00  0.00    -0.094 F 
ENDBRANCH  12  22
BRANCH  17  28
ATOM     28  C   UNL A   1      33.222  23.193  26.556  1.00  0.00     0.429 C 
ATOM     29  F   UNL A   1      32.204  22.359  26.366  1.00  0.00    -0.167 F 
ATOM     30  F   UNL A   1      34.367  22.547  26.350  1.00  0.00    -0.167 F 
ATOM     31  F   UNL A   1      33.192  23.654  27.804  1.00  0.00    -0.167 F 
ENDBRANCH  17  28
ENDBRANCH   5   8
ENDBRANCH   3   4
ENDBRANCH   2   3
ENDBRANCH   1   2
BRANCH   1  32
ATOM     32  C   UNL A   1      37.975  21.376  25.334  1.00  0.00     0.002 C 
BRANCH  32  33
ATOM     33  C   UNL A   1      38.609  20.007  25.151  1.00  0.00     0.021 C 
BRANCH  33  34
ATOM     34  C   UNL A   1      39.599  19.752  26.276  1.00  0.00     0.116 C 
BRANCH  34  35
ATOM     35  N   UNL A   1      40.725  18.954  25.767  1.00  0.00    -0.352 N 
ATOM     36  C   UNL A   1      42.091  19.492  25.825  1.00  0.00     0.251 C 
ATOM     37  H   UNL A   1      40.562  18.061  25.387  1.00  0.00     0.163 HD
ATOM     38  O   UNL A   1      43.065  18.803  25.386  1.00  0.00    -0.269 OA
BRANCH  36  39
ATOM     39  C   UNL A   1      42.341  20.872  26.412  1.00  0.00     0.039 A 
ATOM     40  C   UNL A   1      42.256  21.052  27.783  1.00  0.00     0.014 A 
ATOM     41  C   UNL A   1      42.635  21.882  25.602  1.00  0.00     0.014 A 
ATOM     42  C   UNL A   1      42.215  22.408  28.182  1.00  0.00     0.010 A 
ATOM     43  C   UNL A   1      42.712  23.165  26.085  1.00  0.00     0.010 A 
ATOM     44  C   UNL A   1      42.580  23.424  27.421  1.00  0.00    -0.014 A 
BRANCH  44  45
ATOM     45  C   UNL A   1      42.838  24.806  27.999  1.00  0.00     0.031 A 
ATOM     46  C   UNL A   1      41.766  25.691  28.129  1.00  0.00     0.074 A 
ATOM     47  C   UNL A   1      44.138  25.103  28.372  1.00  0.00     0.049 A 
ATOM     48  N   UNL A   1      41.786  26.920  28.646  1.00  0.00    -0.248 NA
ATOM     49  C   UNL A   1      40.392  25.389  27.703  1.00  0.00     0.031 C 
ATOM     50  C   UNL A   1      45.223  24.213  28.252  1.00  0.00     0.029 A 
ATOM     51  N   UNL A   1      44.615  26.277  28.911  1.00  0.00    -0.354 N 
ATOM     52  C   UNL A   1      40.562  27.452  28.617  1.00  0.00     0.074 A 
ATOM     53  C   UNL A   1      39.649  26.477  28.004  1.00  0.00     0.031 C 
ATOM     54  C   UNL A   1      46.339  24.844  28.700  1.00  0.00     0.029 A 
ATOM     55  C   UNL A   1      45.971  26.140  29.111  1.00  0.00     0.049 A 
ATOM     56  H   UNL A   1      44.080  27.077  29.118  1.00  0.00     0.167 HD
ATOM     57  C   UNL A   1      40.171  28.709  29.079  1.00  0.00     0.031 A 
ATOM     58  C   UNL A   1      46.854  27.080  29.616  1.00  0.00     0.031 A 
ATOM     59  C   UNL A   1      41.047  29.634  29.626  1.00  0.00     0.049 A 
ATOM     60  C   UNL A   1      46.473  28.361  30.025  1.00  0.00     0.074 A 
ATOM     61  C   UNL A   1      40.667  30.904  30.103  1.00  0.00     0.029 A 
ATOM     62  N   UNL A   1      42.407  29.506  29.802  1.00  0.00    -0.354 N 
ATOM     63  N   UNL A   1      45.242  28.877  30.032  1.00  0.00    -0.248 NA
ATOM     64  C   UNL A   1      47.405  29.376  30.532  1.00  0.00     0.031 C 
ATOM     65  C   UNL A   1      41.785  31.535  30.553  1.00  0.00     0.029 A 
ATOM     66  C   UNL A   1      42.880  30.672  30.361  1.00  0.00     0.049 A 
ATOM     67  H   UNL A   1      42.947  28.717  29.567  1.00  0.00     0.167 HD
ATOM     68  C   UNL A   1      45.269  30.122  30.510  1.00  0.00     0.074 A 
ATOM     69  C   UNL A   1      46.661  30.464  30.832  1.00  0.00     0.031 C 
ATOM     70  C   UNL A   1      44.189  30.986  30.695  1.00  0.00     0.031 A 
BRANCH  57  71
ATOM     71  C   UNL A   1      38.702  29.086  28.977  1.00  0.00    -0.014 A 
ATOM     72  C   UNL A   1      38.217  29.613  27.791  1.00  0.00     0.009 A 
ATOM     73  C   UNL A   1      37.907  28.902  30.024  1.00  0.00     0.009 A 
ATOM     74  C   UNL A   1      36.929  30.189  27.905  1.00  0.00     0.001 A 
ATOM     75  C   UNL A   1      36.616  29.372  30.015  1.00  0.00     0.001 A 
ATOM     76  C   UNL A   1      36.089  29.957  28.897  1.00  0.00     0.000 A 
ENDBRANCH  57  71
BRANCH  58  77
ATOM     77  C   UNL A   1      48.319  26.697  29.734  1.00  0.00    -0.014 A 
ATOM     78  C   UNL A   1      48.767  26.064  30.882  1.00  0.00     0.009 A 
ATOM     79  C   UNL A   1      49.148  26.976  28.734  1.00  0.00     0.009 A 
ATOM     80  C   UNL A   1      50.176  26.022  31.002  1.00  0.00     0.001 A 
ATOM     81  C   UNL A   1      50.502  26.784  28.872  1.00  0.00     0.001 A 
ATOM     82  C   UNL A   1      51.020  26.217  30.004  1.00  0.00     0.000 A 
ENDBRANCH  58  77
BRANCH  70  83
ATOM     83  C   UNL A   1      44.463  32.354  31.298  1.00  0.00    -0.014 A 
ATOM     84  C   UNL A   1      44.432  32.502  32.675  1.00  0.00     0.009 A 
ATOM     85  C   UNL A   1      44.723  33.382  30.499  1.00  0.00     0.009 A 
ATOM     86  C   UNL A   1      44.405  33.850  33.105  1.00  0.00     0.001 A 
ATOM     87  C   UNL A   1      44.816  34.656  31.007  1.00  0.00     0.001 A 
ATOM     88  C   UNL A   1      44.737  34.884  32.353  1.00  0.00     0.000 A 
ENDBRANCH  70  83
ENDBRANCH  44  45
ENDBRANCH  36  39
ENDBRANCH  34  35
ENDBRANCH  33  34
ENDBRANCH  32  33
ENDBRANCH   1  32
TORSDOF 18
ENDMDL
