MODEL 1
REMARK VINA RESULT:     -11.7      0.000      0.000
REMARK SMILES Cc1ccc(NC(=O)c2cccn2CC(=O)NCCCCCCNC(=O)c2ccc(-c3c4nc(c(-c5ccccc5)c5ccc([nH]5)c(-c5ccccc5)c5nc(c(-c6ccccc6)c6ccc3[nH]6)C=C5)C=C4)cc2)cc1
REMARK SMILES IDX 20 1 19 2 18 3 17 4 15 5 16 6 14 8 13 9 9 10 10 11 11 12
REMARK SMILES IDX 12 13 7 14 6 15 8 17 5 18 1 19 2 20 3 21 76 22 4 23 75 24
REMARK SMILES IDX 21 25 22 26 23 27 24 28 25 29 26 31 27 32 28 33 74 34 29 35
REMARK SMILES IDX 73 36 30 37 31 38 32 39 67 40 33 41 72 42 66 43 68 44 34 45
REMARK SMILES IDX 71 46 65 47 64 48 35 50 57 51 42 52 56 53 43 54 46 55 55 56
REMARK SMILES IDX 69 57 44 58 45 59 54 61 70 62 47 63 36 64 37 65 41 66 38 67
REMARK SMILES IDX 40 68 39 69 58 70 59 71 63 72 60 73 62 74 61 75 48 76 49 77
REMARK SMILES IDX 53 78 50 79 52 80 51 81
REMARK H PARENT 17 7 6 16 24 30 68 49 46 60
REMARK Flexibility Score: inf
ROOT
ATOM      1  C   UNL A   1      38.532  20.207  25.337  1.00  0.00     0.002 C 
ENDROOT
BRANCH   1   2
ATOM      2  C   UNL A   1      37.056  20.034  24.947  1.00  0.00     0.021 C 
BRANCH   2   3
ATOM      3  C   UNL A   1      36.138  21.259  25.054  1.00  0.00     0.116 C 
BRANCH   3   4
ATOM      4  N   UNL A   1      35.405  21.303  26.311  1.00  0.00    -0.355 N 
ATOM      5  C   UNL A   1      34.490  22.211  26.769  1.00  0.00     0.239 C 
ATOM      6  O   UNL A   1      34.012  22.028  27.893  1.00  0.00    -0.273 OA
ATOM      7  H   UNL A   1      35.600  20.562  26.929  1.00  0.00     0.163 HD
BRANCH   5   8
ATOM      8  C   UNL A   1      34.033  23.377  25.913  1.00  0.00     0.222 C 
BRANCH   8   9
ATOM      9  N   UNL A   1      32.935  23.059  25.005  1.00  0.00    -0.334 N 
ATOM     10  C   UNL A   1      31.607  23.413  25.176  1.00  0.00     0.107 A 
ATOM     11  C   UNL A   1      30.966  23.135  23.973  1.00  0.00     0.033 A 
ATOM     12  C   UNL A   1      31.881  22.457  23.135  1.00  0.00     0.020 A 
ATOM     13  C   UNL A   1      33.087  22.427  23.794  1.00  0.00     0.087 A 
BRANCH  10  14
ATOM     14  C   UNL A   1      31.045  23.998  26.363  1.00  0.00     0.272 C 
ATOM     15  N   UNL A   1      30.696  25.324  26.421  1.00  0.00    -0.321 N 
ATOM     16  H   UNL A   1      30.443  25.616  27.326  1.00  0.00     0.170 HD
ATOM     17  O   UNL A   1      30.814  23.310  27.377  1.00  0.00    -0.267 OA
BRANCH  15  18
ATOM     18  C   UNL A   1      30.623  26.363  25.466  1.00  0.00     0.041 A 
ATOM     19  C   UNL A   1      30.196  29.399  22.400  1.00  0.00     0.044 C 
ATOM     20  C   UNL A   1      30.333  28.325  23.436  1.00  0.00    -0.051 A 
ATOM     21  C   UNL A   1      31.415  28.357  24.312  1.00  0.00     0.005 A 
ATOM     22  C   UNL A   1      29.399  27.296  23.570  1.00  0.00     0.005 A 
ATOM     23  C   UNL A   1      31.559  27.380  25.303  1.00  0.00     0.026 A 
ATOM     24  C   UNL A   1      29.542  26.327  24.574  1.00  0.00     0.026 A 
ENDBRANCH  15  18
ENDBRANCH  10  14
ENDBRANCH   8   9
ENDBRANCH   5   8
ENDBRANCH   3   4
ENDBRANCH   2   3
ENDBRANCH   1   2
BRANCH   1  25
ATOM     25  C   UNL A   1      38.958  21.602  25.836  1.00  0.00     0.002 C 
BRANCH  25  26
ATOM     26  C   UNL A   1      40.421  21.822  26.310  1.00  0.00     0.021 C 
BRANCH  26  27
ATOM     27  C   UNL A   1      40.962  21.088  27.583  1.00  0.00     0.116 C 
BRANCH  27  28
ATOM     28  N   UNL A   1      42.335  21.452  27.984  1.00  0.00    -0.352 N 
ATOM     29  C   UNL A   1      43.128  22.479  27.458  1.00  0.00     0.251 C 
ATOM     30  H   UNL A   1      42.739  20.913  28.703  1.00  0.00     0.163 HD
ATOM     31  O   UNL A   1      44.091  22.136  26.767  1.00  0.00    -0.269 OA
BRANCH  29  32
ATOM     32  C   UNL A   1      43.001  23.955  27.828  1.00  0.00     0.039 A 
ATOM     33  C   UNL A   1      44.173  24.754  27.950  1.00  0.00     0.014 A 
ATOM     34  C   UNL A   1      41.814  24.591  28.145  1.00  0.00     0.014 A 
ATOM     35  C   UNL A   1      44.162  26.160  28.271  1.00  0.00     0.010 A 
ATOM     36  C   UNL A   1      41.815  25.970  28.529  1.00  0.00     0.010 A 
ATOM     37  C   UNL A   1      42.966  26.827  28.535  1.00  0.00    -0.014 A 
BRANCH  37  38
ATOM     38  C   UNL A   1      42.738  28.341  28.290  1.00  0.00     0.031 A 
ATOM     39  C   UNL A   1      41.361  28.552  27.868  1.00  0.00     0.074 A 
ATOM     40  C   UNL A   1      43.163  29.543  28.819  1.00  0.00     0.049 A 
ATOM     41  N   UNL A   1      40.489  28.421  28.798  1.00  0.00    -0.248 NA
ATOM     42  C   UNL A   1      40.847  28.952  26.578  1.00  0.00     0.031 C 
ATOM     43  C   UNL A   1      44.400  29.809  29.535  1.00  0.00     0.029 A 
ATOM     44  N   UNL A   1      42.441  30.800  28.953  1.00  0.00    -0.354 N 
ATOM     45  C   UNL A   1      39.333  28.923  28.343  1.00  0.00     0.074 A 
ATOM     46  C   UNL A   1      39.565  29.174  26.925  1.00  0.00     0.031 C 
ATOM     47  C   UNL A   1      44.334  31.029  30.113  1.00  0.00     0.029 A 
ATOM     48  C   UNL A   1      43.003  31.662  29.909  1.00  0.00     0.049 A 
ATOM     49  H   UNL A   1      41.639  31.024  28.427  1.00  0.00     0.167 HD
ATOM     50  C   UNL A   1      38.395  29.181  29.285  1.00  0.00     0.031 A 
ATOM     51  C   UNL A   1      42.471  32.538  30.842  1.00  0.00     0.031 A 
ATOM     52  C   UNL A   1      38.747  28.781  30.675  1.00  0.00     0.049 A 
ATOM     53  C   UNL A   1      42.542  31.649  32.035  1.00  0.00     0.074 A 
ATOM     54  C   UNL A   1      38.114  28.076  31.681  1.00  0.00     0.029 A 
ATOM     55  N   UNL A   1      40.023  29.034  31.193  1.00  0.00    -0.354 N 
ATOM     56  N   UNL A   1      41.681  30.687  32.121  1.00  0.00    -0.248 NA
ATOM     57  C   UNL A   1      43.486  31.736  33.128  1.00  0.00     0.031 C 
ATOM     58  C   UNL A   1      39.045  27.862  32.756  1.00  0.00     0.029 A 
ATOM     59  C   UNL A   1      40.260  28.448  32.436  1.00  0.00     0.049 A 
ATOM     60  H   UNL A   1      40.693  29.580  30.722  1.00  0.00     0.167 HD
ATOM     61  C   UNL A   1      42.090  29.869  33.119  1.00  0.00     0.074 A 
ATOM     62  C   UNL A   1      43.161  30.607  33.777  1.00  0.00     0.031 C 
ATOM     63  C   UNL A   1      41.571  28.610  33.143  1.00  0.00     0.031 A 
BRANCH  50  64
ATOM     64  C   UNL A   1      37.232  30.017  28.886  1.00  0.00    -0.014 A 
ATOM     65  C   UNL A   1      37.317  31.402  29.059  1.00  0.00     0.009 A 
ATOM     66  C   UNL A   1      36.110  29.502  28.209  1.00  0.00     0.009 A 
ATOM     67  C   UNL A   1      36.357  32.251  28.504  1.00  0.00     0.001 A 
ATOM     68  C   UNL A   1      35.176  30.351  27.611  1.00  0.00     0.001 A 
ATOM     69  C   UNL A   1      35.306  31.728  27.754  1.00  0.00     0.000 A 
ENDBRANCH  50  64
BRANCH  51  70
ATOM     70  C   UNL A   1      41.280  33.489  31.058  1.00  0.00    -0.014 A 
ATOM     71  C   UNL A   1      40.480  33.355  32.204  1.00  0.00     0.009 A 
ATOM     72  C   UNL A   1      40.673  34.210  29.987  1.00  0.00     0.009 A 
ATOM     73  C   UNL A   1      39.152  33.852  32.248  1.00  0.00     0.001 A 
ATOM     74  C   UNL A   1      39.343  34.664  30.010  1.00  0.00     0.001 A 
ATOM     75  C   UNL A   1      38.574  34.476  31.143  1.00  0.00     0.000 A 
ENDBRANCH  51  70
BRANCH  63  76
ATOM     76  C   UNL A   1      42.340  27.459  33.769  1.00  0.00    -0.014 A 
ATOM     77  C   UNL A   1      42.051  26.872  35.020  1.00  0.00     0.009 A 
ATOM     78  C   UNL A   1      43.515  27.001  33.154  1.00  0.00     0.009 A 
ATOM     79  C   UNL A   1      42.819  25.842  35.578  1.00  0.00     0.001 A 
ATOM     80  C   UNL A   1      44.302  25.980  33.711  1.00  0.00     0.001 A 
ATOM     81  C   UNL A   1      43.943  25.385  34.914  1.00  0.00     0.000 A 
ENDBRANCH  63  76
ENDBRANCH  37  38
ENDBRANCH  29  32
ENDBRANCH  27  28
ENDBRANCH  26  27
ENDBRANCH  25  26
ENDBRANCH   1  25
TORSDOF 16
ENDMDL
MODEL 2
REMARK VINA RESULT:     -11.6      2.985      7.815
REMARK SMILES Cc1ccc(NC(=O)c2cccn2CC(=O)NCCCCCCNC(=O)c2ccc(-c3c4nc(c(-c5ccccc5)c5ccc([nH]5)c(-c5ccccc5)c5nc(c(-c6ccccc6)c6ccc3[nH]6)C=C5)C=C4)cc2)cc1
REMARK SMILES IDX 20 1 19 2 18 3 17 4 15 5 16 6 14 8 13 9 9 10 10 11 11 12
REMARK SMILES IDX 12 13 7 14 6 15 8 17 5 18 1 19 2 20 3 21 76 22 4 23 75 24
REMARK SMILES IDX 21 25 22 26 23 27 24 28 25 29 26 31 27 32 28 33 74 34 29 35
REMARK SMILES IDX 73 36 30 37 31 38 32 39 67 40 33 41 72 42 66 43 68 44 34 45
REMARK SMILES IDX 71 46 65 47 64 48 35 50 57 51 42 52 56 53 43 54 46 55 55 56
REMARK SMILES IDX 69 57 44 58 45 59 54 61 70 62 47 63 36 64 37 65 41 66 38 67
REMARK SMILES IDX 40 68 39 69 58 70 59 71 63 72 60 73 62 74 61 75 48 76 49 77
REMARK SMILES IDX 53 78 50 79 52 80 51 81
REMARK H PARENT 17 7 6 16 24 30 68 49 46 60
REMARK Flexibility Score: inf
ROOT
ATOM      1  C   UNL A   1      35.586  29.785  27.354  1.00  0.00     0.002 C 
ENDROOT
BRANCH   1   2
ATOM      2  C   UNL A   1      34.439  28.873  26.894  1.00  0.00     0.021 C 
BRANCH   2   3
ATOM      3  C   UNL A   1      33.312  29.501  26.062  1.00  0.00     0.116 C 
BRANCH   3   4
ATOM      4  N   UNL A   1      33.567  29.435  24.631  1.00  0.00    -0.355 N 
ATOM      5  C   UNL A   1      33.610  28.356  23.790  1.00  0.00     0.239 C 
ATOM      6  O   UNL A   1      33.861  28.566  22.599  1.00  0.00    -0.273 OA
ATOM      7  H   UNL A   1      33.736  30.303  24.200  1.00  0.00     0.163 HD
BRANCH   5   8
ATOM      8  C   UNL A   1      33.310  26.954  24.284  1.00  0.00     0.222 C 
BRANCH   8   9
ATOM      9  N   UNL A   1      31.895  26.596  24.251  1.00  0.00    -0.334 N 
ATOM     10  C   UNL A   1      31.249  25.918  23.231  1.00  0.00     0.107 A 
ATOM     11  C   UNL A   1      29.993  25.573  23.719  1.00  0.00     0.033 A 
ATOM     12  C   UNL A   1      29.826  26.194  24.979  1.00  0.00     0.020 A 
ATOM     13  C   UNL A   1      31.015  26.814  25.284  1.00  0.00     0.087 A 
BRANCH  10  14
ATOM     14  C   UNL A   1      31.815  25.606  21.947  1.00  0.00     0.272 C 
ATOM     15  N   UNL A   1      32.699  24.570  21.778  1.00  0.00    -0.321 N 
ATOM     16  H   UNL A   1      33.100  24.549  20.879  1.00  0.00     0.170 HD
ATOM     17  O   UNL A   1      31.491  26.242  20.924  1.00  0.00    -0.267 OA
BRANCH  15  18
ATOM     18  C   UNL A   1      33.161  23.528  22.613  1.00  0.00     0.041 A 
ATOM     19  C   UNL A   1      34.311  20.293  25.261  1.00  0.00     0.044 C 
ATOM     20  C   UNL A   1      33.886  21.419  24.368  1.00  0.00    -0.051 A 
ATOM     21  C   UNL A   1      34.855  22.246  23.806  1.00  0.00     0.005 A 
ATOM     22  C   UNL A   1      32.546  21.658  24.058  1.00  0.00     0.005 A 
ATOM     23  C   UNL A   1      34.491  23.292  22.952  1.00  0.00     0.026 A 
ATOM     24  C   UNL A   1      32.189  22.701  23.190  1.00  0.00     0.026 A 
ENDBRANCH  15  18
ENDBRANCH  10  14
ENDBRANCH   8   9
ENDBRANCH   5   8
ENDBRANCH   3   4
ENDBRANCH   2   3
ENDBRANCH   1   2
BRANCH   1  25
ATOM     25  C   UNL A   1      35.366  30.567  28.665  1.00  0.00     0.002 C 
BRANCH  25  26
ATOM     26  C   UNL A   1      34.712  31.974  28.606  1.00  0.00     0.021 C 
BRANCH  26  27
ATOM     27  C   UNL A   1      35.432  33.156  27.874  1.00  0.00     0.116 C 
BRANCH  27  28
ATOM     28  N   UNL A   1      36.311  33.983  28.726  1.00  0.00    -0.352 N 
ATOM     29  C   UNL A   1      36.710  33.718  30.041  1.00  0.00     0.251 C 
ATOM     30  H   UNL A   1      36.654  34.813  28.324  1.00  0.00     0.163 HD
ATOM     31  O   UNL A   1      36.229  34.436  30.921  1.00  0.00    -0.269 OA
BRANCH  29  32
ATOM     32  C   UNL A   1      37.823  32.749  30.435  1.00  0.00     0.039 A 
ATOM     33  C   UNL A   1      38.260  32.692  31.789  1.00  0.00     0.014 A 
ATOM     34  C   UNL A   1      38.525  31.950  29.551  1.00  0.00     0.014 A 
ATOM     35  C   UNL A   1      39.285  31.798  32.269  1.00  0.00     0.010 A 
ATOM     36  C   UNL A   1      39.587  31.114  30.022  1.00  0.00     0.010 A 
ATOM     37  C   UNL A   1      39.960  30.944  31.398  1.00  0.00    -0.014 A 
BRANCH  37  38
ATOM     38  C   UNL A   1      40.584  29.587  31.813  1.00  0.00     0.031 A 
ATOM     39  C   UNL A   1      39.889  28.513  31.119  1.00  0.00     0.074 A 
ATOM     40  C   UNL A   1      41.827  29.086  32.144  1.00  0.00     0.049 A 
ATOM     41  N   UNL A   1      40.156  28.421  29.869  1.00  0.00    -0.248 NA
ATOM     42  C   UNL A   1      39.003  27.501  31.647  1.00  0.00     0.031 C 
ATOM     43  C   UNL A   1      42.960  29.814  32.690  1.00  0.00     0.029 A 
ATOM     44  N   UNL A   1      42.389  27.767  31.889  1.00  0.00    -0.354 N 
ATOM     45  C   UNL A   1      39.690  27.240  29.441  1.00  0.00     0.074 A 
ATOM     46  C   UNL A   1      38.903  26.720  30.555  1.00  0.00     0.031 C 
ATOM     47  C   UNL A   1      44.065  29.038  32.635  1.00  0.00     0.029 A 
ATOM     48  C   UNL A   1      43.791  27.740  31.962  1.00  0.00     0.049 A 
ATOM     49  H   UNL A   1      41.841  26.974  31.686  1.00  0.00     0.167 HD
ATOM     50  C   UNL A   1      40.168  26.818  28.246  1.00  0.00     0.031 A 
ATOM     51  C   UNL A   1      44.776  27.077  31.247  1.00  0.00     0.031 A 
ATOM     52  C   UNL A   1      41.067  27.771  27.538  1.00  0.00     0.049 A 
ATOM     53  C   UNL A   1      45.142  28.178  30.314  1.00  0.00     0.074 A 
ATOM     54  C   UNL A   1      41.142  28.274  26.252  1.00  0.00     0.029 A 
ATOM     55  N   UNL A   1      42.065  28.467  28.230  1.00  0.00    -0.354 N 
ATOM     56  N   UNL A   1      44.319  28.449  29.353  1.00  0.00    -0.248 NA
ATOM     57  C   UNL A   1      46.332  28.998  30.362  1.00  0.00     0.031 C 
ATOM     58  C   UNL A   1      42.138  29.310  26.217  1.00  0.00     0.029 A 
ATOM     59  C   UNL A   1      42.705  29.448  27.474  1.00  0.00     0.049 A 
ATOM     60  H   UNL A   1      42.295  28.279  29.169  1.00  0.00     0.167 HD
ATOM     61  C   UNL A   1      44.711  29.624  28.806  1.00  0.00     0.074 A 
ATOM     62  C   UNL A   1      46.017  29.882  29.402  1.00  0.00     0.031 C 
ATOM     63  C   UNL A   1      43.798  30.295  28.051  1.00  0.00     0.031 A 
BRANCH  50  64
ATOM     64  C   UNL A   1      39.936  25.398  27.874  1.00  0.00    -0.014 A 
ATOM     65  C   UNL A   1      38.808  25.086  27.109  1.00  0.00     0.009 A 
ATOM     66  C   UNL A   1      40.869  24.374  28.126  1.00  0.00     0.009 A 
ATOM     67  C   UNL A   1      38.656  23.817  26.546  1.00  0.00     0.001 A 
ATOM     68  C   UNL A   1      40.744  23.120  27.523  1.00  0.00     0.001 A 
ATOM     69  C   UNL A   1      39.638  22.846  26.727  1.00  0.00     0.000 A 
ENDBRANCH  50  64
BRANCH  51  70
ATOM     70  C   UNL A   1      45.043  25.752  30.510  1.00  0.00    -0.014 A 
ATOM     71  C   UNL A   1      46.174  25.628  29.687  1.00  0.00     0.009 A 
ATOM     72  C   UNL A   1      44.014  24.795  30.261  1.00  0.00     0.009 A 
ATOM     73  C   UNL A   1      46.240  24.659  28.654  1.00  0.00     0.001 A 
ATOM     74  C   UNL A   1      44.057  23.862  29.210  1.00  0.00     0.001 A 
ATOM     75  C   UNL A   1      45.172  23.800  28.395  1.00  0.00     0.000 A 
ENDBRANCH  51  70
BRANCH  63  76
ATOM     76  C   UNL A   1      43.863  31.805  27.903  1.00  0.00    -0.014 A 
ATOM     77  C   UNL A   1      44.422  32.493  26.804  1.00  0.00     0.009 A 
ATOM     78  C   UNL A   1      43.470  32.619  28.977  1.00  0.00     0.009 A 
ATOM     79  C   UNL A   1      44.501  33.890  26.734  1.00  0.00     0.001 A 
ATOM     80  C   UNL A   1      43.558  34.019  28.925  1.00  0.00     0.001 A 
ATOM     81  C   UNL A   1      44.055  34.657  27.795  1.00  0.00     0.000 A 
ENDBRANCH  63  76
ENDBRANCH  37  38
ENDBRANCH  29  32
ENDBRANCH  27  28
ENDBRANCH  26  27
ENDBRANCH  25  26
ENDBRANCH   1  25
TORSDOF 16
ENDMDL
MODEL 3
REMARK VINA RESULT:     -11.3      3.027      8.533
REMARK SMILES Cc1ccc(NC(=O)c2cccn2CC(=O)NCCCCCCNC(=O)c2ccc(-c3c4nc(c(-c5ccccc5)c5ccc([nH]5)c(-c5ccccc5)c5nc(c(-c6ccccc6)c6ccc3[nH]6)C=C5)C=C4)cc2)cc1
REMARK SMILES IDX 20 1 19 2 18 3 17 4 15 5 16 6 14 8 13 9 9 10 10 11 11 12
REMARK SMILES IDX 12 13 7 14 6 15 8 17 5 18 1 19 2 20 3 21 76 22 4 23 75 24
REMARK SMILES IDX 21 25 22 26 23 27 24 28 25 29 26 31 27 32 28 33 74 34 29 35
REMARK SMILES IDX 73 36 30 37 31 38 32 39 67 40 33 41 72 42 66 43 68 44 34 45
REMARK SMILES IDX 71 46 65 47 64 48 35 50 57 51 42 52 56 53 43 54 46 55 55 56
REMARK SMILES IDX 69 57 44 58 45 59 54 61 70 62 47 63 36 64 37 65 41 66 38 67
REMARK SMILES IDX 40 68 39 69 58 70 59 71 63 72 60 73 62 74 61 75 48 76 49 77
REMARK SMILES IDX 53 78 50 79 52 80 51 81
REMARK H PARENT 17 7 6 16 24 30 68 49 46 60
REMARK Flexibility Score: inf
ROOT
ATOM      1  C   UNL A   1      37.004  30.441  28.517  1.00  0.00     0.002 C 
ENDROOT
BRANCH   1   2
ATOM      2  C   UNL A   1      35.719  29.615  28.357  1.00  0.00     0.021 C 
BRANCH   2   3
ATOM      3  C   UNL A   1      34.625  30.163  27.429  1.00  0.00     0.116 C 
BRANCH   3   4
ATOM      4  N   UNL A   1      33.294  29.704  27.799  1.00  0.00    -0.355 N 
ATOM      5  C   UNL A   1      32.555  28.658  27.318  1.00  0.00     0.239 C 
ATOM      6  O   UNL A   1      31.430  28.482  27.798  1.00  0.00    -0.273 OA
ATOM      7  H   UNL A   1      32.857  30.230  28.507  1.00  0.00     0.163 HD
BRANCH   5   8
ATOM      8  C   UNL A   1      33.108  27.712  26.270  1.00  0.00     0.222 C 
BRANCH   8   9
ATOM      9  N   UNL A   1      32.311  27.638  25.049  1.00  0.00    -0.334 N 
ATOM     10  C   UNL A   1      31.284  26.744  24.798  1.00  0.00     0.107 A 
ATOM     11  C   UNL A   1      30.647  27.187  23.643  1.00  0.00     0.033 A 
ATOM     12  C   UNL A   1      31.401  28.257  23.109  1.00  0.00     0.020 A 
ATOM     13  C   UNL A   1      32.419  28.517  23.997  1.00  0.00     0.087 A 
BRANCH  10  14
ATOM     14  C   UNL A   1      30.941  25.615  25.619  1.00  0.00     0.272 C 
ATOM     15  N   UNL A   1      31.709  24.477  25.643  1.00  0.00    -0.321 N 
ATOM     16  H   UNL A   1      31.293  23.743  26.149  1.00  0.00     0.170 HD
ATOM     17  O   UNL A   1      29.951  25.641  26.376  1.00  0.00    -0.267 OA
BRANCH  15  18
ATOM     18  C   UNL A   1      32.966  24.129  25.098  1.00  0.00     0.041 A 
ATOM     19  C   UNL A   1      36.683  22.913  23.227  1.00  0.00     0.044 C 
ATOM     20  C   UNL A   1      35.382  23.303  23.862  1.00  0.00    -0.051 A 
ATOM     21  C   UNL A   1      35.388  23.874  25.132  1.00  0.00     0.005 A 
ATOM     22  C   UNL A   1      34.157  23.133  23.214  1.00  0.00     0.005 A 
ATOM     23  C   UNL A   1      34.192  24.268  25.741  1.00  0.00     0.026 A 
ATOM     24  C   UNL A   1      32.963  23.543  23.826  1.00  0.00     0.026 A 
ENDBRANCH  15  18
ENDBRANCH  10  14
ENDBRANCH   8   9
ENDBRANCH   5   8
ENDBRANCH   3   4
ENDBRANCH   2   3
ENDBRANCH   1   2
BRANCH   1  25
ATOM     25  C   UNL A   1      36.920  31.684  29.425  1.00  0.00     0.002 C 
BRANCH  25  26
ATOM     26  C   UNL A   1      36.548  31.503  30.922  1.00  0.00     0.021 C 
BRANCH  26  27
ATOM     27  C   UNL A   1      36.354  30.070  31.525  1.00  0.00     0.116 C 
BRANCH  27  28
ATOM     28  N   UNL A   1      37.452  29.596  32.389  1.00  0.00    -0.352 N 
ATOM     29  C   UNL A   1      38.320  28.524  32.146  1.00  0.00     0.251 C 
ATOM     30  H   UNL A   1      37.591  30.087  33.231  1.00  0.00     0.163 HD
ATOM     31  O   UNL A   1      38.171  27.521  32.848  1.00  0.00    -0.269 OA
BRANCH  29  32
ATOM     32  C   UNL A   1      39.536  28.580  31.224  1.00  0.00     0.039 A 
ATOM     33  C   UNL A   1      39.944  29.826  30.670  1.00  0.00     0.014 A 
ATOM     34  C   UNL A   1      40.257  27.478  30.799  1.00  0.00     0.014 A 
ATOM     35  C   UNL A   1      41.088  29.991  29.809  1.00  0.00     0.010 A 
ATOM     36  C   UNL A   1      41.351  27.639  29.891  1.00  0.00     0.010 A 
ATOM     37  C   UNL A   1      41.859  28.896  29.420  1.00  0.00    -0.014 A 
BRANCH  37  38
ATOM     38  C   UNL A   1      43.363  28.973  29.053  1.00  0.00     0.031 A 
ATOM     39  C   UNL A   1      44.158  28.689  30.238  1.00  0.00     0.074 A 
ATOM     40  C   UNL A   1      44.173  28.682  27.973  1.00  0.00     0.049 A 
ATOM     41  N   UNL A   1      44.158  27.459  30.601  1.00  0.00    -0.248 NA
ATOM     42  C   UNL A   1      44.994  29.573  31.017  1.00  0.00     0.031 C 
ATOM     43  C   UNL A   1      43.796  28.632  26.570  1.00  0.00     0.029 A 
ATOM     44  N   UNL A   1      45.546  28.197  27.952  1.00  0.00    -0.354 N 
ATOM     45  C   UNL A   1      45.140  27.303  31.499  1.00  0.00     0.074 A 
ATOM     46  C   UNL A   1      45.594  28.657  31.800  1.00  0.00     0.031 C 
ATOM     47  C   UNL A   1      44.793  28.066  25.854  1.00  0.00     0.029 A 
ATOM     48  C   UNL A   1      45.903  27.603  26.730  1.00  0.00     0.049 A 
ATOM     49  H   UNL A   1      46.161  28.276  28.716  1.00  0.00     0.167 HD
ATOM     50  C   UNL A   1      45.513  26.024  31.743  1.00  0.00     0.031 A 
ATOM     51  C   UNL A   1      46.685  26.511  26.387  1.00  0.00     0.031 A 
ATOM     52  C   UNL A   1      44.715  24.975  31.052  1.00  0.00     0.049 A 
ATOM     53  C   UNL A   1      45.594  25.513  26.213  1.00  0.00     0.074 A 
ATOM     54  C   UNL A   1      44.092  23.803  31.440  1.00  0.00     0.029 A 
ATOM     55  N   UNL A   1      44.356  25.117  29.706  1.00  0.00    -0.354 N 
ATOM     56  N   UNL A   1      45.027  25.050  27.280  1.00  0.00    -0.248 NA
ATOM     57  C   UNL A   1      45.081  24.995  24.963  1.00  0.00     0.031 C 
ATOM     58  C   UNL A   1      43.317  23.302  30.338  1.00  0.00     0.029 A 
ATOM     59  C   UNL A   1      43.465  24.147  29.249  1.00  0.00     0.049 A 
ATOM     60  H   UNL A   1      44.703  25.838  29.133  1.00  0.00     0.167 HD
ATOM     61  C   UNL A   1      43.917  24.381  26.888  1.00  0.00     0.074 A 
ATOM     62  C   UNL A   1      44.040  24.294  25.438  1.00  0.00     0.031 C 
ATOM     63  C   UNL A   1      42.968  24.141  27.835  1.00  0.00     0.031 A 
BRANCH  50  64
ATOM     64  C   UNL A   1      46.787  25.808  32.479  1.00  0.00    -0.014 A 
ATOM     65  C   UNL A   1      46.734  25.203  33.739  1.00  0.00     0.009 A 
ATOM     66  C   UNL A   1      48.053  26.044  31.911  1.00  0.00     0.009 A 
ATOM     67  C   UNL A   1      47.901  24.776  34.375  1.00  0.00     0.001 A 
ATOM     68  C   UNL A   1      49.217  25.573  32.522  1.00  0.00     0.001 A 
ATOM     69  C   UNL A   1      49.138  24.931  33.754  1.00  0.00     0.000 A 
ENDBRANCH  50  64
BRANCH  51  70
ATOM     70  C   UNL A   1      47.937  25.738  26.838  1.00  0.00    -0.014 A 
ATOM     71  C   UNL A   1      48.150  25.493  28.204  1.00  0.00     0.009 A 
ATOM     72  C   UNL A   1      49.102  25.626  26.022  1.00  0.00     0.009 A 
ATOM     73  C   UNL A   1      49.443  25.219  28.718  1.00  0.00     0.001 A 
ATOM     74  C   UNL A   1      50.391  25.398  26.533  1.00  0.00     0.001 A 
ATOM     75  C   UNL A   1      50.565  25.203  27.891  1.00  0.00     0.000 A 
ENDBRANCH  51  70
BRANCH  63  76
ATOM     76  C   UNL A   1      41.507  23.977  27.455  1.00  0.00    -0.014 A 
ATOM     77  C   UNL A   1      40.919  22.787  26.974  1.00  0.00     0.009 A 
ATOM     78  C   UNL A   1      40.670  25.103  27.438  1.00  0.00     0.009 A 
ATOM     79  C   UNL A   1      39.574  22.697  26.592  1.00  0.00     0.001 A 
ATOM     80  C   UNL A   1      39.324  25.029  27.042  1.00  0.00     0.001 A 
ATOM     81  C   UNL A   1      38.770  23.821  26.638  1.00  0.00     0.000 A 
ENDBRANCH  63  76
ENDBRANCH  37  38
ENDBRANCH  29  32
ENDBRANCH  27  28
ENDBRANCH  26  27
ENDBRANCH  25  26
ENDBRANCH   1  25
TORSDOF 16
ENDMDL
