MODEL 1
REMARK VINA RESULT:     -12.5      0.000      0.000
REMARK SMILES Cc1cc(C)c(NS(=O)(=O)c2cccc3cc(C)cnc23)c(C(=O)NCCCCCCNC(=O)c2ccc(-c3c4nc(c(-c5ccccc5)c5ccc([nH]5)c(-c5ccccc5)c5nc(c(-c6ccccc6)c6ccc3[nH]6)C=C5)C=C4)cc2)c1
REMARK SMILES IDX 28 1 27 2 26 3 25 4 23 5 24 6 22 8 1 9 2 10 3 11 83 12 4 13
REMARK SMILES IDX 5 14 6 15 7 16 8 18 9 19 10 20 11 21 12 22 21 23 13 24 15 25
REMARK SMILES IDX 20 26 14 27 16 28 19 29 17 30 18 31 29 32 30 33 31 34 32 35
REMARK SMILES IDX 33 36 34 38 35 39 36 40 82 41 37 42 81 43 38 44 39 45 40 46
REMARK SMILES IDX 75 47 41 48 80 49 74 50 76 51 42 52 79 53 73 54 72 55 43 57
REMARK SMILES IDX 65 58 50 59 64 60 51 61 54 62 63 63 77 64 52 65 53 66 62 68
REMARK SMILES IDX 78 69 55 70 44 71 45 72 49 73 46 74 48 75 47 76 66 77 67 78
REMARK SMILES IDX 71 79 68 80 70 81 69 82 56 83 57 84 61 85 58 86 60 87 59 88
REMARK H PARENT 25 7 7 17 32 37 76 56 54 67
REMARK Flexibility Score: inf
ROOT
ATOM      1  C   UNL A   1      32.868  29.880  26.125  1.00  0.00     0.002 C 
ENDROOT
BRANCH   1   2
ATOM      2  C   UNL A   1      32.825  28.546  26.877  1.00  0.00     0.021 C 
BRANCH   2   3
ATOM      3  C   UNL A   1      31.407  28.191  27.334  1.00  0.00     0.116 C 
BRANCH   3   4
ATOM      4  N   UNL A   1      31.137  26.805  26.984  1.00  0.00    -0.352 N 
ATOM      5  C   UNL A   1      30.737  26.199  25.814  1.00  0.00     0.253 C 
ATOM      6  O   UNL A   1      30.421  25.011  25.860  1.00  0.00    -0.269 OA
ATOM      7  H   UNL A   1      31.265  26.177  27.731  1.00  0.00     0.163 HD
BRANCH   5   8
ATOM      8  C   UNL A   1      30.813  26.899  24.498  1.00  0.00     0.064 A 
ATOM      9  C   UNL A   1      28.673  29.403  22.648  1.00  0.00     0.044 C 
ATOM     10  C   UNL A   1      29.864  28.589  23.056  1.00  0.00    -0.050 A 
ATOM     11  C   UNL A   1      31.155  28.868  22.595  1.00  0.00     0.009 A 
ATOM     12  C   UNL A   1      29.704  27.586  24.005  1.00  0.00     0.019 A 
ATOM     13  C   UNL A   1      32.265  28.079  22.974  1.00  0.00    -0.026 A 
ATOM     14  C   UNL A   1      33.623  28.499  22.489  1.00  0.00     0.046 C 
ATOM     15  C   UNL A   1      32.055  26.975  23.818  1.00  0.00     0.065 A 
BRANCH  15  16
ATOM     16  N   UNL A   1      33.037  25.969  24.122  1.00  0.00    -0.278 N 
ATOM     17  H   UNL A   1      33.587  26.136  24.921  1.00  0.00     0.180 HD
BRANCH  16  18
ATOM     18  S   UNL A   1      33.367  24.547  23.293  1.00  0.00     0.264 S 
ATOM     19  O   UNL A   1      32.063  23.915  23.148  1.00  0.00    -0.201 OA
ATOM     20  O   UNL A   1      34.092  24.926  22.096  1.00  0.00    -0.201 OA
BRANCH  18  21
ATOM     21  C   UNL A   1      34.375  23.345  24.122  1.00  0.00     0.114 A 
ATOM     22  C   UNL A   1      35.763  23.629  24.086  1.00  0.00     0.024 A 
ATOM     23  C   UNL A   1      33.899  22.118  24.570  1.00  0.00     0.091 A 
ATOM     24  C   UNL A   1      36.696  22.646  24.365  1.00  0.00     0.002 A 
ATOM     25  C   UNL A   1      34.871  21.097  24.719  1.00  0.00     0.002 A 
ATOM     26  N   UNL A   1      32.595  21.852  24.803  1.00  0.00    -0.255 NA
ATOM     27  C   UNL A   1      36.247  21.364  24.632  1.00  0.00     0.010 A 
ATOM     28  C   UNL A   1      34.440  19.777  24.883  1.00  0.00     0.015 A 
ATOM     29  C   UNL A   1      32.219  20.567  25.009  1.00  0.00     0.115 A 
ATOM     30  C   UNL A   1      33.083  19.488  24.961  1.00  0.00    -0.032 A 
ATOM     31  C   UNL A   1      32.598  18.076  24.931  1.00  0.00     0.046 C 
ENDBRANCH  18  21
ENDBRANCH  16  18
ENDBRANCH  15  16
ENDBRANCH   5   8
ENDBRANCH   3   4
ENDBRANCH   2   3
ENDBRANCH   1   2
BRANCH   1  32
ATOM     32  C   UNL A   1      31.495  30.540  25.948  1.00  0.00     0.002 C 
BRANCH  32  33
ATOM     33  C   UNL A   1      31.375  31.937  26.559  1.00  0.00     0.021 C 
BRANCH  33  34
ATOM     34  C   UNL A   1      32.671  32.455  27.173  1.00  0.00     0.116 C 
BRANCH  34  35
ATOM     35  N   UNL A   1      32.508  33.807  27.687  1.00  0.00    -0.352 N 
ATOM     36  C   UNL A   1      33.217  34.447  28.667  1.00  0.00     0.251 C 
ATOM     37  H   UNL A   1      31.789  34.335  27.271  1.00  0.00     0.163 HD
ATOM     38  O   UNL A   1      32.787  35.485  29.171  1.00  0.00    -0.269 OA
BRANCH  36  39
ATOM     39  C   UNL A   1      34.502  33.885  29.121  1.00  0.00     0.039 A 
ATOM     40  C   UNL A   1      34.530  33.090  30.269  1.00  0.00     0.014 A 
ATOM     41  C   UNL A   1      35.678  34.154  28.415  1.00  0.00     0.014 A 
ATOM     42  C   UNL A   1      35.736  32.524  30.681  1.00  0.00     0.010 A 
ATOM     43  C   UNL A   1      36.862  33.524  28.780  1.00  0.00     0.010 A 
ATOM     44  C   UNL A   1      36.905  32.712  29.924  1.00  0.00    -0.014 A 
BRANCH  44  45
ATOM     45  C   UNL A   1      38.184  32.073  30.315  1.00  0.00     0.031 A 
ATOM     46  C   UNL A   1      39.108  32.761  31.279  1.00  0.00     0.074 A 
ATOM     47  C   UNL A   1      38.539  30.902  29.753  1.00  0.00     0.049 A 
ATOM     48  N   UNL A   1      40.286  32.382  31.708  1.00  0.00    -0.248 NA
ATOM     49  C   UNL A   1      38.664  34.058  31.814  1.00  0.00     0.031 C 
ATOM     50  C   UNL A   1      37.744  30.154  28.776  1.00  0.00     0.029 A 
ATOM     51  N   UNL A   1      39.663  30.134  29.925  1.00  0.00    -0.354 N 
ATOM     52  C   UNL A   1      40.727  33.397  32.546  1.00  0.00     0.074 A 
ATOM     53  C   UNL A   1      39.719  34.434  32.521  1.00  0.00     0.031 C 
ATOM     54  C   UNL A   1      38.390  29.020  28.462  1.00  0.00     0.029 A 
ATOM     55  C   UNL A   1      39.661  28.982  29.178  1.00  0.00     0.049 A 
ATOM     56  H   UNL A   1      40.401  30.386  30.526  1.00  0.00     0.167 HD
ATOM     57  C   UNL A   1      41.860  33.454  33.287  1.00  0.00     0.031 A 
ATOM     58  C   UNL A   1      40.582  28.006  29.078  1.00  0.00     0.031 A 
ATOM     59  C   UNL A   1      42.860  32.420  33.309  1.00  0.00     0.049 A 
ATOM     60  C   UNL A   1      41.845  28.104  29.888  1.00  0.00     0.074 A 
ATOM     61  C   UNL A   1      44.017  32.356  34.065  1.00  0.00     0.029 A 
ATOM     62  N   UNL A   1      42.825  31.272  32.532  1.00  0.00    -0.354 N 
ATOM     63  N   UNL A   1      42.215  29.037  30.731  1.00  0.00    -0.248 NA
ATOM     64  C   UNL A   1      42.810  27.007  29.738  1.00  0.00     0.031 C 
ATOM     65  C   UNL A   1      44.713  31.199  33.699  1.00  0.00     0.029 A 
ATOM     66  C   UNL A   1      43.957  30.509  32.766  1.00  0.00     0.049 A 
ATOM     67  H   UNL A   1      42.103  31.036  31.906  1.00  0.00     0.167 HD
ATOM     68  C   UNL A   1      43.443  28.627  31.234  1.00  0.00     0.074 A 
ATOM     69  C   UNL A   1      43.744  27.352  30.614  1.00  0.00     0.031 C 
ATOM     70  C   UNL A   1      44.246  29.248  32.133  1.00  0.00     0.031 A 
BRANCH  57  71
ATOM     71  C   UNL A   1      42.079  34.688  34.119  1.00  0.00    -0.014 A 
ATOM     72  C   UNL A   1      42.738  35.815  33.598  1.00  0.00     0.009 A 
ATOM     73  C   UNL A   1      41.603  34.735  35.438  1.00  0.00     0.009 A 
ATOM     74  C   UNL A   1      42.958  36.941  34.396  1.00  0.00     0.001 A 
ATOM     75  C   UNL A   1      41.794  35.874  36.223  1.00  0.00     0.001 A 
ATOM     76  C   UNL A   1      42.481  36.970  35.706  1.00  0.00     0.000 A 
ENDBRANCH  57  71
BRANCH  58  77
ATOM     77  C   UNL A   1      40.334  26.840  28.188  1.00  0.00    -0.014 A 
ATOM     78  C   UNL A   1      40.814  26.839  26.869  1.00  0.00     0.009 A 
ATOM     79  C   UNL A   1      39.624  25.723  28.652  1.00  0.00     0.009 A 
ATOM     80  C   UNL A   1      40.566  25.752  26.027  1.00  0.00     0.001 A 
ATOM     81  C   UNL A   1      39.404  24.625  27.818  1.00  0.00     0.001 A 
ATOM     82  C   UNL A   1      39.866  24.645  26.503  1.00  0.00     0.000 A 
ENDBRANCH  58  77
BRANCH  70  83
ATOM     83  C   UNL A   1      45.515  28.540  32.522  1.00  0.00    -0.014 A 
ATOM     84  C   UNL A   1      45.547  27.626  33.586  1.00  0.00     0.009 A 
ATOM     85  C   UNL A   1      46.688  28.766  31.784  1.00  0.00     0.009 A 
ATOM     86  C   UNL A   1      46.739  26.979  33.924  1.00  0.00     0.001 A 
ATOM     87  C   UNL A   1      47.868  28.094  32.104  1.00  0.00     0.001 A 
ATOM     88  C   UNL A   1      47.895  27.210  33.180  1.00  0.00     0.000 A 
ENDBRANCH  70  83
ENDBRANCH  44  45
ENDBRANCH  36  39
ENDBRANCH  34  35
ENDBRANCH  33  34
ENDBRANCH  32  33
ENDBRANCH   1  32
TORSDOF 16
ENDMDL
MODEL 2
REMARK VINA RESULT:     -12.5      0.978      5.671
REMARK SMILES Cc1cc(C)c(NS(=O)(=O)c2cccc3cc(C)cnc23)c(C(=O)NCCCCCCNC(=O)c2ccc(-c3c4nc(c(-c5ccccc5)c5ccc([nH]5)c(-c5ccccc5)c5nc(c(-c6ccccc6)c6ccc3[nH]6)C=C5)C=C4)cc2)c1
REMARK SMILES IDX 28 1 27 2 26 3 25 4 23 5 24 6 22 8 1 9 2 10 3 11 83 12 4 13
REMARK SMILES IDX 5 14 6 15 7 16 8 18 9 19 10 20 11 21 12 22 21 23 13 24 15 25
REMARK SMILES IDX 20 26 14 27 16 28 19 29 17 30 18 31 29 32 30 33 31 34 32 35
REMARK SMILES IDX 33 36 34 38 35 39 36 40 82 41 37 42 81 43 38 44 39 45 40 46
REMARK SMILES IDX 75 47 41 48 80 49 74 50 76 51 42 52 79 53 73 54 72 55 43 57
REMARK SMILES IDX 65 58 50 59 64 60 51 61 54 62 63 63 77 64 52 65 53 66 62 68
REMARK SMILES IDX 78 69 55 70 44 71 45 72 49 73 46 74 48 75 47 76 66 77 67 78
REMARK SMILES IDX 71 79 68 80 70 81 69 82 56 83 57 84 61 85 58 86 60 87 59 88
REMARK H PARENT 25 7 7 17 32 37 76 56 54 67
REMARK Flexibility Score: inf
ROOT
ATOM      1  C   UNL A   1      33.036  29.772  26.168  1.00  0.00     0.002 C 
ENDROOT
BRANCH   1   2
ATOM      2  C   UNL A   1      32.911  28.399  26.837  1.00  0.00     0.021 C 
BRANCH   2   3
ATOM      3  C   UNL A   1      31.477  28.107  27.286  1.00  0.00     0.116 C 
BRANCH   3   4
ATOM      4  N   UNL A   1      31.141  26.740  26.923  1.00  0.00    -0.352 N 
ATOM      5  C   UNL A   1      30.738  26.161  25.740  1.00  0.00     0.253 C 
ATOM      6  O   UNL A   1      30.358  24.991  25.772  1.00  0.00    -0.269 OA
ATOM      7  H   UNL A   1      31.218  26.102  27.669  1.00  0.00     0.163 HD
BRANCH   5   8
ATOM      8  C   UNL A   1      30.883  26.860  24.429  1.00  0.00     0.064 A 
ATOM      9  C   UNL A   1      28.900  29.447  22.519  1.00  0.00     0.044 C 
ATOM     10  C   UNL A   1      30.046  28.588  22.963  1.00  0.00    -0.050 A 
ATOM     11  C   UNL A   1      31.360  28.821  22.547  1.00  0.00     0.009 A 
ATOM     12  C   UNL A   1      29.817  27.589  23.903  1.00  0.00     0.019 A 
ATOM     13  C   UNL A   1      32.428  27.990  22.960  1.00  0.00    -0.026 A 
ATOM     14  C   UNL A   1      33.816  28.361  22.521  1.00  0.00     0.046 C 
ATOM     15  C   UNL A   1      32.149  26.893  23.791  1.00  0.00     0.065 A 
BRANCH  15  16
ATOM     16  N   UNL A   1      33.083  25.850  24.124  1.00  0.00    -0.278 N 
ATOM     17  H   UNL A   1      33.790  26.098  24.763  1.00  0.00     0.180 HD
BRANCH  16  18
ATOM     18  S   UNL A   1      33.124  24.268  23.567  1.00  0.00     0.264 S 
ATOM     19  O   UNL A   1      31.897  24.136  22.794  1.00  0.00    -0.201 OA
ATOM     20  O   UNL A   1      34.394  24.103  22.886  1.00  0.00    -0.201 OA
BRANCH  18  21
ATOM     21  C   UNL A   1      33.046  22.980  24.785  1.00  0.00     0.114 A 
ATOM     22  C   UNL A   1      33.469  23.378  26.077  1.00  0.00     0.024 A 
ATOM     23  C   UNL A   1      32.815  21.644  24.478  1.00  0.00     0.091 A 
ATOM     24  C   UNL A   1      33.801  22.437  27.037  1.00  0.00     0.002 A 
ATOM     25  C   UNL A   1      33.287  20.703  25.428  1.00  0.00     0.002 A 
ATOM     26  N   UNL A   1      32.237  21.220  23.334  1.00  0.00    -0.255 NA
ATOM     27  C   UNL A   1      33.758  21.097  26.692  1.00  0.00     0.010 A 
ATOM     28  C   UNL A   1      33.353  19.355  25.064  1.00  0.00     0.015 A 
ATOM     29  C   UNL A   1      32.273  19.898  23.037  1.00  0.00     0.115 A 
ATOM     30  C   UNL A   1      32.902  18.945  23.816  1.00  0.00    -0.032 A 
ATOM     31  C   UNL A   1      33.150  17.553  23.332  1.00  0.00     0.046 C 
ENDBRANCH  18  21
ENDBRANCH  16  18
ENDBRANCH  15  16
ENDBRANCH   5   8
ENDBRANCH   3   4
ENDBRANCH   2   3
ENDBRANCH   1   2
BRANCH   1  32
ATOM     32  C   UNL A   1      31.689  30.427  25.836  1.00  0.00     0.002 C 
BRANCH  32  33
ATOM     33  C   UNL A   1      31.443  31.766  26.533  1.00  0.00     0.021 C 
BRANCH  33  34
ATOM     34  C   UNL A   1      32.653  32.298  27.292  1.00  0.00     0.116 C 
BRANCH  34  35
ATOM     35  N   UNL A   1      32.499  33.711  27.610  1.00  0.00    -0.352 N 
ATOM     36  C   UNL A   1      33.187  34.470  28.517  1.00  0.00     0.251 C 
ATOM     37  H   UNL A   1      31.803  34.186  27.100  1.00  0.00     0.163 HD
ATOM     38  O   UNL A   1      32.760  35.573  28.858  1.00  0.00    -0.269 OA
BRANCH  36  39
ATOM     39  C   UNL A   1      34.445  33.958  29.089  1.00  0.00     0.039 A 
ATOM     40  C   UNL A   1      34.394  33.092  30.183  1.00  0.00     0.014 A 
ATOM     41  C   UNL A   1      35.675  34.344  28.547  1.00  0.00     0.014 A 
ATOM     42  C   UNL A   1      35.580  32.574  30.705  1.00  0.00     0.010 A 
ATOM     43  C   UNL A   1      36.848  33.764  29.014  1.00  0.00     0.010 A 
ATOM     44  C   UNL A   1      36.813  32.882  30.106  1.00  0.00    -0.014 A 
BRANCH  44  45
ATOM     45  C   UNL A   1      38.078  32.298  30.610  1.00  0.00     0.031 A 
ATOM     46  C   UNL A   1      38.609  31.022  30.020  1.00  0.00     0.074 A 
ATOM     47  C   UNL A   1      38.715  32.886  31.641  1.00  0.00     0.049 A 
ATOM     48  N   UNL A   1      39.674  30.337  30.357  1.00  0.00    -0.248 NA
ATOM     49  C   UNL A   1      37.831  30.422  28.926  1.00  0.00     0.031 C 
ATOM     50  C   UNL A   1      38.279  34.107  32.322  1.00  0.00     0.029 A 
ATOM     51  N   UNL A   1      39.868  32.533  32.296  1.00  0.00    -0.354 N 
ATOM     52  C   UNL A   1      39.681  29.222  29.529  1.00  0.00     0.074 A 
ATOM     53  C   UNL A   1      38.488  29.292  28.715  1.00  0.00     0.031 C 
ATOM     54  C   UNL A   1      39.171  34.419  33.275  1.00  0.00     0.029 A 
ATOM     55  C   UNL A   1      40.214  33.400  33.303  1.00  0.00     0.049 A 
ATOM     56  H   UNL A   1      40.396  31.734  32.066  1.00  0.00     0.167 HD
ATOM     57  C   UNL A   1      40.608  28.239  29.439  1.00  0.00     0.031 A 
ATOM     58  C   UNL A   1      41.255  33.373  34.156  1.00  0.00     0.031 A 
ATOM     59  C   UNL A   1      41.795  28.174  30.251  1.00  0.00     0.049 A 
ATOM     60  C   UNL A   1      42.256  32.256  34.057  1.00  0.00     0.074 A 
ATOM     61  C   UNL A   1      42.823  27.250  30.201  1.00  0.00     0.029 A 
ATOM     62  N   UNL A   1      42.106  29.067  31.265  1.00  0.00    -0.354 N 
ATOM     63  N   UNL A   1      42.288  31.247  33.220  1.00  0.00    -0.248 NA
ATOM     64  C   UNL A   1      43.371  32.284  35.013  1.00  0.00     0.031 C 
ATOM     65  C   UNL A   1      43.726  27.547  31.229  1.00  0.00     0.029 A 
ATOM     66  C   UNL A   1      43.294  28.696  31.872  1.00  0.00     0.049 A 
ATOM     67  H   UNL A   1      41.562  29.848  31.517  1.00  0.00     0.167 HD
ATOM     68  C   UNL A   1      43.439  30.535  33.530  1.00  0.00     0.074 A 
ATOM     69  C   UNL A   1      44.086  31.238  34.620  1.00  0.00     0.031 C 
ATOM     70  C   UNL A   1      43.920  29.402  32.961  1.00  0.00     0.031 A 
BRANCH  57  71
ATOM     71  C   UNL A   1      40.360  27.145  28.436  1.00  0.00    -0.014 A 
ATOM     72  C   UNL A   1      40.893  27.208  27.137  1.00  0.00     0.009 A 
ATOM     73  C   UNL A   1      39.596  26.026  28.799  1.00  0.00     0.009 A 
ATOM     74  C   UNL A   1      40.626  26.196  26.212  1.00  0.00     0.001 A 
ATOM     75  C   UNL A   1      39.359  24.999  27.883  1.00  0.00     0.001 A 
ATOM     76  C   UNL A   1      39.864  25.091  26.587  1.00  0.00     0.000 A 
ENDBRANCH  57  71
BRANCH  58  77
ATOM     77  C   UNL A   1      41.412  34.451  35.169  1.00  0.00    -0.014 A 
ATOM     78  C   UNL A   1      42.141  35.612  34.865  1.00  0.00     0.009 A 
ATOM     79  C   UNL A   1      40.830  34.329  36.440  1.00  0.00     0.009 A 
ATOM     80  C   UNL A   1      42.303  36.616  35.822  1.00  0.00     0.001 A 
ATOM     81  C   UNL A   1      40.968  35.349  37.385  1.00  0.00     0.001 A 
ATOM     82  C   UNL A   1      41.712  36.486  37.078  1.00  0.00     0.000 A 
ENDBRANCH  58  77
BRANCH  70  83
ATOM     83  C   UNL A   1      45.225  28.870  33.487  1.00  0.00    -0.014 A 
ATOM     84  C   UNL A   1      45.267  27.926  34.523  1.00  0.00     0.009 A 
ATOM     85  C   UNL A   1      46.430  29.295  32.904  1.00  0.00     0.009 A 
ATOM     86  C   UNL A   1      46.493  27.445  34.990  1.00  0.00     0.001 A 
ATOM     87  C   UNL A   1      47.651  28.788  33.351  1.00  0.00     0.001 A 
ATOM     88  C   UNL A   1      47.681  27.872  34.400  1.00  0.00     0.000 A 
ENDBRANCH  70  83
ENDBRANCH  44  45
ENDBRANCH  36  39
ENDBRANCH  34  35
ENDBRANCH  33  34
ENDBRANCH  32  33
ENDBRANCH   1  32
TORSDOF 16
ENDMDL
MODEL 3
REMARK VINA RESULT:     -12.4      0.917      1.704
REMARK SMILES Cc1cc(C)c(NS(=O)(=O)c2cccc3cc(C)cnc23)c(C(=O)NCCCCCCNC(=O)c2ccc(-c3c4nc(c(-c5ccccc5)c5ccc([nH]5)c(-c5ccccc5)c5nc(c(-c6ccccc6)c6ccc3[nH]6)C=C5)C=C4)cc2)c1
REMARK SMILES IDX 28 1 27 2 26 3 25 4 23 5 24 6 22 8 1 9 2 10 3 11 83 12 4 13
REMARK SMILES IDX 5 14 6 15 7 16 8 18 9 19 10 20 11 21 12 22 21 23 13 24 15 25
REMARK SMILES IDX 20 26 14 27 16 28 19 29 17 30 18 31 29 32 30 33 31 34 32 35
REMARK SMILES IDX 33 36 34 38 35 39 36 40 82 41 37 42 81 43 38 44 39 45 40 46
REMARK SMILES IDX 75 47 41 48 80 49 74 50 76 51 42 52 79 53 73 54 72 55 43 57
REMARK SMILES IDX 65 58 50 59 64 60 51 61 54 62 63 63 77 64 52 65 53 66 62 68
REMARK SMILES IDX 78 69 55 70 44 71 45 72 49 73 46 74 48 75 47 76 66 77 67 78
REMARK SMILES IDX 71 79 68 80 70 81 69 82 56 83 57 84 61 85 58 86 60 87 59 88
REMARK H PARENT 25 7 7 17 32 37 76 56 54 67
REMARK Flexibility Score: inf
ROOT
ATOM      1  C   UNL A   1      32.913  30.058  26.830  1.00  0.00     0.002 C 
ENDROOT
BRANCH   1   2
ATOM      2  C   UNL A   1      32.873  28.551  27.102  1.00  0.00     0.021 C 
BRANCH   2   3
ATOM      3  C   UNL A   1      31.476  28.079  27.514  1.00  0.00     0.116 C 
BRANCH   3   4
ATOM      4  N   UNL A   1      31.279  26.722  27.031  1.00  0.00    -0.352 N 
ATOM      5  C   UNL A   1      30.942  26.210  25.797  1.00  0.00     0.253 C 
ATOM      6  O   UNL A   1      30.679  25.010  25.724  1.00  0.00    -0.269 OA
ATOM      7  H   UNL A   1      31.414  26.033  27.721  1.00  0.00     0.163 HD
BRANCH   5   8
ATOM      8  C   UNL A   1      31.025  27.031  24.553  1.00  0.00     0.064 A 
ATOM      9  C   UNL A   1      29.495  30.270  23.353  1.00  0.00     0.044 C 
ATOM     10  C   UNL A   1      30.428  29.102  23.461  1.00  0.00    -0.050 A 
ATOM     11  C   UNL A   1      31.655  29.061  22.793  1.00  0.00     0.009 A 
ATOM     12  C   UNL A   1      30.117  28.067  24.336  1.00  0.00     0.019 A 
ATOM     13  C   UNL A   1      32.517  27.943  22.890  1.00  0.00    -0.026 A 
ATOM     14  C   UNL A   1      33.847  28.020  22.197  1.00  0.00     0.046 C 
ATOM     15  C   UNL A   1      32.112  26.841  23.662  1.00  0.00     0.065 A 
BRANCH  15  16
ATOM     16  N   UNL A   1      32.774  25.565  23.692  1.00  0.00    -0.278 N 
ATOM     17  H   UNL A   1      33.442  25.446  24.406  1.00  0.00     0.180 HD
BRANCH  16  18
ATOM     18  S   UNL A   1      32.558  24.252  22.669  1.00  0.00     0.264 S 
ATOM     19  O   UNL A   1      31.114  24.081  22.618  1.00  0.00    -0.201 OA
ATOM     20  O   UNL A   1      33.264  24.564  21.441  1.00  0.00    -0.201 OA
BRANCH  18  21
ATOM     21  C   UNL A   1      33.192  22.688  23.218  1.00  0.00     0.114 A 
ATOM     22  C   UNL A   1      32.195  21.709  23.452  1.00  0.00     0.024 A 
ATOM     23  C   UNL A   1      34.510  22.486  23.609  1.00  0.00     0.091 A 
ATOM     24  C   UNL A   1      32.472  20.579  24.202  1.00  0.00     0.002 A 
ATOM     25  C   UNL A   1      34.734  21.393  24.484  1.00  0.00     0.002 A 
ATOM     26  N   UNL A   1      35.536  23.290  23.253  1.00  0.00    -0.255 NA
ATOM     27  C   UNL A   1      33.732  20.448  24.761  1.00  0.00     0.010 A 
ATOM     28  C   UNL A   1      35.964  21.299  25.143  1.00  0.00     0.015 A 
ATOM     29  C   UNL A   1      36.730  23.138  23.876  1.00  0.00     0.115 A 
ATOM     30  C   UNL A   1      36.965  22.228  24.891  1.00  0.00    -0.032 A 
ATOM     31  C   UNL A   1      38.202  22.267  25.728  1.00  0.00     0.046 C 
ENDBRANCH  18  21
ENDBRANCH  16  18
ENDBRANCH  15  16
ENDBRANCH   5   8
ENDBRANCH   3   4
ENDBRANCH   2   3
ENDBRANCH   1   2
BRANCH   1  32
ATOM     32  C   UNL A   1      31.543  30.670  26.512  1.00  0.00     0.002 C 
BRANCH  32  33
ATOM     33  C   UNL A   1      31.429  32.167  26.808  1.00  0.00     0.021 C 
BRANCH  33  34
ATOM     34  C   UNL A   1      32.753  32.825  27.178  1.00  0.00     0.116 C 
BRANCH  34  35
ATOM     35  N   UNL A   1      32.544  34.142  27.761  1.00  0.00    -0.352 N 
ATOM     36  C   UNL A   1      33.163  34.716  28.838  1.00  0.00     0.251 C 
ATOM     37  H   UNL A   1      31.862  34.698  27.318  1.00  0.00     0.163 HD
ATOM     38  O   UNL A   1      32.688  35.721  29.368  1.00  0.00    -0.269 OA
BRANCH  36  39
ATOM     39  C   UNL A   1      34.403  34.120  29.367  1.00  0.00     0.039 A 
ATOM     40  C   UNL A   1      34.338  33.290  30.487  1.00  0.00     0.014 A 
ATOM     41  C   UNL A   1      35.632  34.394  28.758  1.00  0.00     0.014 A 
ATOM     42  C   UNL A   1      35.503  32.693  30.968  1.00  0.00     0.010 A 
ATOM     43  C   UNL A   1      36.777  33.736  29.187  1.00  0.00     0.010 A 
ATOM     44  C   UNL A   1      36.727  32.888  30.304  1.00  0.00    -0.014 A 
BRANCH  44  45
ATOM     45  C   UNL A   1      37.965  32.219  30.767  1.00  0.00     0.031 A 
ATOM     46  C   UNL A   1      38.765  32.806  31.896  1.00  0.00     0.074 A 
ATOM     47  C   UNL A   1      38.401  31.116  30.129  1.00  0.00     0.049 A 
ATOM     48  N   UNL A   1      39.895  32.389  32.411  1.00  0.00    -0.248 NA
ATOM     49  C   UNL A   1      38.242  34.036  32.510  1.00  0.00     0.031 C 
ATOM     50  C   UNL A   1      37.733  30.471  28.996  1.00  0.00     0.029 A 
ATOM     51  N   UNL A   1      39.513  30.341  30.344  1.00  0.00    -0.354 N 
ATOM     52  C   UNL A   1      40.222  33.313  33.395  1.00  0.00     0.074 A 
ATOM     53  C   UNL A   1      39.205  34.341  33.367  1.00  0.00     0.031 C 
ATOM     54  C   UNL A   1      38.429  29.381  28.639  1.00  0.00     0.029 A 
ATOM     55  C   UNL A   1      39.613  29.275  29.485  1.00  0.00     0.049 A 
ATOM     56  H   UNL A   1      40.175  30.531  31.047  1.00  0.00     0.167 HD
ATOM     57  C   UNL A   1      41.265  33.297  34.260  1.00  0.00     0.031 A 
ATOM     58  C   UNL A   1      40.557  28.319  29.387  1.00  0.00     0.031 A 
ATOM     59  C   UNL A   1      42.274  32.273  34.285  1.00  0.00     0.049 A 
ATOM     60  C   UNL A   1      41.720  28.339  30.338  1.00  0.00     0.074 A 
ATOM     61  C   UNL A   1      43.341  32.135  35.156  1.00  0.00     0.029 A 
ATOM     62  N   UNL A   1      42.346  31.213  33.393  1.00  0.00    -0.354 N 
ATOM     63  N   UNL A   1      41.978  29.179  31.311  1.00  0.00    -0.248 NA
ATOM     64  C   UNL A   1      42.715  27.269  30.184  1.00  0.00     0.031 C 
ATOM     65  C   UNL A   1      44.094  31.028  34.750  1.00  0.00     0.029 A 
ATOM     66  C   UNL A   1      43.458  30.437  33.671  1.00  0.00     0.049 A 
ATOM     67  H   UNL A   1      41.701  31.040  32.669  1.00  0.00     0.167 HD
ATOM     68  C   UNL A   1      43.150  28.725  31.903  1.00  0.00     0.074 A 
ATOM     69  C   UNL A   1      43.540  27.525  31.190  1.00  0.00     0.031 C 
ATOM     70  C   UNL A   1      43.837  29.251  32.946  1.00  0.00     0.031 A 
BRANCH  57  71
ATOM     71  C   UNL A   1      41.369  34.438  35.236  1.00  0.00    -0.014 A 
ATOM     72  C   UNL A   1      40.744  34.384  36.494  1.00  0.00     0.009 A 
ATOM     73  C   UNL A   1      42.119  35.576  34.903  1.00  0.00     0.009 A 
ATOM     74  C   UNL A   1      40.828  35.465  37.375  1.00  0.00     0.001 A 
ATOM     75  C   UNL A   1      42.231  36.641  35.799  1.00  0.00     0.001 A 
ATOM     76  C   UNL A   1      41.575  36.590  37.028  1.00  0.00     0.000 A 
ENDBRANCH  57  71
BRANCH  58  77
ATOM     77  C   UNL A   1      40.429  27.254  28.357  1.00  0.00    -0.014 A 
ATOM     78  C   UNL A   1      41.000  27.422  27.086  1.00  0.00     0.009 A 
ATOM     79  C   UNL A   1      39.744  26.063  28.641  1.00  0.00     0.009 A 
ATOM     80  C   UNL A   1      40.865  26.429  26.113  1.00  0.00     0.001 A 
ATOM     81  C   UNL A   1      39.637  25.058  27.675  1.00  0.00     0.001 A 
ATOM     82  C   UNL A   1      40.189  25.247  26.410  1.00  0.00     0.000 A 
ENDBRANCH  58  77
BRANCH  70  83
ATOM     83  C   UNL A   1      45.068  28.513  33.399  1.00  0.00    -0.014 A 
ATOM     84  C   UNL A   1      44.991  27.449  34.309  1.00  0.00     0.009 A 
ATOM     85  C   UNL A   1      46.320  28.868  32.872  1.00  0.00     0.009 A 
ATOM     86  C   UNL A   1      46.149  26.778  34.710  1.00  0.00     0.001 A 
ATOM     87  C   UNL A   1      47.471  28.174  33.249  1.00  0.00     0.001 A 
ATOM     88  C   UNL A   1      47.385  27.137  34.176  1.00  0.00     0.000 A 
ENDBRANCH  70  83
ENDBRANCH  44  45
ENDBRANCH  36  39
ENDBRANCH  34  35
ENDBRANCH  33  34
ENDBRANCH  32  33
ENDBRANCH   1  32
TORSDOF 16
ENDMDL
