MODEL 1
REMARK VINA RESULT:     -11.9      0.000      0.000
REMARK SMILES O=C(NCCCCCCNC(=O)c1ccc(-c2c3nc(c(-c4ccccc4)c4ccc([nH]4)c(-c4ccccc4)c4nc(c(-c5ccccc5)c5ccc2[nH]5)C=C4)C=C3)cc1)C1=Cc2cc(Cl)cc(-c3ccc(O)cc3)c2O[C@@H]1C(F)(F)F
REMARK SMILES IDX 6 1 5 2 4 3 3 4 1 5 2 6 61 8 62 9 78 10 63 11 77 12 64 13
REMARK SMILES IDX 76 14 65 15 68 16 66 17 67 18 79 19 80 20 81 21 82 22 69 23
REMARK SMILES IDX 70 24 75 25 71 26 74 27 72 28 73 29 7 31 8 32 9 33 10 34
REMARK SMILES IDX 11 35 12 37 13 38 14 39 60 40 15 41 59 42 16 43 17 44 18 45
REMARK SMILES IDX 53 46 19 47 58 48 52 49 54 50 20 51 57 52 51 53 50 54 21 56
REMARK SMILES IDX 43 57 28 58 42 59 29 60 32 61 41 62 55 63 30 64 31 65 40 67
REMARK SMILES IDX 56 68 33 69 22 70 23 71 27 72 24 73 26 74 25 75 44 76 45 77
REMARK SMILES IDX 49 78 46 79 48 80 47 81 34 82 35 83 39 84 36 85 38 86 37 87
REMARK H PARENT 3 7 73 30 10 36 54 55 32 66
REMARK Flexibility Score: inf
ROOT
ATOM      1  C   UNL A   1      31.318  28.131  25.501  1.00  0.00     0.002 C 
ENDROOT
BRANCH   1   2
ATOM      2  C   UNL A   1      30.316  27.442  24.573  1.00  0.00     0.021 C 
BRANCH   2   3
ATOM      3  C   UNL A   1      30.262  25.917  24.607  1.00  0.00     0.116 C 
BRANCH   3   4
ATOM      4  N   UNL A   1      30.939  25.277  25.718  1.00  0.00    -0.352 N 
ATOM      5  O   UNL A   1      32.652  24.433  26.893  1.00  0.00    -0.270 OA
ATOM      6  C   UNL A   1      32.218  24.795  25.800  1.00  0.00     0.251 C 
ATOM      7  H   UNL A   1      30.398  25.172  26.534  1.00  0.00     0.163 HD
BRANCH   6   8
ATOM      8  C   UNL A   1      33.154  24.760  24.632  1.00  0.00     0.067 C 
ATOM      9  C   UNL A   1      34.471  25.008  24.733  1.00  0.00     0.025 C 
ATOM     10  C   UNL A   1      32.712  23.776  23.570  1.00  0.00     0.314 C 
ATOM     11  C   UNL A   1      35.265  23.746  24.652  1.00  0.00     0.019 A 
ATOM     12  O   UNL A   1      33.364  22.491  23.775  1.00  0.00    -0.475 OA
ATOM     13  C   UNL A   1      36.546  23.758  25.212  1.00  0.00     0.032 A 
ATOM     14  C   UNL A   1      34.626  22.528  24.331  1.00  0.00     0.135 A 
ATOM     15  C   UNL A   1      37.149  22.552  25.546  1.00  0.00     0.042 A 
ATOM     16  C   UNL A   1      35.213  21.309  24.715  1.00  0.00     0.026 A 
ATOM     17  Cl  UNL A   1      38.639  22.557  26.409  1.00  0.00    -0.084 Cl
ATOM     18  C   UNL A   1      36.490  21.346  25.315  1.00  0.00     0.033 A 
BRANCH  10  19
ATOM     19  C   UNL A   1      32.914  24.323  22.145  1.00  0.00     0.429 C 
ATOM     20  F   UNL A   1      31.803  24.945  21.685  1.00  0.00    -0.167 F 
ATOM     21  F   UNL A   1      33.920  25.231  22.101  1.00  0.00    -0.167 F 
ATOM     22  F   UNL A   1      33.225  23.352  21.251  1.00  0.00    -0.167 F 
ENDBRANCH  10  19
BRANCH  16  23
ATOM     23  C   UNL A   1      34.466  20.039  24.759  1.00  0.00    -0.014 A 
ATOM     24  C   UNL A   1      35.168  18.841  24.544  1.00  0.00     0.012 A 
ATOM     25  C   UNL A   1      33.084  19.959  24.948  1.00  0.00     0.012 A 
ATOM     26  C   UNL A   1      34.528  17.608  24.463  1.00  0.00     0.047 A 
ATOM     27  C   UNL A   1      32.430  18.719  24.879  1.00  0.00     0.047 A 
ATOM     28  C   UNL A   1      33.156  17.557  24.624  1.00  0.00     0.115 A 
BRANCH  28  29
ATOM     29  O   UNL A   1      32.560  16.337  24.520  1.00  0.00    -0.508 OA
ATOM     30  H   UNL A   1      32.295  16.015  23.681  1.00  0.00     0.293 HD
ENDBRANCH  28  29
ENDBRANCH  16  23
ENDBRANCH   6   8
ENDBRANCH   3   4
ENDBRANCH   2   3
ENDBRANCH   1   2
BRANCH   1  31
ATOM     31  C   UNL A   1      32.624  28.624  24.872  1.00  0.00     0.002 C 
BRANCH  31  32
ATOM     32  C   UNL A   1      33.907  28.391  25.677  1.00  0.00     0.021 C 
BRANCH  32  33
ATOM     33  C   UNL A   1      33.775  28.501  27.188  1.00  0.00     0.116 C 
BRANCH  33  34
ATOM     34  N   UNL A   1      33.715  29.884  27.632  1.00  0.00    -0.352 N 
ATOM     35  C   UNL A   1      34.634  30.644  28.311  1.00  0.00     0.251 C 
ATOM     36  H   UNL A   1      32.878  30.351  27.409  1.00  0.00     0.163 HD
ATOM     37  O   UNL A   1      34.298  31.740  28.751  1.00  0.00    -0.269 OA
BRANCH  35  38
ATOM     38  C   UNL A   1      36.019  30.163  28.531  1.00  0.00     0.039 A 
ATOM     39  C   UNL A   1      36.938  30.262  27.480  1.00  0.00     0.014 A 
ATOM     40  C   UNL A   1      36.408  29.569  29.734  1.00  0.00     0.014 A 
ATOM     41  C   UNL A   1      38.247  29.806  27.650  1.00  0.00     0.010 A 
ATOM     42  C   UNL A   1      37.735  29.200  29.934  1.00  0.00     0.010 A 
ATOM     43  C   UNL A   1      38.664  29.295  28.889  1.00  0.00    -0.014 A 
BRANCH  43  44
ATOM     44  C   UNL A   1      40.057  28.828  29.102  1.00  0.00     0.031 A 
ATOM     45  C   UNL A   1      41.077  29.749  29.715  1.00  0.00     0.074 A 
ATOM     46  C   UNL A   1      40.418  27.595  28.696  1.00  0.00     0.049 A 
ATOM     47  N   UNL A   1      42.351  29.541  29.940  1.00  0.00    -0.248 NA
ATOM     48  C   UNL A   1      40.614  31.092  30.100  1.00  0.00     0.031 C 
ATOM     49  C   UNL A   1      39.532  26.620  28.056  1.00  0.00     0.029 A 
ATOM     50  N   UNL A   1      41.628  26.952  28.761  1.00  0.00    -0.354 N 
ATOM     51  C   UNL A   1      42.841  30.730  30.466  1.00  0.00     0.074 A 
ATOM     52  C   UNL A   1      41.744  31.672  30.477  1.00  0.00     0.031 C 
ATOM     53  C   UNL A   1      40.218  25.491  27.823  1.00  0.00     0.029 A 
ATOM     54  C   UNL A   1      41.600  25.676  28.252  1.00  0.00     0.049 A 
ATOM     55  H   UNL A   1      42.439  27.366  29.136  1.00  0.00     0.167 HD
ATOM     56  C   UNL A   1      44.087  31.009  30.919  1.00  0.00     0.031 A 
ATOM     57  C   UNL A   1      42.580  24.759  28.142  1.00  0.00     0.031 A 
ATOM     58  C   UNL A   1      45.173  30.067  30.918  1.00  0.00     0.049 A 
ATOM     59  C   UNL A   1      43.958  25.098  28.636  1.00  0.00     0.074 A 
ATOM     60  C   UNL A   1      46.456  30.227  31.413  1.00  0.00     0.029 A 
ATOM     61  N   UNL A   1      45.104  28.786  30.391  1.00  0.00    -0.354 N 
ATOM     62  N   UNL A   1      44.387  26.201  29.199  1.00  0.00    -0.248 NA
ATOM     63  C   UNL A   1      44.984  24.057  28.489  1.00  0.00     0.031 C 
ATOM     64  C   UNL A   1      47.180  29.066  31.129  1.00  0.00     0.029 A 
ATOM     65  C   UNL A   1      46.331  28.157  30.519  1.00  0.00     0.049 A 
ATOM     66  H   UNL A   1      44.302  28.384  29.986  1.00  0.00     0.167 HD
ATOM     67  C   UNL A   1      45.724  25.978  29.500  1.00  0.00     0.074 A 
ATOM     68  C   UNL A   1      46.029  24.628  29.071  1.00  0.00     0.031 C 
ATOM     69  C   UNL A   1      46.619  26.815  30.082  1.00  0.00     0.031 A 
BRANCH  56  70
ATOM     70  C   UNL A   1      44.340  32.400  31.438  1.00  0.00    -0.014 A 
ATOM     71  C   UNL A   1      44.819  33.420  30.600  1.00  0.00     0.009 A 
ATOM     72  C   UNL A   1      44.076  32.700  32.784  1.00  0.00     0.009 A 
ATOM     73  C   UNL A   1      45.073  34.695  31.109  1.00  0.00     0.001 A 
ATOM     74  C   UNL A   1      44.299  33.985  33.282  1.00  0.00     0.001 A 
ATOM     75  C   UNL A   1      44.810  34.978  32.448  1.00  0.00     0.000 A 
ENDBRANCH  56  70
BRANCH  57  76
ATOM     76  C   UNL A   1      42.284  23.424  27.559  1.00  0.00    -0.014 A 
ATOM     77  C   UNL A   1      42.450  23.196  26.184  1.00  0.00     0.009 A 
ATOM     78  C   UNL A   1      41.842  22.368  28.372  1.00  0.00     0.009 A 
ATOM     79  C   UNL A   1      42.156  21.948  25.632  1.00  0.00     0.001 A 
ATOM     80  C   UNL A   1      41.578  21.112  27.821  1.00  0.00     0.001 A 
ATOM     81  C   UNL A   1      41.726  20.906  26.451  1.00  0.00     0.000 A 
ENDBRANCH  57  76
BRANCH  69  82
ATOM     82  C   UNL A   1      48.004  26.281  30.320  1.00  0.00    -0.014 A 
ATOM     83  C   UNL A   1      48.989  26.326  29.321  1.00  0.00     0.009 A 
ATOM     84  C   UNL A   1      48.338  25.761  31.581  1.00  0.00     0.009 A 
ATOM     85  C   UNL A   1      50.269  25.829  29.570  1.00  0.00     0.001 A 
ATOM     86  C   UNL A   1      49.629  25.295  31.836  1.00  0.00     0.001 A 
ATOM     87  C   UNL A   1      50.589  25.321  30.829  1.00  0.00     0.000 A 
ENDBRANCH  69  82
ENDBRANCH  43  44
ENDBRANCH  35  38
ENDBRANCH  33  34
ENDBRANCH  32  33
ENDBRANCH  31  32
ENDBRANCH   1  31
TORSDOF 16
ENDMDL
MODEL 2
REMARK VINA RESULT:     -11.7      1.915      2.932
REMARK SMILES O=C(NCCCCCCNC(=O)c1ccc(-c2c3nc(c(-c4ccccc4)c4ccc([nH]4)c(-c4ccccc4)c4nc(c(-c5ccccc5)c5ccc2[nH]5)C=C4)C=C3)cc1)C1=Cc2cc(Cl)cc(-c3ccc(O)cc3)c2O[C@@H]1C(F)(F)F
REMARK SMILES IDX 6 1 5 2 4 3 3 4 1 5 2 6 61 8 62 9 78 10 63 11 77 12 64 13
REMARK SMILES IDX 76 14 65 15 68 16 66 17 67 18 79 19 80 20 81 21 82 22 69 23
REMARK SMILES IDX 70 24 75 25 71 26 74 27 72 28 73 29 7 31 8 32 9 33 10 34
REMARK SMILES IDX 11 35 12 37 13 38 14 39 60 40 15 41 59 42 16 43 17 44 18 45
REMARK SMILES IDX 53 46 19 47 58 48 52 49 54 50 20 51 57 52 51 53 50 54 21 56
REMARK SMILES IDX 43 57 28 58 42 59 29 60 32 61 41 62 55 63 30 64 31 65 40 67
REMARK SMILES IDX 56 68 33 69 22 70 23 71 27 72 24 73 26 74 25 75 44 76 45 77
REMARK SMILES IDX 49 78 46 79 48 80 47 81 34 82 35 83 39 84 36 85 38 86 37 87
REMARK H PARENT 3 7 73 30 10 36 54 55 32 66
REMARK Flexibility Score: inf
ROOT
ATOM      1  C   UNL A   1      31.311  28.927  24.528  1.00  0.00     0.002 C 
ENDROOT
BRANCH   1   2
ATOM      2  C   UNL A   1      31.067  29.019  23.022  1.00  0.00     0.021 C 
BRANCH   2   3
ATOM      3  C   UNL A   1      30.667  27.737  22.296  1.00  0.00     0.116 C 
BRANCH   3   4
ATOM      4  N   UNL A   1      31.755  26.900  21.829  1.00  0.00    -0.352 N 
ATOM      5  O   UNL A   1      32.999  25.047  21.612  1.00  0.00    -0.270 OA
ATOM      6  C   UNL A   1      32.145  25.658  22.254  1.00  0.00     0.251 C 
ATOM      7  H   UNL A   1      32.294  27.281  21.099  1.00  0.00     0.163 HD
BRANCH   6   8
ATOM      8  C   UNL A   1      31.525  24.964  23.427  1.00  0.00     0.067 C 
ATOM      9  C   UNL A   1      30.919  23.767  23.342  1.00  0.00     0.025 C 
ATOM     10  C   UNL A   1      32.222  25.297  24.728  1.00  0.00     0.314 C 
ATOM     11  C   UNL A   1      31.778  22.687  23.908  1.00  0.00     0.019 A 
ATOM     12  O   UNL A   1      33.235  24.295  25.025  1.00  0.00    -0.475 OA
ATOM     13  C   UNL A   1      31.536  21.380  23.471  1.00  0.00     0.032 A 
ATOM     14  C   UNL A   1      32.975  23.015  24.583  1.00  0.00     0.135 A 
ATOM     15  C   UNL A   1      32.532  20.423  23.618  1.00  0.00     0.042 A 
ATOM     16  C   UNL A   1      34.003  22.061  24.684  1.00  0.00     0.026 A 
ATOM     17  Cl  UNL A   1      32.324  18.866  22.915  1.00  0.00    -0.084 Cl
ATOM     18  C   UNL A   1      33.753  20.758  24.202  1.00  0.00     0.033 A 
BRANCH  10  19
ATOM     19  C   UNL A   1      31.230  25.502  25.889  1.00  0.00     0.429 C 
ATOM     20  F   UNL A   1      31.693  26.397  26.792  1.00  0.00    -0.167 F 
ATOM     21  F   UNL A   1      30.038  25.971  25.444  1.00  0.00    -0.167 F 
ATOM     22  F   UNL A   1      30.971  24.354  26.562  1.00  0.00    -0.167 F 
ENDBRANCH  10  19
BRANCH  16  23
ATOM     23  C   UNL A   1      35.393  22.415  25.028  1.00  0.00    -0.014 A 
ATOM     24  C   UNL A   1      36.419  21.524  24.669  1.00  0.00     0.012 A 
ATOM     25  C   UNL A   1      35.746  23.563  25.740  1.00  0.00     0.012 A 
ATOM     26  C   UNL A   1      37.744  21.726  25.044  1.00  0.00     0.047 A 
ATOM     27  C   UNL A   1      37.082  23.782  26.114  1.00  0.00     0.047 A 
ATOM     28  C   UNL A   1      38.065  22.855  25.774  1.00  0.00     0.115 A 
BRANCH  28  29
ATOM     29  O   UNL A   1      39.368  23.012  26.141  1.00  0.00    -0.508 OA
ATOM     30  H   UNL A   1      39.596  23.637  26.800  1.00  0.00     0.293 HD
ENDBRANCH  28  29
ENDBRANCH  16  23
ENDBRANCH   6   8
ENDBRANCH   3   4
ENDBRANCH   2   3
ENDBRANCH   1   2
BRANCH   1  31
ATOM     31  C   UNL A   1      32.623  29.515  25.057  1.00  0.00     0.002 C 
BRANCH  31  32
ATOM     32  C   UNL A   1      33.724  28.518  25.430  1.00  0.00     0.021 C 
BRANCH  32  33
ATOM     33  C   UNL A   1      34.144  28.504  26.892  1.00  0.00     0.116 C 
BRANCH  33  34
ATOM     34  N   UNL A   1      33.977  29.804  27.521  1.00  0.00    -0.352 N 
ATOM     35  C   UNL A   1      34.824  30.520  28.329  1.00  0.00     0.251 C 
ATOM     36  H   UNL A   1      33.115  30.242  27.337  1.00  0.00     0.163 HD
ATOM     37  O   UNL A   1      34.403  31.519  28.905  1.00  0.00    -0.269 OA
BRANCH  35  38
ATOM     38  C   UNL A   1      36.233  30.105  28.526  1.00  0.00     0.039 A 
ATOM     39  C   UNL A   1      36.609  29.577  29.767  1.00  0.00     0.014 A 
ATOM     40  C   UNL A   1      37.197  30.277  27.529  1.00  0.00     0.014 A 
ATOM     41  C   UNL A   1      37.932  29.187  29.990  1.00  0.00     0.010 A 
ATOM     42  C   UNL A   1      38.492  29.803  27.720  1.00  0.00     0.010 A 
ATOM     43  C   UNL A   1      38.880  29.273  28.958  1.00  0.00    -0.014 A 
BRANCH  43  44
ATOM     44  C   UNL A   1      40.285  28.841  29.162  1.00  0.00     0.031 A 
ATOM     45  C   UNL A   1      41.277  29.773  29.803  1.00  0.00     0.074 A 
ATOM     46  C   UNL A   1      40.682  27.630  28.723  1.00  0.00     0.049 A 
ATOM     47  N   UNL A   1      42.556  29.595  30.025  1.00  0.00    -0.248 NA
ATOM     48  C   UNL A   1      40.775  31.091  30.224  1.00  0.00     0.031 C 
ATOM     49  C   UNL A   1      39.825  26.648  28.054  1.00  0.00     0.029 A 
ATOM     50  N   UNL A   1      41.910  27.021  28.773  1.00  0.00    -0.354 N 
ATOM     51  C   UNL A   1      43.011  30.783  30.585  1.00  0.00     0.074 A 
ATOM     52  C   UNL A   1      41.887  31.692  30.620  1.00  0.00     0.031 C 
ATOM     53  C   UNL A   1      40.543  25.546  27.792  1.00  0.00     0.029 A 
ATOM     54  C   UNL A   1      41.919  25.758  28.230  1.00  0.00     0.049 A 
ATOM     55  H   UNL A   1      42.708  27.446  29.162  1.00  0.00     0.167 HD
ATOM     56  C   UNL A   1      44.247  31.084  31.050  1.00  0.00     0.031 A 
ATOM     57  C   UNL A   1      42.924  24.873  28.097  1.00  0.00     0.031 A 
ATOM     58  C   UNL A   1      45.360  30.174  31.025  1.00  0.00     0.049 A 
ATOM     59  C   UNL A   1      44.292  25.237  28.604  1.00  0.00     0.074 A 
ATOM     60  C   UNL A   1      46.637  30.357  31.528  1.00  0.00     0.029 A 
ATOM     61  N   UNL A   1      45.329  28.907  30.463  1.00  0.00    -0.354 N 
ATOM     62  N   UNL A   1      44.688  26.336  29.198  1.00  0.00    -0.248 NA
ATOM     63  C   UNL A   1      45.348  24.231  28.430  1.00  0.00     0.031 C 
ATOM     64  C   UNL A   1      47.394  29.225  31.214  1.00  0.00     0.029 A 
ATOM     65  C   UNL A   1      46.573  28.310  30.576  1.00  0.00     0.049 A 
ATOM     66  H   UNL A   1      44.540  28.494  30.044  1.00  0.00     0.167 HD
ATOM     67  C   UNL A   1      46.031  26.144  29.496  1.00  0.00     0.074 A 
ATOM     68  C   UNL A   1      46.375  24.815  29.031  1.00  0.00     0.031 C 
ATOM     69  C   UNL A   1      46.900  26.989  30.103  1.00  0.00     0.031 A 
BRANCH  56  70
ATOM     70  C   UNL A   1      44.459  32.467  31.607  1.00  0.00    -0.014 A 
ATOM     71  C   UNL A   1      44.873  33.532  30.790  1.00  0.00     0.009 A 
ATOM     72  C   UNL A   1      44.223  32.713  32.969  1.00  0.00     0.009 A 
ATOM     73  C   UNL A   1      45.091  34.800  31.334  1.00  0.00     0.001 A 
ATOM     74  C   UNL A   1      44.408  33.989  33.504  1.00  0.00     0.001 A 
ATOM     75  C   UNL A   1      44.855  35.028  32.689  1.00  0.00     0.000 A 
ENDBRANCH  56  70
BRANCH  57  76
ATOM     76  C   UNL A   1      42.669  23.547  27.477  1.00  0.00    -0.014 A 
ATOM     77  C   UNL A   1      42.212  22.474  28.258  1.00  0.00     0.009 A 
ATOM     78  C   UNL A   1      42.873  23.345  26.102  1.00  0.00     0.009 A 
ATOM     79  C   UNL A   1      41.988  21.222  27.681  1.00  0.00     0.001 A 
ATOM     80  C   UNL A   1      42.619  22.100  25.523  1.00  0.00     0.001 A 
ATOM     81  C   UNL A   1      42.186  21.038  26.314  1.00  0.00     0.000 A 
ENDBRANCH  57  76
BRANCH  69  82
ATOM     82  C   UNL A   1      48.299  26.488  30.330  1.00  0.00    -0.014 A 
ATOM     83  C   UNL A   1      48.651  25.799  31.500  1.00  0.00     0.009 A 
ATOM     84  C   UNL A   1      49.270  26.675  29.333  1.00  0.00     0.009 A 
ATOM     85  C   UNL A   1      49.956  25.338  31.683  1.00  0.00     0.001 A 
ATOM     86  C   UNL A   1      50.565  26.184  29.504  1.00  0.00     0.001 A 
ATOM     87  C   UNL A   1      50.910  25.525  30.682  1.00  0.00     0.000 A 
ENDBRANCH  69  82
ENDBRANCH  43  44
ENDBRANCH  35  38
ENDBRANCH  33  34
ENDBRANCH  32  33
ENDBRANCH  31  32
ENDBRANCH   1  31
TORSDOF 16
ENDMDL
MODEL 3
REMARK VINA RESULT:     -11.6      1.818      5.991
REMARK SMILES O=C(NCCCCCCNC(=O)c1ccc(-c2c3nc(c(-c4ccccc4)c4ccc([nH]4)c(-c4ccccc4)c4nc(c(-c5ccccc5)c5ccc2[nH]5)C=C4)C=C3)cc1)C1=Cc2cc(Cl)cc(-c3ccc(O)cc3)c2O[C@@H]1C(F)(F)F
REMARK SMILES IDX 6 1 5 2 4 3 3 4 1 5 2 6 61 8 62 9 78 10 63 11 77 12 64 13
REMARK SMILES IDX 76 14 65 15 68 16 66 17 67 18 79 19 80 20 81 21 82 22 69 23
REMARK SMILES IDX 70 24 75 25 71 26 74 27 72 28 73 29 7 31 8 32 9 33 10 34
REMARK SMILES IDX 11 35 12 37 13 38 14 39 60 40 15 41 59 42 16 43 17 44 18 45
REMARK SMILES IDX 53 46 19 47 58 48 52 49 54 50 20 51 57 52 51 53 50 54 21 56
REMARK SMILES IDX 43 57 28 58 42 59 29 60 32 61 41 62 55 63 30 64 31 65 40 67
REMARK SMILES IDX 56 68 33 69 22 70 23 71 27 72 24 73 26 74 25 75 44 76 45 77
REMARK SMILES IDX 49 78 46 79 48 80 47 81 34 82 35 83 39 84 36 85 38 86 37 87
REMARK H PARENT 3 7 73 30 10 36 54 55 32 66
REMARK Flexibility Score: inf
ROOT
ATOM      1  C   UNL A   1      32.041  27.415  25.321  1.00  0.00     0.002 C 
ENDROOT
BRANCH   1   2
ATOM      2  C   UNL A   1      31.022  26.963  26.367  1.00  0.00     0.021 C 
BRANCH   2   3
ATOM      3  C   UNL A   1      30.438  25.560  26.219  1.00  0.00     0.116 C 
BRANCH   3   4
ATOM      4  N   UNL A   1      31.087  24.512  26.983  1.00  0.00    -0.352 N 
ATOM      5  O   UNL A   1      32.704  23.074  27.570  1.00  0.00    -0.270 OA
ATOM      6  C   UNL A   1      32.232  23.813  26.707  1.00  0.00     0.251 C 
ATOM      7  H   UNL A   1      30.639  24.267  27.824  1.00  0.00     0.163 HD
BRANCH   6   8
ATOM      8  C   UNL A   1      32.991  23.962  25.425  1.00  0.00     0.067 C 
ATOM      9  C   UNL A   1      34.304  24.248  25.372  1.00  0.00     0.025 C 
ATOM     10  C   UNL A   1      32.424  23.101  24.317  1.00  0.00     0.314 C 
ATOM     11  C   UNL A   1      35.105  23.040  25.019  1.00  0.00     0.019 A 
ATOM     12  O   UNL A   1      33.127  21.828  24.261  1.00  0.00    -0.475 OA
ATOM     13  C   UNL A   1      36.453  23.034  25.392  1.00  0.00     0.032 A 
ATOM     14  C   UNL A   1      34.454  21.846  24.635  1.00  0.00     0.135 A 
ATOM     15  C   UNL A   1      37.125  21.821  25.479  1.00  0.00     0.042 A 
ATOM     16  C   UNL A   1      35.118  20.614  24.773  1.00  0.00     0.026 A 
ATOM     17  Cl  UNL A   1      38.722  21.779  26.119  1.00  0.00    -0.084 Cl
ATOM     18  C   UNL A   1      36.466  20.627  25.188  1.00  0.00     0.033 A 
BRANCH  10  19
ATOM     19  C   UNL A   1      32.406  23.830  22.960  1.00  0.00     0.429 C 
ATOM     20  F   UNL A   1      33.089  23.143  22.014  1.00  0.00    -0.167 F 
ATOM     21  F   UNL A   1      31.141  23.986  22.498  1.00  0.00    -0.167 F 
ATOM     22  F   UNL A   1      32.954  25.068  23.025  1.00  0.00    -0.167 F 
ENDBRANCH  10  19
BRANCH  16  23
ATOM     23  C   UNL A   1      34.413  19.319  24.756  1.00  0.00    -0.014 A 
ATOM     24  C   UNL A   1      33.123  19.252  25.311  1.00  0.00     0.012 A 
ATOM     25  C   UNL A   1      34.974  18.138  24.269  1.00  0.00     0.012 A 
ATOM     26  C   UNL A   1      32.427  18.053  25.432  1.00  0.00     0.047 A 
ATOM     27  C   UNL A   1      34.277  16.923  24.376  1.00  0.00     0.047 A 
ATOM     28  C   UNL A   1      33.016  16.891  24.969  1.00  0.00     0.115 A 
BRANCH  28  29
ATOM     29  O   UNL A   1      32.316  15.732  25.121  1.00  0.00    -0.508 OA
ATOM     30  H   UNL A   1      31.585  15.700  25.706  1.00  0.00     0.293 HD
ENDBRANCH  28  29
ENDBRANCH  16  23
ENDBRANCH   6   8
ENDBRANCH   3   4
ENDBRANCH   2   3
ENDBRANCH   1   2
BRANCH   1  31
ATOM     31  C   UNL A   1      33.484  27.609  25.793  1.00  0.00     0.002 C 
BRANCH  31  32
ATOM     32  C   UNL A   1      33.681  28.349  27.121  1.00  0.00     0.021 C 
BRANCH  32  33
ATOM     33  C   UNL A   1      34.991  29.107  27.273  1.00  0.00     0.116 C 
BRANCH  33  34
ATOM     34  N   UNL A   1      34.993  29.963  28.448  1.00  0.00    -0.352 N 
ATOM     35  C   UNL A   1      35.990  30.238  29.350  1.00  0.00     0.251 C 
ATOM     36  H   UNL A   1      34.139  30.419  28.626  1.00  0.00     0.163 HD
ATOM     37  O   UNL A   1      35.716  30.847  30.381  1.00  0.00    -0.269 OA
BRANCH  35  38
ATOM     38  C   UNL A   1      37.387  29.806  29.108  1.00  0.00     0.039 A 
ATOM     39  C   UNL A   1      37.916  29.938  27.820  1.00  0.00     0.014 A 
ATOM     40  C   UNL A   1      38.162  29.225  30.116  1.00  0.00     0.014 A 
ATOM     41  C   UNL A   1      39.225  29.528  27.555  1.00  0.00     0.010 A 
ATOM     42  C   UNL A   1      39.494  28.903  29.875  1.00  0.00     0.010 A 
ATOM     43  C   UNL A   1      40.035  29.031  28.588  1.00  0.00    -0.014 A 
BRANCH  43  44
ATOM     44  C   UNL A   1      41.437  28.614  28.338  1.00  0.00     0.031 A 
ATOM     45  C   UNL A   1      41.749  27.185  27.983  1.00  0.00     0.074 A 
ATOM     46  C   UNL A   1      42.435  29.507  28.481  1.00  0.00     0.049 A 
ATOM     47  N   UNL A   1      42.912  26.620  27.773  1.00  0.00    -0.248 NA
ATOM     48  C   UNL A   1      40.608  26.261  27.879  1.00  0.00     0.031 C 
ATOM     49  C   UNL A   1      42.268  30.913  28.856  1.00  0.00     0.029 A 
ATOM     50  N   UNL A   1      43.792  29.363  28.330  1.00  0.00    -0.354 N 
ATOM     51  C   UNL A   1      42.642  25.276  27.538  1.00  0.00     0.074 A 
ATOM     52  C   UNL A   1      41.215  25.100  27.685  1.00  0.00     0.031 C 
ATOM     53  C   UNL A   1      43.469  31.510  28.868  1.00  0.00     0.029 A 
ATOM     54  C   UNL A   1      44.495  30.523  28.548  1.00  0.00     0.049 A 
ATOM     55  H   UNL A   1      44.219  28.510  28.088  1.00  0.00     0.167 HD
ATOM     56  C   UNL A   1      43.501  24.282  27.209  1.00  0.00     0.031 A 
ATOM     57  C   UNL A   1      45.818  30.764  28.498  1.00  0.00     0.031 A 
ATOM     58  C   UNL A   1      44.919  24.463  27.052  1.00  0.00     0.049 A 
ATOM     59  C   UNL A   1      46.753  29.640  28.147  1.00  0.00     0.074 A 
ATOM     60  C   UNL A   1      45.869  23.536  26.659  1.00  0.00     0.029 A 
ATOM     61  N   UNL A   1      45.592  25.653  27.285  1.00  0.00    -0.354 N 
ATOM     62  N   UNL A   1      46.475  28.393  27.856  1.00  0.00    -0.248 NA
ATOM     63  C   UNL A   1      48.186  29.964  28.109  1.00  0.00     0.031 C 
ATOM     64  C   UNL A   1      47.124  24.150  26.714  1.00  0.00     0.029 A 
ATOM     65  C   UNL A   1      46.949  25.475  27.076  1.00  0.00     0.049 A 
ATOM     66  H   UNL A   1      45.168  26.497  27.560  1.00  0.00     0.167 HD
ATOM     67  C   UNL A   1      47.693  27.789  27.572  1.00  0.00     0.074 A 
ATOM     68  C   UNL A   1      48.709  28.813  27.709  1.00  0.00     0.031 C 
ATOM     69  C   UNL A   1      47.947  26.504  27.223  1.00  0.00     0.031 A 
BRANCH  56  70
ATOM     70  C   UNL A   1      42.924  22.904  27.016  1.00  0.00    -0.014 A 
ATOM     71  C   UNL A   1      42.690  22.380  25.734  1.00  0.00     0.009 A 
ATOM     72  C   UNL A   1      42.628  22.110  28.135  1.00  0.00     0.009 A 
ATOM     73  C   UNL A   1      42.129  21.111  25.579  1.00  0.00     0.001 A 
ATOM     74  C   UNL A   1      42.098  20.828  27.977  1.00  0.00     0.001 A 
ATOM     75  C   UNL A   1      41.836  20.335  26.699  1.00  0.00     0.000 A 
ENDBRANCH  56  70
BRANCH  57  76
ATOM     76  C   UNL A   1      46.335  32.132  28.764  1.00  0.00    -0.014 A 
ATOM     77  C   UNL A   1      46.436  33.068  27.722  1.00  0.00     0.009 A 
ATOM     78  C   UNL A   1      46.724  32.514  30.058  1.00  0.00     0.009 A 
ATOM     79  C   UNL A   1      46.939  34.348  27.966  1.00  0.00     0.001 A 
ATOM     80  C   UNL A   1      47.197  33.805  30.304  1.00  0.00     0.001 A 
ATOM     81  C   UNL A   1      47.313  34.717  29.257  1.00  0.00     0.000 A 
ENDBRANCH  57  76
BRANCH  69  82
ATOM     82  C   UNL A   1      49.377  26.141  26.934  1.00  0.00    -0.014 A 
ATOM     83  C   UNL A   1      49.901  26.206  25.634  1.00  0.00     0.009 A 
ATOM     84  C   UNL A   1      50.223  25.769  27.991  1.00  0.00     0.009 A 
ATOM     85  C   UNL A   1      51.235  25.870  25.394  1.00  0.00     0.001 A 
ATOM     86  C   UNL A   1      51.565  25.466  27.752  1.00  0.00     0.001 A 
ATOM     87  C   UNL A   1      52.066  25.507  26.454  1.00  0.00     0.000 A 
ENDBRANCH  69  82
ENDBRANCH  43  44
ENDBRANCH  35  38
ENDBRANCH  33  34
ENDBRANCH  32  33
ENDBRANCH  31  32
ENDBRANCH   1  31
TORSDOF 16
ENDMDL
