MODEL 1
REMARK VINA RESULT:     -10.3      0.000      0.000
REMARK SMILES C[C@@H]([NH2+][C@H]1CCOC2(CCOCC2)C1)C(=O)NCCCCCCNC(=O)c1ccc(-c2c3nc(c(-c4ccccc4)c4ccc([nH]4)c(-c4ccccc4)c4nc(c(-c5ccccc5)c5ccc2[nH]5)C=C4)C=C3)cc1
REMARK SMILES IDX 20 1 19 2 18 3 17 4 15 5 16 6 2 8 1 9 3 10 4 13 5 14 14 15
REMARK SMILES IDX 6 16 8 17 7 18 9 19 13 20 10 21 12 22 11 23 21 24 22 25
REMARK SMILES IDX 23 26 24 27 25 28 26 30 27 31 28 32 74 33 29 34 73 35 30 36
REMARK SMILES IDX 31 37 32 38 67 39 33 40 72 41 66 42 68 43 34 44 71 45 65 46
REMARK SMILES IDX 64 47 35 49 57 50 42 51 56 52 43 53 46 54 55 55 69 56 44 57
REMARK SMILES IDX 45 58 54 60 70 61 47 62 36 63 37 64 41 65 38 66 40 67 39 68
REMARK SMILES IDX 58 69 59 70 63 71 60 72 62 73 61 74 48 75 49 76 53 77 50 78
REMARK SMILES IDX 52 79 51 80
REMARK H PARENT 17 7 3 11 3 12 24 29 68 48 46 59
REMARK Flexibility Score: inf
ROOT
ATOM      1  C   UNL A   1      33.491  29.946  27.282  1.00  0.00     0.002 C 
ENDROOT
BRANCH   1   2
ATOM      2  C   UNL A   1      34.253  28.968  26.379  1.00  0.00     0.021 C 
BRANCH   2   3
ATOM      3  C   UNL A   1      33.471  28.544  25.140  1.00  0.00     0.116 C 
BRANCH   3   4
ATOM      4  N   UNL A   1      33.510  27.103  24.983  1.00  0.00    -0.351 N 
ATOM      5  C   UNL A   1      32.826  26.307  24.114  1.00  0.00     0.277 C 
ATOM      6  O   UNL A   1      33.127  25.110  24.071  1.00  0.00    -0.268 OA
ATOM      7  H   UNL A   1      34.120  26.630  25.594  1.00  0.00     0.163 HD
BRANCH   5   8
ATOM      8  C   UNL A   1      31.727  26.871  23.197  1.00  0.00     0.269 C 
ATOM      9  C   UNL A   1      31.832  26.293  21.786  1.00  0.00     0.086 C 
BRANCH   8  10
ATOM     10  N   UNL A   1      30.362  26.715  23.777  1.00  0.00    -0.334 N 
ATOM     11  H   UNL A   1      30.417  26.827  24.790  1.00  0.00     0.347 HD
ATOM     12  H   UNL A   1      30.013  25.789  23.535  1.00  0.00     0.347 HD
BRANCH  10  13
ATOM     13  C   UNL A   1      29.426  27.725  23.233  1.00  0.00     0.188 C 
ATOM     14  C   UNL A   1      27.991  27.466  23.707  1.00  0.00     0.093 C 
ATOM     15  C   UNL A   1      29.801  29.147  23.670  1.00  0.00     0.100 C 
ATOM     16  C   UNL A   1      27.061  28.533  23.139  1.00  0.00     0.167 C 
ATOM     17  C   UNL A   1      28.834  30.189  23.077  1.00  0.00     0.078 C 
ATOM     18  O   UNL A   1      27.488  29.857  23.458  1.00  0.00    -0.374 OA
ATOM     19  C   UNL A   1      28.993  30.297  21.545  1.00  0.00     0.064 C 
ATOM     20  C   UNL A   1      29.146  31.566  23.698  1.00  0.00     0.064 C 
ATOM     21  C   UNL A   1      28.215  31.479  20.987  1.00  0.00     0.163 C 
ATOM     22  C   UNL A   1      28.361  32.676  23.012  1.00  0.00     0.163 C 
ATOM     23  O   UNL A   1      28.632  32.690  21.612  1.00  0.00    -0.381 OA
ENDBRANCH  10  13
ENDBRANCH   8  10
ENDBRANCH   5   8
ENDBRANCH   3   4
ENDBRANCH   2   3
ENDBRANCH   1   2
BRANCH   1  24
ATOM     24  C   UNL A   1      32.001  30.100  26.956  1.00  0.00     0.002 C 
BRANCH  24  25
ATOM     25  C   UNL A   1      31.460  31.529  27.047  1.00  0.00     0.021 C 
BRANCH  25  26
ATOM     26  C   UNL A   1      32.421  32.609  26.560  1.00  0.00     0.116 C 
BRANCH  26  27
ATOM     27  N   UNL A   1      32.293  33.845  27.315  1.00  0.00    -0.352 N 
ATOM     28  C   UNL A   1      33.052  34.306  28.358  1.00  0.00     0.251 C 
ATOM     29  H   UNL A   1      31.555  34.435  27.037  1.00  0.00     0.163 HD
ATOM     30  O   UNL A   1      32.697  35.302  28.988  1.00  0.00    -0.269 OA
BRANCH  28  31
ATOM     31  C   UNL A   1      34.285  33.593  28.746  1.00  0.00     0.039 A 
ATOM     32  C   UNL A   1      35.467  33.872  28.057  1.00  0.00     0.014 A 
ATOM     33  C   UNL A   1      34.278  32.653  29.781  1.00  0.00     0.014 A 
ATOM     34  C   UNL A   1      36.655  33.250  28.443  1.00  0.00     0.010 A 
ATOM     35  C   UNL A   1      35.475  32.086  30.210  1.00  0.00     0.010 A 
ATOM     36  C   UNL A   1      36.674  32.378  29.544  1.00  0.00    -0.014 A 
BRANCH  36  37
ATOM     37  C   UNL A   1      37.948  31.783  30.018  1.00  0.00     0.031 A 
ATOM     38  C   UNL A   1      38.783  32.483  31.052  1.00  0.00     0.074 A 
ATOM     39  C   UNL A   1      38.378  30.628  29.475  1.00  0.00     0.049 A 
ATOM     40  N   UNL A   1      39.920  32.111  31.584  1.00  0.00    -0.248 NA
ATOM     41  C   UNL A   1      38.289  33.782  31.536  1.00  0.00     0.031 C 
ATOM     42  C   UNL A   1      37.684  29.874  28.429  1.00  0.00     0.029 A 
ATOM     43  N   UNL A   1      39.502  29.885  29.731  1.00  0.00    -0.354 N 
ATOM     44  C   UNL A   1      40.282  33.132  32.453  1.00  0.00     0.074 A 
ATOM     45  C   UNL A   1      39.271  34.161  32.340  1.00  0.00     0.031 C 
ATOM     46  C   UNL A   1      38.377  28.755  28.162  1.00  0.00     0.029 A 
ATOM     47  C   UNL A   1      39.579  28.732  28.989  1.00  0.00     0.049 A 
ATOM     48  H   UNL A   1      40.189  30.152  30.384  1.00  0.00     0.167 HD
ATOM     49  C   UNL A   1      41.350  33.200  33.284  1.00  0.00     0.031 A 
ATOM     50  C   UNL A   1      40.510  27.761  28.977  1.00  0.00     0.031 A 
ATOM     51  C   UNL A   1      42.353  32.174  33.399  1.00  0.00     0.049 A 
ATOM     52  C   UNL A   1      41.690  27.863  29.900  1.00  0.00     0.074 A 
ATOM     53  C   UNL A   1      43.435  32.119  34.261  1.00  0.00     0.029 A 
ATOM     54  N   UNL A   1      42.401  31.027  32.622  1.00  0.00    -0.354 N 
ATOM     55  N   UNL A   1      41.976  28.796  30.776  1.00  0.00    -0.248 NA
ATOM     56  C   UNL A   1      42.671  26.770  29.839  1.00  0.00     0.031 C 
ATOM     57  C   UNL A   1      44.169  30.965  33.967  1.00  0.00     0.029 A 
ATOM     58  C   UNL A   1      43.513  30.273  32.960  1.00  0.00     0.049 A 
ATOM     59  H   UNL A   1      41.743  30.785  31.932  1.00  0.00     0.167 HD
ATOM     60  C   UNL A   1      43.156  28.393  31.385  1.00  0.00     0.074 A 
ATOM     61  C   UNL A   1      43.522  27.122  30.792  1.00  0.00     0.031 C 
ATOM     62  C   UNL A   1      43.873  29.020  32.350  1.00  0.00     0.031 A 
BRANCH  49  63
ATOM     63  C   UNL A   1      41.491  34.440  34.125  1.00  0.00    -0.014 A 
ATOM     64  C   UNL A   1      40.905  34.529  35.398  1.00  0.00     0.009 A 
ATOM     65  C   UNL A   1      42.235  35.528  33.645  1.00  0.00     0.009 A 
ATOM     66  C   UNL A   1      41.025  35.698  36.153  1.00  0.00     0.001 A 
ATOM     67  C   UNL A   1      42.378  36.684  34.414  1.00  0.00     0.001 A 
ATOM     68  C   UNL A   1      41.763  36.772  35.662  1.00  0.00     0.000 A 
ENDBRANCH  49  63
BRANCH  50  69
ATOM     69  C   UNL A   1      40.344  26.588  28.082  1.00  0.00    -0.014 A 
ATOM     70  C   UNL A   1      40.898  26.595  26.793  1.00  0.00     0.009 A 
ATOM     71  C   UNL A   1      39.642  25.451  28.513  1.00  0.00     0.009 A 
ATOM     72  C   UNL A   1      40.738  25.496  25.947  1.00  0.00     0.001 A 
ATOM     73  C   UNL A   1      39.505  24.343  27.674  1.00  0.00     0.001 A 
ATOM     74  C   UNL A   1      40.047  24.369  26.389  1.00  0.00     0.000 A 
ENDBRANCH  50  69
BRANCH  62  75
ATOM     75  C   UNL A   1      45.116  28.327  32.834  1.00  0.00    -0.014 A 
ATOM     76  C   UNL A   1      46.367  28.586  32.253  1.00  0.00     0.009 A 
ATOM     77  C   UNL A   1      45.036  27.420  33.902  1.00  0.00     0.009 A 
ATOM     78  C   UNL A   1      47.508  27.922  32.709  1.00  0.00     0.001 A 
ATOM     79  C   UNL A   1      46.182  26.779  34.375  1.00  0.00     0.001 A 
ATOM     80  C   UNL A   1      47.416  27.022  33.771  1.00  0.00     0.000 A 
ENDBRANCH  62  75
ENDBRANCH  36  37
ENDBRANCH  28  31
ENDBRANCH  26  27
ENDBRANCH  25  26
ENDBRANCH  24  25
ENDBRANCH   1  24
TORSDOF 15
ENDMDL
MODEL 2
REMARK VINA RESULT:     -10.3      4.824     10.090
REMARK SMILES C[C@@H]([NH2+][C@H]1CCOC2(CCOCC2)C1)C(=O)NCCCCCCNC(=O)c1ccc(-c2c3nc(c(-c4ccccc4)c4ccc([nH]4)c(-c4ccccc4)c4nc(c(-c5ccccc5)c5ccc2[nH]5)C=C4)C=C3)cc1
REMARK SMILES IDX 20 1 19 2 18 3 17 4 15 5 16 6 2 8 1 9 3 10 4 13 5 14 14 15
REMARK SMILES IDX 6 16 8 17 7 18 9 19 13 20 10 21 12 22 11 23 21 24 22 25
REMARK SMILES IDX 23 26 24 27 25 28 26 30 27 31 28 32 74 33 29 34 73 35 30 36
REMARK SMILES IDX 31 37 32 38 67 39 33 40 72 41 66 42 68 43 34 44 71 45 65 46
REMARK SMILES IDX 64 47 35 49 57 50 42 51 56 52 43 53 46 54 55 55 69 56 44 57
REMARK SMILES IDX 45 58 54 60 70 61 47 62 36 63 37 64 41 65 38 66 40 67 39 68
REMARK SMILES IDX 58 69 59 70 63 71 60 72 62 73 61 74 48 75 49 76 53 77 50 78
REMARK SMILES IDX 52 79 51 80
REMARK H PARENT 17 7 3 11 3 12 24 29 68 48 46 59
REMARK Flexibility Score: inf
ROOT
ATOM      1  C   UNL A   1      37.659  22.051  25.326  1.00  0.00     0.002 C 
ENDROOT
BRANCH   1   2
ATOM      2  C   UNL A   1      37.024  23.196  24.528  1.00  0.00     0.021 C 
BRANCH   2   3
ATOM      3  C   UNL A   1      36.204  22.725  23.331  1.00  0.00     0.116 C 
BRANCH   3   4
ATOM      4  N   UNL A   1      34.942  23.437  23.268  1.00  0.00    -0.351 N 
ATOM      5  C   UNL A   1      33.800  23.242  23.985  1.00  0.00     0.277 C 
ATOM      6  O   UNL A   1      32.890  24.067  23.855  1.00  0.00    -0.268 OA
ATOM      7  H   UNL A   1      34.905  24.170  22.611  1.00  0.00     0.163 HD
BRANCH   5   8
ATOM      8  C   UNL A   1      33.643  22.049  24.943  1.00  0.00     0.269 C 
ATOM      9  C   UNL A   1      34.057  22.423  26.366  1.00  0.00     0.086 C 
BRANCH   8  10
ATOM     10  N   UNL A   1      32.281  21.444  24.886  1.00  0.00    -0.334 N 
ATOM     11  H   UNL A   1      31.722  21.950  24.198  1.00  0.00     0.347 HD
ATOM     12  H   UNL A   1      31.860  21.510  25.812  1.00  0.00     0.347 HD
BRANCH  10  13
ATOM     13  C   UNL A   1      32.341  20.016  24.500  1.00  0.00     0.188 C 
ATOM     14  C   UNL A   1      32.242  19.846  22.979  1.00  0.00     0.093 C 
ATOM     15  C   UNL A   1      33.651  19.357  24.948  1.00  0.00     0.100 C 
ATOM     16  C   UNL A   1      32.322  18.366  22.620  1.00  0.00     0.167 C 
ATOM     17  C   UNL A   1      33.691  17.867  24.562  1.00  0.00     0.078 C 
ATOM     18  O   UNL A   1      33.493  17.739  23.143  1.00  0.00    -0.374 OA
ATOM     19  C   UNL A   1      32.657  17.048  25.367  1.00  0.00     0.064 C 
ATOM     20  C   UNL A   1      35.096  17.310  24.867  1.00  0.00     0.064 C 
ATOM     21  C   UNL A   1      32.849  15.554  25.162  1.00  0.00     0.163 C 
ATOM     22  C   UNL A   1      35.146  15.798  24.695  1.00  0.00     0.163 C 
ATOM     23  O   UNL A   1      34.172  15.167  25.524  1.00  0.00    -0.381 OA
ENDBRANCH  10  13
ENDBRANCH   8  10
ENDBRANCH   5   8
ENDBRANCH   3   4
ENDBRANCH   2   3
ENDBRANCH   1   2
BRANCH   1  24
ATOM     24  C   UNL A   1      37.235  20.645  24.887  1.00  0.00     0.002 C 
BRANCH  24  25
ATOM     25  C   UNL A   1      38.358  19.603  24.871  1.00  0.00     0.021 C 
BRANCH  25  26
ATOM     26  C   UNL A   1      39.253  19.609  26.106  1.00  0.00     0.116 C 
BRANCH  26  27
ATOM     27  N   UNL A   1      40.556  19.019  25.847  1.00  0.00    -0.352 N 
ATOM     28  C   UNL A   1      41.797  19.598  25.908  1.00  0.00     0.251 C 
ATOM     29  H   UNL A   1      40.546  18.068  25.592  1.00  0.00     0.163 HD
ATOM     30  O   UNL A   1      42.784  18.990  25.495  1.00  0.00    -0.269 OA
BRANCH  28  31
ATOM     31  C   UNL A   1      41.949  20.965  26.446  1.00  0.00     0.039 A 
ATOM     32  C   UNL A   1      41.874  21.154  27.827  1.00  0.00     0.014 A 
ATOM     33  C   UNL A   1      42.162  22.053  25.595  1.00  0.00     0.014 A 
ATOM     34  C   UNL A   1      42.070  22.429  28.361  1.00  0.00     0.010 A 
ATOM     35  C   UNL A   1      42.425  23.310  26.133  1.00  0.00     0.010 A 
ATOM     36  C   UNL A   1      42.380  23.511  27.520  1.00  0.00    -0.014 A 
BRANCH  36  37
ATOM     37  C   UNL A   1      42.679  24.849  28.086  1.00  0.00     0.031 A 
ATOM     38  C   UNL A   1      44.076  25.211  28.500  1.00  0.00     0.074 A 
ATOM     39  C   UNL A   1      41.672  25.725  28.271  1.00  0.00     0.049 A 
ATOM     40  N   UNL A   1      44.521  26.333  29.009  1.00  0.00    -0.248 NA
ATOM     41  C   UNL A   1      45.106  24.172  28.344  1.00  0.00     0.031 C 
ATOM     42  C   UNL A   1      40.265  25.478  27.955  1.00  0.00     0.029 A 
ATOM     43  N   UNL A   1      41.682  27.003  28.770  1.00  0.00    -0.354 N 
ATOM     44  C   UNL A   1      45.874  26.129  29.246  1.00  0.00     0.074 A 
ATOM     45  C   UNL A   1      46.167  24.763  28.872  1.00  0.00     0.031 C 
ATOM     46  C   UNL A   1      39.553  26.583  28.228  1.00  0.00     0.029 A 
ATOM     47  C   UNL A   1      40.446  27.600  28.773  1.00  0.00     0.049 A 
ATOM     48  H   UNL A   1      42.497  27.450  29.095  1.00  0.00     0.167 HD
ATOM     49  C   UNL A   1      46.794  27.005  29.715  1.00  0.00     0.031 A 
ATOM     50  C   UNL A   1      40.071  28.832  29.165  1.00  0.00     0.031 A 
ATOM     51  C   UNL A   1      46.503  28.366  30.084  1.00  0.00     0.049 A 
ATOM     52  C   UNL A   1      41.108  29.782  29.691  1.00  0.00     0.074 A 
ATOM     53  C   UNL A   1      47.380  29.352  30.504  1.00  0.00     0.029 A 
ATOM     54  N   UNL A   1      45.237  28.930  30.083  1.00  0.00    -0.354 N 
ATOM     55  N   UNL A   1      42.399  29.602  29.831  1.00  0.00    -0.248 NA
ATOM     56  C   UNL A   1      40.634  31.111  30.103  1.00  0.00     0.031 C 
ATOM     57  C   UNL A   1      46.634  30.496  30.811  1.00  0.00     0.029 A 
ATOM     58  C   UNL A   1      45.302  30.240  30.528  1.00  0.00     0.049 A 
ATOM     59  H   UNL A   1      44.414  28.467  29.808  1.00  0.00     0.167 HD
ATOM     60  C   UNL A   1      42.896  30.800  30.327  1.00  0.00     0.074 A 
ATOM     61  C   UNL A   1      41.769  31.704  30.444  1.00  0.00     0.031 C 
ATOM     62  C   UNL A   1      44.171  31.122  30.655  1.00  0.00     0.031 A 
BRANCH  49  63
ATOM     63  C   UNL A   1      48.206  26.506  29.869  1.00  0.00    -0.014 A 
ATOM     64  C   UNL A   1      48.632  25.875  31.049  1.00  0.00     0.009 A 
ATOM     65  C   UNL A   1      49.117  26.653  28.813  1.00  0.00     0.009 A 
ATOM     66  C   UNL A   1      49.953  25.442  31.183  1.00  0.00     0.001 A 
ATOM     67  C   UNL A   1      50.429  26.192  28.938  1.00  0.00     0.001 A 
ATOM     68  C   UNL A   1      50.849  25.598  30.127  1.00  0.00     0.000 A 
ENDBRANCH  49  63
BRANCH  50  69
ATOM     69  C   UNL A   1      38.651  29.247  29.042  1.00  0.00    -0.014 A 
ATOM     70  C   UNL A   1      38.150  29.707  27.815  1.00  0.00     0.009 A 
ATOM     71  C   UNL A   1      37.785  29.174  30.145  1.00  0.00     0.009 A 
ATOM     72  C   UNL A   1      36.816  30.104  27.699  1.00  0.00     0.001 A 
ATOM     73  C   UNL A   1      36.445  29.547  30.019  1.00  0.00     0.001 A 
ATOM     74  C   UNL A   1      35.964  30.019  28.798  1.00  0.00     0.000 A 
ENDBRANCH  50  69
BRANCH  62  75
ATOM     75  C   UNL A   1      44.414  32.519  31.155  1.00  0.00    -0.014 A 
ATOM     76  C   UNL A   1      44.378  32.817  32.526  1.00  0.00     0.009 A 
ATOM     77  C   UNL A   1      44.706  33.544  30.243  1.00  0.00     0.009 A 
ATOM     78  C   UNL A   1      44.594  34.123  32.970  1.00  0.00     0.001 A 
ATOM     79  C   UNL A   1      44.950  34.843  30.691  1.00  0.00     0.001 A 
ATOM     80  C   UNL A   1      44.883  35.134  32.053  1.00  0.00     0.000 A 
ENDBRANCH  62  75
ENDBRANCH  36  37
ENDBRANCH  28  31
ENDBRANCH  26  27
ENDBRANCH  25  26
ENDBRANCH  24  25
ENDBRANCH   1  24
TORSDOF 15
ENDMDL
MODEL 3
REMARK VINA RESULT:     -10.3      5.591     10.315
REMARK SMILES C[C@@H]([NH2+][C@H]1CCOC2(CCOCC2)C1)C(=O)NCCCCCCNC(=O)c1ccc(-c2c3nc(c(-c4ccccc4)c4ccc([nH]4)c(-c4ccccc4)c4nc(c(-c5ccccc5)c5ccc2[nH]5)C=C4)C=C3)cc1
REMARK SMILES IDX 20 1 19 2 18 3 17 4 15 5 16 6 2 8 1 9 3 10 4 13 5 14 14 15
REMARK SMILES IDX 6 16 8 17 7 18 9 19 13 20 10 21 12 22 11 23 21 24 22 25
REMARK SMILES IDX 23 26 24 27 25 28 26 30 27 31 28 32 74 33 29 34 73 35 30 36
REMARK SMILES IDX 31 37 32 38 67 39 33 40 72 41 66 42 68 43 34 44 71 45 65 46
REMARK SMILES IDX 64 47 35 49 57 50 42 51 56 52 43 53 46 54 55 55 69 56 44 57
REMARK SMILES IDX 45 58 54 60 70 61 47 62 36 63 37 64 41 65 38 66 40 67 39 68
REMARK SMILES IDX 58 69 59 70 63 71 60 72 62 73 61 74 48 75 49 76 53 77 50 78
REMARK SMILES IDX 52 79 51 80
REMARK H PARENT 17 7 3 11 3 12 24 29 68 48 46 59
REMARK Flexibility Score: inf
ROOT
ATOM      1  C   UNL A   1      37.212  22.138  24.891  1.00  0.00     0.002 C 
ENDROOT
BRANCH   1   2
ATOM      2  C   UNL A   1      36.644  22.882  23.676  1.00  0.00     0.021 C 
BRANCH   2   3
ATOM      3  C   UNL A   1      35.163  22.611  23.431  1.00  0.00     0.116 C 
BRANCH   3   4
ATOM      4  N   UNL A   1      34.344  23.528  24.201  1.00  0.00    -0.351 N 
ATOM      5  C   UNL A   1      33.606  23.298  25.323  1.00  0.00     0.277 C 
ATOM      6  O   UNL A   1      33.097  24.272  25.887  1.00  0.00    -0.268 OA
ATOM      7  H   UNL A   1      34.318  24.452  23.863  1.00  0.00     0.163 HD
BRANCH   5   8
ATOM      8  C   UNL A   1      33.422  21.881  25.891  1.00  0.00     0.269 C 
ATOM      9  C   UNL A   1      33.739  21.837  27.386  1.00  0.00     0.086 C 
BRANCH   8  10
ATOM     10  N   UNL A   1      32.082  21.307  25.575  1.00  0.00    -0.334 N 
ATOM     11  H   UNL A   1      31.610  21.916  24.906  1.00  0.00     0.347 HD
ATOM     12  H   UNL A   1      31.549  21.240  26.441  1.00  0.00     0.347 HD
BRANCH  10  13
ATOM     13  C   UNL A   1      32.200  19.952  24.992  1.00  0.00     0.188 C 
ATOM     14  C   UNL A   1      32.153  20.000  23.460  1.00  0.00     0.093 C 
ATOM     15  C   UNL A   1      33.516  19.271  25.387  1.00  0.00     0.100 C 
ATOM     16  C   UNL A   1      32.292  18.589  22.896  1.00  0.00     0.167 C 
ATOM     17  C   UNL A   1      33.615  17.853  24.793  1.00  0.00     0.078 C 
ATOM     18  O   UNL A   1      33.466  17.926  23.365  1.00  0.00    -0.374 OA
ATOM     19  C   UNL A   1      32.584  16.900  25.436  1.00  0.00     0.064 C 
ATOM     20  C   UNL A   1      35.028  17.298  25.065  1.00  0.00     0.064 C 
ATOM     21  C   UNL A   1      32.830  15.456  25.027  1.00  0.00     0.163 C 
ATOM     22  C   UNL A   1      35.131  15.828  24.680  1.00  0.00     0.163 C 
ATOM     23  O   UNL A   1      34.153  15.057  25.375  1.00  0.00    -0.381 OA
ENDBRANCH  10  13
ENDBRANCH   8  10
ENDBRANCH   5   8
ENDBRANCH   3   4
ENDBRANCH   2   3
ENDBRANCH   1   2
BRANCH   1  24
ATOM     24  C   UNL A   1      36.795  20.667  25.000  1.00  0.00     0.002 C 
BRANCH  24  25
ATOM     25  C   UNL A   1      37.951  19.663  25.000  1.00  0.00     0.021 C 
BRANCH  25  26
ATOM     26  C   UNL A   1      39.197  20.121  25.751  1.00  0.00     0.116 C 
BRANCH  26  27
ATOM     27  N   UNL A   1      40.210  19.081  25.828  1.00  0.00    -0.352 N 
ATOM     28  C   UNL A   1      41.559  19.199  26.037  1.00  0.00     0.251 C 
ATOM     29  H   UNL A   1      39.879  18.160  25.714  1.00  0.00     0.163 HD
ATOM     30  O   UNL A   1      42.293  18.219  25.908  1.00  0.00    -0.269 OA
BRANCH  28  31
ATOM     31  C   UNL A   1      42.140  20.509  26.393  1.00  0.00     0.039 A 
ATOM     32  C   UNL A   1      42.653  21.314  25.374  1.00  0.00     0.014 A 
ATOM     33  C   UNL A   1      42.182  20.941  27.722  1.00  0.00     0.014 A 
ATOM     34  C   UNL A   1      43.156  22.579  25.682  1.00  0.00     0.010 A 
ATOM     35  C   UNL A   1      42.622  22.228  28.018  1.00  0.00     0.010 A 
ATOM     36  C   UNL A   1      43.114  23.059  27.001  1.00  0.00    -0.014 A 
BRANCH  36  37
ATOM     37  C   UNL A   1      43.564  24.436  27.322  1.00  0.00     0.031 A 
ATOM     38  C   UNL A   1      42.574  25.491  27.724  1.00  0.00     0.074 A 
ATOM     39  C   UNL A   1      44.870  24.746  27.202  1.00  0.00     0.049 A 
ATOM     40  N   UNL A   1      42.788  26.743  28.042  1.00  0.00    -0.248 NA
ATOM     41  C   UNL A   1      41.157  25.097  27.751  1.00  0.00     0.031 C 
ATOM     42  C   UNL A   1      45.924  23.825  26.775  1.00  0.00     0.029 A 
ATOM     43  N   UNL A   1      45.531  25.926  27.432  1.00  0.00    -0.354 N 
ATOM     44  C   UNL A   1      41.535  27.287  28.293  1.00  0.00     0.074 A 
ATOM     45  C   UNL A   1      40.564  26.245  28.042  1.00  0.00     0.031 C 
ATOM     46  C   UNL A   1      47.106  24.462  26.813  1.00  0.00     0.029 A 
ATOM     47  C   UNL A   1      46.886  25.844  27.230  1.00  0.00     0.049 A 
ATOM     48  H   UNL A   1      45.078  26.753  27.715  1.00  0.00     0.167 HD
ATOM     49  C   UNL A   1      41.221  28.537  28.711  1.00  0.00     0.031 A 
ATOM     50  C   UNL A   1      47.849  26.773  27.370  1.00  0.00     0.031 A 
ATOM     51  C   UNL A   1      42.188  29.573  28.965  1.00  0.00     0.049 A 
ATOM     52  C   UNL A   1      47.475  28.155  27.825  1.00  0.00     0.074 A 
ATOM     53  C   UNL A   1      41.975  30.850  29.457  1.00  0.00     0.029 A 
ATOM     54  N   UNL A   1      43.550  29.454  28.737  1.00  0.00    -0.354 N 
ATOM     55  N   UNL A   1      46.294  28.631  28.138  1.00  0.00    -0.248 NA
ATOM     56  C   UNL A   1      48.573  29.124  27.957  1.00  0.00     0.031 C 
ATOM     57  C   UNL A   1      43.202  31.521  29.474  1.00  0.00     0.029 A 
ATOM     58  C   UNL A   1      44.187  30.644  29.047  1.00  0.00     0.049 A 
ATOM     59  H   UNL A   1      43.997  28.643  28.404  1.00  0.00     0.167 HD
ATOM     60  C   UNL A   1      46.508  29.947  28.524  1.00  0.00     0.074 A 
ATOM     61  C   UNL A   1      47.934  30.187  28.425  1.00  0.00     0.031 C 
ATOM     62  C   UNL A   1      45.604  30.874  28.926  1.00  0.00     0.031 A 
BRANCH  49  63
ATOM     63  C   UNL A   1      39.763  28.852  28.907  1.00  0.00    -0.014 A 
ATOM     64  C   UNL A   1      39.137  28.670  30.151  1.00  0.00     0.009 A 
ATOM     65  C   UNL A   1      39.008  29.355  27.837  1.00  0.00     0.009 A 
ATOM     66  C   UNL A   1      37.777  28.943  30.307  1.00  0.00     0.001 A 
ATOM     67  C   UNL A   1      37.654  29.656  28.004  1.00  0.00     0.001 A 
ATOM     68  C   UNL A   1      37.038  29.439  29.235  1.00  0.00     0.000 A 
ENDBRANCH  49  63
BRANCH  50  69
ATOM     69  C   UNL A   1      49.266  26.417  27.105  1.00  0.00    -0.014 A 
ATOM     70  C   UNL A   1      50.131  26.115  28.167  1.00  0.00     0.009 A 
ATOM     71  C   UNL A   1      49.758  26.363  25.791  1.00  0.00     0.009 A 
ATOM     72  C   UNL A   1      51.466  25.786  27.922  1.00  0.00     0.001 A 
ATOM     73  C   UNL A   1      51.087  26.008  25.547  1.00  0.00     0.001 A 
ATOM     74  C   UNL A   1      51.941  25.727  26.613  1.00  0.00     0.000 A 
ENDBRANCH  50  69
BRANCH  62  75
ATOM     75  C   UNL A   1      46.137  32.227  29.305  1.00  0.00    -0.014 A 
ATOM     76  C   UNL A   1      46.536  32.509  30.621  1.00  0.00     0.009 A 
ATOM     77  C   UNL A   1      46.264  33.224  28.327  1.00  0.00     0.009 A 
ATOM     78  C   UNL A   1      47.017  33.777  30.956  1.00  0.00     0.001 A 
ATOM     79  C   UNL A   1      46.772  34.481  28.657  1.00  0.00     0.001 A 
ATOM     80  C   UNL A   1      47.138  34.760  29.974  1.00  0.00     0.000 A 
ENDBRANCH  62  75
ENDBRANCH  36  37
ENDBRANCH  28  31
ENDBRANCH  26  27
ENDBRANCH  25  26
ENDBRANCH  24  25
ENDBRANCH   1  24
TORSDOF 15
ENDMDL
