MODEL 1
REMARK VINA RESULT:     -10.9      0.000      0.000
REMARK SMILES Cc1ccc(Cl)cc1NC(=O)N[C@@](C)(C(=O)NCCCCCCNC(=O)c1ccc(-c2c3nc(c(-c4ccccc4)c4ccc([nH]4)c(-c4ccccc4)c4nc(c(-c5ccccc5)c5ccc2[nH]5)C=C4)C=C3)cc1)C(F)(F)F
REMARK SMILES IDX 20 1 19 2 18 3 17 4 15 5 16 6 13 8 14 9 12 10 9 11 10 12
REMARK SMILES IDX 11 14 8 16 1 17 2 18 3 19 4 20 7 21 5 22 6 23 75 24 76 25
REMARK SMILES IDX 77 26 78 27 21 28 22 29 23 30 24 31 25 32 26 34 27 35 28 36
REMARK SMILES IDX 74 37 29 38 73 39 30 40 31 41 32 42 67 43 33 44 72 45 66 46
REMARK SMILES IDX 68 47 34 48 71 49 65 50 64 51 35 53 57 54 42 55 56 56 43 57
REMARK SMILES IDX 46 58 55 59 69 60 44 61 45 62 54 64 70 65 47 66 36 67 37 68
REMARK SMILES IDX 41 69 38 70 40 71 39 72 58 73 59 74 63 75 60 76 62 77 61 78
REMARK SMILES IDX 48 79 49 80 53 81 50 82 52 83 51 84
REMARK H PARENT 17 7 9 13 12 15 24 33 68 52 46 63
REMARK Flexibility Score: inf
ROOT
ATOM      1  C   UNL A   1      38.284  22.074  25.736  1.00  0.00     0.002 C 
ENDROOT
BRANCH   1   2
ATOM      2  C   UNL A   1      37.437  23.358  25.732  1.00  0.00     0.021 C 
BRANCH   2   3
ATOM      3  C   UNL A   1      35.927  23.121  25.779  1.00  0.00     0.116 C 
BRANCH   3   4
ATOM      4  N   UNL A   1      35.329  23.411  24.494  1.00  0.00    -0.354 N 
ATOM      5  C   UNL A   1      33.978  23.253  24.322  1.00  0.00     0.255 C 
ATOM      6  O   UNL A   1      33.587  22.147  23.954  1.00  0.00    -0.272 OA
ATOM      7  H   UNL A   1      35.889  23.722  23.746  1.00  0.00     0.163 HD
BRANCH   5   8
ATOM      8  C   UNL A   1      33.044  24.433  24.722  1.00  0.00     0.213 C 
ATOM      9  C   UNL A   1      33.900  25.539  25.369  1.00  0.00     0.056 C 
BRANCH   8  10
ATOM     10  N   UNL A   1      32.037  23.948  25.719  1.00  0.00    -0.316 N 
ATOM     11  N   UNL A   1      30.370  25.607  26.262  1.00  0.00    -0.308 N 
ATOM     12  C   UNL A   1      30.975  24.413  26.388  1.00  0.00     0.320 C 
ATOM     13  H   UNL A   1      29.493  25.617  26.707  1.00  0.00     0.171 HD
ATOM     14  O   UNL A   1      30.426  23.594  27.136  1.00  0.00    -0.248 OA
ATOM     15  H   UNL A   1      32.208  23.007  25.952  1.00  0.00     0.166 HD
BRANCH  11  16
ATOM     16  C   UNL A   1      30.662  26.840  25.664  1.00  0.00     0.047 A 
ATOM     17  C   UNL A   1      28.808  26.495  23.917  1.00  0.00     0.046 C 
ATOM     18  C   UNL A   1      30.002  27.219  24.478  1.00  0.00    -0.027 A 
ATOM     19  C   UNL A   1      30.473  28.339  23.762  1.00  0.00     0.007 A 
ATOM     20  C   UNL A   1      31.539  29.099  24.241  1.00  0.00     0.021 A 
ATOM     21  C   UNL A   1      31.576  27.728  26.227  1.00  0.00     0.047 A 
ATOM     22  C   UNL A   1      32.053  28.818  25.498  1.00  0.00     0.043 A 
ATOM     23  Cl  UNL A   1      33.331  29.780  26.135  1.00  0.00    -0.084 Cl
ENDBRANCH  11  16
ENDBRANCH   8  10
BRANCH   8  24
ATOM     24  C   UNL A   1      32.506  24.769  23.307  1.00  0.00     0.420 C 
ATOM     25  F   UNL A   1      31.221  24.380  23.127  1.00  0.00    -0.168 F 
ATOM     26  F   UNL A   1      32.539  26.074  23.005  1.00  0.00    -0.168 F 
ATOM     27  F   UNL A   1      33.257  24.169  22.345  1.00  0.00    -0.168 F 
ENDBRANCH   8  24
ENDBRANCH   5   8
ENDBRANCH   3   4
ENDBRANCH   2   3
ENDBRANCH   1   2
BRANCH   1  28
ATOM     28  C   UNL A   1      37.734  20.915  24.899  1.00  0.00     0.002 C 
BRANCH  28  29
ATOM     29  C   UNL A   1      38.526  19.615  25.008  1.00  0.00     0.021 C 
BRANCH  29  30
ATOM     30  C   UNL A   1      39.460  19.561  26.205  1.00  0.00     0.116 C 
BRANCH  30  31
ATOM     31  N   UNL A   1      40.740  18.963  25.873  1.00  0.00    -0.352 N 
ATOM     32  C   UNL A   1      41.974  19.563  25.844  1.00  0.00     0.251 C 
ATOM     33  H   UNL A   1      40.720  18.007  25.640  1.00  0.00     0.163 HD
ATOM     34  O   UNL A   1      42.941  18.989  25.366  1.00  0.00    -0.269 OA
BRANCH  32  35
ATOM     35  C   UNL A   1      42.105  20.934  26.377  1.00  0.00     0.039 A 
ATOM     36  C   UNL A   1      42.028  21.132  27.755  1.00  0.00     0.014 A 
ATOM     37  C   UNL A   1      42.344  22.010  25.515  1.00  0.00     0.014 A 
ATOM     38  C   UNL A   1      42.239  22.408  28.276  1.00  0.00     0.010 A 
ATOM     39  C   UNL A   1      42.637  23.262  26.043  1.00  0.00     0.010 A 
ATOM     40  C   UNL A   1      42.574  23.476  27.428  1.00  0.00    -0.014 A 
BRANCH  40  41
ATOM     41  C   UNL A   1      42.846  24.828  27.972  1.00  0.00     0.031 A 
ATOM     42  C   UNL A   1      44.240  25.197  28.403  1.00  0.00     0.074 A 
ATOM     43  C   UNL A   1      41.832  25.702  28.128  1.00  0.00     0.049 A 
ATOM     44  N   UNL A   1      44.669  26.311  28.938  1.00  0.00    -0.248 NA
ATOM     45  C   UNL A   1      45.285  24.172  28.239  1.00  0.00     0.031 C 
ATOM     46  C   UNL A   1      40.429  25.445  27.795  1.00  0.00     0.029 A 
ATOM     47  N   UNL A   1      41.826  26.985  28.616  1.00  0.00    -0.354 N 
ATOM     48  C   UNL A   1      46.020  26.112  29.193  1.00  0.00     0.074 A 
ATOM     49  C   UNL A   1      46.333  24.758  28.798  1.00  0.00     0.031 C 
ATOM     50  C   UNL A   1      39.704  26.542  28.066  1.00  0.00     0.029 A 
ATOM     51  C   UNL A   1      40.581  27.564  28.629  1.00  0.00     0.049 A 
ATOM     52  H   UNL A   1      42.639  27.447  28.928  1.00  0.00     0.167 HD
ATOM     53  C   UNL A   1      46.922  26.986  29.695  1.00  0.00     0.031 A 
ATOM     54  C   UNL A   1      40.186  28.779  29.058  1.00  0.00     0.031 A 
ATOM     55  C   UNL A   1      46.614  28.342  30.062  1.00  0.00     0.049 A 
ATOM     56  C   UNL A   1      41.215  29.731  29.604  1.00  0.00     0.074 A 
ATOM     57  C   UNL A   1      47.478  29.330  30.504  1.00  0.00     0.029 A 
ATOM     58  N   UNL A   1      45.346  28.898  30.037  1.00  0.00    -0.354 N 
ATOM     59  N   UNL A   1      42.506  29.558  29.748  1.00  0.00    -0.248 NA
ATOM     60  C   UNL A   1      40.733  31.051  30.032  1.00  0.00     0.031 C 
ATOM     61  C   UNL A   1      46.721  30.466  30.804  1.00  0.00     0.029 A 
ATOM     62  C   UNL A   1      45.398  30.206  30.487  1.00  0.00     0.049 A 
ATOM     63  H   UNL A   1      44.530  28.432  29.743  1.00  0.00     0.167 HD
ATOM     64  C   UNL A   1      42.994  30.757  30.254  1.00  0.00     0.074 A 
ATOM     65  C   UNL A   1      41.864  31.653  30.371  1.00  0.00     0.031 C 
ATOM     66  C   UNL A   1      44.264  31.086  30.592  1.00  0.00     0.031 A 
BRANCH  53  67
ATOM     67  C   UNL A   1      48.334  26.507  29.888  1.00  0.00    -0.014 A 
ATOM     68  C   UNL A   1      49.316  26.712  28.907  1.00  0.00     0.009 A 
ATOM     69  C   UNL A   1      48.701  25.906  31.103  1.00  0.00     0.009 A 
ATOM     70  C   UNL A   1      50.633  26.302  29.130  1.00  0.00     0.001 A 
ATOM     71  C   UNL A   1      50.024  25.524  31.334  1.00  0.00     0.001 A 
ATOM     72  C   UNL A   1      50.987  25.717  30.346  1.00  0.00     0.000 A 
ENDBRANCH  53  67
BRANCH  54  73
ATOM     73  C   UNL A   1      38.751  29.169  28.997  1.00  0.00    -0.014 A 
ATOM     74  C   UNL A   1      37.917  29.023  30.116  1.00  0.00     0.009 A 
ATOM     75  C   UNL A   1      38.200  29.660  27.803  1.00  0.00     0.009 A 
ATOM     76  C   UNL A   1      36.555  29.319  30.029  1.00  0.00     0.001 A 
ATOM     77  C   UNL A   1      36.844  29.988  27.728  1.00  0.00     0.001 A 
ATOM     78  C   UNL A   1      36.021  29.803  28.836  1.00  0.00     0.000 A 
ENDBRANCH  54  73
BRANCH  66  79
ATOM     79  C   UNL A   1      44.508  32.486  31.079  1.00  0.00    -0.014 A 
ATOM     80  C   UNL A   1      44.785  33.534  30.188  1.00  0.00     0.009 A 
ATOM     81  C   UNL A   1      44.411  32.767  32.452  1.00  0.00     0.009 A 
ATOM     82  C   UNL A   1      44.996  34.829  30.666  1.00  0.00     0.001 A 
ATOM     83  C   UNL A   1      44.589  34.068  32.923  1.00  0.00     0.001 A 
ATOM     84  C   UNL A   1      44.892  35.096  32.032  1.00  0.00     0.000 A 
ENDBRANCH  66  79
ENDBRANCH  40  41
ENDBRANCH  32  35
ENDBRANCH  30  31
ENDBRANCH  29  30
ENDBRANCH  28  29
ENDBRANCH   1  28
TORSDOF 16
ENDMDL
MODEL 2
REMARK VINA RESULT:     -10.9      1.066      5.968
REMARK SMILES Cc1ccc(Cl)cc1NC(=O)N[C@@](C)(C(=O)NCCCCCCNC(=O)c1ccc(-c2c3nc(c(-c4ccccc4)c4ccc([nH]4)c(-c4ccccc4)c4nc(c(-c5ccccc5)c5ccc2[nH]5)C=C4)C=C3)cc1)C(F)(F)F
REMARK SMILES IDX 20 1 19 2 18 3 17 4 15 5 16 6 13 8 14 9 12 10 9 11 10 12
REMARK SMILES IDX 11 14 8 16 1 17 2 18 3 19 4 20 7 21 5 22 6 23 75 24 76 25
REMARK SMILES IDX 77 26 78 27 21 28 22 29 23 30 24 31 25 32 26 34 27 35 28 36
REMARK SMILES IDX 74 37 29 38 73 39 30 40 31 41 32 42 67 43 33 44 72 45 66 46
REMARK SMILES IDX 68 47 34 48 71 49 65 50 64 51 35 53 57 54 42 55 56 56 43 57
REMARK SMILES IDX 46 58 55 59 69 60 44 61 45 62 54 64 70 65 47 66 36 67 37 68
REMARK SMILES IDX 41 69 38 70 40 71 39 72 58 73 59 74 63 75 60 76 62 77 61 78
REMARK SMILES IDX 48 79 49 80 53 81 50 82 52 83 51 84
REMARK H PARENT 17 7 9 13 12 15 24 33 68 52 46 63
REMARK Flexibility Score: inf
ROOT
ATOM      1  C   UNL A   1      36.747  22.493  24.788  1.00  0.00     0.002 C 
ENDROOT
BRANCH   1   2
ATOM      2  C   UNL A   1      36.142  23.455  25.825  1.00  0.00     0.021 C 
BRANCH   2   3
ATOM      3  C   UNL A   1      34.745  23.066  26.311  1.00  0.00     0.116 C 
BRANCH   3   4
ATOM      4  N   UNL A   1      33.793  24.109  26.001  1.00  0.00    -0.354 N 
ATOM      5  C   UNL A   1      33.287  24.212  24.730  1.00  0.00     0.255 C 
ATOM      6  O   UNL A   1      33.910  24.914  23.936  1.00  0.00    -0.272 OA
ATOM      7  H   UNL A   1      33.508  24.743  26.699  1.00  0.00     0.163 HD
BRANCH   5   8
ATOM      8  C   UNL A   1      32.050  23.344  24.361  1.00  0.00     0.213 C 
ATOM      9  C   UNL A   1      31.216  24.098  23.307  1.00  0.00     0.056 C 
BRANCH   8  10
ATOM     10  N   UNL A   1      31.213  23.132  25.586  1.00  0.00    -0.316 N 
ATOM     11  N   UNL A   1      30.262  25.178  26.445  1.00  0.00    -0.308 N 
ATOM     12  C   UNL A   1      30.516  23.858  26.469  1.00  0.00     0.320 C 
ATOM     13  H   UNL A   1      29.555  25.422  27.084  1.00  0.00     0.171 HD
ATOM     14  O   UNL A   1      29.951  23.204  27.355  1.00  0.00    -0.248 OA
ATOM     15  H   UNL A   1      31.160  22.174  25.806  1.00  0.00     0.166 HD
BRANCH  11  16
ATOM     16  C   UNL A   1      30.740  26.296  25.749  1.00  0.00     0.047 A 
ATOM     17  C   UNL A   1      28.653  26.328  24.250  1.00  0.00     0.046 C 
ATOM     18  C   UNL A   1      30.037  26.781  24.628  1.00  0.00    -0.027 A 
ATOM     19  C   UNL A   1      30.649  27.745  23.803  1.00  0.00     0.007 A 
ATOM     20  C   UNL A   1      31.908  28.259  24.112  1.00  0.00     0.021 A 
ATOM     21  C   UNL A   1      31.891  26.971  26.153  1.00  0.00     0.047 A 
ATOM     22  C   UNL A   1      32.501  27.905  25.314  1.00  0.00     0.043 A 
ATOM     23  Cl  UNL A   1      34.028  28.573  25.745  1.00  0.00    -0.084 Cl
ENDBRANCH  11  16
ENDBRANCH   8  10
BRANCH   8  24
ATOM     24  C   UNL A   1      32.811  22.104  23.825  1.00  0.00     0.420 C 
ATOM     25  F   UNL A   1      33.979  22.425  23.220  1.00  0.00    -0.168 F 
ATOM     26  F   UNL A   1      33.123  21.204  24.767  1.00  0.00    -0.168 F 
ATOM     27  F   UNL A   1      32.054  21.420  22.925  1.00  0.00    -0.168 F 
ENDBRANCH   8  24
ENDBRANCH   5   8
ENDBRANCH   3   4
ENDBRANCH   2   3
ENDBRANCH   1   2
BRANCH   1  28
ATOM     28  C   UNL A   1      36.480  21.003  25.031  1.00  0.00     0.002 C 
BRANCH  28  29
ATOM     29  C   UNL A   1      37.698  20.100  24.862  1.00  0.00     0.021 C 
BRANCH  29  30
ATOM     30  C   UNL A   1      38.875  20.479  25.745  1.00  0.00     0.116 C 
BRANCH  30  31
ATOM     31  N   UNL A   1      39.858  19.415  25.831  1.00  0.00    -0.352 N 
ATOM     32  C   UNL A   1      41.195  19.518  26.125  1.00  0.00     0.251 C 
ATOM     33  H   UNL A   1      39.524  18.506  25.657  1.00  0.00     0.163 HD
ATOM     34  O   UNL A   1      41.946  18.565  25.981  1.00  0.00    -0.269 OA
BRANCH  32  35
ATOM     35  C   UNL A   1      41.716  20.817  26.595  1.00  0.00     0.039 A 
ATOM     36  C   UNL A   1      42.136  21.756  25.653  1.00  0.00     0.014 A 
ATOM     37  C   UNL A   1      41.750  21.115  27.962  1.00  0.00     0.014 A 
ATOM     38  C   UNL A   1      42.547  23.018  26.081  1.00  0.00     0.010 A 
ATOM     39  C   UNL A   1      42.078  22.400  28.377  1.00  0.00     0.010 A 
ATOM     40  C   UNL A   1      42.494  23.360  27.443  1.00  0.00    -0.014 A 
BRANCH  40  41
ATOM     41  C   UNL A   1      42.883  24.713  27.906  1.00  0.00     0.031 A 
ATOM     42  C   UNL A   1      41.825  25.752  28.162  1.00  0.00     0.074 A 
ATOM     43  C   UNL A   1      44.188  25.022  28.045  1.00  0.00     0.049 A 
ATOM     44  N   UNL A   1      41.968  26.999  28.533  1.00  0.00    -0.248 NA
ATOM     45  C   UNL A   1      40.425  25.349  27.948  1.00  0.00     0.031 C 
ATOM     46  C   UNL A   1      45.308  24.116  27.779  1.00  0.00     0.029 A 
ATOM     47  N   UNL A   1      44.792  26.190  28.438  1.00  0.00    -0.354 N 
ATOM     48  C   UNL A   1      40.685  27.530  28.573  1.00  0.00     0.074 A 
ATOM     49  C   UNL A   1      39.779  26.488  28.146  1.00  0.00     0.031 C 
ATOM     50  C   UNL A   1      46.461  24.755  28.038  1.00  0.00     0.029 A 
ATOM     51  C   UNL A   1      46.164  26.124  28.449  1.00  0.00     0.049 A 
ATOM     52  H   UNL A   1      44.289  26.999  28.689  1.00  0.00     0.167 HD
ATOM     53  C   UNL A   1      40.296  28.771  28.947  1.00  0.00     0.031 A 
ATOM     54  C   UNL A   1      47.082  27.064  28.745  1.00  0.00     0.031 A 
ATOM     55  C   UNL A   1      41.197  29.797  29.397  1.00  0.00     0.049 A 
ATOM     56  C   UNL A   1      46.617  28.432  29.167  1.00  0.00     0.074 A 
ATOM     57  C   UNL A   1      40.891  31.059  29.876  1.00  0.00     0.029 A 
ATOM     58  N   UNL A   1      42.577  29.682  29.417  1.00  0.00    -0.354 N 
ATOM     59  N   UNL A   1      45.394  28.886  29.291  1.00  0.00    -0.248 NA
ATOM     60  C   UNL A   1      47.660  29.410  29.503  1.00  0.00     0.031 C 
ATOM     61  C   UNL A   1      42.090  31.731  30.128  1.00  0.00     0.029 A 
ATOM     62  C   UNL A   1      43.139  30.864  29.869  1.00  0.00     0.049 A 
ATOM     63  H   UNL A   1      43.082  28.881  29.150  1.00  0.00     0.167 HD
ATOM     64  C   UNL A   1      45.520  30.192  29.749  1.00  0.00     0.074 A 
ATOM     65  C   UNL A   1      46.937  30.448  29.900  1.00  0.00     0.031 C 
ATOM     66  C   UNL A   1      44.551  31.100  30.020  1.00  0.00     0.031 A 
BRANCH  53  67
ATOM     67  C   UNL A   1      38.830  29.098  28.883  1.00  0.00    -0.014 A 
ATOM     68  C   UNL A   1      38.002  28.970  30.009  1.00  0.00     0.009 A 
ATOM     69  C   UNL A   1      38.287  29.611  27.695  1.00  0.00     0.009 A 
ATOM     70  C   UNL A   1      36.654  29.328  29.938  1.00  0.00     0.001 A 
ATOM     71  C   UNL A   1      36.946  29.995  27.635  1.00  0.00     0.001 A 
ATOM     72  C   UNL A   1      36.130  29.848  28.754  1.00  0.00     0.000 A 
ENDBRANCH  53  67
BRANCH  54  73
ATOM     73  C   UNL A   1      48.535  26.755  28.650  1.00  0.00    -0.014 A 
ATOM     74  C   UNL A   1      49.235  26.951  27.451  1.00  0.00     0.009 A 
ATOM     75  C   UNL A   1      49.221  26.228  29.756  1.00  0.00     0.009 A 
ATOM     76  C   UNL A   1      50.580  26.587  27.347  1.00  0.00     0.001 A 
ATOM     77  C   UNL A   1      50.574  25.897  29.660  1.00  0.00     0.001 A 
ATOM     78  C   UNL A   1      51.248  26.062  28.452  1.00  0.00     0.000 A 
ENDBRANCH  54  73
BRANCH  66  79
ATOM     79  C   UNL A   1      44.986  32.437  30.548  1.00  0.00    -0.014 A 
ATOM     80  C   UNL A   1      45.230  33.520  29.689  1.00  0.00     0.009 A 
ATOM     81  C   UNL A   1      45.107  32.626  31.934  1.00  0.00     0.009 A 
ATOM     82  C   UNL A   1      45.622  34.755  30.207  1.00  0.00     0.001 A 
ATOM     83  C   UNL A   1      45.466  33.872  32.450  1.00  0.00     0.001 A 
ATOM     84  C   UNL A   1      45.734  34.932  31.586  1.00  0.00     0.000 A 
ENDBRANCH  66  79
ENDBRANCH  40  41
ENDBRANCH  32  35
ENDBRANCH  30  31
ENDBRANCH  29  30
ENDBRANCH  28  29
ENDBRANCH   1  28
TORSDOF 16
ENDMDL
MODEL 3
REMARK VINA RESULT:     -10.8      4.196      9.353
REMARK SMILES Cc1ccc(Cl)cc1NC(=O)N[C@@](C)(C(=O)NCCCCCCNC(=O)c1ccc(-c2c3nc(c(-c4ccccc4)c4ccc([nH]4)c(-c4ccccc4)c4nc(c(-c5ccccc5)c5ccc2[nH]5)C=C4)C=C3)cc1)C(F)(F)F
REMARK SMILES IDX 20 1 19 2 18 3 17 4 15 5 16 6 13 8 14 9 12 10 9 11 10 12
REMARK SMILES IDX 11 14 8 16 1 17 2 18 3 19 4 20 7 21 5 22 6 23 75 24 76 25
REMARK SMILES IDX 77 26 78 27 21 28 22 29 23 30 24 31 25 32 26 34 27 35 28 36
REMARK SMILES IDX 74 37 29 38 73 39 30 40 31 41 32 42 67 43 33 44 72 45 66 46
REMARK SMILES IDX 68 47 34 48 71 49 65 50 64 51 35 53 57 54 42 55 56 56 43 57
REMARK SMILES IDX 46 58 55 59 69 60 44 61 45 62 54 64 70 65 47 66 36 67 37 68
REMARK SMILES IDX 41 69 38 70 40 71 39 72 58 73 59 74 63 75 60 76 62 77 61 78
REMARK SMILES IDX 48 79 49 80 53 81 50 82 52 83 51 84
REMARK H PARENT 17 7 9 13 12 15 24 33 68 52 46 63
REMARK Flexibility Score: inf
ROOT
ATOM      1  C   UNL A   1      32.781  30.172  27.135  1.00  0.00     0.002 C 
ENDROOT
BRANCH   1   2
ATOM      2  C   UNL A   1      32.753  28.635  27.192  1.00  0.00     0.021 C 
BRANCH   2   3
ATOM      3  C   UNL A   1      31.645  27.990  26.358  1.00  0.00     0.116 C 
BRANCH   3   4
ATOM      4  N   UNL A   1      31.242  26.729  26.940  1.00  0.00    -0.354 N 
ATOM      5  C   UNL A   1      30.783  25.722  26.130  1.00  0.00     0.255 C 
ATOM      6  O   UNL A   1      29.576  25.696  25.901  1.00  0.00    -0.272 OA
ATOM      7  H   UNL A   1      31.297  26.593  27.914  1.00  0.00     0.163 HD
BRANCH   5   8
ATOM      8  C   UNL A   1      31.829  24.777  25.471  1.00  0.00     0.213 C 
ATOM      9  C   UNL A   1      33.231  25.163  25.981  1.00  0.00     0.056 C 
BRANCH   8  10
ATOM     10  N   UNL A   1      31.785  24.953  23.984  1.00  0.00    -0.316 N 
ATOM     11  N   UNL A   1      33.276  23.463  22.810  1.00  0.00    -0.308 N 
ATOM     12  C   UNL A   1      32.387  24.467  22.892  1.00  0.00     0.320 C 
ATOM     13  H   UNL A   1      33.399  23.162  21.881  1.00  0.00     0.171 HD
ATOM     14  O   UNL A   1      31.987  24.937  21.819  1.00  0.00    -0.248 OA
ATOM     15  H   UNL A   1      31.112  25.628  23.737  1.00  0.00     0.166 HD
BRANCH  11  16
ATOM     16  C   UNL A   1      34.075  22.732  23.700  1.00  0.00     0.047 A 
ATOM     17  C   UNL A   1      32.538  20.683  23.487  1.00  0.00     0.046 C 
ATOM     18  C   UNL A   1      33.669  21.449  24.118  1.00  0.00    -0.027 A 
ATOM     19  C   UNL A   1      34.350  20.832  25.187  1.00  0.00     0.007 A 
ATOM     20  C   UNL A   1      35.444  21.449  25.792  1.00  0.00     0.021 A 
ATOM     21  C   UNL A   1      35.288  23.230  24.171  1.00  0.00     0.047 A 
ATOM     22  C   UNL A   1      35.939  22.624  25.247  1.00  0.00     0.043 A 
ATOM     23  Cl  UNL A   1      37.325  23.372  25.941  1.00  0.00    -0.084 Cl
ENDBRANCH  11  16
ENDBRANCH   8  10
BRANCH   8  24
ATOM     24  C   UNL A   1      31.282  23.434  26.022  1.00  0.00     0.420 C 
ATOM     25  F   UNL A   1      32.250  22.650  26.551  1.00  0.00    -0.168 F 
ATOM     26  F   UNL A   1      30.359  23.574  26.984  1.00  0.00    -0.168 F 
ATOM     27  F   UNL A   1      30.662  22.723  25.043  1.00  0.00    -0.168 F 
ENDBRANCH   8  24
ENDBRANCH   5   8
ENDBRANCH   3   4
ENDBRANCH   2   3
ENDBRANCH   1   2
BRANCH   1  28
ATOM     28  C   UNL A   1      31.617  30.829  26.386  1.00  0.00     0.002 C 
BRANCH  28  29
ATOM     29  C   UNL A   1      31.458  32.325  26.636  1.00  0.00     0.021 C 
BRANCH  29  30
ATOM     30  C   UNL A   1      32.681  32.980  27.255  1.00  0.00     0.116 C 
BRANCH  30  31
ATOM     31  N   UNL A   1      32.409  34.335  27.701  1.00  0.00    -0.352 N 
ATOM     32  C   UNL A   1      32.994  35.020  28.736  1.00  0.00     0.251 C 
ATOM     33  H   UNL A   1      31.719  34.823  27.197  1.00  0.00     0.163 HD
ATOM     34  O   UNL A   1      32.539  36.087  29.121  1.00  0.00    -0.269 OA
BRANCH  32  35
ATOM     35  C   UNL A   1      34.173  34.426  29.400  1.00  0.00     0.039 A 
ATOM     36  C   UNL A   1      33.986  33.675  30.560  1.00  0.00     0.014 A 
ATOM     37  C   UNL A   1      35.449  34.582  28.849  1.00  0.00     0.014 A 
ATOM     38  C   UNL A   1      35.079  33.036  31.144  1.00  0.00     0.010 A 
ATOM     39  C   UNL A   1      36.520  33.876  29.385  1.00  0.00     0.010 A 
ATOM     40  C   UNL A   1      36.349  33.108  30.546  1.00  0.00    -0.014 A 
BRANCH  40  41
ATOM     41  C   UNL A   1      37.511  32.396  31.131  1.00  0.00     0.031 A 
ATOM     42  C   UNL A   1      38.128  32.892  32.411  1.00  0.00     0.074 A 
ATOM     43  C   UNL A   1      38.041  31.340  30.484  1.00  0.00     0.049 A 
ATOM     44  N   UNL A   1      39.168  32.430  33.055  1.00  0.00    -0.248 NA
ATOM     45  C   UNL A   1      37.515  34.077  33.035  1.00  0.00     0.031 C 
ATOM     46  C   UNL A   1      37.564  30.795  29.210  1.00  0.00     0.029 A 
ATOM     47  N   UNL A   1      39.107  30.538  30.806  1.00  0.00    -0.354 N 
ATOM     48  C   UNL A   1      39.346  33.278  34.141  1.00  0.00     0.074 A 
ATOM     49  C   UNL A   1      38.337  34.309  34.046  1.00  0.00     0.031 C 
ATOM     50  C   UNL A   1      38.319  29.737  28.873  1.00  0.00     0.029 A 
ATOM     51  C   UNL A   1      39.356  29.552  29.883  1.00  0.00     0.049 A 
ATOM     52  H   UNL A   1      39.643  30.659  31.625  1.00  0.00     0.167 HD
ATOM     53  C   UNL A   1      40.259  33.195  35.137  1.00  0.00     0.031 A 
ATOM     54  C   UNL A   1      40.320  28.612  29.846  1.00  0.00     0.031 A 
ATOM     55  C   UNL A   1      41.244  32.154  35.243  1.00  0.00     0.049 A 
ATOM     56  C   UNL A   1      41.315  28.541  30.973  1.00  0.00     0.074 A 
ATOM     57  C   UNL A   1      42.159  31.937  36.259  1.00  0.00     0.029 A 
ATOM     58  N   UNL A   1      41.447  31.160  34.300  1.00  0.00    -0.354 N 
ATOM     59  N   UNL A   1      41.407  29.294  32.042  1.00  0.00    -0.248 NA
ATOM     60  C   UNL A   1      42.328  27.480  30.895  1.00  0.00     0.031 C 
ATOM     61  C   UNL A   1      42.957  30.848  35.900  1.00  0.00     0.029 A 
ATOM     62  C   UNL A   1      42.495  30.347  34.695  1.00  0.00     0.049 A 
ATOM     63  H   UNL A   1      40.924  31.049  33.473  1.00  0.00     0.167 HD
ATOM     64  C   UNL A   1      42.468  28.779  32.777  1.00  0.00     0.074 A 
ATOM     65  C   UNL A   1      42.972  27.637  32.043  1.00  0.00     0.031 C 
ATOM     66  C   UNL A   1      42.980  29.211  33.954  1.00  0.00     0.031 A 
BRANCH  53  67
ATOM     67  C   UNL A   1      40.245  34.264  36.194  1.00  0.00    -0.014 A 
ATOM     68  C   UNL A   1      40.990  35.444  36.051  1.00  0.00     0.009 A 
ATOM     69  C   UNL A   1      39.415  34.115  37.317  1.00  0.00     0.009 A 
ATOM     70  C   UNL A   1      40.921  36.445  37.024  1.00  0.00     0.001 A 
ATOM     71  C   UNL A   1      39.326  35.129  38.273  1.00  0.00     0.001 A 
ATOM     72  C   UNL A   1      40.084  36.289  38.129  1.00  0.00     0.000 A 
ENDBRANCH  53  67
BRANCH  54  73
ATOM     73  C   UNL A   1      40.402  27.662  28.704  1.00  0.00    -0.014 A 
ATOM     74  C   UNL A   1      41.129  27.987  27.548  1.00  0.00     0.009 A 
ATOM     75  C   UNL A   1      39.722  26.435  28.752  1.00  0.00     0.009 A 
ATOM     76  C   UNL A   1      41.138  27.124  26.450  1.00  0.00     0.001 A 
ATOM     77  C   UNL A   1      39.761  25.558  27.665  1.00  0.00     0.001 A 
ATOM     78  C   UNL A   1      40.456  25.910  26.511  1.00  0.00     0.000 A 
ENDBRANCH  54  73
BRANCH  66  79
ATOM     79  C   UNL A   1      44.115  28.424  34.544  1.00  0.00    -0.014 A 
ATOM     80  C   UNL A   1      45.453  28.757  34.280  1.00  0.00     0.009 A 
ATOM     81  C   UNL A   1      43.838  27.358  35.415  1.00  0.00     0.009 A 
ATOM     82  C   UNL A   1      46.490  28.016  34.850  1.00  0.00     0.001 A 
ATOM     83  C   UNL A   1      44.877  26.640  36.009  1.00  0.00     0.001 A 
ATOM     84  C   UNL A   1      46.201  26.963  35.718  1.00  0.00     0.000 A 
ENDBRANCH  66  79
ENDBRANCH  40  41
ENDBRANCH  32  35
ENDBRANCH  30  31
ENDBRANCH  29  30
ENDBRANCH  28  29
ENDBRANCH   1  28
TORSDOF 16
ENDMDL
