MODEL 1
REMARK VINA RESULT:     -10.0      0.000      0.000
REMARK SMILES CC[C@H](C)N(CC)c1cc(C)c(N)c(C(=O)NCCCCCCNC(=O)c2ccc(-c3c4nc(c(-c5ccccc5)c5ccc([nH]5)c(-c5ccccc5)c5nc(c(-c6ccccc6)c6ccc3[nH]6)C=C5)C=C4)cc2)c1
REMARK SMILES IDX 20 1 19 2 18 3 17 4 15 5 16 6 14 8 8 9 9 10 75 11 10 12
REMARK SMILES IDX 11 13 12 14 5 15 3 16 4 17 2 18 1 19 6 20 7 21 13 22 21 25
REMARK SMILES IDX 22 26 23 27 24 28 25 29 26 31 27 32 28 33 74 34 29 35 73 36
REMARK SMILES IDX 30 37 31 38 32 39 67 40 33 41 72 42 66 43 68 44 34 45 71 46
REMARK SMILES IDX 65 47 64 48 35 50 57 51 42 52 56 53 43 54 46 55 55 56 69 57
REMARK SMILES IDX 44 58 45 59 54 61 70 62 47 63 36 64 37 65 41 66 38 67 40 68
REMARK SMILES IDX 39 69 58 70 59 71 63 72 60 73 62 74 61 75 48 76 49 77 53 78
REMARK SMILES IDX 50 79 52 80 51 81
REMARK H PARENT 17 7 13 23 13 24 24 30 68 49 46 60
REMARK Flexibility Score: inf
ROOT
ATOM      1  C   UNL A   1      30.279  29.670  24.222  1.00  0.00     0.002 C 
ENDROOT
BRANCH   1   2
ATOM      2  C   UNL A   1      30.840  29.349  22.830  1.00  0.00     0.021 C 
BRANCH   2   3
ATOM      3  C   UNL A   1      30.465  27.941  22.363  1.00  0.00     0.116 C 
BRANCH   3   4
ATOM      4  N   UNL A   1      31.591  27.340  21.687  1.00  0.00    -0.352 N 
ATOM      5  C   UNL A   1      32.738  26.734  22.131  1.00  0.00     0.253 C 
ATOM      6  O   UNL A   1      33.539  26.408  21.247  1.00  0.00    -0.269 OA
ATOM      7  H   UNL A   1      31.520  27.371  20.706  1.00  0.00     0.163 HD
BRANCH   5   8
ATOM      8  C   UNL A   1      33.030  26.408  23.569  1.00  0.00     0.065 A 
ATOM      9  C   UNL A   1      33.089  24.822  25.452  1.00  0.00     0.038 A 
ATOM     10  C   UNL A   1      33.707  25.813  26.215  1.00  0.00     0.031 A 
ATOM     11  C   UNL A   1      32.704  25.171  24.151  1.00  0.00     0.042 A 
ATOM     12  C   UNL A   1      33.932  27.110  25.720  1.00  0.00    -0.025 A 
ATOM     13  C   UNL A   1      34.510  28.147  26.644  1.00  0.00     0.046 C 
ATOM     14  C   UNL A   1      33.611  27.415  24.384  1.00  0.00     0.047 A 
BRANCH   9  15
ATOM     15  N   UNL A   1      32.877  23.534  25.929  1.00  0.00    -0.369 N 
BRANCH  15  16
ATOM     16  C   UNL A   1      33.978  22.625  26.318  1.00  0.00     0.078 C 
ATOM     17  C   UNL A   1      33.778  22.017  27.706  1.00  0.00     0.031 C 
BRANCH  16  18
ATOM     18  C   UNL A   1      34.257  21.598  25.206  1.00  0.00     0.021 C 
ATOM     19  C   UNL A   1      35.737  21.389  24.924  1.00  0.00     0.006 C 
ENDBRANCH  16  18
ENDBRANCH  15  16
BRANCH  15  20
ATOM     20  C   UNL A   1      31.555  22.932  25.692  1.00  0.00     0.113 C 
ATOM     21  C   UNL A   1      30.479  23.551  26.573  1.00  0.00     0.027 C 
ENDBRANCH  15  20
ENDBRANCH   9  15
BRANCH  14  22
ATOM     22  N   UNL A   1      34.016  28.645  23.850  1.00  0.00    -0.398 N 
ATOM     23  H   UNL A   1      33.474  29.453  24.007  1.00  0.00     0.156 HD
ATOM     24  H   UNL A   1      34.842  28.703  23.319  1.00  0.00     0.156 HD
ENDBRANCH  14  22
ENDBRANCH   5   8
ENDBRANCH   3   4
ENDBRANCH   2   3
ENDBRANCH   1   2
BRANCH   1  25
ATOM     25  C   UNL A   1      31.344  30.071  25.252  1.00  0.00     0.002 C 
BRANCH  25  26
ATOM     26  C   UNL A   1      31.107  31.427  25.920  1.00  0.00     0.021 C 
BRANCH  26  27
ATOM     27  C   UNL A   1      32.203  31.833  26.900  1.00  0.00     0.116 C 
BRANCH  27  28
ATOM     28  N   UNL A   1      32.130  33.248  27.224  1.00  0.00    -0.352 N 
ATOM     29  C   UNL A   1      32.917  33.989  28.065  1.00  0.00     0.251 C 
ATOM     30  H   UNL A   1      31.410  33.748  26.773  1.00  0.00     0.163 HD
ATOM     31  O   UNL A   1      32.566  35.108  28.422  1.00  0.00    -0.269 OA
BRANCH  29  32
ATOM     32  C   UNL A   1      34.196  33.429  28.547  1.00  0.00     0.039 A 
ATOM     33  C   UNL A   1      35.377  33.767  27.885  1.00  0.00     0.014 A 
ATOM     34  C   UNL A   1      34.220  32.555  29.638  1.00  0.00     0.014 A 
ATOM     35  C   UNL A   1      36.594  33.265  28.347  1.00  0.00     0.010 A 
ATOM     36  C   UNL A   1      35.439  32.116  30.143  1.00  0.00     0.010 A 
ATOM     37  C   UNL A   1      36.636  32.458  29.497  1.00  0.00    -0.014 A 
BRANCH  37  38
ATOM     38  C   UNL A   1      37.923  31.953  30.031  1.00  0.00     0.031 A 
ATOM     39  C   UNL A   1      38.495  30.658  29.525  1.00  0.00     0.074 A 
ATOM     40  C   UNL A   1      38.545  32.630  31.015  1.00  0.00     0.049 A 
ATOM     41  N   UNL A   1      39.576  30.027  29.909  1.00  0.00    -0.248 NA
ATOM     42  C   UNL A   1      37.738  29.967  28.469  1.00  0.00     0.031 C 
ATOM     43  C   UNL A   1      38.068  33.876  31.619  1.00  0.00     0.029 A 
ATOM     44  N   UNL A   1      39.710  32.358  31.686  1.00  0.00    -0.354 N 
ATOM     45  C   UNL A   1      39.623  28.865  29.151  1.00  0.00     0.074 A 
ATOM     46  C   UNL A   1      38.433  28.848  28.328  1.00  0.00     0.031 C 
ATOM     47  C   UNL A   1      38.947  34.273  32.554  1.00  0.00     0.029 A 
ATOM     48  C   UNL A   1      40.023  33.292  32.643  1.00  0.00     0.049 A 
ATOM     49  H   UNL A   1      40.269  31.570  31.498  1.00  0.00     0.167 HD
ATOM     50  C   UNL A   1      40.580  27.908  29.122  1.00  0.00     0.031 A 
ATOM     51  C   UNL A   1      41.056  33.346  33.504  1.00  0.00     0.031 A 
ATOM     52  C   UNL A   1      41.763  27.926  29.942  1.00  0.00     0.049 A 
ATOM     53  C   UNL A   1      42.098  32.265  33.468  1.00  0.00     0.074 A 
ATOM     54  C   UNL A   1      42.814  27.028  29.959  1.00  0.00     0.029 A 
ATOM     55  N   UNL A   1      42.047  28.894  30.894  1.00  0.00    -0.354 N 
ATOM     56  N   UNL A   1      42.160  31.204  32.701  1.00  0.00    -0.248 NA
ATOM     57  C   UNL A   1      43.219  32.396  34.409  1.00  0.00     0.031 C 
ATOM     58  C   UNL A   1      43.710  27.423  30.958  1.00  0.00     0.029 A 
ATOM     59  C   UNL A   1      43.247  28.602  31.520  1.00  0.00     0.049 A 
ATOM     60  H   UNL A   1      41.480  29.674  31.094  1.00  0.00     0.167 HD
ATOM     61  C   UNL A   1      43.339  30.554  33.047  1.00  0.00     0.074 A 
ATOM     62  C   UNL A   1      43.967  31.352  34.080  1.00  0.00     0.031 C 
ATOM     63  C   UNL A   1      43.855  29.403  32.553  1.00  0.00     0.031 A 
BRANCH  50  64
ATOM     64  C   UNL A   1      40.377  26.758  28.175  1.00  0.00    -0.014 A 
ATOM     65  C   UNL A   1      39.637  25.626  28.554  1.00  0.00     0.009 A 
ATOM     66  C   UNL A   1      40.915  26.812  26.880  1.00  0.00     0.009 A 
ATOM     67  C   UNL A   1      39.479  24.554  27.673  1.00  0.00     0.001 A 
ATOM     68  C   UNL A   1      40.728  25.753  25.989  1.00  0.00     0.001 A 
ATOM     69  C   UNL A   1      40.021  24.621  26.390  1.00  0.00     0.000 A 
ENDBRANCH  50  64
BRANCH  51  70
ATOM     70  C   UNL A   1      41.159  34.476  34.464  1.00  0.00    -0.014 A 
ATOM     71  C   UNL A   1      41.894  35.625  34.140  1.00  0.00     0.009 A 
ATOM     72  C   UNL A   1      40.513  34.413  35.709  1.00  0.00     0.009 A 
ATOM     73  C   UNL A   1      42.001  36.679  35.051  1.00  0.00     0.001 A 
ATOM     74  C   UNL A   1      40.597  35.479  36.607  1.00  0.00     0.001 A 
ATOM     75  C   UNL A   1      41.348  36.607  36.280  1.00  0.00     0.000 A 
ENDBRANCH  51  70
BRANCH  63  76
ATOM     76  C   UNL A   1      45.179  28.952  33.102  1.00  0.00    -0.014 A 
ATOM     77  C   UNL A   1      46.389  29.380  32.533  1.00  0.00     0.009 A 
ATOM     78  C   UNL A   1      45.214  28.118  34.230  1.00  0.00     0.009 A 
ATOM     79  C   UNL A   1      47.607  28.952  33.065  1.00  0.00     0.001 A 
ATOM     80  C   UNL A   1      46.433  27.718  34.778  1.00  0.00     0.001 A 
ATOM     81  C   UNL A   1      47.629  28.126  34.189  1.00  0.00     0.000 A 
ENDBRANCH  63  76
ENDBRANCH  37  38
ENDBRANCH  29  32
ENDBRANCH  27  28
ENDBRANCH  26  27
ENDBRANCH  25  26
ENDBRANCH   1  25
TORSDOF 18
ENDMDL
MODEL 2
REMARK VINA RESULT:     -10.0      2.737      7.258
REMARK SMILES CC[C@H](C)N(CC)c1cc(C)c(N)c(C(=O)NCCCCCCNC(=O)c2ccc(-c3c4nc(c(-c5ccccc5)c5ccc([nH]5)c(-c5ccccc5)c5nc(c(-c6ccccc6)c6ccc3[nH]6)C=C5)C=C4)cc2)c1
REMARK SMILES IDX 20 1 19 2 18 3 17 4 15 5 16 6 14 8 8 9 9 10 75 11 10 12
REMARK SMILES IDX 11 13 12 14 5 15 3 16 4 17 2 18 1 19 6 20 7 21 13 22 21 25
REMARK SMILES IDX 22 26 23 27 24 28 25 29 26 31 27 32 28 33 74 34 29 35 73 36
REMARK SMILES IDX 30 37 31 38 32 39 67 40 33 41 72 42 66 43 68 44 34 45 71 46
REMARK SMILES IDX 65 47 64 48 35 50 57 51 42 52 56 53 43 54 46 55 55 56 69 57
REMARK SMILES IDX 44 58 45 59 54 61 70 62 47 63 36 64 37 65 41 66 38 67 40 68
REMARK SMILES IDX 39 69 58 70 59 71 63 72 60 73 62 74 61 75 48 76 49 77 53 78
REMARK SMILES IDX 50 79 52 80 51 81
REMARK H PARENT 17 7 13 23 13 24 24 30 68 49 46 60
REMARK Flexibility Score: inf
ROOT
ATOM      1  C   UNL A   1      31.964  27.002  24.754  1.00  0.00     0.002 C 
ENDROOT
BRANCH   1   2
ATOM      2  C   UNL A   1      32.565  26.248  23.560  1.00  0.00     0.021 C 
BRANCH   2   3
ATOM      3  C   UNL A   1      31.551  25.316  22.892  1.00  0.00     0.116 C 
BRANCH   3   4
ATOM      4  N   UNL A   1      32.145  24.716  21.720  1.00  0.00    -0.352 N 
ATOM      5  C   UNL A   1      32.924  23.604  21.527  1.00  0.00     0.253 C 
ATOM      6  O   UNL A   1      33.333  23.441  20.372  1.00  0.00    -0.269 OA
ATOM      7  H   UNL A   1      31.951  25.206  20.889  1.00  0.00     0.163 HD
BRANCH   5   8
ATOM      8  C   UNL A   1      33.241  22.588  22.589  1.00  0.00     0.065 A 
ATOM      9  C   UNL A   1      34.424  21.908  24.639  1.00  0.00     0.038 A 
ATOM     10  C   UNL A   1      33.703  20.715  24.611  1.00  0.00     0.031 A 
ATOM     11  C   UNL A   1      34.218  22.799  23.577  1.00  0.00     0.042 A 
ATOM     12  C   UNL A   1      32.813  20.400  23.570  1.00  0.00    -0.025 A 
ATOM     13  C   UNL A   1      32.153  19.047  23.565  1.00  0.00     0.046 C 
ATOM     14  C   UNL A   1      32.560  21.343  22.555  1.00  0.00     0.047 A 
BRANCH   9  15
ATOM     15  N   UNL A   1      35.294  22.234  25.673  1.00  0.00    -0.369 N 
BRANCH  15  16
ATOM     16  C   UNL A   1      34.942  23.176  26.758  1.00  0.00     0.078 C 
ATOM     17  C   UNL A   1      34.364  24.490  26.234  1.00  0.00     0.031 C 
BRANCH  16  18
ATOM     18  C   UNL A   1      34.080  22.481  27.826  1.00  0.00     0.021 C 
ATOM     19  C   UNL A   1      32.584  22.668  27.623  1.00  0.00     0.006 C 
ENDBRANCH  16  18
ENDBRANCH  15  16
BRANCH  15  20
ATOM     20  C   UNL A   1      36.720  21.923  25.483  1.00  0.00     0.113 C 
ATOM     21  C   UNL A   1      37.610  23.124  25.770  1.00  0.00     0.027 C 
ENDBRANCH  15  20
ENDBRANCH   9  15
BRANCH  14  22
ATOM     22  N   UNL A   1      31.533  21.095  21.636  1.00  0.00    -0.398 N 
ATOM     23  H   UNL A   1      30.934  20.323  21.762  1.00  0.00     0.156 HD
ATOM     24  H   UNL A   1      31.408  21.693  20.864  1.00  0.00     0.156 HD
ENDBRANCH  14  22
ENDBRANCH   5   8
ENDBRANCH   3   4
ENDBRANCH   2   3
ENDBRANCH   1   2
BRANCH   1  25
ATOM     25  C   UNL A   1      32.546  28.406  24.968  1.00  0.00     0.002 C 
BRANCH  25  26
ATOM     26  C   UNL A   1      33.842  28.444  25.780  1.00  0.00     0.021 C 
BRANCH  26  27
ATOM     27  C   UNL A   1      33.629  28.641  27.276  1.00  0.00     0.116 C 
BRANCH  27  28
ATOM     28  N   UNL A   1      33.609  30.052  27.629  1.00  0.00    -0.352 N 
ATOM     29  C   UNL A   1      34.543  30.792  28.304  1.00  0.00     0.251 C 
ATOM     30  H   UNL A   1      32.808  30.547  27.341  1.00  0.00     0.163 HD
ATOM     31  O   UNL A   1      34.260  31.902  28.742  1.00  0.00    -0.269 OA
BRANCH  29  32
ATOM     32  C   UNL A   1      35.899  30.243  28.508  1.00  0.00     0.039 A 
ATOM     33  C   UNL A   1      36.800  30.248  27.443  1.00  0.00     0.014 A 
ATOM     34  C   UNL A   1      36.266  29.705  29.745  1.00  0.00     0.014 A 
ATOM     35  C   UNL A   1      38.092  29.755  27.632  1.00  0.00     0.010 A 
ATOM     36  C   UNL A   1      37.576  29.284  29.953  1.00  0.00     0.010 A 
ATOM     37  C   UNL A   1      38.497  29.295  28.896  1.00  0.00    -0.014 A 
BRANCH  37  38
ATOM     38  C   UNL A   1      39.879  28.812  29.129  1.00  0.00     0.031 A 
ATOM     39  C   UNL A   1      40.908  29.728  29.730  1.00  0.00     0.074 A 
ATOM     40  C   UNL A   1      40.222  27.568  28.743  1.00  0.00     0.049 A 
ATOM     41  N   UNL A   1      42.178  29.506  29.957  1.00  0.00    -0.248 NA
ATOM     42  C   UNL A   1      40.458  31.080  30.099  1.00  0.00     0.031 C 
ATOM     43  C   UNL A   1      39.324  26.600  28.109  1.00  0.00     0.029 A 
ATOM     44  N   UNL A   1      41.422  26.910  28.819  1.00  0.00    -0.354 N 
ATOM     45  C   UNL A   1      42.678  30.690  30.484  1.00  0.00     0.074 A 
ATOM     46  C   UNL A   1      41.591  31.644  30.488  1.00  0.00     0.031 C 
ATOM     47  C   UNL A   1      40.000  25.463  27.877  1.00  0.00     0.029 A 
ATOM     48  C   UNL A   1      41.383  25.636  28.307  1.00  0.00     0.049 A 
ATOM     49  H   UNL A   1      42.234  27.312  29.205  1.00  0.00     0.167 HD
ATOM     50  C   UNL A   1      43.924  30.954  30.946  1.00  0.00     0.031 A 
ATOM     51  C   UNL A   1      42.357  24.714  28.188  1.00  0.00     0.031 A 
ATOM     52  C   UNL A   1      45.004  30.003  30.941  1.00  0.00     0.049 A 
ATOM     53  C   UNL A   1      43.736  25.034  28.690  1.00  0.00     0.074 A 
ATOM     54  C   UNL A   1      46.291  30.157  31.424  1.00  0.00     0.029 A 
ATOM     55  N   UNL A   1      44.922  28.720  30.421  1.00  0.00    -0.354 N 
ATOM     56  N   UNL A   1      44.177  26.137  29.244  1.00  0.00    -0.248 NA
ATOM     57  C   UNL A   1      44.747  23.976  28.563  1.00  0.00     0.031 C 
ATOM     58  C   UNL A   1      47.003  28.985  31.150  1.00  0.00     0.029 A 
ATOM     59  C   UNL A   1      46.142  28.079  30.552  1.00  0.00     0.049 A 
ATOM     60  H   UNL A   1      44.115  28.323  30.019  1.00  0.00     0.167 HD
ATOM     61  C   UNL A   1      45.510  25.898  29.554  1.00  0.00     0.074 A 
ATOM     62  C   UNL A   1      45.797  24.539  29.143  1.00  0.00     0.031 C 
ATOM     63  C   UNL A   1      46.413  26.728  30.130  1.00  0.00     0.031 A 
BRANCH  50  64
ATOM     64  C   UNL A   1      44.179  32.334  31.488  1.00  0.00    -0.014 A 
ATOM     65  C   UNL A   1      44.622  33.372  30.654  1.00  0.00     0.009 A 
ATOM     66  C   UNL A   1      43.957  32.604  32.848  1.00  0.00     0.009 A 
ATOM     67  C   UNL A   1      44.880  34.641  31.177  1.00  0.00     0.001 A 
ATOM     68  C   UNL A   1      44.185  33.882  33.361  1.00  0.00     0.001 A 
ATOM     69  C   UNL A   1      44.657  34.896  32.529  1.00  0.00     0.000 A 
ENDBRANCH  50  64
BRANCH  51  70
ATOM     70  C   UNL A   1      42.053  23.394  27.576  1.00  0.00    -0.014 A 
ATOM     71  C   UNL A   1      42.402  23.127  26.244  1.00  0.00     0.009 A 
ATOM     72  C   UNL A   1      41.419  22.390  28.326  1.00  0.00     0.009 A 
ATOM     73  C   UNL A   1      42.101  21.890  25.668  1.00  0.00     0.001 A 
ATOM     74  C   UNL A   1      41.146  21.145  27.757  1.00  0.00     0.001 A 
ATOM     75  C   UNL A   1      41.479  20.900  26.426  1.00  0.00     0.000 A 
ENDBRANCH  51  70
BRANCH  63  76
ATOM     76  C   UNL A   1      47.790  26.179  30.377  1.00  0.00    -0.014 A 
ATOM     77  C   UNL A   1      48.758  26.149  29.360  1.00  0.00     0.009 A 
ATOM     78  C   UNL A   1      48.136  25.722  31.658  1.00  0.00     0.009 A 
ATOM     79  C   UNL A   1      50.032  25.639  29.615  1.00  0.00     0.001 A 
ATOM     80  C   UNL A   1      49.420  25.243  31.917  1.00  0.00     0.001 A 
ATOM     81  C   UNL A   1      50.364  25.191  30.893  1.00  0.00     0.000 A 
ENDBRANCH  63  76
ENDBRANCH  37  38
ENDBRANCH  29  32
ENDBRANCH  27  28
ENDBRANCH  26  27
ENDBRANCH  25  26
ENDBRANCH   1  25
TORSDOF 18
ENDMDL
MODEL 3
REMARK VINA RESULT:      -9.9      4.429      9.482
REMARK SMILES CC[C@H](C)N(CC)c1cc(C)c(N)c(C(=O)NCCCCCCNC(=O)c2ccc(-c3c4nc(c(-c5ccccc5)c5ccc([nH]5)c(-c5ccccc5)c5nc(c(-c6ccccc6)c6ccc3[nH]6)C=C5)C=C4)cc2)c1
REMARK SMILES IDX 20 1 19 2 18 3 17 4 15 5 16 6 14 8 8 9 9 10 75 11 10 12
REMARK SMILES IDX 11 13 12 14 5 15 3 16 4 17 2 18 1 19 6 20 7 21 13 22 21 25
REMARK SMILES IDX 22 26 23 27 24 28 25 29 26 31 27 32 28 33 74 34 29 35 73 36
REMARK SMILES IDX 30 37 31 38 32 39 67 40 33 41 72 42 66 43 68 44 34 45 71 46
REMARK SMILES IDX 65 47 64 48 35 50 57 51 42 52 56 53 43 54 46 55 55 56 69 57
REMARK SMILES IDX 44 58 45 59 54 61 70 62 47 63 36 64 37 65 41 66 38 67 40 68
REMARK SMILES IDX 39 69 58 70 59 71 63 72 60 73 62 74 61 75 48 76 49 77 53 78
REMARK SMILES IDX 50 79 52 80 51 81
REMARK H PARENT 17 7 13 23 13 24 24 30 68 49 46 60
REMARK Flexibility Score: inf
ROOT
ATOM      1  C   UNL A   1      37.688  21.858  25.097  1.00  0.00     0.002 C 
ENDROOT
BRANCH   1   2
ATOM      2  C   UNL A   1      36.722  22.973  24.671  1.00  0.00     0.021 C 
BRANCH   2   3
ATOM      3  C   UNL A   1      36.167  23.749  25.866  1.00  0.00     0.116 C 
BRANCH   3   4
ATOM      4  N   UNL A   1      35.523  22.834  26.780  1.00  0.00    -0.352 N 
ATOM      5  C   UNL A   1      34.382  22.079  26.705  1.00  0.00     0.253 C 
ATOM      6  O   UNL A   1      34.085  21.467  27.736  1.00  0.00    -0.269 OA
ATOM      7  H   UNL A   1      36.004  22.732  27.633  1.00  0.00     0.163 HD
BRANCH   5   8
ATOM      8  C   UNL A   1      33.543  21.920  25.467  1.00  0.00     0.065 A 
ATOM      9  C   UNL A   1      32.220  22.872  23.621  1.00  0.00     0.038 A 
ATOM     10  C   UNL A   1      32.098  21.585  23.098  1.00  0.00     0.031 A 
ATOM     11  C   UNL A   1      32.895  23.000  24.843  1.00  0.00     0.042 A 
ATOM     12  C   UNL A   1      32.613  20.456  23.757  1.00  0.00    -0.025 A 
ATOM     13  C   UNL A   1      32.347  19.093  23.176  1.00  0.00     0.046 C 
ATOM     14  C   UNL A   1      33.357  20.615  24.942  1.00  0.00     0.047 A 
BRANCH   9  15
ATOM     15  N   UNL A   1      31.726  23.996  22.968  1.00  0.00    -0.369 N 
BRANCH  15  16
ATOM     16  C   UNL A   1      32.577  24.901  22.164  1.00  0.00     0.078 C 
ATOM     17  C   UNL A   1      31.804  26.097  21.607  1.00  0.00     0.031 C 
BRANCH  16  18
ATOM     18  C   UNL A   1      33.858  25.272  22.931  1.00  0.00     0.021 C 
ATOM     19  C   UNL A   1      33.717  26.516  23.795  1.00  0.00     0.006 C 
ENDBRANCH  16  18
ENDBRANCH  15  16
BRANCH  15  20
ATOM     20  C   UNL A   1      30.410  24.501  23.388  1.00  0.00     0.113 C 
ATOM     21  C   UNL A   1      30.456  25.144  24.767  1.00  0.00     0.027 C 
ENDBRANCH  15  20
ENDBRANCH   9  15
BRANCH  14  22
ATOM     22  N   UNL A   1      34.025  19.508  25.480  1.00  0.00    -0.398 N 
ATOM     23  H   UNL A   1      33.848  18.606  25.127  1.00  0.00     0.156 HD
ATOM     24  H   UNL A   1      34.673  19.630  26.211  1.00  0.00     0.156 HD
ENDBRANCH  14  22
ENDBRANCH   5   8
ENDBRANCH   3   4
ENDBRANCH   2   3
ENDBRANCH   1   2
BRANCH   1  25
ATOM     25  C   UNL A   1      37.291  20.460  24.605  1.00  0.00     0.002 C 
BRANCH  25  26
ATOM     26  C   UNL A   1      38.275  19.349  24.978  1.00  0.00     0.021 C 
BRANCH  26  27
ATOM     27  C   UNL A   1      39.287  19.752  26.043  1.00  0.00     0.116 C 
BRANCH  27  28
ATOM     28  N   UNL A   1      40.469  18.905  26.002  1.00  0.00    -0.352 N 
ATOM     29  C   UNL A   1      41.792  19.259  26.028  1.00  0.00     0.251 C 
ATOM     30  H   UNL A   1      40.293  17.938  25.948  1.00  0.00     0.163 HD
ATOM     31  O   UNL A   1      42.659  18.445  25.728  1.00  0.00    -0.269 OA
BRANCH  29  32
ATOM     32  C   UNL A   1      42.172  20.632  26.415  1.00  0.00     0.039 A 
ATOM     33  C   UNL A   1      42.263  20.954  27.770  1.00  0.00     0.014 A 
ATOM     34  C   UNL A   1      42.415  21.602  25.439  1.00  0.00     0.014 A 
ATOM     35  C   UNL A   1      42.647  22.241  28.147  1.00  0.00     0.010 A 
ATOM     36  C   UNL A   1      42.869  22.862  25.814  1.00  0.00     0.010 A 
ATOM     37  C   UNL A   1      42.979  23.196  27.172  1.00  0.00    -0.014 A 
BRANCH  37  38
ATOM     38  C   UNL A   1      43.434  24.555  27.553  1.00  0.00     0.031 A 
ATOM     39  C   UNL A   1      42.431  25.603  27.948  1.00  0.00     0.074 A 
ATOM     40  C   UNL A   1      44.743  24.860  27.486  1.00  0.00     0.049 A 
ATOM     41  N   UNL A   1      42.630  26.860  28.258  1.00  0.00    -0.248 NA
ATOM     42  C   UNL A   1      41.018  25.195  27.970  1.00  0.00     0.031 C 
ATOM     43  C   UNL A   1      45.808  23.942  27.076  1.00  0.00     0.029 A 
ATOM     44  N   UNL A   1      45.399  26.035  27.751  1.00  0.00    -0.354 N 
ATOM     45  C   UNL A   1      41.370  27.391  28.501  1.00  0.00     0.074 A 
ATOM     46  C   UNL A   1      40.410  26.339  28.245  1.00  0.00     0.031 C 
ATOM     47  C   UNL A   1      46.987  24.581  27.142  1.00  0.00     0.029 A 
ATOM     48  C   UNL A   1      46.757  25.961  27.558  1.00  0.00     0.049 A 
ATOM     49  H   UNL A   1      44.942  26.852  28.054  1.00  0.00     0.167 HD
ATOM     50  C   UNL A   1      41.041  28.635  28.922  1.00  0.00     0.031 A 
ATOM     51  C   UNL A   1      47.710  26.902  27.691  1.00  0.00     0.031 A 
ATOM     52  C   UNL A   1      41.997  29.680  29.176  1.00  0.00     0.049 A 
ATOM     53  C   UNL A   1      47.321  28.282  28.142  1.00  0.00     0.074 A 
ATOM     54  C   UNL A   1      41.770  30.961  29.645  1.00  0.00     0.029 A 
ATOM     55  N   UNL A   1      43.364  29.563  28.975  1.00  0.00    -0.354 N 
ATOM     56  N   UNL A   1      46.130  28.750  28.429  1.00  0.00    -0.248 NA
ATOM     57  C   UNL A   1      48.408  29.256  28.300  1.00  0.00     0.031 C 
ATOM     58  C   UNL A   1      42.994  31.636  29.680  1.00  0.00     0.029 A 
ATOM     59  C   UNL A   1      43.991  30.756  29.291  1.00  0.00     0.049 A 
ATOM     60  H   UNL A   1      43.821  28.751  28.657  1.00  0.00     0.167 HD
ATOM     61  C   UNL A   1      46.328  30.067  28.826  1.00  0.00     0.074 A 
ATOM     62  C   UNL A   1      47.754  30.314  28.760  1.00  0.00     0.031 C 
ATOM     63  C   UNL A   1      45.411  30.988  29.212  1.00  0.00     0.031 A 
BRANCH  50  64
ATOM     64  C   UNL A   1      39.579  28.928  29.126  1.00  0.00    -0.014 A 
ATOM     65  C   UNL A   1      38.957  28.699  30.364  1.00  0.00     0.009 A 
ATOM     66  C   UNL A   1      38.817  29.459  28.074  1.00  0.00     0.009 A 
ATOM     67  C   UNL A   1      37.594  28.951  30.531  1.00  0.00     0.001 A 
ATOM     68  C   UNL A   1      37.462  29.740  28.252  1.00  0.00     0.001 A 
ATOM     69  C   UNL A   1      36.849  29.476  29.476  1.00  0.00     0.000 A 
ENDBRANCH  50  64
BRANCH  51  70
ATOM     70  C   UNL A   1      49.128  26.564  27.404  1.00  0.00    -0.014 A 
ATOM     71  C   UNL A   1      49.975  26.105  28.424  1.00  0.00     0.009 A 
ATOM     72  C   UNL A   1      49.641  26.690  26.102  1.00  0.00     0.009 A 
ATOM     73  C   UNL A   1      51.311  25.803  28.153  1.00  0.00     0.001 A 
ATOM     74  C   UNL A   1      50.969  26.358  25.828  1.00  0.00     0.001 A 
ATOM     75  C   UNL A   1      51.805  25.924  26.855  1.00  0.00     0.000 A 
ENDBRANCH  51  70
BRANCH  63  76
ATOM     76  C   UNL A   1      45.926  32.338  29.623  1.00  0.00    -0.014 A 
ATOM     77  C   UNL A   1      46.353  32.589  30.937  1.00  0.00     0.009 A 
ATOM     78  C   UNL A   1      46.021  33.364  28.669  1.00  0.00     0.009 A 
ATOM     79  C   UNL A   1      46.832  33.851  31.293  1.00  0.00     0.001 A 
ATOM     80  C   UNL A   1      46.530  34.614  29.022  1.00  0.00     0.001 A 
ATOM     81  C   UNL A   1      46.925  34.860  30.335  1.00  0.00     0.000 A 
ENDBRANCH  63  76
ENDBRANCH  37  38
ENDBRANCH  29  32
ENDBRANCH  27  28
ENDBRANCH  26  27
ENDBRANCH  25  26
ENDBRANCH   1  25
TORSDOF 18
ENDMDL
