MODEL 1
REMARK VINA RESULT:     -10.5      0.000      0.000
REMARK SMILES Cn1cc(/C=C/C(=O)N(CC(=O)NCCCCCCNC(=O)c2ccc(-c3c4nc(c(-c5ccccc5)c5ccc([nH]5)c(-c5ccccc5)c5nc(c(-c6ccccc6)c6ccc3[nH]6)C=C5)C=C4)cc2)C(C)(C)C)cn1
REMARK SMILES IDX 15 1 14 2 13 3 11 4 12 5 10 7 9 8 7 9 8 10 6 11 5 12 4 13
REMARK SMILES IDX 1 14 2 15 3 16 76 17 75 18 71 19 72 20 73 21 74 22 16 23
REMARK SMILES IDX 17 24 18 25 19 26 20 27 21 28 22 30 23 31 24 32 70 33 25 34
REMARK SMILES IDX 69 35 26 36 27 37 28 38 63 39 29 40 68 41 62 42 64 43 30 44
REMARK SMILES IDX 67 45 61 46 60 47 31 49 53 50 38 51 52 52 39 53 42 54 51 55
REMARK SMILES IDX 65 56 40 57 41 58 50 60 66 61 43 62 32 63 33 64 37 65 34 66
REMARK SMILES IDX 36 67 35 68 54 69 55 70 59 71 56 72 58 73 57 74 44 75 45 76
REMARK SMILES IDX 49 77 46 78 48 79 47 80
REMARK H PARENT 13 6 20 29 64 48 42 59
REMARK Flexibility Score: inf
ROOT
ATOM      1  C   UNL A   1      31.623  26.561  24.896  1.00  0.00     0.021 C 
ENDROOT
BRANCH   1   2
ATOM      2  C   UNL A   1      30.407  25.870  25.495  1.00  0.00     0.116 C 
BRANCH   2   3
ATOM      3  N   UNL A   1      30.729  24.899  26.521  1.00  0.00    -0.355 N 
ATOM      4  C   UNL A   1      31.405  23.719  26.492  1.00  0.00     0.239 C 
ATOM      5  O   UNL A   1      31.720  23.250  27.594  1.00  0.00    -0.273 OA
ATOM      6  H   UNL A   1      30.391  25.140  27.414  1.00  0.00     0.163 HD
BRANCH   4   7
ATOM      7  C   UNL A   1      31.932  23.040  25.209  1.00  0.00     0.220 C 
BRANCH   7   8
ATOM      8  N   UNL A   1      33.373  22.792  25.088  1.00  0.00    -0.325 N 
BRANCH   8   9
ATOM      9  C   UNL A   1      34.067  21.832  25.832  1.00  0.00     0.247 C 
ATOM     10  O   UNL A   1      34.737  22.136  26.824  1.00  0.00    -0.270 OA
BRANCH   9  11
ATOM     11  C   UNL A   1      34.098  20.354  25.517  1.00  0.00     0.072 C 
ATOM     12  C   UNL A   1      33.430  19.613  24.618  1.00  0.00     0.017 C 
BRANCH  12  13
ATOM     13  C   UNL A   1      33.435  18.196  24.486  1.00  0.00     0.013 A 
ATOM     14  C   UNL A   1      32.500  14.873  25.495  1.00  0.00     0.173 C 
ATOM     15  N   UNL A   1      33.005  16.092  24.911  1.00  0.00    -0.275 N 
ATOM     16  C   UNL A   1      32.661  17.363  25.262  1.00  0.00     0.116 A 
ATOM     17  N   UNL A   1      33.944  16.040  23.947  1.00  0.00    -0.181 NA
ATOM     18  C   UNL A   1      34.202  17.327  23.685  1.00  0.00     0.143 A 
ENDBRANCH  12  13
ENDBRANCH   9  11
ENDBRANCH   8   9
BRANCH   8  19
ATOM     19  C   UNL A   1      34.125  23.589  24.022  1.00  0.00     0.035 C 
ATOM     20  C   UNL A   1      33.216  23.976  22.839  1.00  0.00     0.034 C 
ATOM     21  C   UNL A   1      34.739  24.868  24.638  1.00  0.00     0.034 C 
ATOM     22  C   UNL A   1      35.321  22.828  23.378  1.00  0.00     0.034 C 
ENDBRANCH   8  19
ENDBRANCH   7   8
ENDBRANCH   4   7
ENDBRANCH   2   3
ENDBRANCH   1   2
BRANCH   1  23
ATOM     23  C   UNL A   1      31.601  28.083  24.994  1.00  0.00     0.002 C 
BRANCH  23  24
ATOM     24  C   UNL A   1      32.978  28.741  24.904  1.00  0.00     0.002 C 
BRANCH  24  25
ATOM     25  C   UNL A   1      33.980  28.287  25.969  1.00  0.00     0.021 C 
BRANCH  25  26
ATOM     26  C   UNL A   1      33.554  28.576  27.404  1.00  0.00     0.116 C 
BRANCH  26  27
ATOM     27  N   UNL A   1      33.535  30.002  27.688  1.00  0.00    -0.352 N 
ATOM     28  C   UNL A   1      34.497  30.778  28.281  1.00  0.00     0.251 C 
ATOM     29  H   UNL A   1      32.715  30.476  27.418  1.00  0.00     0.163 HD
ATOM     30  O   UNL A   1      34.240  31.918  28.646  1.00  0.00    -0.269 OA
BRANCH  28  31
ATOM     31  C   UNL A   1      35.850  30.221  28.489  1.00  0.00     0.039 A 
ATOM     32  C   UNL A   1      36.747  30.203  27.420  1.00  0.00     0.014 A 
ATOM     33  C   UNL A   1      36.227  29.719  29.739  1.00  0.00     0.014 A 
ATOM     34  C   UNL A   1      38.045  29.726  27.618  1.00  0.00     0.010 A 
ATOM     35  C   UNL A   1      37.542  29.319  29.953  1.00  0.00     0.010 A 
ATOM     36  C   UNL A   1      38.461  29.308  28.894  1.00  0.00    -0.014 A 
BRANCH  36  37
ATOM     37  C   UNL A   1      39.851  28.846  29.132  1.00  0.00     0.031 A 
ATOM     38  C   UNL A   1      40.859  29.773  29.755  1.00  0.00     0.074 A 
ATOM     39  C   UNL A   1      40.220  27.610  28.741  1.00  0.00     0.049 A 
ATOM     40  N   UNL A   1      42.126  29.564  30.008  1.00  0.00    -0.248 NA
ATOM     41  C   UNL A   1      40.387  31.118  30.122  1.00  0.00     0.031 C 
ATOM     42  C   UNL A   1      39.347  26.630  28.092  1.00  0.00     0.029 A 
ATOM     43  N   UNL A   1      41.431  26.970  28.832  1.00  0.00    -0.354 N 
ATOM     44  C   UNL A   1      42.603  30.752  30.546  1.00  0.00     0.074 A 
ATOM     45  C   UNL A   1      41.507  31.694  30.532  1.00  0.00     0.031 C 
ATOM     46  C   UNL A   1      40.042  25.501  27.873  1.00  0.00     0.029 A 
ATOM     47  C   UNL A   1      41.417  25.694  28.324  1.00  0.00     0.049 A 
ATOM     48  H   UNL A   1      42.232  27.385  29.225  1.00  0.00     0.167 HD
ATOM     49  C   UNL A   1      43.838  31.031  31.028  1.00  0.00     0.031 A 
ATOM     50  C   UNL A   1      42.403  24.782  28.224  1.00  0.00     0.031 A 
ATOM     51  C   UNL A   1      44.928  30.092  31.045  1.00  0.00     0.049 A 
ATOM     52  C   UNL A   1      43.773  25.126  28.741  1.00  0.00     0.074 A 
ATOM     53  C   UNL A   1      46.201  30.259  31.561  1.00  0.00     0.029 A 
ATOM     54  N   UNL A   1      44.875  28.812  30.515  1.00  0.00    -0.354 N 
ATOM     55  N   UNL A   1      44.188  26.228  29.317  1.00  0.00    -0.248 NA
ATOM     56  C   UNL A   1      44.809  24.092  28.603  1.00  0.00     0.031 C 
ATOM     57  C   UNL A   1      46.937  29.102  31.289  1.00  0.00     0.029 A 
ATOM     58  C   UNL A   1      46.102  28.189  30.664  1.00  0.00     0.049 A 
ATOM     59  H   UNL A   1      44.082  28.406  30.095  1.00  0.00     0.167 HD
ATOM     60  C   UNL A   1      45.523  26.010  29.635  1.00  0.00     0.074 A 
ATOM     61  C   UNL A   1      45.842  24.665  29.205  1.00  0.00     0.031 C 
ATOM     62  C   UNL A   1      46.405  26.849  30.230  1.00  0.00     0.031 A 
BRANCH  49  63
ATOM     63  C   UNL A   1      44.076  32.414  31.569  1.00  0.00    -0.014 A 
ATOM     64  C   UNL A   1      44.527  33.455  30.741  1.00  0.00     0.009 A 
ATOM     65  C   UNL A   1      43.814  32.688  32.921  1.00  0.00     0.009 A 
ATOM     66  C   UNL A   1      44.749  34.730  31.264  1.00  0.00     0.001 A 
ATOM     67  C   UNL A   1      44.006  33.973  33.433  1.00  0.00     0.001 A 
ATOM     68  C   UNL A   1      44.483  34.990  32.607  1.00  0.00     0.000 A 
ENDBRANCH  49  63
BRANCH  50  69
ATOM     69  C   UNL A   1      42.132  23.451  27.619  1.00  0.00    -0.014 A 
ATOM     70  C   UNL A   1      42.321  23.240  26.244  1.00  0.00     0.009 A 
ATOM     71  C   UNL A   1      41.673  22.386  28.410  1.00  0.00     0.009 A 
ATOM     72  C   UNL A   1      42.023  22.002  25.670  1.00  0.00     0.001 A 
ATOM     73  C   UNL A   1      41.408  21.140  27.839  1.00  0.00     0.001 A 
ATOM     74  C   UNL A   1      41.572  20.952  26.468  1.00  0.00     0.000 A 
ENDBRANCH  50  69
BRANCH  62  75
ATOM     75  C   UNL A   1      47.791  26.325  30.486  1.00  0.00    -0.014 A 
ATOM     76  C   UNL A   1      48.803  26.432  29.521  1.00  0.00     0.009 A 
ATOM     77  C   UNL A   1      48.097  25.756  31.733  1.00  0.00     0.009 A 
ATOM     78  C   UNL A   1      50.086  25.948  29.787  1.00  0.00     0.001 A 
ATOM     79  C   UNL A   1      49.388  25.304  32.008  1.00  0.00     0.001 A 
ATOM     80  C   UNL A   1      50.379  25.391  31.032  1.00  0.00     0.000 A 
ENDBRANCH  62  75
ENDBRANCH  36  37
ENDBRANCH  28  31
ENDBRANCH  26  27
ENDBRANCH  25  26
ENDBRANCH  24  25
ENDBRANCH  23  24
ENDBRANCH   1  23
TORSDOF 18
ENDMDL
MODEL 2
REMARK VINA RESULT:     -10.5      3.978      8.419
REMARK SMILES Cn1cc(/C=C/C(=O)N(CC(=O)NCCCCCCNC(=O)c2ccc(-c3c4nc(c(-c5ccccc5)c5ccc([nH]5)c(-c5ccccc5)c5nc(c(-c6ccccc6)c6ccc3[nH]6)C=C5)C=C4)cc2)C(C)(C)C)cn1
REMARK SMILES IDX 15 1 14 2 13 3 11 4 12 5 10 7 9 8 7 9 8 10 6 11 5 12 4 13
REMARK SMILES IDX 1 14 2 15 3 16 76 17 75 18 71 19 72 20 73 21 74 22 16 23
REMARK SMILES IDX 17 24 18 25 19 26 20 27 21 28 22 30 23 31 24 32 70 33 25 34
REMARK SMILES IDX 69 35 26 36 27 37 28 38 63 39 29 40 68 41 62 42 64 43 30 44
REMARK SMILES IDX 67 45 61 46 60 47 31 49 53 50 38 51 52 52 39 53 42 54 51 55
REMARK SMILES IDX 65 56 40 57 41 58 50 60 66 61 43 62 32 63 33 64 37 65 34 66
REMARK SMILES IDX 36 67 35 68 54 69 55 70 59 71 56 72 58 73 57 74 44 75 45 76
REMARK SMILES IDX 49 77 46 78 48 79 47 80
REMARK H PARENT 13 6 20 29 64 48 42 59
REMARK Flexibility Score: inf
ROOT
ATOM      1  C   UNL A   1      31.478  28.459  27.431  1.00  0.00     0.021 C 
ENDROOT
BRANCH   1   2
ATOM      2  C   UNL A   1      31.820  27.301  26.506  1.00  0.00     0.116 C 
BRANCH   2   3
ATOM      3  N   UNL A   1      31.224  26.040  26.897  1.00  0.00    -0.355 N 
ATOM      4  C   UNL A   1      31.449  24.756  26.509  1.00  0.00     0.239 C 
ATOM      5  O   UNL A   1      30.940  23.880  27.220  1.00  0.00    -0.273 OA
ATOM      6  H   UNL A   1      30.517  26.130  27.577  1.00  0.00     0.163 HD
BRANCH   4   7
ATOM      7  C   UNL A   1      32.408  24.337  25.373  1.00  0.00     0.220 C 
BRANCH   7   8
ATOM      8  N   UNL A   1      32.063  24.704  23.994  1.00  0.00    -0.325 N 
BRANCH   8   9
ATOM      9  C   UNL A   1      30.762  24.673  23.479  1.00  0.00     0.247 C 
ATOM     10  O   UNL A   1      30.236  23.621  23.103  1.00  0.00    -0.270 OA
BRANCH   9  11
ATOM     11  C   UNL A   1      29.875  25.884  23.306  1.00  0.00     0.072 C 
ATOM     12  C   UNL A   1      30.151  27.196  23.233  1.00  0.00     0.017 C 
BRANCH  12  13
ATOM     13  C   UNL A   1      29.226  28.277  23.199  1.00  0.00     0.013 A 
ATOM     14  C   UNL A   1      28.343  31.757  23.422  1.00  0.00     0.173 C 
ATOM     15  N   UNL A   1      28.453  30.324  23.297  1.00  0.00    -0.275 N 
ATOM     16  C   UNL A   1      29.607  29.599  23.261  1.00  0.00     0.116 A 
ATOM     17  N   UNL A   1      27.344  29.562  23.249  1.00  0.00    -0.181 NA
ATOM     18  C   UNL A   1      27.818  28.313  23.184  1.00  0.00     0.143 A 
ENDBRANCH  12  13
ENDBRANCH   9  11
ENDBRANCH   8   9
BRANCH   8  19
ATOM     19  C   UNL A   1      33.198  25.221  23.112  1.00  0.00     0.035 C 
ATOM     20  C   UNL A   1      32.807  25.250  21.621  1.00  0.00     0.034 C 
ATOM     21  C   UNL A   1      33.625  26.640  23.558  1.00  0.00     0.034 C 
ATOM     22  C   UNL A   1      34.497  24.365  23.171  1.00  0.00     0.034 C 
ENDBRANCH   8  19
ENDBRANCH   7   8
ENDBRANCH   4   7
ENDBRANCH   2   3
ENDBRANCH   1   2
BRANCH   1  23
ATOM     23  C   UNL A   1      32.228  29.754  27.134  1.00  0.00     0.002 C 
BRANCH  23  24
ATOM     24  C   UNL A   1      31.558  30.648  26.091  1.00  0.00     0.002 C 
BRANCH  24  25
ATOM     25  C   UNL A   1      31.386  32.110  26.510  1.00  0.00     0.021 C 
BRANCH  25  26
ATOM     26  C   UNL A   1      32.556  32.684  27.302  1.00  0.00     0.116 C 
BRANCH  26  27
ATOM     27  N   UNL A   1      32.372  34.097  27.594  1.00  0.00    -0.352 N 
ATOM     28  C   UNL A   1      33.007  34.876  28.526  1.00  0.00     0.251 C 
ATOM     29  H   UNL A   1      31.696  34.557  27.046  1.00  0.00     0.163 HD
ATOM     30  O   UNL A   1      32.584  35.993  28.797  1.00  0.00    -0.269 OA
BRANCH  28  31
ATOM     31  C   UNL A   1      34.203  34.351  29.216  1.00  0.00     0.039 A 
ATOM     32  C   UNL A   1      34.037  33.570  30.361  1.00  0.00     0.014 A 
ATOM     33  C   UNL A   1      35.485  34.632  28.731  1.00  0.00     0.014 A 
ATOM     34  C   UNL A   1      35.157  33.025  30.992  1.00  0.00     0.010 A 
ATOM     35  C   UNL A   1      36.592  34.025  29.315  1.00  0.00     0.010 A 
ATOM     36  C   UNL A   1      36.441  33.224  30.457  1.00  0.00    -0.014 A 
BRANCH  36  37
ATOM     37  C   UNL A   1      37.637  32.612  31.087  1.00  0.00     0.031 A 
ATOM     38  C   UNL A   1      38.281  31.402  30.466  1.00  0.00     0.074 A 
ATOM     39  C   UNL A   1      38.113  33.112  32.244  1.00  0.00     0.049 A 
ATOM     40  N   UNL A   1      39.306  30.706  30.888  1.00  0.00    -0.248 NA
ATOM     41  C   UNL A   1      37.682  30.895  29.221  1.00  0.00     0.031 C 
ATOM     42  C   UNL A   1      37.555  34.258  32.965  1.00  0.00     0.029 A 
ATOM     43  N   UNL A   1      39.174  32.716  33.018  1.00  0.00    -0.354 N 
ATOM     44  C   UNL A   1      39.463  29.674  29.972  1.00  0.00     0.074 A 
ATOM     45  C   UNL A   1      38.396  29.801  29.004  1.00  0.00     0.031 C 
ATOM     46  C   UNL A   1      38.299  34.492  34.059  1.00  0.00     0.029 A 
ATOM     47  C   UNL A   1      39.355  33.489  34.139  1.00  0.00     0.049 A 
ATOM     48  H   UNL A   1      39.752  31.952  32.791  1.00  0.00     0.167 HD
ATOM     49  C   UNL A   1      40.420  28.717  29.926  1.00  0.00     0.031 A 
ATOM     50  C   UNL A   1      40.266  33.395  35.127  1.00  0.00     0.031 A 
ATOM     51  C   UNL A   1      41.484  28.593  30.887  1.00  0.00     0.049 A 
ATOM     52  C   UNL A   1      41.301  32.306  35.069  1.00  0.00     0.074 A 
ATOM     53  C   UNL A   1      42.534  27.692  30.898  1.00  0.00     0.029 A 
ATOM     54  N   UNL A   1      41.628  29.392  32.011  1.00  0.00    -0.354 N 
ATOM     55  N   UNL A   1      41.481  31.383  34.155  1.00  0.00    -0.248 NA
ATOM     56  C   UNL A   1      42.267  32.253  36.176  1.00  0.00     0.031 C 
ATOM     57  C   UNL A   1      43.279  27.905  32.063  1.00  0.00     0.029 A 
ATOM     58  C   UNL A   1      42.732  28.984  32.740  1.00  0.00     0.049 A 
ATOM     59  H   UNL A   1      41.033  30.138  32.255  1.00  0.00     0.167 HD
ATOM     60  C   UNL A   1      42.596  30.660  34.561  1.00  0.00     0.074 A 
ATOM     61  C   UNL A   1      43.060  31.263  35.793  1.00  0.00     0.031 C 
ATOM     62  C   UNL A   1      43.181  29.593  33.966  1.00  0.00     0.031 A 
BRANCH  49  63
ATOM     63  C   UNL A   1      40.353  27.721  28.801  1.00  0.00    -0.014 A 
ATOM     64  C   UNL A   1      39.643  26.516  28.934  1.00  0.00     0.009 A 
ATOM     65  C   UNL A   1      40.982  28.006  27.579  1.00  0.00     0.009 A 
ATOM     66  C   UNL A   1      39.597  25.601  27.880  1.00  0.00     0.001 A 
ATOM     67  C   UNL A   1      40.907  27.103  26.516  1.00  0.00     0.001 A 
ATOM     68  C   UNL A   1      40.224  25.897  26.671  1.00  0.00     0.000 A 
ENDBRANCH  49  63
BRANCH  50  69
ATOM     69  C   UNL A   1      40.249  34.366  36.254  1.00  0.00    -0.014 A 
ATOM     70  C   UNL A   1      39.502  34.101  37.413  1.00  0.00     0.009 A 
ATOM     71  C   UNL A   1      40.969  35.568  36.173  1.00  0.00     0.009 A 
ATOM     72  C   UNL A   1      39.452  35.034  38.452  1.00  0.00     0.001 A 
ATOM     73  C   UNL A   1      40.943  36.483  37.226  1.00  0.00     0.001 A 
ATOM     74  C   UNL A   1      40.175  36.222  38.360  1.00  0.00     0.000 A 
ENDBRANCH  50  69
BRANCH  62  75
ATOM     75  C   UNL A   1      44.413  29.029  34.619  1.00  0.00    -0.014 A 
ATOM     76  C   UNL A   1      44.333  27.984  35.553  1.00  0.00     0.009 A 
ATOM     77  C   UNL A   1      45.677  29.523  34.258  1.00  0.00     0.009 A 
ATOM     78  C   UNL A   1      45.492  27.469  36.137  1.00  0.00     0.001 A 
ATOM     79  C   UNL A   1      46.836  28.983  34.819  1.00  0.00     0.001 A 
ATOM     80  C   UNL A   1      46.742  27.964  35.764  1.00  0.00     0.000 A 
ENDBRANCH  62  75
ENDBRANCH  36  37
ENDBRANCH  28  31
ENDBRANCH  26  27
ENDBRANCH  25  26
ENDBRANCH  24  25
ENDBRANCH  23  24
ENDBRANCH   1  23
TORSDOF 18
ENDMDL
MODEL 3
REMARK VINA RESULT:     -10.4      2.361      6.711
REMARK SMILES Cn1cc(/C=C/C(=O)N(CC(=O)NCCCCCCNC(=O)c2ccc(-c3c4nc(c(-c5ccccc5)c5ccc([nH]5)c(-c5ccccc5)c5nc(c(-c6ccccc6)c6ccc3[nH]6)C=C5)C=C4)cc2)C(C)(C)C)cn1
REMARK SMILES IDX 15 1 14 2 13 3 11 4 12 5 10 7 9 8 7 9 8 10 6 11 5 12 4 13
REMARK SMILES IDX 1 14 2 15 3 16 76 17 75 18 71 19 72 20 73 21 74 22 16 23
REMARK SMILES IDX 17 24 18 25 19 26 20 27 21 28 22 30 23 31 24 32 70 33 25 34
REMARK SMILES IDX 69 35 26 36 27 37 28 38 63 39 29 40 68 41 62 42 64 43 30 44
REMARK SMILES IDX 67 45 61 46 60 47 31 49 53 50 38 51 52 52 39 53 42 54 51 55
REMARK SMILES IDX 65 56 40 57 41 58 50 60 66 61 43 62 32 63 33 64 37 65 34 66
REMARK SMILES IDX 36 67 35 68 54 69 55 70 59 71 56 72 58 73 57 74 44 75 45 76
REMARK SMILES IDX 49 77 46 78 48 79 47 80
REMARK H PARENT 13 6 20 29 64 48 42 59
REMARK Flexibility Score: inf
ROOT
ATOM      1  C   UNL A   1      32.050  27.330  27.097  1.00  0.00     0.021 C 
ENDROOT
BRANCH   1   2
ATOM      2  C   UNL A   1      31.249  26.663  25.988  1.00  0.00     0.116 C 
BRANCH   2   3
ATOM      3  N   UNL A   1      30.593  25.437  26.392  1.00  0.00    -0.355 N 
ATOM      4  C   UNL A   1      31.059  24.181  26.635  1.00  0.00     0.239 C 
ATOM      5  O   UNL A   1      30.272  23.415  27.206  1.00  0.00    -0.273 OA
ATOM      6  H   UNL A   1      29.621  25.529  26.516  1.00  0.00     0.163 HD
BRANCH   4   7
ATOM      7  C   UNL A   1      32.515  23.723  26.399  1.00  0.00     0.220 C 
BRANCH   7   8
ATOM      8  N   UNL A   1      32.925  23.368  25.035  1.00  0.00    -0.325 N 
BRANCH   8   9
ATOM      9  C   UNL A   1      32.178  22.548  24.182  1.00  0.00     0.247 C 
ATOM     10  O   UNL A   1      31.313  23.008  23.430  1.00  0.00    -0.270 OA
BRANCH   9  11
ATOM     11  C   UNL A   1      32.318  21.046  24.089  1.00  0.00     0.072 C 
ATOM     12  C   UNL A   1      32.759  20.129  24.966  1.00  0.00     0.017 C 
BRANCH  12  13
ATOM     13  C   UNL A   1      32.974  18.742  24.735  1.00  0.00     0.013 A 
ATOM     14  C   UNL A   1      32.679  15.260  25.590  1.00  0.00     0.173 C 
ATOM     15  N   UNL A   1      32.926  16.575  25.049  1.00  0.00    -0.275 N 
ATOM     16  C   UNL A   1      32.421  17.752  25.516  1.00  0.00     0.116 A 
ATOM     17  N   UNL A   1      33.761  16.731  24.005  1.00  0.00    -0.181 NA
ATOM     18  C   UNL A   1      33.786  18.055  23.811  1.00  0.00     0.143 A 
ENDBRANCH  12  13
ENDBRANCH   9  11
ENDBRANCH   8   9
BRANCH   8  19
ATOM     19  C   UNL A   1      34.211  24.007  24.511  1.00  0.00     0.035 C 
ATOM     20  C   UNL A   1      33.990  25.461  24.050  1.00  0.00     0.034 C 
ATOM     21  C   UNL A   1      35.312  23.974  25.598  1.00  0.00     0.034 C 
ATOM     22  C   UNL A   1      34.830  23.283  23.279  1.00  0.00     0.034 C 
ENDBRANCH   8  19
ENDBRANCH   7   8
ENDBRANCH   4   7
ENDBRANCH   2   3
ENDBRANCH   1   2
BRANCH   1  23
ATOM     23  C   UNL A   1      31.726  28.804  27.318  1.00  0.00     0.002 C 
BRANCH  23  24
ATOM     24  C   UNL A   1      31.559  29.614  26.032  1.00  0.00     0.002 C 
BRANCH  24  25
ATOM     25  C   UNL A   1      31.433  31.126  26.235  1.00  0.00     0.021 C 
BRANCH  25  26
ATOM     26  C   UNL A   1      32.626  31.773  26.931  1.00  0.00     0.116 C 
BRANCH  26  27
ATOM     27  N   UNL A   1      32.361  33.159  27.284  1.00  0.00    -0.352 N 
ATOM     28  C   UNL A   1      33.040  33.974  28.153  1.00  0.00     0.251 C 
ATOM     29  H   UNL A   1      31.584  33.568  26.839  1.00  0.00     0.163 HD
ATOM     30  O   UNL A   1      32.561  35.045  28.506  1.00  0.00    -0.269 OA
BRANCH  28  31
ATOM     31  C   UNL A   1      34.354  33.544  28.673  1.00  0.00     0.039 A 
ATOM     32  C   UNL A   1      34.406  32.814  29.861  1.00  0.00     0.014 A 
ATOM     33  C   UNL A   1      35.530  33.863  27.986  1.00  0.00     0.014 A 
ATOM     34  C   UNL A   1      35.638  32.358  30.336  1.00  0.00     0.010 A 
ATOM     35  C   UNL A   1      36.745  33.342  28.419  1.00  0.00     0.010 A 
ATOM     36  C   UNL A   1      36.813  32.593  29.603  1.00  0.00    -0.014 A 
BRANCH  36  37
ATOM     37  C   UNL A   1      38.123  32.072  30.068  1.00  0.00     0.031 A 
ATOM     38  C   UNL A   1      38.640  30.758  29.550  1.00  0.00     0.074 A 
ATOM     39  C   UNL A   1      38.823  32.756  30.994  1.00  0.00     0.049 A 
ATOM     40  N   UNL A   1      39.740  30.122  29.865  1.00  0.00    -0.248 NA
ATOM     41  C   UNL A   1      37.800  30.054  28.567  1.00  0.00     0.031 C 
ATOM     42  C   UNL A   1      38.412  34.024  31.602  1.00  0.00     0.029 A 
ATOM     43  N   UNL A   1      40.029  32.477  31.587  1.00  0.00    -0.354 N 
ATOM     44  C   UNL A   1      39.716  28.942  29.132  1.00  0.00     0.074 A 
ATOM     45  C   UNL A   1      38.468  28.922  28.402  1.00  0.00     0.031 C 
ATOM     46  C   UNL A   1      39.366  34.428  32.457  1.00  0.00     0.029 A 
ATOM     47  C   UNL A   1      40.430  33.430  32.492  1.00  0.00     0.049 A 
ATOM     48  H   UNL A   1      40.556  31.672  31.383  1.00  0.00     0.167 HD
ATOM     49  C   UNL A   1      40.655  27.970  29.058  1.00  0.00     0.031 A 
ATOM     50  C   UNL A   1      41.528  33.490  33.269  1.00  0.00     0.031 A 
ATOM     51  C   UNL A   1      41.899  27.991  29.783  1.00  0.00     0.049 A 
ATOM     52  C   UNL A   1      42.543  32.383  33.189  1.00  0.00     0.074 A 
ATOM     53  C   UNL A   1      42.940  27.082  29.733  1.00  0.00     0.029 A 
ATOM     54  N   UNL A   1      42.264  28.971  30.693  1.00  0.00    -0.354 N 
ATOM     55  N   UNL A   1      42.541  31.311  32.435  1.00  0.00    -0.248 NA
ATOM     56  C   UNL A   1      43.720  32.502  34.062  1.00  0.00     0.031 C 
ATOM     57  C   UNL A   1      43.909  27.478  30.660  1.00  0.00     0.029 A 
ATOM     58  C   UNL A   1      43.501  28.671  31.236  1.00  0.00     0.049 A 
ATOM     59  H   UNL A   1      41.722  29.762  30.920  1.00  0.00     0.167 HD
ATOM     60  C   UNL A   1      43.726  30.644  32.720  1.00  0.00     0.074 A 
ATOM     61  C   UNL A   1      44.429  31.442  33.702  1.00  0.00     0.031 C 
ATOM     62  C   UNL A   1      44.188  29.475  32.214  1.00  0.00     0.031 A 
BRANCH  49  63
ATOM     63  C   UNL A   1      40.368  26.793  28.165  1.00  0.00    -0.014 A 
ATOM     64  C   UNL A   1      40.848  26.744  26.846  1.00  0.00     0.009 A 
ATOM     65  C   UNL A   1      39.634  25.704  28.661  1.00  0.00     0.009 A 
ATOM     66  C   UNL A   1      40.564  25.646  26.030  1.00  0.00     0.001 A 
ATOM     67  C   UNL A   1      39.381  24.593  27.853  1.00  0.00     0.001 A 
ATOM     68  C   UNL A   1      39.836  24.571  26.535  1.00  0.00     0.000 A 
ENDBRANCH  49  63
BRANCH  50  69
ATOM     69  C   UNL A   1      41.734  34.643  34.185  1.00  0.00    -0.014 A 
ATOM     70  C   UNL A   1      42.416  35.789  33.747  1.00  0.00     0.009 A 
ATOM     71  C   UNL A   1      41.260  34.600  35.506  1.00  0.00     0.009 A 
ATOM     72  C   UNL A   1      42.647  36.853  34.623  1.00  0.00     0.001 A 
ATOM     73  C   UNL A   1      41.464  35.679  36.368  1.00  0.00     0.001 A 
ATOM     74  C   UNL A   1      42.167  36.800  35.930  1.00  0.00     0.000 A 
ENDBRANCH  50  69
BRANCH  62  75
ATOM     75  C   UNL A   1      45.537  29.005  32.686  1.00  0.00    -0.014 A 
ATOM     76  C   UNL A   1      46.717  29.405  32.042  1.00  0.00     0.009 A 
ATOM     77  C   UNL A   1      45.626  28.186  33.823  1.00  0.00     0.009 A 
ATOM     78  C   UNL A   1      47.959  28.965  32.507  1.00  0.00     0.001 A 
ATOM     79  C   UNL A   1      46.870  27.776  34.305  1.00  0.00     0.001 A 
ATOM     80  C   UNL A   1      48.034  28.157  33.641  1.00  0.00     0.000 A 
ENDBRANCH  62  75
ENDBRANCH  36  37
ENDBRANCH  28  31
ENDBRANCH  26  27
ENDBRANCH  25  26
ENDBRANCH  24  25
ENDBRANCH  23  24
ENDBRANCH   1  23
TORSDOF 18
ENDMDL
