MODEL 1
REMARK VINA RESULT:     -11.1      0.000      0.000
REMARK SMILES C=CCN1C(=O)/C(=C/c2ccc(OCc3cccc(C(=O)NCCCCCCNC(=O)c4ccc(-c5c6nc(c(-c7ccccc7)c7ccc([nH]7)c(-c7ccccc7)c7nc(c(-c8ccccc8)c8ccc5[nH]8)C=C7)C=C6)cc4)c3)cc2)C(=O)NC1=S
REMARK SMILES IDX 23 1 22 2 20 3 21 4 19 6 15 7 16 8 80 9 17 10 18 11 14 12
REMARK SMILES IDX 13 13 12 14 9 15 10 16 82 17 11 18 81 19 8 20 4 21 5 22
REMARK SMILES IDX 86 23 6 24 7 25 85 26 87 27 83 28 84 30 3 31 2 32 1 33 24 34
REMARK SMILES IDX 25 35 26 36 27 37 28 38 29 39 30 40 31 42 32 43 33 44 79 45
REMARK SMILES IDX 34 46 78 47 35 48 36 49 37 50 72 51 38 52 77 53 71 54 73 55
REMARK SMILES IDX 39 56 76 57 70 58 69 59 40 61 62 62 47 63 61 64 48 65 51 66
REMARK SMILES IDX 60 67 74 68 49 69 50 70 59 72 75 73 52 74 41 75 42 76 46 77
REMARK SMILES IDX 43 78 45 79 44 80 63 81 64 82 68 83 65 84 67 85 66 86 53 87
REMARK SMILES IDX 54 88 58 89 55 90 57 91 56 92
REMARK H PARENT 22 5 85 29 29 41 73 60 51 71
REMARK Flexibility Score: inf
ROOT
ATOM      1  C   UNL A   1      33.976  27.382  26.214  1.00  0.00     0.116 C 
ENDROOT
BRANCH   1   2
ATOM      2  N   UNL A   1      33.327  26.895  25.010  1.00  0.00    -0.352 N 
ATOM      3  C   UNL A   1      33.289  25.629  24.470  1.00  0.00     0.251 C 
ATOM      4  O   UNL A   1      32.678  25.442  23.420  1.00  0.00    -0.269 OA
ATOM      5  H   UNL A   1      32.836  27.579  24.499  1.00  0.00     0.163 HD
BRANCH   3   6
ATOM      6  C   UNL A   1      34.030  24.505  25.097  1.00  0.00     0.040 A 
ATOM      7  C   UNL A   1      35.876  22.908  25.092  1.00  0.00    -0.010 A 
ATOM      8  C   UNL A   1      35.217  22.198  26.104  1.00  0.00     0.007 A 
ATOM      9  C   UNL A   1      35.303  24.116  24.666  1.00  0.00     0.021 A 
ATOM     10  C   UNL A   1      34.013  22.658  26.645  1.00  0.00     0.001 A 
ATOM     11  C   UNL A   1      33.406  23.799  26.129  1.00  0.00     0.014 A 
BRANCH   7  12
ATOM     12  C   UNL A   1      37.172  22.472  24.424  1.00  0.00     0.265 C 
BRANCH  12  13
ATOM     13  O   UNL A   1      37.751  21.242  24.868  1.00  0.00    -0.489 OA
BRANCH  13  14
ATOM     14  C   UNL A   1      38.773  21.322  25.771  1.00  0.00     0.119 A 
ATOM     15  C   UNL A   1      41.047  21.870  27.281  1.00  0.00    -0.024 A 
ATOM     16  C   UNL A   1      40.074  22.859  27.099  1.00  0.00     0.012 A 
ATOM     17  C   UNL A   1      40.829  20.580  26.799  1.00  0.00     0.012 A 
ATOM     18  C   UNL A   1      38.934  22.581  26.351  1.00  0.00     0.047 A 
ATOM     19  C   UNL A   1      39.685  20.303  26.050  1.00  0.00     0.047 A 
BRANCH  15  20
ATOM     20  C   UNL A   1      42.310  22.248  27.906  1.00  0.00     0.027 C 
ATOM     21  N   UNL A   1      45.354  24.175  27.507  1.00  0.00    -0.281 N 
ATOM     22  C   UNL A   1      44.466  23.289  28.119  1.00  0.00     0.265 C 
ATOM     23  C   UNL A   1      45.525  24.227  26.128  1.00  0.00     0.183 C 
ATOM     24  O   UNL A   1      44.554  22.945  29.298  1.00  0.00    -0.268 OA
ATOM     25  C   UNL A   1      43.379  22.756  27.258  1.00  0.00     0.106 C 
ATOM     26  N   UNL A   1      44.599  23.565  25.369  1.00  0.00    -0.298 N 
ATOM     27  S   UNL A   1      46.745  25.004  25.276  1.00  0.00    -0.040 S 
ATOM     28  C   UNL A   1      43.494  22.876  25.787  1.00  0.00     0.263 C 
ATOM     29  H   UNL A   1      44.746  23.589  24.396  1.00  0.00     0.172 HD
ATOM     30  O   UNL A   1      42.722  22.404  24.972  1.00  0.00    -0.269 OA
BRANCH  21  31
ATOM     31  C   UNL A   1      46.208  24.936  28.429  1.00  0.00     0.155 C 
BRANCH  31  32
ATOM     32  C   UNL A   1      45.515  26.195  28.882  1.00  0.00    -0.013 C 
ATOM     33  C   UNL A   1      44.697  26.955  28.142  1.00  0.00     0.006 C 
ENDBRANCH  31  32
ENDBRANCH  21  31
ENDBRANCH  15  20
ENDBRANCH  13  14
ENDBRANCH  12  13
ENDBRANCH   7  12
ENDBRANCH   3   6
ENDBRANCH   1   2
BRANCH   1  34
ATOM     34  C   UNL A   1      34.019  28.897  26.344  1.00  0.00     0.021 C 
BRANCH  34  35
ATOM     35  C   UNL A   1      32.847  29.557  27.067  1.00  0.00     0.002 C 
BRANCH  35  36
ATOM     36  C   UNL A   1      31.887  30.382  26.208  1.00  0.00     0.002 C 
BRANCH  36  37
ATOM     37  C   UNL A   1      31.565  31.793  26.703  1.00  0.00     0.021 C 
BRANCH  37  38
ATOM     38  C   UNL A   1      32.730  32.573  27.300  1.00  0.00     0.116 C 
BRANCH  38  39
ATOM     39  N   UNL A   1      32.398  33.954  27.602  1.00  0.00    -0.352 N 
ATOM     40  C   UNL A   1      32.985  34.810  28.504  1.00  0.00     0.251 C 
ATOM     41  H   UNL A   1      31.647  34.332  27.088  1.00  0.00     0.163 HD
ATOM     42  O   UNL A   1      32.503  35.917  28.717  1.00  0.00    -0.269 OA
BRANCH  40  43
ATOM     43  C   UNL A   1      34.189  34.377  29.245  1.00  0.00     0.039 A 
ATOM     44  C   UNL A   1      34.029  33.702  30.459  1.00  0.00     0.014 A 
ATOM     45  C   UNL A   1      35.468  34.618  28.736  1.00  0.00     0.014 A 
ATOM     46  C   UNL A   1      35.149  33.199  31.126  1.00  0.00     0.010 A 
ATOM     47  C   UNL A   1      36.577  34.065  29.369  1.00  0.00     0.010 A 
ATOM     48  C   UNL A   1      36.428  33.344  30.566  1.00  0.00    -0.014 A 
BRANCH  48  49
ATOM     49  C   UNL A   1      37.632  32.752  31.201  1.00  0.00     0.031 A 
ATOM     50  C   UNL A   1      38.360  31.628  30.519  1.00  0.00     0.074 A 
ATOM     51  C   UNL A   1      38.010  33.151  32.430  1.00  0.00     0.049 A 
ATOM     52  N   UNL A   1      39.326  30.871  30.974  1.00  0.00    -0.248 NA
ATOM     53  C   UNL A   1      37.925  31.294  29.152  1.00  0.00     0.031 C 
ATOM     54  C   UNL A   1      37.379  34.219  33.209  1.00  0.00     0.029 A 
ATOM     55  N   UNL A   1      39.008  32.688  33.252  1.00  0.00    -0.354 N 
ATOM     56  C   UNL A   1      39.592  29.955  29.965  1.00  0.00     0.074 A 
ATOM     57  C   UNL A   1      38.666  30.229  28.888  1.00  0.00     0.031 C 
ATOM     58  C   UNL A   1      38.009  34.333  34.389  1.00  0.00     0.029 A 
ATOM     59  C   UNL A   1      39.055  33.318  34.471  1.00  0.00     0.049 A 
ATOM     60  H   UNL A   1      39.630  31.971  32.992  1.00  0.00     0.167 HD
ATOM     61  C   UNL A   1      40.530  28.978  29.935  1.00  0.00     0.031 A 
ATOM     62  C   UNL A   1      39.837  33.091  35.544  1.00  0.00     0.031 A 
ATOM     63  C   UNL A   1      41.462  28.718  30.997  1.00  0.00     0.049 A 
ATOM     64  C   UNL A   1      40.857  31.989  35.494  1.00  0.00     0.074 A 
ATOM     65  C   UNL A   1      42.484  27.784  31.039  1.00  0.00     0.029 A 
ATOM     66  N   UNL A   1      41.488  29.395  32.207  1.00  0.00    -0.354 N 
ATOM     67  N   UNL A   1      41.125  31.157  34.517  1.00  0.00    -0.248 NA
ATOM     68  C   UNL A   1      41.686  31.796  36.693  1.00  0.00     0.031 C 
ATOM     69  C   UNL A   1      43.102  27.869  32.289  1.00  0.00     0.029 A 
ATOM     70  C   UNL A   1      42.497  28.888  33.007  1.00  0.00     0.049 A 
ATOM     71  H   UNL A   1      40.880  30.128  32.458  1.00  0.00     0.167 HD
ATOM     72  C   UNL A   1      42.173  30.366  34.969  1.00  0.00     0.074 A 
ATOM     73  C   UNL A   1      42.495  30.818  36.306  1.00  0.00     0.031 C 
ATOM     74  C   UNL A   1      42.814  29.359  34.329  1.00  0.00     0.031 A 
BRANCH  61  75
ATOM     75  C   UNL A   1      40.583  28.109  28.711  1.00  0.00    -0.014 A 
ATOM     76  C   UNL A   1      39.904  26.881  28.660  1.00  0.00     0.009 A 
ATOM     77  C   UNL A   1      41.295  28.540  27.581  1.00  0.00     0.009 A 
ATOM     78  C   UNL A   1      39.966  26.087  27.513  1.00  0.00     0.001 A 
ATOM     79  C   UNL A   1      41.333  27.756  26.427  1.00  0.00     0.001 A 
ATOM     80  C   UNL A   1      40.676  26.526  26.397  1.00  0.00     0.000 A 
ENDBRANCH  61  75
BRANCH  62  81
ATOM     81  C   UNL A   1      39.687  33.928  36.763  1.00  0.00    -0.014 A 
ATOM     82  C   UNL A   1      40.430  35.110  36.906  1.00  0.00     0.009 A 
ATOM     83  C   UNL A   1      38.806  33.551  37.787  1.00  0.00     0.009 A 
ATOM     84  C   UNL A   1      40.309  35.886  38.061  1.00  0.00     0.001 A 
ATOM     85  C   UNL A   1      38.668  34.343  38.930  1.00  0.00     0.001 A 
ATOM     86  C   UNL A   1      39.426  35.505  39.069  1.00  0.00     0.000 A 
ENDBRANCH  62  81
BRANCH  74  87
ATOM     87  C   UNL A   1      43.963  28.706  35.041  1.00  0.00    -0.014 A 
ATOM     88  C   UNL A   1      43.778  27.560  35.826  1.00  0.00     0.009 A 
ATOM     89  C   UNL A   1      45.261  29.209  34.859  1.00  0.00     0.009 A 
ATOM     90  C   UNL A   1      44.872  26.937  36.431  1.00  0.00     0.001 A 
ATOM     91  C   UNL A   1      46.355  28.571  35.446  1.00  0.00     0.001 A 
ATOM     92  C   UNL A   1      46.159  27.438  36.235  1.00  0.00     0.000 A 
ENDBRANCH  74  87
ENDBRANCH  48  49
ENDBRANCH  40  43
ENDBRANCH  38  39
ENDBRANCH  37  38
ENDBRANCH  36  37
ENDBRANCH  35  36
ENDBRANCH  34  35
ENDBRANCH   1  34
TORSDOF 19
ENDMDL
MODEL 2
REMARK VINA RESULT:     -10.9      3.813     10.668
REMARK SMILES C=CCN1C(=O)/C(=C/c2ccc(OCc3cccc(C(=O)NCCCCCCNC(=O)c4ccc(-c5c6nc(c(-c7ccccc7)c7ccc([nH]7)c(-c7ccccc7)c7nc(c(-c8ccccc8)c8ccc5[nH]8)C=C7)C=C6)cc4)c3)cc2)C(=O)NC1=S
REMARK SMILES IDX 23 1 22 2 20 3 21 4 19 6 15 7 16 8 80 9 17 10 18 11 14 12
REMARK SMILES IDX 13 13 12 14 9 15 10 16 82 17 11 18 81 19 8 20 4 21 5 22
REMARK SMILES IDX 86 23 6 24 7 25 85 26 87 27 83 28 84 30 3 31 2 32 1 33 24 34
REMARK SMILES IDX 25 35 26 36 27 37 28 38 29 39 30 40 31 42 32 43 33 44 79 45
REMARK SMILES IDX 34 46 78 47 35 48 36 49 37 50 72 51 38 52 77 53 71 54 73 55
REMARK SMILES IDX 39 56 76 57 70 58 69 59 40 61 62 62 47 63 61 64 48 65 51 66
REMARK SMILES IDX 60 67 74 68 49 69 50 70 59 72 75 73 52 74 41 75 42 76 46 77
REMARK SMILES IDX 43 78 45 79 44 80 63 81 64 82 68 83 65 84 67 85 66 86 53 87
REMARK SMILES IDX 54 88 58 89 55 90 57 91 56 92
REMARK H PARENT 22 5 85 29 29 41 73 60 51 71
REMARK Flexibility Score: inf
ROOT
ATOM      1  C   UNL A   1      42.287  23.867  26.381  1.00  0.00     0.116 C 
ENDROOT
BRANCH   1   2
ATOM      2  N   UNL A   1      40.850  23.796  26.193  1.00  0.00    -0.352 N 
ATOM      3  C   UNL A   1      39.862  24.687  26.549  1.00  0.00     0.251 C 
ATOM      4  O   UNL A   1      38.690  24.415  26.296  1.00  0.00    -0.269 OA
ATOM      5  H   UNL A   1      40.531  22.982  25.739  1.00  0.00     0.163 HD
BRANCH   3   6
ATOM      6  C   UNL A   1      40.183  25.932  27.290  1.00  0.00     0.040 A 
ATOM      7  C   UNL A   1      40.089  27.284  29.320  1.00  0.00    -0.010 A 
ATOM      8  C   UNL A   1      40.500  28.388  28.562  1.00  0.00     0.007 A 
ATOM      9  C   UNL A   1      40.025  26.039  28.676  1.00  0.00     0.021 A 
ATOM     10  C   UNL A   1      40.800  28.260  27.202  1.00  0.00     0.001 A 
ATOM     11  C   UNL A   1      40.622  27.039  26.559  1.00  0.00     0.014 A 
BRANCH   7  12
ATOM     12  C   UNL A   1      39.713  27.331  30.795  1.00  0.00     0.265 C 
BRANCH  12  13
ATOM     13  O   UNL A   1      40.024  28.532  31.506  1.00  0.00    -0.489 OA
BRANCH  13  14
ATOM     14  C   UNL A   1      39.078  29.517  31.515  1.00  0.00     0.119 A 
ATOM     15  C   UNL A   1      37.417  31.706  31.967  1.00  0.00    -0.024 A 
ATOM     16  C   UNL A   1      38.763  31.905  31.639  1.00  0.00     0.012 A 
ATOM     17  C   UNL A   1      36.882  30.418  31.962  1.00  0.00     0.012 A 
ATOM     18  C   UNL A   1      39.590  30.811  31.406  1.00  0.00     0.047 A 
ATOM     19  C   UNL A   1      37.712  29.322  31.727  1.00  0.00     0.047 A 
BRANCH  15  20
ATOM     20  C   UNL A   1      36.629  32.859  32.390  1.00  0.00     0.027 C 
ATOM     21  N   UNL A   1      33.977  35.141  31.445  1.00  0.00    -0.281 N 
ATOM     22  C   UNL A   1      35.003  34.622  32.236  1.00  0.00     0.265 C 
ATOM     23  C   UNL A   1      34.034  35.147  30.055  1.00  0.00     0.183 C 
ATOM     24  O   UNL A   1      35.173  34.928  33.415  1.00  0.00    -0.268 OA
ATOM     25  C   UNL A   1      35.915  33.658  31.569  1.00  0.00     0.106 C 
ATOM     26  N   UNL A   1      35.013  34.383  29.478  1.00  0.00    -0.298 N 
ATOM     27  S   UNL A   1      33.045  35.988  28.993  1.00  0.00    -0.040 S 
ATOM     28  C   UNL A   1      35.935  33.580  30.091  1.00  0.00     0.263 C 
ATOM     29  H   UNL A   1      35.058  34.415  28.496  1.00  0.00     0.172 HD
ATOM     30  O   UNL A   1      36.695  32.901  29.423  1.00  0.00    -0.269 OA
BRANCH  21  31
ATOM     31  C   UNL A   1      32.906  35.824  32.184  1.00  0.00     0.155 C 
BRANCH  31  32
ATOM     32  C   UNL A   1      33.065  37.319  32.093  1.00  0.00    -0.013 C 
ATOM     33  C   UNL A   1      33.937  38.063  32.785  1.00  0.00     0.006 C 
ENDBRANCH  31  32
ENDBRANCH  21  31
ENDBRANCH  15  20
ENDBRANCH  13  14
ENDBRANCH  12  13
ENDBRANCH   7  12
ENDBRANCH   3   6
ENDBRANCH   1   2
BRANCH   1  34
ATOM     34  C   UNL A   1      43.092  22.942  25.479  1.00  0.00     0.021 C 
BRANCH  34  35
ATOM     35  C   UNL A   1      44.414  23.488  24.942  1.00  0.00     0.002 C 
BRANCH  35  36
ATOM     36  C   UNL A   1      45.692  22.954  25.590  1.00  0.00     0.002 C 
BRANCH  36  37
ATOM     37  C   UNL A   1      46.141  23.634  26.883  1.00  0.00     0.021 C 
BRANCH  37  38
ATOM     38  C   UNL A   1      47.439  24.429  26.803  1.00  0.00     0.116 C 
BRANCH  38  39
ATOM     39  N   UNL A   1      47.598  25.136  25.544  1.00  0.00    -0.352 N 
ATOM     40  C   UNL A   1      47.079  26.349  25.159  1.00  0.00     0.251 C 
ATOM     41  H   UNL A   1      48.158  24.683  24.871  1.00  0.00     0.163 HD
ATOM     42  O   UNL A   1      47.218  26.750  24.008  1.00  0.00    -0.269 OA
BRANCH  40  43
ATOM     43  C   UNL A   1      46.317  27.160  26.134  1.00  0.00     0.039 A 
ATOM     44  C   UNL A   1      44.921  27.094  26.122  1.00  0.00     0.014 A 
ATOM     45  C   UNL A   1      46.978  27.964  27.066  1.00  0.00     0.014 A 
ATOM     46  C   UNL A   1      44.187  27.776  27.096  1.00  0.00     0.010 A 
ATOM     47  C   UNL A   1      46.250  28.593  28.071  1.00  0.00     0.010 A 
ATOM     48  C   UNL A   1      44.848  28.500  28.101  1.00  0.00    -0.014 A 
BRANCH  48  49
ATOM     49  C   UNL A   1      44.109  29.168  29.201  1.00  0.00     0.031 A 
ATOM     50  C   UNL A   1      43.796  30.635  29.108  1.00  0.00     0.074 A 
ATOM     51  C   UNL A   1      43.811  28.485  30.323  1.00  0.00     0.049 A 
ATOM     52  N   UNL A   1      43.307  31.436  30.020  1.00  0.00    -0.248 NA
ATOM     53  C   UNL A   1      44.096  31.292  27.825  1.00  0.00     0.031 C 
ATOM     54  C   UNL A   1      44.076  27.063  30.549  1.00  0.00     0.029 A 
ATOM     55  N   UNL A   1      43.236  28.905  31.497  1.00  0.00    -0.354 N 
ATOM     56  C   UNL A   1      43.271  32.694  29.434  1.00  0.00     0.074 A 
ATOM     57  C   UNL A   1      43.815  32.557  28.100  1.00  0.00     0.031 C 
ATOM     58  C   UNL A   1      43.658  26.728  31.780  1.00  0.00     0.029 A 
ATOM     59  C   UNL A   1      43.140  27.919  32.447  1.00  0.00     0.049 A 
ATOM     60  H   UNL A   1      42.922  29.827  31.643  1.00  0.00     0.167 HD
ATOM     61  C   UNL A   1      42.816  33.858  29.957  1.00  0.00     0.031 A 
ATOM     62  C   UNL A   1      42.706  27.970  33.721  1.00  0.00     0.031 A 
ATOM     63  C   UNL A   1      42.258  33.991  31.274  1.00  0.00     0.049 A 
ATOM     64  C   UNL A   1      42.224  29.277  34.285  1.00  0.00     0.074 A 
ATOM     65  C   UNL A   1      41.722  35.118  31.874  1.00  0.00     0.029 A 
ATOM     66  N   UNL A   1      42.160  32.960  32.196  1.00  0.00    -0.354 N 
ATOM     67  N   UNL A   1      42.158  30.450  33.705  1.00  0.00    -0.248 NA
ATOM     68  C   UNL A   1      41.753  29.267  35.678  1.00  0.00     0.031 C 
ATOM     69  C   UNL A   1      41.338  34.778  33.175  1.00  0.00     0.029 A 
ATOM     70  C   UNL A   1      41.590  33.430  33.366  1.00  0.00     0.049 A 
ATOM     71  H   UNL A   1      42.453  32.033  32.041  1.00  0.00     0.167 HD
ATOM     72  C   UNL A   1      41.608  31.309  34.648  1.00  0.00     0.074 A 
ATOM     73  C   UNL A   1      41.357  30.523  35.837  1.00  0.00     0.031 C 
ATOM     74  C   UNL A   1      41.332  32.630  34.535  1.00  0.00     0.031 A 
BRANCH  61  75
ATOM     75  C   UNL A   1      42.917  35.087  29.098  1.00  0.00    -0.014 A 
ATOM     76  C   UNL A   1      41.806  35.574  28.391  1.00  0.00     0.009 A 
ATOM     77  C   UNL A   1      44.131  35.787  29.023  1.00  0.00     0.009 A 
ATOM     78  C   UNL A   1      41.920  36.718  27.598  1.00  0.00     0.001 A 
ATOM     79  C   UNL A   1      44.234  36.945  28.251  1.00  0.00     0.001 A 
ATOM     80  C   UNL A   1      43.132  37.404  27.532  1.00  0.00     0.000 A 
ENDBRANCH  61  75
BRANCH  62  81
ATOM     81  C   UNL A   1      42.703  26.740  34.555  1.00  0.00    -0.014 A 
ATOM     82  C   UNL A   1      41.501  26.069  34.824  1.00  0.00     0.009 A 
ATOM     83  C   UNL A   1      43.898  26.233  35.087  1.00  0.00     0.009 A 
ATOM     84  C   UNL A   1      41.493  24.926  35.628  1.00  0.00     0.001 A 
ATOM     85  C   UNL A   1      43.890  25.075  35.869  1.00  0.00     0.001 A 
ATOM     86  C   UNL A   1      42.687  24.428  36.145  1.00  0.00     0.000 A 
ENDBRANCH  62  81
BRANCH  74  87
ATOM     87  C   UNL A   1      40.679  33.305  35.706  1.00  0.00    -0.014 A 
ATOM     88  C   UNL A   1      39.288  33.461  35.775  1.00  0.00     0.009 A 
ATOM     89  C   UNL A   1      41.469  33.723  36.789  1.00  0.00     0.009 A 
ATOM     90  C   UNL A   1      38.699  34.039  36.902  1.00  0.00     0.001 A 
ATOM     91  C   UNL A   1      40.876  34.280  37.923  1.00  0.00     0.001 A 
ATOM     92  C   UNL A   1      39.493  34.441  37.976  1.00  0.00     0.000 A 
ENDBRANCH  74  87
ENDBRANCH  48  49
ENDBRANCH  40  43
ENDBRANCH  38  39
ENDBRANCH  37  38
ENDBRANCH  36  37
ENDBRANCH  35  36
ENDBRANCH  34  35
ENDBRANCH   1  34
TORSDOF 19
ENDMDL
MODEL 3
REMARK VINA RESULT:     -10.6      5.704      9.258
REMARK SMILES C=CCN1C(=O)/C(=C/c2ccc(OCc3cccc(C(=O)NCCCCCCNC(=O)c4ccc(-c5c6nc(c(-c7ccccc7)c7ccc([nH]7)c(-c7ccccc7)c7nc(c(-c8ccccc8)c8ccc5[nH]8)C=C7)C=C6)cc4)c3)cc2)C(=O)NC1=S
REMARK SMILES IDX 23 1 22 2 20 3 21 4 19 6 15 7 16 8 80 9 17 10 18 11 14 12
REMARK SMILES IDX 13 13 12 14 9 15 10 16 82 17 11 18 81 19 8 20 4 21 5 22
REMARK SMILES IDX 86 23 6 24 7 25 85 26 87 27 83 28 84 30 3 31 2 32 1 33 24 34
REMARK SMILES IDX 25 35 26 36 27 37 28 38 29 39 30 40 31 42 32 43 33 44 79 45
REMARK SMILES IDX 34 46 78 47 35 48 36 49 37 50 72 51 38 52 77 53 71 54 73 55
REMARK SMILES IDX 39 56 76 57 70 58 69 59 40 61 62 62 47 63 61 64 48 65 51 66
REMARK SMILES IDX 60 67 74 68 49 69 50 70 59 72 75 73 52 74 41 75 42 76 46 77
REMARK SMILES IDX 43 78 45 79 44 80 63 81 64 82 68 83 65 84 67 85 66 86 53 87
REMARK SMILES IDX 54 88 58 89 55 90 57 91 56 92
REMARK H PARENT 22 5 85 29 29 41 73 60 51 71
REMARK Flexibility Score: inf
ROOT
ATOM      1  C   UNL A   1      40.540  28.577  27.795  1.00  0.00     0.116 C 
ENDROOT
BRANCH   1   2
ATOM      2  N   UNL A   1      41.068  28.714  26.450  1.00  0.00    -0.352 N 
ATOM      3  C   UNL A   1      41.980  27.938  25.770  1.00  0.00     0.251 C 
ATOM      4  O   UNL A   1      42.295  28.249  24.623  1.00  0.00    -0.269 OA
ATOM      5  H   UNL A   1      40.718  29.483  25.944  1.00  0.00     0.163 HD
BRANCH   3   6
ATOM      6  C   UNL A   1      42.636  26.777  26.422  1.00  0.00     0.040 A 
ATOM      7  C   UNL A   1      42.765  24.380  26.867  1.00  0.00    -0.010 A 
ATOM      8  C   UNL A   1      43.667  24.657  27.902  1.00  0.00     0.007 A 
ATOM      9  C   UNL A   1      42.331  25.455  26.077  1.00  0.00     0.021 A 
ATOM     10  C   UNL A   1      44.091  25.964  28.162  1.00  0.00     0.001 A 
ATOM     11  C   UNL A   1      43.561  27.028  27.438  1.00  0.00     0.014 A 
BRANCH   7  12
ATOM     12  C   UNL A   1      42.226  22.997  26.528  1.00  0.00     0.265 C 
BRANCH  12  13
ATOM     13  O   UNL A   1      41.142  22.510  27.324  1.00  0.00    -0.489 OA
BRANCH  13  14
ATOM     14  C   UNL A   1      39.882  22.652  26.818  1.00  0.00     0.119 A 
ATOM     15  C   UNL A   1      37.550  22.850  25.309  1.00  0.00    -0.024 A 
ATOM     16  C   UNL A   1      38.251  21.641  25.356  1.00  0.00     0.012 A 
ATOM     17  C   UNL A   1      37.957  23.924  26.101  1.00  0.00     0.012 A 
ATOM     18  C   UNL A   1      39.412  21.540  26.117  1.00  0.00     0.047 A 
ATOM     19  C   UNL A   1      39.120  23.821  26.864  1.00  0.00     0.047 A 
BRANCH  15  20
ATOM     20  C   UNL A   1      36.450  22.977  24.358  1.00  0.00     0.027 C 
ATOM     21  N   UNL A   1      32.873  23.444  24.010  1.00  0.00    -0.281 N 
ATOM     22  C   UNL A   1      34.184  23.215  23.592  1.00  0.00     0.265 C 
ATOM     23  C   UNL A   1      32.361  22.912  25.190  1.00  0.00     0.183 C 
ATOM     24  O   UNL A   1      34.555  23.331  22.425  1.00  0.00    -0.268 OA
ATOM     25  C   UNL A   1      35.144  22.805  24.650  1.00  0.00     0.106 C 
ATOM     26  N   UNL A   1      33.266  22.375  26.065  1.00  0.00    -0.298 N 
ATOM     27  S   UNL A   1      30.755  22.844  25.670  1.00  0.00    -0.040 S 
ATOM     28  C   UNL A   1      34.628  22.318  25.948  1.00  0.00     0.263 C 
ATOM     29  H   UNL A   1      32.889  21.981  26.883  1.00  0.00     0.172 HD
ATOM     30  O   UNL A   1      35.301  21.870  26.860  1.00  0.00    -0.269 OA
BRANCH  21  31
ATOM     31  C   UNL A   1      32.025  24.152  23.042  1.00  0.00     0.155 C 
BRANCH  31  32
ATOM     32  C   UNL A   1      32.089  25.641  23.266  1.00  0.00    -0.013 C 
ATOM     33  C   UNL A   1      32.400  26.253  24.416  1.00  0.00     0.006 C 
ENDBRANCH  31  32
ENDBRANCH  21  31
ENDBRANCH  15  20
ENDBRANCH  13  14
ENDBRANCH  12  13
ENDBRANCH   7  12
ENDBRANCH   3   6
ENDBRANCH   1   2
BRANCH   1  34
ATOM     34  C   UNL A   1      39.397  27.580  27.931  1.00  0.00     0.021 C 
BRANCH  34  35
ATOM     35  C   UNL A   1      39.383  26.721  29.194  1.00  0.00     0.002 C 
BRANCH  35  36
ATOM     36  C   UNL A   1      39.465  27.462  30.530  1.00  0.00     0.002 C 
BRANCH  36  37
ATOM     37  C   UNL A   1      38.222  27.410  31.419  1.00  0.00     0.021 C 
BRANCH  37  38
ATOM     38  C   UNL A   1      38.392  27.950  32.834  1.00  0.00     0.116 C 
BRANCH  38  39
ATOM     39  N   UNL A   1      37.546  29.098  33.113  1.00  0.00    -0.352 N 
ATOM     40  C   UNL A   1      37.766  30.425  32.831  1.00  0.00     0.251 C 
ATOM     41  H   UNL A   1      36.696  28.897  33.568  1.00  0.00     0.163 HD
ATOM     42  O   UNL A   1      36.995  31.286  33.242  1.00  0.00    -0.269 OA
BRANCH  40  43
ATOM     43  C   UNL A   1      38.961  30.819  32.053  1.00  0.00     0.039 A 
ATOM     44  C   UNL A   1      38.886  30.830  30.658  1.00  0.00     0.014 A 
ATOM     45  C   UNL A   1      40.142  31.193  32.699  1.00  0.00     0.014 A 
ATOM     46  C   UNL A   1      39.971  31.291  29.908  1.00  0.00     0.010 A 
ATOM     47  C   UNL A   1      41.200  31.709  31.955  1.00  0.00     0.010 A 
ATOM     48  C   UNL A   1      41.122  31.770  30.554  1.00  0.00    -0.014 A 
BRANCH  48  49
ATOM     49  C   UNL A   1      42.262  32.345  29.797  1.00  0.00     0.031 A 
ATOM     50  C   UNL A   1      43.502  31.525  29.576  1.00  0.00     0.074 A 
ATOM     51  C   UNL A   1      42.225  33.631  29.399  1.00  0.00     0.049 A 
ATOM     52  N   UNL A   1      44.659  31.891  29.088  1.00  0.00    -0.248 NA
ATOM     53  C   UNL A   1      43.438  30.112  29.983  1.00  0.00     0.031 C 
ATOM     54  C   UNL A   1      41.090  34.541  29.568  1.00  0.00     0.029 A 
ATOM     55  N   UNL A   1      43.181  34.404  28.788  1.00  0.00    -0.354 N 
ATOM     56  C   UNL A   1      45.469  30.765  29.157  1.00  0.00     0.074 A 
ATOM     57  C   UNL A   1      44.682  29.713  29.763  1.00  0.00     0.031 C 
ATOM     58  C   UNL A   1      41.413  35.743  29.066  1.00  0.00     0.029 A 
ATOM     59  C   UNL A   1      42.791  35.705  28.584  1.00  0.00     0.049 A 
ATOM     60  H   UNL A   1      44.064  34.059  28.522  1.00  0.00     0.167 HD
ATOM     61  C   UNL A   1      46.751  30.618  28.744  1.00  0.00     0.031 A 
ATOM     62  C   UNL A   1      43.471  36.755  28.086  1.00  0.00     0.031 A 
ATOM     63  C   UNL A   1      47.526  31.657  28.125  1.00  0.00     0.049 A 
ATOM     64  C   UNL A   1      44.898  36.572  27.652  1.00  0.00     0.074 A 
ATOM     65  C   UNL A   1      48.816  31.589  27.626  1.00  0.00     0.029 A 
ATOM     66  N   UNL A   1      47.084  32.954  27.918  1.00  0.00    -0.354 N 
ATOM     67  N   UNL A   1      45.637  35.490  27.687  1.00  0.00    -0.248 NA
ATOM     68  C   UNL A   1      45.584  37.753  27.108  1.00  0.00     0.031 C 
ATOM     69  C   UNL A   1      49.168  32.857  27.153  1.00  0.00     0.029 A 
ATOM     70  C   UNL A   1      48.081  33.700  27.314  1.00  0.00     0.049 A 
ATOM     71  H   UNL A   1      46.192  33.294  28.163  1.00  0.00     0.167 HD
ATOM     72  C   UNL A   1      46.861  35.850  27.139  1.00  0.00     0.074 A 
ATOM     73  C   UNL A   1      46.766  37.249  26.779  1.00  0.00     0.031 C 
ATOM     74  C   UNL A   1      47.964  35.087  26.948  1.00  0.00     0.031 A 
BRANCH  61  75
ATOM     75  C   UNL A   1      47.398  29.280  28.963  1.00  0.00    -0.014 A 
ATOM     76  C   UNL A   1      47.273  28.248  28.020  1.00  0.00     0.009 A 
ATOM     77  C   UNL A   1      48.171  29.060  30.114  1.00  0.00     0.009 A 
ATOM     78  C   UNL A   1      47.882  27.011  28.241  1.00  0.00     0.001 A 
ATOM     79  C   UNL A   1      48.800  27.831  30.319  1.00  0.00     0.001 A 
ATOM     80  C   UNL A   1      48.647  26.805  29.388  1.00  0.00     0.000 A 
ENDBRANCH  61  75
BRANCH  62  81
ATOM     81  C   UNL A   1      42.809  38.080  27.966  1.00  0.00    -0.014 A 
ATOM     82  C   UNL A   1      42.894  39.012  29.011  1.00  0.00     0.009 A 
ATOM     83  C   UNL A   1      42.088  38.419  26.810  1.00  0.00     0.009 A 
ATOM     84  C   UNL A   1      42.252  40.248  28.911  1.00  0.00     0.001 A 
ATOM     85  C   UNL A   1      41.468  39.666  26.703  1.00  0.00     0.001 A 
ATOM     86  C   UNL A   1      41.544  40.576  27.756  1.00  0.00     0.000 A 
ENDBRANCH  62  81
BRANCH  74  87
ATOM     87  C   UNL A   1      49.143  35.728  26.274  1.00  0.00    -0.014 A 
ATOM     88  C   UNL A   1      50.172  36.324  27.017  1.00  0.00     0.009 A 
ATOM     89  C   UNL A   1      49.255  35.665  24.876  1.00  0.00     0.009 A 
ATOM     90  C   UNL A   1      51.286  36.861  26.369  1.00  0.00     0.001 A 
ATOM     91  C   UNL A   1      50.380  36.183  24.234  1.00  0.00     0.001 A 
ATOM     92  C   UNL A   1      51.392  36.784  24.980  1.00  0.00     0.000 A 
ENDBRANCH  74  87
ENDBRANCH  48  49
ENDBRANCH  40  43
ENDBRANCH  38  39
ENDBRANCH  37  38
ENDBRANCH  36  37
ENDBRANCH  35  36
ENDBRANCH  34  35
ENDBRANCH   1  34
TORSDOF 19
ENDMDL
