MODEL 1
REMARK VINA RESULT:     -10.9      0.000      0.000
REMARK SMILES CC(C)C[C@H](NC(=O)[C@H](Cc1ccccc1)NC(=O)CNC(=O)C[NH3+])C(=O)NCCCCCCNC(=O)c1ccc(-c2c3nc(c(-c4ccccc4)c4ccc([nH]4)c(-c4ccccc4)c4nc(c(-c5ccccc5)c5ccc2[nH]5)C=C4)C=C3)cc1
REMARK SMILES IDX 29 1 28 2 26 3 27 4 5 6 4 7 2 8 1 9 3 10 6 11 7 12 8 14 9 15
REMARK SMILES IDX 17 16 18 17 19 19 20 20 21 21 22 22 23 24 24 25 25 26 10 30
REMARK SMILES IDX 11 31 12 32 16 33 13 34 15 35 14 36 30 37 31 38 32 39 33 40
REMARK SMILES IDX 34 41 35 42 36 43 37 45 38 46 39 47 85 48 40 49 84 50 41 51
REMARK SMILES IDX 42 52 43 53 78 54 44 55 83 56 77 57 79 58 45 59 82 60 76 61
REMARK SMILES IDX 75 62 46 64 68 65 53 66 67 67 54 68 57 69 66 70 80 71 55 72
REMARK SMILES IDX 56 73 65 75 81 76 58 77 47 78 48 79 52 80 49 81 51 82 50 83
REMARK SMILES IDX 69 84 70 85 74 86 71 87 73 88 72 89 59 90 60 91 64 92 61 93
REMARK SMILES IDX 63 94 62 95
REMARK H PARENT 28 5 6 13 17 18 21 23 25 27 25 28 25 29 35 44 79 63 57 74
REMARK Flexibility Score: inf
ROOT
ATOM      1  C   UNL A   1      30.846  26.665  25.909  1.00  0.00     0.116 C 
ENDROOT
BRANCH   1   2
ATOM      2  N   UNL A   1      30.533  25.382  26.517  1.00  0.00    -0.354 N 
ATOM      3  C   UNL A   1      31.237  24.207  26.557  1.00  0.00     0.242 C 
ATOM      4  O   UNL A   1      30.782  23.286  27.244  1.00  0.00    -0.273 OA
ATOM      5  H   UNL A   1      29.665  25.352  26.980  1.00  0.00     0.163 HD
BRANCH   3   6
ATOM      6  C   UNL A   1      32.659  24.128  25.984  1.00  0.00     0.171 C 
BRANCH   6   7
ATOM      7  C   UNL A   1      32.388  23.729  24.506  1.00  0.00     0.038 C 
BRANCH   7   8
ATOM      8  C   UNL A   1      32.634  24.646  23.304  1.00  0.00    -0.015 C 
ATOM      9  C   UNL A   1      33.645  25.757  23.567  1.00  0.00     0.007 C 
ATOM     10  C   UNL A   1      33.180  23.748  22.172  1.00  0.00     0.007 C 
ENDBRANCH   7   8
ENDBRANCH   6   7
BRANCH   6  11
ATOM     11  N   UNL A   1      33.566  23.321  26.795  1.00  0.00    -0.343 N 
ATOM     12  C   UNL A   1      33.965  22.014  26.636  1.00  0.00     0.243 C 
ATOM     13  H   UNL A   1      33.950  23.783  27.575  1.00  0.00     0.164 HD
ATOM     14  O   UNL A   1      34.393  21.454  27.657  1.00  0.00    -0.273 OA
BRANCH  12  15
ATOM     15  C   UNL A   1      33.951  21.241  25.275  1.00  0.00     0.175 C 
BRANCH  15  16
ATOM     16  N   UNL A   1      35.084  20.270  25.359  1.00  0.00    -0.342 N 
ATOM     17  C   UNL A   1      36.412  20.317  25.073  1.00  0.00     0.240 C 
ATOM     18  H   UNL A   1      34.803  19.391  25.699  1.00  0.00     0.164 HD
ATOM     19  O   UNL A   1      37.010  19.245  24.945  1.00  0.00    -0.273 OA
BRANCH  17  20
ATOM     20  C   UNL A   1      37.166  21.634  24.943  1.00  0.00     0.216 C 
BRANCH  20  21
ATOM     21  N   UNL A   1      37.907  22.083  26.109  1.00  0.00    -0.342 N 
ATOM     22  C   UNL A   1      39.236  21.860  26.364  1.00  0.00     0.275 C 
ATOM     23  H   UNL A   1      37.405  22.597  26.782  1.00  0.00     0.164 HD
ATOM     24  O   UNL A   1      39.799  22.474  27.270  1.00  0.00    -0.268 OA
BRANCH  22  25
ATOM     25  C   UNL A   1      39.988  20.844  25.506  1.00  0.00     0.360 C 
BRANCH  25  26
ATOM     26  N   UNL A   1      39.930  19.545  26.159  1.00  0.00    -0.350 N 
ATOM     27  H   UNL A   1      39.404  19.625  27.029  1.00  0.00     0.344 HD
ATOM     28  H   UNL A   1      40.876  19.223  26.362  1.00  0.00     0.344 HD
ATOM     29  H   UNL A   1      39.467  18.876  25.543  1.00  0.00     0.344 HD
ENDBRANCH  25  26
ENDBRANCH  22  25
ENDBRANCH  20  21
ENDBRANCH  17  20
ENDBRANCH  15  16
BRANCH  15  30
ATOM     30  C   UNL A   1      32.684  20.380  25.061  1.00  0.00     0.070 C 
BRANCH  30  31
ATOM     31  C   UNL A   1      32.884  18.919  24.775  1.00  0.00    -0.045 A 
ATOM     32  C   UNL A   1      33.191  18.498  23.471  1.00  0.00     0.004 A 
ATOM     33  C   UNL A   1      32.807  17.967  25.799  1.00  0.00     0.004 A 
ATOM     34  C   UNL A   1      33.465  17.156  23.207  1.00  0.00     0.000 A 
ATOM     35  C   UNL A   1      33.092  16.625  25.532  1.00  0.00     0.000 A 
ATOM     36  C   UNL A   1      33.431  16.224  24.241  1.00  0.00     0.000 A 
ENDBRANCH  30  31
ENDBRANCH  15  30
ENDBRANCH  12  15
ENDBRANCH   6  11
ENDBRANCH   3   6
ENDBRANCH   1   2
BRANCH   1  37
ATOM     37  C   UNL A   1      31.469  27.693  26.849  1.00  0.00     0.021 C 
BRANCH  37  38
ATOM     38  C   UNL A   1      31.755  29.072  26.262  1.00  0.00     0.002 C 
BRANCH  38  39
ATOM     39  C   UNL A   1      32.509  30.058  27.150  1.00  0.00     0.002 C 
BRANCH  39  40
ATOM     40  C   UNL A   1      32.134  31.519  26.935  1.00  0.00     0.021 C 
BRANCH  40  41
ATOM     41  C   UNL A   1      33.158  32.511  27.465  1.00  0.00     0.116 C 
BRANCH  41  42
ATOM     42  N   UNL A   1      32.625  33.856  27.631  1.00  0.00    -0.352 N 
ATOM     43  C   UNL A   1      33.020  34.806  28.547  1.00  0.00     0.251 C 
ATOM     44  H   UNL A   1      31.898  34.115  27.020  1.00  0.00     0.163 HD
ATOM     45  O   UNL A   1      32.427  35.871  28.668  1.00  0.00    -0.269 OA
BRANCH  43  46
ATOM     46  C   UNL A   1      34.167  34.477  29.408  1.00  0.00     0.039 A 
ATOM     47  C   UNL A   1      33.933  33.905  30.659  1.00  0.00     0.014 A 
ATOM     48  C   UNL A   1      35.460  34.586  28.892  1.00  0.00     0.014 A 
ATOM     49  C   UNL A   1      35.007  33.367  31.366  1.00  0.00     0.010 A 
ATOM     50  C   UNL A   1      36.509  33.965  29.554  1.00  0.00     0.010 A 
ATOM     51  C   UNL A   1      36.293  33.353  30.798  1.00  0.00    -0.014 A 
BRANCH  51  52
ATOM     52  C   UNL A   1      37.424  32.694  31.494  1.00  0.00     0.031 A 
ATOM     53  C   UNL A   1      38.111  31.517  30.862  1.00  0.00     0.074 A 
ATOM     54  C   UNL A   1      37.794  33.123  32.717  1.00  0.00     0.049 A 
ATOM     55  N   UNL A   1      39.129  30.823  31.304  1.00  0.00    -0.248 NA
ATOM     56  C   UNL A   1      37.563  31.034  29.584  1.00  0.00     0.031 C 
ATOM     57  C   UNL A   1      37.159  34.210  33.467  1.00  0.00     0.029 A 
ATOM     58  N   UNL A   1      38.807  32.700  33.541  1.00  0.00    -0.354 N 
ATOM     59  C   UNL A   1      39.327  29.815  30.369  1.00  0.00     0.074 A 
ATOM     60  C   UNL A   1      38.285  29.945  29.375  1.00  0.00     0.031 C 
ATOM     61  C   UNL A   1      37.832  34.406  34.612  1.00  0.00     0.029 A 
ATOM     62  C   UNL A   1      38.923  33.440  34.693  1.00  0.00     0.049 A 
ATOM     63  H   UNL A   1      39.393  31.939  33.327  1.00  0.00     0.167 HD
ATOM     64  C   UNL A   1      40.305  28.881  30.324  1.00  0.00     0.031 A 
ATOM     65  C   UNL A   1      39.821  33.360  35.691  1.00  0.00     0.031 A 
ATOM     66  C   UNL A   1      41.350  28.766  31.303  1.00  0.00     0.049 A 
ATOM     67  C   UNL A   1      40.910  32.327  35.611  1.00  0.00     0.074 A 
ATOM     68  C   UNL A   1      42.436  27.909  31.310  1.00  0.00     0.029 A 
ATOM     69  N   UNL A   1      41.435  29.534  32.454  1.00  0.00    -0.354 N 
ATOM     70  N   UNL A   1      41.145  31.444  34.671  1.00  0.00    -0.248 NA
ATOM     71  C   UNL A   1      41.868  32.293  36.725  1.00  0.00     0.031 C 
ATOM     72  C   UNL A   1      43.150  28.123  32.495  1.00  0.00     0.029 A 
ATOM     73  C   UNL A   1      42.538  29.151  33.197  1.00  0.00     0.049 A 
ATOM     74  H   UNL A   1      40.804  30.247  32.706  1.00  0.00     0.167 HD
ATOM     75  C   UNL A   1      42.287  30.762  35.067  1.00  0.00     0.074 A 
ATOM     76  C   UNL A   1      42.710  31.352  36.322  1.00  0.00     0.031 C 
ATOM     77  C   UNL A   1      42.931  29.741  34.451  1.00  0.00     0.031 A 
BRANCH  64  78
ATOM     78  C   UNL A   1      40.274  27.912  29.173  1.00  0.00    -0.014 A 
ATOM     79  C   UNL A   1      40.900  28.208  27.951  1.00  0.00     0.009 A 
ATOM     80  C   UNL A   1      39.605  26.687  29.312  1.00  0.00     0.009 A 
ATOM     81  C   UNL A   1      40.813  27.321  26.876  1.00  0.00     0.001 A 
ATOM     82  C   UNL A   1      39.547  25.787  28.246  1.00  0.00     0.001 A 
ATOM     83  C   UNL A   1      40.139  26.110  27.026  1.00  0.00     0.000 A 
ENDBRANCH  64  78
BRANCH  65  84
ATOM     84  C   UNL A   1      39.763  34.318  36.826  1.00  0.00    -0.014 A 
ATOM     85  C   UNL A   1      40.326  35.599  36.700  1.00  0.00     0.009 A 
ATOM     86  C   UNL A   1      39.147  33.965  38.036  1.00  0.00     0.009 A 
ATOM     87  C   UNL A   1      40.293  36.496  37.770  1.00  0.00     0.001 A 
ATOM     88  C   UNL A   1      39.092  34.874  39.095  1.00  0.00     0.001 A 
ATOM     89  C   UNL A   1      39.672  36.135  38.964  1.00  0.00     0.000 A 
ENDBRANCH  65  84
BRANCH  77  90
ATOM     90  C   UNL A   1      44.165  29.210  35.123  1.00  0.00    -0.014 A 
ATOM     91  C   UNL A   1      45.430  29.756  34.856  1.00  0.00     0.009 A 
ATOM     92  C   UNL A   1      44.055  28.165  36.055  1.00  0.00     0.009 A 
ATOM     93  C   UNL A   1      46.567  29.238  35.479  1.00  0.00     0.001 A 
ATOM     94  C   UNL A   1      45.190  27.671  36.698  1.00  0.00     0.001 A 
ATOM     95  C   UNL A   1      46.445  28.199  36.402  1.00  0.00     0.000 A 
ENDBRANCH  77  90
ENDBRANCH  51  52
ENDBRANCH  43  46
ENDBRANCH  41  42
ENDBRANCH  40  41
ENDBRANCH  39  40
ENDBRANCH  38  39
ENDBRANCH  37  38
ENDBRANCH   1  37
TORSDOF 24
ENDMDL
MODEL 2
REMARK VINA RESULT:     -10.9      0.727      5.621
REMARK SMILES CC(C)C[C@H](NC(=O)[C@H](Cc1ccccc1)NC(=O)CNC(=O)C[NH3+])C(=O)NCCCCCCNC(=O)c1ccc(-c2c3nc(c(-c4ccccc4)c4ccc([nH]4)c(-c4ccccc4)c4nc(c(-c5ccccc5)c5ccc2[nH]5)C=C4)C=C3)cc1
REMARK SMILES IDX 29 1 28 2 26 3 27 4 5 6 4 7 2 8 1 9 3 10 6 11 7 12 8 14 9 15
REMARK SMILES IDX 17 16 18 17 19 19 20 20 21 21 22 22 23 24 24 25 25 26 10 30
REMARK SMILES IDX 11 31 12 32 16 33 13 34 15 35 14 36 30 37 31 38 32 39 33 40
REMARK SMILES IDX 34 41 35 42 36 43 37 45 38 46 39 47 85 48 40 49 84 50 41 51
REMARK SMILES IDX 42 52 43 53 78 54 44 55 83 56 77 57 79 58 45 59 82 60 76 61
REMARK SMILES IDX 75 62 46 64 68 65 53 66 67 67 54 68 57 69 66 70 80 71 55 72
REMARK SMILES IDX 56 73 65 75 81 76 58 77 47 78 48 79 52 80 49 81 51 82 50 83
REMARK SMILES IDX 69 84 70 85 74 86 71 87 73 88 72 89 59 90 60 91 64 92 61 93
REMARK SMILES IDX 63 94 62 95
REMARK H PARENT 28 5 6 13 17 18 21 23 25 27 25 28 25 29 35 44 79 63 57 74
REMARK Flexibility Score: inf
ROOT
ATOM      1  C   UNL A   1      30.660  26.647  25.817  1.00  0.00     0.116 C 
ENDROOT
BRANCH   1   2
ATOM      2  N   UNL A   1      30.293  25.394  26.457  1.00  0.00    -0.354 N 
ATOM      3  C   UNL A   1      30.932  24.182  26.498  1.00  0.00     0.242 C 
ATOM      4  O   UNL A   1      30.446  23.299  27.215  1.00  0.00    -0.273 OA
ATOM      5  H   UNL A   1      29.439  25.421  26.945  1.00  0.00     0.163 HD
BRANCH   3   6
ATOM      6  C   UNL A   1      32.329  24.013  25.886  1.00  0.00     0.171 C 
BRANCH   6   7
ATOM      7  C   UNL A   1      31.996  23.443  24.479  1.00  0.00     0.038 C 
BRANCH   7   8
ATOM      8  C   UNL A   1      32.388  24.114  23.159  1.00  0.00    -0.015 C 
ATOM      9  C   UNL A   1      33.228  25.376  23.329  1.00  0.00     0.007 C 
ATOM     10  C   UNL A   1      33.219  23.079  22.370  1.00  0.00     0.007 C 
ENDBRANCH   7   8
ENDBRANCH   6   7
BRANCH   6  11
ATOM     11  N   UNL A   1      33.258  23.297  26.755  1.00  0.00    -0.343 N 
ATOM     12  C   UNL A   1      33.689  21.991  26.700  1.00  0.00     0.243 C 
ATOM     13  H   UNL A   1      33.635  23.830  27.492  1.00  0.00     0.164 HD
ATOM     14  O   UNL A   1      34.135  21.526  27.759  1.00  0.00    -0.273 OA
BRANCH  12  15
ATOM     15  C   UNL A   1      33.689  21.111  25.406  1.00  0.00     0.175 C 
BRANCH  15  16
ATOM     16  N   UNL A   1      34.943  20.301  25.477  1.00  0.00    -0.342 N 
ATOM     17  C   UNL A   1      36.182  20.401  24.929  1.00  0.00     0.240 C 
ATOM     18  H   UNL A   1      34.849  19.510  26.055  1.00  0.00     0.164 HD
ATOM     19  O   UNL A   1      36.892  19.390  24.928  1.00  0.00    -0.273 OA
BRANCH  17  20
ATOM     20  C   UNL A   1      36.714  21.709  24.359  1.00  0.00     0.216 C 
BRANCH  20  21
ATOM     21  N   UNL A   1      36.836  22.824  25.282  1.00  0.00    -0.342 N 
ATOM     22  C   UNL A   1      37.958  23.180  25.985  1.00  0.00     0.275 C 
ATOM     23  H   UNL A   1      36.033  23.379  25.415  1.00  0.00     0.164 HD
ATOM     24  O   UNL A   1      38.004  24.266  26.561  1.00  0.00    -0.268 OA
BRANCH  22  25
ATOM     25  C   UNL A   1      39.134  22.204  26.034  1.00  0.00     0.360 C 
BRANCH  25  26
ATOM     26  N   UNL A   1      39.765  22.297  27.340  1.00  0.00    -0.350 N 
ATOM     27  H   UNL A   1      40.139  23.237  27.472  1.00  0.00     0.344 HD
ATOM     28  H   UNL A   1      40.524  21.617  27.401  1.00  0.00     0.344 HD
ATOM     29  H   UNL A   1      39.075  22.101  28.066  1.00  0.00     0.344 HD
ENDBRANCH  25  26
ENDBRANCH  22  25
ENDBRANCH  20  21
ENDBRANCH  17  20
ENDBRANCH  15  16
BRANCH  15  30
ATOM     30  C   UNL A   1      32.535  20.082  25.352  1.00  0.00     0.070 C 
BRANCH  30  31
ATOM     31  C   UNL A   1      32.882  18.677  24.946  1.00  0.00    -0.045 A 
ATOM     32  C   UNL A   1      32.777  17.634  25.880  1.00  0.00     0.004 A 
ATOM     33  C   UNL A   1      33.273  18.382  23.635  1.00  0.00     0.004 A 
ATOM     34  C   UNL A   1      33.011  16.314  25.496  1.00  0.00     0.000 A 
ATOM     35  C   UNL A   1      33.496  17.058  23.250  1.00  0.00     0.000 A 
ATOM     36  C   UNL A   1      33.355  16.025  24.178  1.00  0.00     0.000 A 
ENDBRANCH  30  31
ENDBRANCH  15  30
ENDBRANCH  12  15
ENDBRANCH   6  11
ENDBRANCH   3   6
ENDBRANCH   1   2
BRANCH   1  37
ATOM     37  C   UNL A   1      31.517  27.582  26.666  1.00  0.00     0.021 C 
BRANCH  37  38
ATOM     38  C   UNL A   1      31.817  28.958  26.078  1.00  0.00     0.002 C 
BRANCH  38  39
ATOM     39  C   UNL A   1      32.701  29.886  26.907  1.00  0.00     0.002 C 
BRANCH  39  40
ATOM     40  C   UNL A   1      32.174  31.307  27.045  1.00  0.00     0.021 C 
BRANCH  40  41
ATOM     41  C   UNL A   1      33.238  32.339  27.389  1.00  0.00     0.116 C 
BRANCH  41  42
ATOM     42  N   UNL A   1      32.698  33.672  27.611  1.00  0.00    -0.352 N 
ATOM     43  C   UNL A   1      33.119  34.603  28.535  1.00  0.00     0.251 C 
ATOM     44  H   UNL A   1      31.945  33.939  27.035  1.00  0.00     0.163 HD
ATOM     45  O   UNL A   1      32.519  35.658  28.707  1.00  0.00    -0.269 OA
BRANCH  43  46
ATOM     46  C   UNL A   1      34.301  34.265  29.342  1.00  0.00     0.039 A 
ATOM     47  C   UNL A   1      34.143  33.474  30.479  1.00  0.00     0.014 A 
ATOM     48  C   UNL A   1      35.570  34.599  28.863  1.00  0.00     0.014 A 
ATOM     49  C   UNL A   1      35.274  32.947  31.099  1.00  0.00     0.010 A 
ATOM     50  C   UNL A   1      36.687  33.997  29.425  1.00  0.00     0.010 A 
ATOM     51  C   UNL A   1      36.550  33.169  30.549  1.00  0.00    -0.014 A 
BRANCH  51  52
ATOM     52  C   UNL A   1      37.752  32.533  31.140  1.00  0.00     0.031 A 
ATOM     53  C   UNL A   1      38.272  33.002  32.468  1.00  0.00     0.074 A 
ATOM     54  C   UNL A   1      38.403  31.574  30.454  1.00  0.00     0.049 A 
ATOM     55  N   UNL A   1      39.293  32.558  33.157  1.00  0.00    -0.248 NA
ATOM     56  C   UNL A   1      37.576  34.140  33.092  1.00  0.00     0.031 C 
ATOM     57  C   UNL A   1      38.039  31.082  29.122  1.00  0.00     0.029 A 
ATOM     58  N   UNL A   1      39.507  30.830  30.790  1.00  0.00    -0.354 N 
ATOM     59  C   UNL A   1      39.370  33.374  34.278  1.00  0.00     0.074 A 
ATOM     60  C   UNL A   1      38.339  34.378  34.146  1.00  0.00     0.031 C 
ATOM     61  C   UNL A   1      38.867  30.081  28.781  1.00  0.00     0.029 A 
ATOM     62  C   UNL A   1      39.838  29.883  29.852  1.00  0.00     0.049 A 
ATOM     63  H   UNL A   1      40.013  30.964  31.623  1.00  0.00     0.167 HD
ATOM     64  C   UNL A   1      40.205  33.279  35.340  1.00  0.00     0.031 A 
ATOM     65  C   UNL A   1      40.804  28.946  29.865  1.00  0.00     0.031 A 
ATOM     66  C   UNL A   1      41.215  32.268  35.477  1.00  0.00     0.049 A 
ATOM     67  C   UNL A   1      41.707  28.847  31.062  1.00  0.00     0.074 A 
ATOM     68  C   UNL A   1      42.061  32.031  36.546  1.00  0.00     0.029 A 
ATOM     69  N   UNL A   1      41.520  31.325  34.507  1.00  0.00    -0.354 N 
ATOM     70  N   UNL A   1      41.705  29.561  32.161  1.00  0.00    -0.248 NA
ATOM     71  C   UNL A   1      42.737  27.799  31.025  1.00  0.00     0.031 C 
ATOM     72  C   UNL A   1      42.913  30.976  36.201  1.00  0.00     0.029 A 
ATOM     73  C   UNL A   1      42.561  30.522  34.939  1.00  0.00     0.049 A 
ATOM     74  H   UNL A   1      41.062  31.239  33.639  1.00  0.00     0.167 HD
ATOM     75  C   UNL A   1      42.716  29.039  32.955  1.00  0.00     0.074 A 
ATOM     76  C   UNL A   1      43.294  27.932  32.220  1.00  0.00     0.031 C 
ATOM     77  C   UNL A   1      43.131  29.436  34.183  1.00  0.00     0.031 A 
BRANCH  64  78
ATOM     78  C   UNL A   1      40.050  34.307  36.426  1.00  0.00    -0.014 A 
ATOM     79  C   UNL A   1      40.749  35.525  36.385  1.00  0.00     0.009 A 
ATOM     80  C   UNL A   1      39.196  34.054  37.510  1.00  0.00     0.009 A 
ATOM     81  C   UNL A   1      40.636  36.444  37.430  1.00  0.00     0.001 A 
ATOM     82  C   UNL A   1      39.059  34.987  38.539  1.00  0.00     0.001 A 
ATOM     83  C   UNL A   1      39.789  36.175  38.504  1.00  0.00     0.000 A 
ENDBRANCH  64  78
BRANCH  65  84
ATOM     84  C   UNL A   1      40.934  27.992  28.732  1.00  0.00    -0.014 A 
ATOM     85  C   UNL A   1      41.541  28.397  27.533  1.00  0.00     0.009 A 
ATOM     86  C   UNL A   1      40.458  26.676  28.841  1.00  0.00     0.009 A 
ATOM     87  C   UNL A   1      41.647  27.511  26.457  1.00  0.00     0.001 A 
ATOM     88  C   UNL A   1      40.590  25.785  27.773  1.00  0.00     0.001 A 
ATOM     89  C   UNL A   1      41.177  26.206  26.580  1.00  0.00     0.000 A 
ENDBRANCH  65  84
BRANCH  77  90
ATOM     90  C   UNL A   1      44.255  28.658  34.806  1.00  0.00    -0.014 A 
ATOM     91  C   UNL A   1      44.008  27.495  35.552  1.00  0.00     0.009 A 
ATOM     92  C   UNL A   1      45.581  29.083  34.623  1.00  0.00     0.009 A 
ATOM     93  C   UNL A   1      45.065  26.795  36.136  1.00  0.00     0.001 A 
ATOM     94  C   UNL A   1      46.636  28.362  35.183  1.00  0.00     0.001 A 
ATOM     95  C   UNL A   1      46.377  27.227  35.948  1.00  0.00     0.000 A 
ENDBRANCH  77  90
ENDBRANCH  51  52
ENDBRANCH  43  46
ENDBRANCH  41  42
ENDBRANCH  40  41
ENDBRANCH  39  40
ENDBRANCH  38  39
ENDBRANCH  37  38
ENDBRANCH   1  37
TORSDOF 24
ENDMDL
MODEL 3
REMARK VINA RESULT:     -10.7      2.170      6.621
REMARK SMILES CC(C)C[C@H](NC(=O)[C@H](Cc1ccccc1)NC(=O)CNC(=O)C[NH3+])C(=O)NCCCCCCNC(=O)c1ccc(-c2c3nc(c(-c4ccccc4)c4ccc([nH]4)c(-c4ccccc4)c4nc(c(-c5ccccc5)c5ccc2[nH]5)C=C4)C=C3)cc1
REMARK SMILES IDX 29 1 28 2 26 3 27 4 5 6 4 7 2 8 1 9 3 10 6 11 7 12 8 14 9 15
REMARK SMILES IDX 17 16 18 17 19 19 20 20 21 21 22 22 23 24 24 25 25 26 10 30
REMARK SMILES IDX 11 31 12 32 16 33 13 34 15 35 14 36 30 37 31 38 32 39 33 40
REMARK SMILES IDX 34 41 35 42 36 43 37 45 38 46 39 47 85 48 40 49 84 50 41 51
REMARK SMILES IDX 42 52 43 53 78 54 44 55 83 56 77 57 79 58 45 59 82 60 76 61
REMARK SMILES IDX 75 62 46 64 68 65 53 66 67 67 54 68 57 69 66 70 80 71 55 72
REMARK SMILES IDX 56 73 65 75 81 76 58 77 47 78 48 79 52 80 49 81 51 82 50 83
REMARK SMILES IDX 69 84 70 85 74 86 71 87 73 88 72 89 59 90 60 91 64 92 61 93
REMARK SMILES IDX 63 94 62 95
REMARK H PARENT 28 5 6 13 17 18 21 23 25 27 25 28 25 29 35 44 79 63 57 74
REMARK Flexibility Score: inf
ROOT
ATOM      1  C   UNL A   1      34.089  28.204  26.160  1.00  0.00     0.116 C 
ENDROOT
BRANCH   1   2
ATOM      2  N   UNL A   1      32.882  28.374  26.952  1.00  0.00    -0.354 N 
ATOM      3  C   UNL A   1      31.721  27.647  26.993  1.00  0.00     0.242 C 
ATOM      4  O   UNL A   1      30.881  27.950  27.848  1.00  0.00    -0.273 OA
ATOM      5  H   UNL A   1      32.901  29.145  27.564  1.00  0.00     0.163 HD
BRANCH   3   6
ATOM      6  C   UNL A   1      31.583  26.349  26.186  1.00  0.00     0.171 C 
BRANCH   6   7
ATOM      7  C   UNL A   1      30.840  26.840  24.912  1.00  0.00     0.038 C 
BRANCH   7   8
ATOM      8  C   UNL A   1      31.269  26.508  23.480  1.00  0.00    -0.015 C 
ATOM      9  C   UNL A   1      32.773  26.595  23.245  1.00  0.00     0.007 C 
ATOM     10  C   UNL A   1      30.818  25.056  23.212  1.00  0.00     0.007 C 
ENDBRANCH   7   8
ENDBRANCH   6   7
BRANCH   6  11
ATOM     11  N   UNL A   1      31.032  25.241  26.962  1.00  0.00    -0.343 N 
ATOM     12  C   UNL A   1      31.308  23.894  26.894  1.00  0.00     0.243 C 
ATOM     13  H   UNL A   1      30.361  25.496  27.635  1.00  0.00     0.164 HD
ATOM     14  O   UNL A   1      30.434  23.142  27.350  1.00  0.00    -0.273 OA
BRANCH  12  15
ATOM     15  C   UNL A   1      32.639  23.288  26.337  1.00  0.00     0.175 C 
BRANCH  15  16
ATOM     16  N   UNL A   1      32.244  22.511  25.123  1.00  0.00    -0.342 N 
ATOM     17  C   UNL A   1      32.513  21.265  24.652  1.00  0.00     0.240 C 
ATOM     18  H   UNL A   1      31.651  23.020  24.526  1.00  0.00     0.164 HD
ATOM     19  O   UNL A   1      32.295  21.045  23.457  1.00  0.00    -0.273 OA
BRANCH  17  20
ATOM     20  C   UNL A   1      33.036  20.153  25.552  1.00  0.00     0.216 C 
BRANCH  20  21
ATOM     21  N   UNL A   1      33.990  19.230  24.965  1.00  0.00    -0.342 N 
ATOM     22  C   UNL A   1      33.795  17.890  24.743  1.00  0.00     0.275 C 
ATOM     23  H   UNL A   1      34.862  19.601  24.701  1.00  0.00     0.164 HD
ATOM     24  O   UNL A   1      34.587  17.261  24.043  1.00  0.00    -0.268 OA
BRANCH  22  25
ATOM     25  C   UNL A   1      32.585  17.209  25.381  1.00  0.00     0.360 C 
BRANCH  25  26
ATOM     26  N   UNL A   1      32.908  15.813  25.627  1.00  0.00    -0.350 N 
ATOM     27  H   UNL A   1      32.654  15.255  24.812  1.00  0.00     0.344 HD
ATOM     28  H   UNL A   1      32.390  15.481  26.441  1.00  0.00     0.344 HD
ATOM     29  H   UNL A   1      33.910  15.722  25.802  1.00  0.00     0.344 HD
ENDBRANCH  25  26
ENDBRANCH  22  25
ENDBRANCH  20  21
ENDBRANCH  17  20
ENDBRANCH  15  16
BRANCH  15  30
ATOM     30  C   UNL A   1      33.646  24.351  25.837  1.00  0.00     0.070 C 
BRANCH  30  31
ATOM     31  C   UNL A   1      34.957  23.858  25.295  1.00  0.00    -0.045 A 
ATOM     32  C   UNL A   1      35.966  23.442  26.178  1.00  0.00     0.004 A 
ATOM     33  C   UNL A   1      35.178  23.769  23.915  1.00  0.00     0.004 A 
ATOM     34  C   UNL A   1      37.155  22.901  25.690  1.00  0.00     0.000 A 
ATOM     35  C   UNL A   1      36.367  23.217  23.429  1.00  0.00     0.000 A 
ATOM     36  C   UNL A   1      37.348  22.774  24.316  1.00  0.00     0.000 A 
ENDBRANCH  30  31
ENDBRANCH  15  30
ENDBRANCH  12  15
ENDBRANCH   6  11
ENDBRANCH   3   6
ENDBRANCH   1   2
BRANCH   1  37
ATOM     37  C   UNL A   1      35.311  28.963  26.671  1.00  0.00     0.021 C 
BRANCH  37  38
ATOM     38  C   UNL A   1      35.180  29.634  28.035  1.00  0.00     0.002 C 
BRANCH  38  39
ATOM     39  C   UNL A   1      35.481  31.129  28.101  1.00  0.00     0.002 C 
BRANCH  39  40
ATOM     40  C   UNL A   1      34.252  32.026  28.054  1.00  0.00     0.021 C 
BRANCH  40  41
ATOM     41  C   UNL A   1      34.559  33.513  28.153  1.00  0.00     0.116 C 
BRANCH  41  42
ATOM     42  N   UNL A   1      33.734  34.208  29.131  1.00  0.00    -0.352 N 
ATOM     43  C   UNL A   1      33.936  34.289  30.490  1.00  0.00     0.251 C 
ATOM     44  H   UNL A   1      32.939  34.672  28.780  1.00  0.00     0.163 HD
ATOM     45  O   UNL A   1      33.116  34.813  31.235  1.00  0.00    -0.269 OA
BRANCH  43  46
ATOM     46  C   UNL A   1      35.165  33.684  31.027  1.00  0.00     0.039 A 
ATOM     47  C   UNL A   1      35.082  32.470  31.709  1.00  0.00     0.014 A 
ATOM     48  C   UNL A   1      36.400  34.247  30.698  1.00  0.00     0.014 A 
ATOM     49  C   UNL A   1      36.256  31.775  31.996  1.00  0.00     0.010 A 
ATOM     50  C   UNL A   1      37.557  33.509  30.901  1.00  0.00     0.010 A 
ATOM     51  C   UNL A   1      37.497  32.268  31.554  1.00  0.00    -0.014 A 
BRANCH  51  52
ATOM     52  C   UNL A   1      38.741  31.491  31.764  1.00  0.00     0.031 A 
ATOM     53  C   UNL A   1      39.613  31.779  32.953  1.00  0.00     0.074 A 
ATOM     54  C   UNL A   1      39.111  30.566  30.857  1.00  0.00     0.049 A 
ATOM     55  N   UNL A   1      40.725  31.194  33.320  1.00  0.00    -0.248 NA
ATOM     56  C   UNL A   1      39.201  32.890  33.827  1.00  0.00     0.031 C 
ATOM     57  C   UNL A   1      38.386  30.245  29.624  1.00  0.00     0.029 A 
ATOM     58  N   UNL A   1      40.188  29.716  30.839  1.00  0.00    -0.354 N 
ATOM     59  C   UNL A   1      41.151  31.879  34.451  1.00  0.00     0.074 A 
ATOM     60  C   UNL A   1      40.219  32.962  34.670  1.00  0.00     0.031 C 
ATOM     61  C   UNL A   1      39.007  29.231  29.001  1.00  0.00     0.029 A 
ATOM     62  C   UNL A   1      40.188  28.852  29.771  1.00  0.00     0.049 A 
ATOM     63  H   UNL A   1      40.893  29.725  31.525  1.00  0.00     0.167 HD
ATOM     64  C   UNL A   1      42.208  31.614  35.254  1.00  0.00     0.031 A 
ATOM     65  C   UNL A   1      41.034  27.854  29.459  1.00  0.00     0.031 A 
ATOM     66  C   UNL A   1      43.121  30.526  35.045  1.00  0.00     0.049 A 
ATOM     67  C   UNL A   1      42.191  27.565  30.375  1.00  0.00     0.074 A 
ATOM     68  C   UNL A   1      44.177  30.119  35.841  1.00  0.00     0.029 A 
ATOM     69  N   UNL A   1      43.088  29.672  33.953  1.00  0.00    -0.354 N 
ATOM     70  N   UNL A   1      42.525  28.158  31.495  1.00  0.00    -0.248 NA
ATOM     71  C   UNL A   1      43.076  26.458  29.990  1.00  0.00     0.031 C 
ATOM     72  C   UNL A   1      44.815  29.049  35.203  1.00  0.00     0.029 A 
ATOM     73  C   UNL A   1      44.123  28.757  34.037  1.00  0.00     0.049 A 
ATOM     74  H   UNL A   1      42.425  29.710  33.225  1.00  0.00     0.167 HD
ATOM     75  C   UNL A   1      43.646  27.485  31.961  1.00  0.00     0.074 A 
ATOM     76  C   UNL A   1      43.919  26.424  31.011  1.00  0.00     0.031 C 
ATOM     77  C   UNL A   1      44.385  27.720  33.073  1.00  0.00     0.031 A 
BRANCH  64  78
ATOM     78  C   UNL A   1      42.422  32.530  36.428  1.00  0.00    -0.014 A 
ATOM     79  C   UNL A   1      43.260  33.654  36.335  1.00  0.00     0.009 A 
ATOM     80  C   UNL A   1      41.781  32.263  37.647  1.00  0.00     0.009 A 
ATOM     81  C   UNL A   1      43.491  34.461  37.450  1.00  0.00     0.001 A 
ATOM     82  C   UNL A   1      41.987  33.090  38.753  1.00  0.00     0.001 A 
ATOM     83  C   UNL A   1      42.852  34.180  38.657  1.00  0.00     0.000 A 
ENDBRANCH  64  78
BRANCH  65  84
ATOM     84  C   UNL A   1      40.792  27.018  28.254  1.00  0.00    -0.014 A 
ATOM     85  C   UNL A   1      39.945  25.901  28.326  1.00  0.00     0.009 A 
ATOM     86  C   UNL A   1      41.399  27.329  27.028  1.00  0.00     0.009 A 
ATOM     87  C   UNL A   1      39.730  25.099  27.203  1.00  0.00     0.001 A 
ATOM     88  C   UNL A   1      41.161  26.541  25.899  1.00  0.00     0.001 A 
ATOM     89  C   UNL A   1      40.333  25.423  25.990  1.00  0.00     0.000 A 
ENDBRANCH  65  84
BRANCH  77  90
ATOM     90  C   UNL A   1      45.549  26.803  33.323  1.00  0.00    -0.014 A 
ATOM     91  C   UNL A   1      46.865  27.211  33.062  1.00  0.00     0.009 A 
ATOM     92  C   UNL A   1      45.323  25.520  33.849  1.00  0.00     0.009 A 
ATOM     93  C   UNL A   1      47.932  26.338  33.287  1.00  0.00     0.001 A 
ATOM     94  C   UNL A   1      46.394  24.662  34.100  1.00  0.00     0.001 A 
ATOM     95  C   UNL A   1      47.695  25.067  33.808  1.00  0.00     0.000 A 
ENDBRANCH  77  90
ENDBRANCH  51  52
ENDBRANCH  43  46
ENDBRANCH  41  42
ENDBRANCH  40  41
ENDBRANCH  39  40
ENDBRANCH  38  39
ENDBRANCH  37  38
ENDBRANCH   1  37
TORSDOF 24
ENDMDL
