MODEL 1
REMARK VINA RESULT:     -10.3      0.000      0.000
REMARK SMILES CCCCCCNC(=O)Oc1cccc(-c2ccc([C@@H](C)C(=O)NCCCCCCNC(=O)c3ccc(-c4c5nc(c(-c6ccccc6)c6ccc([nH]6)c(-c6ccccc6)c6nc(c(-c7ccccc7)c7ccc4[nH]7)C=C6)C=C5)cc3)cc2)c1
REMARK SMILES IDX 22 1 23 2 24 3 20 5 21 6 19 7 16 8 17 9 83 10 18 11 82 12
REMARK SMILES IDX 15 13 11 14 12 15 84 16 13 17 14 18 10 19 8 20 7 21 9 23
REMARK SMILES IDX 6 24 5 25 4 26 3 27 2 28 1 29 25 30 26 31 27 32 28 33 29 34
REMARK SMILES IDX 30 35 31 36 32 37 33 39 34 40 35 41 81 42 36 43 80 44 37 45
REMARK SMILES IDX 38 46 39 47 74 48 40 49 79 50 73 51 75 52 41 53 78 54 72 55
REMARK SMILES IDX 71 56 42 58 64 59 49 60 63 61 50 62 53 63 62 64 76 65 51 66
REMARK SMILES IDX 52 67 61 69 77 70 54 71 43 72 44 73 48 74 45 75 47 76 46 77
REMARK SMILES IDX 65 78 66 79 70 80 67 81 69 82 68 83 55 84 56 85 60 86 57 87
REMARK SMILES IDX 59 88 58 89
REMARK H PARENT 24 4 7 22 31 38 75 57 53 68
REMARK Flexibility Score: inf
ROOT
ATOM      1  C   UNL A   1      31.240  25.269  23.594  1.00  0.00     0.227 C 
ATOM      2  O   UNL A   1      31.039  25.366  22.376  1.00  0.00    -0.274 OA
ATOM      3  N   UNL A   1      32.128  24.315  23.985  1.00  0.00    -0.356 N 
ATOM      4  H   UNL A   1      32.576  23.850  23.240  1.00  0.00     0.163 HD
ENDROOT
BRANCH   1   5
ATOM      5  C   UNL A   1      30.520  26.215  24.566  1.00  0.00     0.105 C 
ATOM      6  C   UNL A   1      29.183  26.742  24.041  1.00  0.00     0.023 C 
BRANCH   5   7
ATOM      7  C   UNL A   1      31.433  27.245  25.210  1.00  0.00    -0.036 A 
ATOM      8  C   UNL A   1      33.218  29.054  26.520  1.00  0.00    -0.018 A 
ATOM      9  C   UNL A   1      33.208  28.909  25.126  1.00  0.00     0.009 A 
ATOM     10  C   UNL A   1      32.285  28.295  27.244  1.00  0.00     0.009 A 
ATOM     11  C   UNL A   1      32.312  28.049  24.482  1.00  0.00     0.005 A 
ATOM     12  C   UNL A   1      31.423  27.393  26.605  1.00  0.00     0.005 A 
BRANCH   8  13
ATOM     13  C   UNL A   1      34.184  29.957  27.186  1.00  0.00    -0.015 A 
ATOM     14  C   UNL A   1      34.824  32.156  28.006  1.00  0.00     0.133 A 
ATOM     15  C   UNL A   1      36.023  31.663  28.508  1.00  0.00     0.047 A 
ATOM     16  C   UNL A   1      33.914  31.326  27.347  1.00  0.00     0.056 A 
ATOM     17  C   UNL A   1      36.311  30.311  28.360  1.00  0.00     0.004 A 
ATOM     18  C   UNL A   1      35.405  29.474  27.699  1.00  0.00     0.009 A 
BRANCH  14  19
ATOM     19  O   UNL A   1      34.627  33.543  28.071  1.00  0.00    -0.410 OA
BRANCH  19  20
ATOM     20  C   UNL A   1      33.407  34.004  28.538  1.00  0.00     0.412 C 
ATOM     21  N   UNL A   1      33.429  34.302  29.873  1.00  0.00    -0.321 N 
ATOM     22  H   UNL A   1      32.585  34.616  30.270  1.00  0.00     0.167 HD
ATOM     23  O   UNL A   1      32.385  34.144  27.878  1.00  0.00    -0.224 OA
BRANCH  21  24
ATOM     24  C   UNL A   1      34.568  34.200  30.764  1.00  0.00     0.119 C 
BRANCH  24  25
ATOM     25  C   UNL A   1      34.405  33.062  31.771  1.00  0.00     0.021 C 
BRANCH  25  26
ATOM     26  C   UNL A   1      34.357  33.504  33.238  1.00  0.00     0.002 C 
BRANCH  26  27
ATOM     27  C   UNL A   1      35.613  34.214  33.754  1.00  0.00    -0.000 C 
BRANCH  27  28
ATOM     28  C   UNL A   1      35.893  34.050  35.250  1.00  0.00    -0.003 C 
ATOM     29  C   UNL A   1      37.309  33.583  35.549  1.00  0.00     0.004 C 
ENDBRANCH  27  28
ENDBRANCH  26  27
ENDBRANCH  25  26
ENDBRANCH  24  25
ENDBRANCH  21  24
ENDBRANCH  19  20
ENDBRANCH  14  19
ENDBRANCH   8  13
ENDBRANCH   5   7
ENDBRANCH   1   5
BRANCH   3  30
ATOM     30  C   UNL A   1      32.534  23.863  25.297  1.00  0.00     0.116 C 
BRANCH  30  31
ATOM     31  C   UNL A   1      33.781  24.600  25.792  1.00  0.00     0.021 C 
BRANCH  31  32
ATOM     32  C   UNL A   1      35.080  24.132  25.128  1.00  0.00     0.002 C 
BRANCH  32  33
ATOM     33  C   UNL A   1      35.079  22.672  24.652  1.00  0.00     0.002 C 
BRANCH  33  34
ATOM     34  C   UNL A   1      36.039  21.736  25.394  1.00  0.00     0.021 C 
BRANCH  34  35
ATOM     35  C   UNL A   1      37.496  21.835  24.948  1.00  0.00     0.116 C 
BRANCH  35  36
ATOM     36  N   UNL A   1      38.324  20.818  25.576  1.00  0.00    -0.352 N 
ATOM     37  C   UNL A   1      39.535  20.938  26.211  1.00  0.00     0.251 C 
ATOM     38  H   UNL A   1      37.961  19.903  25.542  1.00  0.00     0.163 HD
ATOM     39  O   UNL A   1      40.198  19.939  26.471  1.00  0.00    -0.269 OA
BRANCH  37  40
ATOM     40  C   UNL A   1      40.051  22.274  26.576  1.00  0.00     0.039 A 
ATOM     41  C   UNL A   1      41.227  22.365  27.326  1.00  0.00     0.014 A 
ATOM     42  C   UNL A   1      39.361  23.433  26.211  1.00  0.00     0.014 A 
ATOM     43  C   UNL A   1      41.743  23.619  27.659  1.00  0.00     0.010 A 
ATOM     44  C   UNL A   1      39.910  24.684  26.486  1.00  0.00     0.010 A 
ATOM     45  C   UNL A   1      41.105  24.789  27.213  1.00  0.00    -0.014 A 
BRANCH  45  46
ATOM     46  C   UNL A   1      41.677  26.129  27.493  1.00  0.00     0.031 A 
ATOM     47  C   UNL A   1      42.982  26.544  26.870  1.00  0.00     0.074 A 
ATOM     48  C   UNL A   1      41.054  26.948  28.362  1.00  0.00     0.049 A 
ATOM     49  N   UNL A   1      43.666  27.646  27.045  1.00  0.00    -0.248 NA
ATOM     50  C   UNL A   1      43.612  25.584  25.949  1.00  0.00     0.031 C 
ATOM     51  C   UNL A   1      39.804  26.648  29.062  1.00  0.00     0.029 A 
ATOM     52  N   UNL A   1      41.396  28.199  28.813  1.00  0.00    -0.354 N 
ATOM     53  C   UNL A   1      44.812  27.505  26.273  1.00  0.00     0.074 A 
ATOM     54  C   UNL A   1      44.754  26.195  25.664  1.00  0.00     0.031 C 
ATOM     55  C   UNL A   1      39.472  27.694  29.836  1.00  0.00     0.029 A 
ATOM     56  C   UNL A   1      40.504  28.720  29.718  1.00  0.00     0.049 A 
ATOM     57  H   UNL A   1      42.204  28.677  28.516  1.00  0.00     0.167 HD
ATOM     58  C   UNL A   1      45.816  28.394  26.075  1.00  0.00     0.031 A 
ATOM     59  C   UNL A   1      40.517  29.889  30.386  1.00  0.00     0.031 A 
ATOM     60  C   UNL A   1      45.869  29.702  26.674  1.00  0.00     0.049 A 
ATOM     61  C   UNL A   1      41.650  30.850  30.159  1.00  0.00     0.074 A 
ATOM     62  C   UNL A   1      46.813  30.696  26.486  1.00  0.00     0.029 A 
ATOM     63  N   UNL A   1      44.942  30.193  27.578  1.00  0.00    -0.354 N 
ATOM     64  N   UNL A   1      42.690  30.730  29.371  1.00  0.00    -0.248 NA
ATOM     65  C   UNL A   1      41.603  32.113  30.909  1.00  0.00     0.031 C 
ATOM     66  C   UNL A   1      46.484  31.772  27.319  1.00  0.00     0.029 A 
ATOM     67  C   UNL A   1      45.306  31.468  27.981  1.00  0.00     0.049 A 
ATOM     68  H   UNL A   1      44.143  29.709  27.890  1.00  0.00     0.167 HD
ATOM     69  C   UNL A   1      43.408  31.912  29.510  1.00  0.00     0.074 A 
ATOM     70  C   UNL A   1      42.675  32.740  30.446  1.00  0.00     0.031 C 
ATOM     71  C   UNL A   1      44.569  32.277  28.916  1.00  0.00     0.031 A 
BRANCH  58  72
ATOM     72  C   UNL A   1      46.948  27.973  25.179  1.00  0.00    -0.014 A 
ATOM     73  C   UNL A   1      48.106  27.376  25.701  1.00  0.00     0.009 A 
ATOM     74  C   UNL A   1      46.837  28.140  23.790  1.00  0.00     0.009 A 
ATOM     75  C   UNL A   1      49.146  26.989  24.853  1.00  0.00     0.001 A 
ATOM     76  C   UNL A   1      47.866  27.726  22.942  1.00  0.00     0.001 A 
ATOM     77  C   UNL A   1      49.023  27.160  23.474  1.00  0.00     0.000 A 
ENDBRANCH  58  72
BRANCH  59  78
ATOM     78  C   UNL A   1      39.416  30.221  31.326  1.00  0.00    -0.014 A 
ATOM     79  C   UNL A   1      38.522  31.262  31.035  1.00  0.00     0.009 A 
ATOM     80  C   UNL A   1      39.256  29.501  32.520  1.00  0.00     0.009 A 
ATOM     81  C   UNL A   1      37.505  31.594  31.934  1.00  0.00     0.001 A 
ATOM     82  C   UNL A   1      38.220  29.817  33.404  1.00  0.00     0.001 A 
ATOM     83  C   UNL A   1      37.353  30.869  33.114  1.00  0.00     0.000 A 
ENDBRANCH  59  78
BRANCH  71  84
ATOM     84  C   UNL A   1      45.105  33.644  29.238  1.00  0.00    -0.014 A 
ATOM     85  C   UNL A   1      46.130  33.820  30.181  1.00  0.00     0.009 A 
ATOM     86  C   UNL A   1      44.603  34.764  28.559  1.00  0.00     0.009 A 
ATOM     87  C   UNL A   1      46.617  35.099  30.460  1.00  0.00     0.001 A 
ATOM     88  C   UNL A   1      45.112  36.037  28.819  1.00  0.00     0.001 A 
ATOM     89  C   UNL A   1      46.113  36.204  29.775  1.00  0.00     0.000 A 
ENDBRANCH  71  84
ENDBRANCH  45  46
ENDBRANCH  37  40
ENDBRANCH  35  36
ENDBRANCH  34  35
ENDBRANCH  33  34
ENDBRANCH  32  33
ENDBRANCH  31  32
ENDBRANCH  30  31
ENDBRANCH   3  30
TORSDOF 22
ENDMDL
MODEL 2
REMARK VINA RESULT:     -10.1      1.027      5.726
REMARK SMILES CCCCCCNC(=O)Oc1cccc(-c2ccc([C@@H](C)C(=O)NCCCCCCNC(=O)c3ccc(-c4c5nc(c(-c6ccccc6)c6ccc([nH]6)c(-c6ccccc6)c6nc(c(-c7ccccc7)c7ccc4[nH]7)C=C6)C=C5)cc3)cc2)c1
REMARK SMILES IDX 22 1 23 2 24 3 20 5 21 6 19 7 16 8 17 9 83 10 18 11 82 12
REMARK SMILES IDX 15 13 11 14 12 15 84 16 13 17 14 18 10 19 8 20 7 21 9 23
REMARK SMILES IDX 6 24 5 25 4 26 3 27 2 28 1 29 25 30 26 31 27 32 28 33 29 34
REMARK SMILES IDX 30 35 31 36 32 37 33 39 34 40 35 41 81 42 36 43 80 44 37 45
REMARK SMILES IDX 38 46 39 47 74 48 40 49 79 50 73 51 75 52 41 53 78 54 72 55
REMARK SMILES IDX 71 56 42 58 64 59 49 60 63 61 50 62 53 63 62 64 76 65 51 66
REMARK SMILES IDX 52 67 61 69 77 70 54 71 43 72 44 73 48 74 45 75 47 76 46 77
REMARK SMILES IDX 65 78 66 79 70 80 67 81 69 82 68 83 55 84 56 85 60 86 57 87
REMARK SMILES IDX 59 88 58 89
REMARK H PARENT 24 4 7 22 31 38 75 57 53 68
REMARK Flexibility Score: inf
ROOT
ATOM      1  C   UNL A   1      30.919  25.241  23.880  1.00  0.00     0.227 C 
ATOM      2  O   UNL A   1      31.504  25.417  22.804  1.00  0.00    -0.274 OA
ATOM      3  N   UNL A   1      30.952  23.979  24.387  1.00  0.00    -0.356 N 
ATOM      4  H   UNL A   1      31.510  23.351  23.871  1.00  0.00     0.163 HD
ENDROOT
BRANCH   1   5
ATOM      5  C   UNL A   1      30.227  26.422  24.577  1.00  0.00     0.105 C 
ATOM      6  C   UNL A   1      29.089  27.041  23.765  1.00  0.00     0.023 C 
BRANCH   5   7
ATOM      7  C   UNL A   1      31.192  27.404  25.222  1.00  0.00    -0.036 A 
ATOM      8  C   UNL A   1      33.091  29.114  26.506  1.00  0.00    -0.018 A 
ATOM      9  C   UNL A   1      32.893  29.143  25.118  1.00  0.00     0.009 A 
ATOM     10  C   UNL A   1      32.288  28.230  27.243  1.00  0.00     0.009 A 
ATOM     11  C   UNL A   1      31.941  28.331  24.493  1.00  0.00     0.005 A 
ATOM     12  C   UNL A   1      31.371  27.377  26.614  1.00  0.00     0.005 A 
BRANCH   8  13
ATOM     13  C   UNL A   1      34.114  29.969  27.148  1.00  0.00    -0.015 A 
ATOM     14  C   UNL A   1      34.857  32.123  28.002  1.00  0.00     0.133 A 
ATOM     15  C   UNL A   1      36.065  31.583  28.425  1.00  0.00     0.047 A 
ATOM     16  C   UNL A   1      33.891  31.339  27.366  1.00  0.00     0.056 A 
ATOM     17  C   UNL A   1      36.308  30.229  28.220  1.00  0.00     0.004 A 
ATOM     18  C   UNL A   1      35.347  29.438  27.581  1.00  0.00     0.009 A 
BRANCH  14  19
ATOM     19  O   UNL A   1      34.702  33.512  28.120  1.00  0.00    -0.410 OA
BRANCH  19  20
ATOM     20  C   UNL A   1      33.482  33.993  28.569  1.00  0.00     0.412 C 
ATOM     21  N   UNL A   1      33.476  34.252  29.912  1.00  0.00    -0.321 N 
ATOM     22  H   UNL A   1      32.631  34.578  30.296  1.00  0.00     0.167 HD
ATOM     23  O   UNL A   1      32.482  34.179  27.887  1.00  0.00    -0.224 OA
BRANCH  21  24
ATOM     24  C   UNL A   1      34.588  34.094  30.829  1.00  0.00     0.119 C 
BRANCH  24  25
ATOM     25  C   UNL A   1      34.121  34.010  32.282  1.00  0.00     0.021 C 
BRANCH  25  26
ATOM     26  C   UNL A   1      34.657  35.121  33.194  1.00  0.00     0.002 C 
BRANCH  26  27
ATOM     27  C   UNL A   1      35.474  34.647  34.400  1.00  0.00    -0.000 C 
BRANCH  27  28
ATOM     28  C   UNL A   1      36.685  33.773  34.070  1.00  0.00    -0.003 C 
ATOM     29  C   UNL A   1      37.845  34.554  33.470  1.00  0.00     0.004 C 
ENDBRANCH  27  28
ENDBRANCH  26  27
ENDBRANCH  25  26
ENDBRANCH  24  25
ENDBRANCH  21  24
ENDBRANCH  19  20
ENDBRANCH  14  19
ENDBRANCH   8  13
ENDBRANCH   5   7
ENDBRANCH   1   5
BRANCH   3  30
ATOM     30  C   UNL A   1      30.316  23.392  25.546  1.00  0.00     0.116 C 
BRANCH  30  31
ATOM     31  C   UNL A   1      31.097  23.683  26.829  1.00  0.00     0.021 C 
BRANCH  31  32
ATOM     32  C   UNL A   1      32.615  23.742  26.629  1.00  0.00     0.002 C 
BRANCH  32  33
ATOM     33  C   UNL A   1      33.341  22.394  26.753  1.00  0.00     0.002 C 
BRANCH  33  34
ATOM     34  C   UNL A   1      34.789  22.469  27.248  1.00  0.00     0.021 C 
BRANCH  34  35
ATOM     35  C   UNL A   1      35.826  22.699  26.151  1.00  0.00     0.116 C 
BRANCH  35  36
ATOM     36  N   UNL A   1      36.629  21.511  25.909  1.00  0.00    -0.352 N 
ATOM     37  C   UNL A   1      37.990  21.379  25.787  1.00  0.00     0.251 C 
ATOM     38  H   UNL A   1      36.120  20.673  25.819  1.00  0.00     0.163 HD
ATOM     39  O   UNL A   1      38.473  20.340  25.349  1.00  0.00    -0.269 OA
BRANCH  37  40
ATOM     40  C   UNL A   1      38.880  22.494  26.174  1.00  0.00     0.039 A 
ATOM     41  C   UNL A   1      38.537  23.796  25.803  1.00  0.00     0.014 A 
ATOM     42  C   UNL A   1      40.068  22.253  26.871  1.00  0.00     0.014 A 
ATOM     43  C   UNL A   1      39.354  24.864  26.181  1.00  0.00     0.010 A 
ATOM     44  C   UNL A   1      40.847  23.323  27.305  1.00  0.00     0.010 A 
ATOM     45  C   UNL A   1      40.499  24.638  26.963  1.00  0.00    -0.014 A 
BRANCH  45  46
ATOM     46  C   UNL A   1      41.339  25.765  27.438  1.00  0.00     0.031 A 
ATOM     47  C   UNL A   1      40.804  26.737  28.454  1.00  0.00     0.074 A 
ATOM     48  C   UNL A   1      42.561  25.955  26.902  1.00  0.00     0.049 A 
ATOM     49  N   UNL A   1      41.366  27.814  28.940  1.00  0.00    -0.248 NA
ATOM     50  C   UNL A   1      39.452  26.475  28.974  1.00  0.00     0.031 C 
ATOM     51  C   UNL A   1      43.178  25.106  25.881  1.00  0.00     0.029 A 
ATOM     52  N   UNL A   1      43.498  26.929  27.136  1.00  0.00    -0.354 N 
ATOM     53  C   UNL A   1      40.432  28.369  29.807  1.00  0.00     0.074 A 
ATOM     54  C   UNL A   1      39.252  27.534  29.747  1.00  0.00     0.031 C 
ATOM     55  C   UNL A   1      44.399  25.584  25.593  1.00  0.00     0.029 A 
ATOM     56  C   UNL A   1      44.635  26.792  26.378  1.00  0.00     0.049 A 
ATOM     57  H   UNL A   1      43.367  27.657  27.786  1.00  0.00     0.167 HD
ATOM     58  C   UNL A   1      40.552  29.464  30.594  1.00  0.00     0.031 A 
ATOM     59  C   UNL A   1      45.741  27.557  26.314  1.00  0.00     0.031 A 
ATOM     60  C   UNL A   1      41.729  30.289  30.661  1.00  0.00     0.049 A 
ATOM     61  C   UNL A   1      45.842  28.775  27.188  1.00  0.00     0.074 A 
ATOM     62  C   UNL A   1      41.969  31.384  31.473  1.00  0.00     0.029 A 
ATOM     63  N   UNL A   1      42.861  30.112  29.882  1.00  0.00    -0.354 N 
ATOM     64  N   UNL A   1      44.978  29.245  28.054  1.00  0.00    -0.248 NA
ATOM     65  C   UNL A   1      47.078  29.564  27.081  1.00  0.00     0.031 C 
ATOM     66  C   UNL A   1      43.228  31.901  31.148  1.00  0.00     0.029 A 
ATOM     67  C   UNL A   1      43.793  31.094  30.174  1.00  0.00     0.049 A 
ATOM     68  H   UNL A   1      42.986  29.395  29.220  1.00  0.00     0.167 HD
ATOM     69  C   UNL A   1      45.575  30.368  28.614  1.00  0.00     0.074 A 
ATOM     70  C   UNL A   1      46.880  30.498  28.000  1.00  0.00     0.031 C 
ATOM     71  C   UNL A   1      45.086  31.213  29.552  1.00  0.00     0.031 A 
BRANCH  58  72
ATOM     72  C   UNL A   1      39.368  29.840  31.443  1.00  0.00    -0.014 A 
ATOM     73  C   UNL A   1      38.475  30.847  31.041  1.00  0.00     0.009 A 
ATOM     74  C   UNL A   1      39.122  29.153  32.641  1.00  0.00     0.009 A 
ATOM     75  C   UNL A   1      37.380  31.180  31.841  1.00  0.00     0.001 A 
ATOM     76  C   UNL A   1      38.011  29.470  33.424  1.00  0.00     0.001 A 
ATOM     77  C   UNL A   1      37.146  30.489  33.029  1.00  0.00     0.000 A 
ENDBRANCH  58  72
BRANCH  59  78
ATOM     78  C   UNL A   1      46.849  27.188  25.395  1.00  0.00    -0.014 A 
ATOM     79  C   UNL A   1      46.959  27.795  24.135  1.00  0.00     0.009 A 
ATOM     80  C   UNL A   1      47.798  26.224  25.772  1.00  0.00     0.009 A 
ATOM     81  C   UNL A   1      47.984  27.425  23.260  1.00  0.00     0.001 A 
ATOM     82  C   UNL A   1      48.837  25.878  24.905  1.00  0.00     0.001 A 
ATOM     83  C   UNL A   1      48.923  26.472  23.647  1.00  0.00     0.000 A 
ENDBRANCH  59  78
BRANCH  71  84
ATOM     84  C   UNL A   1      45.977  32.340  29.993  1.00  0.00    -0.014 A 
ATOM     85  C   UNL A   1      46.931  32.159  31.006  1.00  0.00     0.009 A 
ATOM     86  C   UNL A   1      45.886  33.587  29.357  1.00  0.00     0.009 A 
ATOM     87  C   UNL A   1      47.754  33.218  31.396  1.00  0.00     0.001 A 
ATOM     88  C   UNL A   1      46.729  34.635  29.728  1.00  0.00     0.001 A 
ATOM     89  C   UNL A   1      47.656  34.452  30.753  1.00  0.00     0.000 A 
ENDBRANCH  71  84
ENDBRANCH  45  46
ENDBRANCH  37  40
ENDBRANCH  35  36
ENDBRANCH  34  35
ENDBRANCH  33  34
ENDBRANCH  32  33
ENDBRANCH  31  32
ENDBRANCH  30  31
ENDBRANCH   3  30
TORSDOF 22
ENDMDL
MODEL 3
REMARK VINA RESULT:      -9.8      4.569     11.063
REMARK SMILES CCCCCCNC(=O)Oc1cccc(-c2ccc([C@@H](C)C(=O)NCCCCCCNC(=O)c3ccc(-c4c5nc(c(-c6ccccc6)c6ccc([nH]6)c(-c6ccccc6)c6nc(c(-c7ccccc7)c7ccc4[nH]7)C=C6)C=C5)cc3)cc2)c1
REMARK SMILES IDX 22 1 23 2 24 3 20 5 21 6 19 7 16 8 17 9 83 10 18 11 82 12
REMARK SMILES IDX 15 13 11 14 12 15 84 16 13 17 14 18 10 19 8 20 7 21 9 23
REMARK SMILES IDX 6 24 5 25 4 26 3 27 2 28 1 29 25 30 26 31 27 32 28 33 29 34
REMARK SMILES IDX 30 35 31 36 32 37 33 39 34 40 35 41 81 42 36 43 80 44 37 45
REMARK SMILES IDX 38 46 39 47 74 48 40 49 79 50 73 51 75 52 41 53 78 54 72 55
REMARK SMILES IDX 71 56 42 58 64 59 49 60 63 61 50 62 53 63 62 64 76 65 51 66
REMARK SMILES IDX 52 67 61 69 77 70 54 71 43 72 44 73 48 74 45 75 47 76 46 77
REMARK SMILES IDX 65 78 66 79 70 80 67 81 69 82 68 83 55 84 56 85 60 86 57 87
REMARK SMILES IDX 59 88 58 89
REMARK H PARENT 24 4 7 22 31 38 75 57 53 68
REMARK Flexibility Score: inf
ROOT
ATOM      1  C   UNL A   1      44.918  25.690  25.205  1.00  0.00     0.227 C 
ATOM      2  O   UNL A   1      43.810  26.230  25.094  1.00  0.00    -0.274 OA
ATOM      3  N   UNL A   1      44.974  24.362  24.914  1.00  0.00    -0.356 N 
ATOM      4  H   UNL A   1      44.130  23.988  24.570  1.00  0.00     0.163 HD
ENDROOT
BRANCH   1   5
ATOM      5  C   UNL A   1      46.136  26.523  25.630  1.00  0.00     0.105 C 
ATOM      6  C   UNL A   1      45.782  27.770  26.442  1.00  0.00     0.023 C 
BRANCH   5   7
ATOM      7  C   UNL A   1      47.160  26.720  24.524  1.00  0.00    -0.036 A 
ATOM      8  C   UNL A   1      49.110  27.254  22.502  1.00  0.00    -0.018 A 
ATOM      9  C   UNL A   1      49.254  26.189  23.401  1.00  0.00     0.009 A 
ATOM     10  C   UNL A   1      47.945  28.028  22.616  1.00  0.00     0.009 A 
ATOM     11  C   UNL A   1      48.284  25.906  24.369  1.00  0.00     0.005 A 
ATOM     12  C   UNL A   1      46.998  27.781  23.619  1.00  0.00     0.005 A 
BRANCH   8  13
ATOM     13  C   UNL A   1      50.154  27.548  21.494  1.00  0.00    -0.015 A 
ATOM     14  C   UNL A   1      52.448  28.107  20.908  1.00  0.00     0.133 A 
ATOM     15  C   UNL A   1      52.154  28.061  19.551  1.00  0.00     0.047 A 
ATOM     16  C   UNL A   1      51.469  27.863  21.874  1.00  0.00     0.056 A 
ATOM     17  C   UNL A   1      50.859  27.753  19.151  1.00  0.00     0.004 A 
ATOM     18  C   UNL A   1      49.872  27.510  20.113  1.00  0.00     0.009 A 
BRANCH  14  19
ATOM     19  O   UNL A   1      53.734  28.537  21.269  1.00  0.00    -0.410 OA
BRANCH  19  20
ATOM     20  C   UNL A   1      54.546  27.649  21.956  1.00  0.00     0.412 C 
ATOM     21  N   UNL A   1      54.887  28.099  23.202  1.00  0.00    -0.321 N 
ATOM     22  H   UNL A   1      55.480  27.521  23.734  1.00  0.00     0.167 HD
ATOM     23  O   UNL A   1      54.952  26.570  21.543  1.00  0.00    -0.224 OA
BRANCH  21  24
ATOM     24  C   UNL A   1      54.466  29.341  23.819  1.00  0.00     0.119 C 
BRANCH  24  25
ATOM     25  C   UNL A   1      53.019  29.274  24.307  1.00  0.00     0.021 C 
BRANCH  25  26
ATOM     26  C   UNL A   1      52.845  28.726  25.729  1.00  0.00     0.002 C 
BRANCH  26  27
ATOM     27  C   UNL A   1      51.622  27.829  25.945  1.00  0.00    -0.000 C 
BRANCH  27  28
ATOM     28  C   UNL A   1      50.280  28.559  26.037  1.00  0.00    -0.003 C 
ATOM     29  C   UNL A   1      50.111  29.345  27.329  1.00  0.00     0.004 C 
ENDBRANCH  27  28
ENDBRANCH  26  27
ENDBRANCH  25  26
ENDBRANCH  24  25
ENDBRANCH  21  24
ENDBRANCH  19  20
ENDBRANCH  14  19
ENDBRANCH   8  13
ENDBRANCH   5   7
ENDBRANCH   1   5
BRANCH   3  30
ATOM     30  C   UNL A   1      46.050  23.401  25.018  1.00  0.00     0.116 C 
BRANCH  30  31
ATOM     31  C   UNL A   1      45.631  22.164  25.815  1.00  0.00     0.021 C 
BRANCH  31  32
ATOM     32  C   UNL A   1      45.881  20.842  25.081  1.00  0.00     0.002 C 
BRANCH  32  33
ATOM     33  C   UNL A   1      44.615  20.081  24.661  1.00  0.00     0.002 C 
BRANCH  33  34
ATOM     34  C   UNL A   1      44.468  18.672  25.245  1.00  0.00     0.021 C 
BRANCH  34  35
ATOM     35  C   UNL A   1      43.469  18.560  26.394  1.00  0.00     0.116 C 
BRANCH  35  36
ATOM     36  N   UNL A   1      42.095  18.632  25.924  1.00  0.00    -0.352 N 
ATOM     37  C   UNL A   1      41.153  19.614  26.109  1.00  0.00     0.251 C 
ATOM     38  H   UNL A   1      41.793  17.861  25.392  1.00  0.00     0.163 HD
ATOM     39  O   UNL A   1      39.976  19.398  25.842  1.00  0.00    -0.269 OA
BRANCH  37  40
ATOM     40  C   UNL A   1      41.552  20.934  26.641  1.00  0.00     0.039 A 
ATOM     41  C   UNL A   1      41.793  21.980  25.747  1.00  0.00     0.014 A 
ATOM     42  C   UNL A   1      41.721  21.131  28.014  1.00  0.00     0.014 A 
ATOM     43  C   UNL A   1      42.147  23.241  26.234  1.00  0.00     0.010 A 
ATOM     44  C   UNL A   1      42.009  22.403  28.503  1.00  0.00     0.010 A 
ATOM     45  C   UNL A   1      42.226  23.469  27.617  1.00  0.00    -0.014 A 
BRANCH  45  46
ATOM     46  C   UNL A   1      42.527  24.819  28.156  1.00  0.00     0.031 A 
ATOM     47  C   UNL A   1      43.913  25.156  28.633  1.00  0.00     0.074 A 
ATOM     48  C   UNL A   1      41.533  25.721  28.279  1.00  0.00     0.049 A 
ATOM     49  N   UNL A   1      44.348  26.258  29.190  1.00  0.00    -0.248 NA
ATOM     50  C   UNL A   1      44.938  24.110  28.485  1.00  0.00     0.031 C 
ATOM     51  C   UNL A   1      40.139  25.503  27.890  1.00  0.00     0.029 A 
ATOM     52  N   UNL A   1      41.544  26.999  28.778  1.00  0.00    -0.354 N 
ATOM     53  C   UNL A   1      45.689  26.032  29.476  1.00  0.00     0.074 A 
ATOM     54  C   UNL A   1      45.985  24.675  29.072  1.00  0.00     0.031 C 
ATOM     55  C   UNL A   1      39.434  26.618  28.143  1.00  0.00     0.029 A 
ATOM     56  C   UNL A   1      40.315  27.611  28.748  1.00  0.00     0.049 A 
ATOM     57  H   UNL A   1      42.356  27.436  29.124  1.00  0.00     0.167 HD
ATOM     58  C   UNL A   1      46.597  26.883  30.011  1.00  0.00     0.031 A 
ATOM     59  C   UNL A   1      39.936  28.834  29.167  1.00  0.00     0.031 A 
ATOM     60  C   UNL A   1      46.305  28.236  30.404  1.00  0.00     0.049 A 
ATOM     61  C   UNL A   1      40.961  29.753  29.771  1.00  0.00     0.074 A 
ATOM     62  C   UNL A   1      47.172  29.195  30.898  1.00  0.00     0.029 A 
ATOM     63  N   UNL A   1      45.050  28.820  30.350  1.00  0.00    -0.354 N 
ATOM     64  N   UNL A   1      42.240  29.548  29.969  1.00  0.00    -0.248 NA
ATOM     65  C   UNL A   1      40.488  31.076  30.200  1.00  0.00     0.031 C 
ATOM     66  C   UNL A   1      46.430  30.344  31.193  1.00  0.00     0.029 A 
ATOM     67  C   UNL A   1      45.113  30.118  30.830  1.00  0.00     0.049 A 
ATOM     68  H   UNL A   1      44.234  28.378  30.021  1.00  0.00     0.167 HD
ATOM     69  C   UNL A   1      42.730  30.725  30.521  1.00  0.00     0.074 A 
ATOM     70  C   UNL A   1      41.614  31.642  30.612  1.00  0.00     0.031 C 
ATOM     71  C   UNL A   1      43.992  31.017  30.917  1.00  0.00     0.031 A 
BRANCH  58  72
ATOM     72  C   UNL A   1      47.995  26.367  30.213  1.00  0.00    -0.014 A 
ATOM     73  C   UNL A   1      48.399  25.820  31.442  1.00  0.00     0.009 A 
ATOM     74  C   UNL A   1      48.910  26.392  29.149  1.00  0.00     0.009 A 
ATOM     75  C   UNL A   1      49.701  25.343  31.610  1.00  0.00     0.001 A 
ATOM     76  C   UNL A   1      50.202  25.890  29.312  1.00  0.00     0.001 A 
ATOM     77  C   UNL A   1      50.599  25.374  30.544  1.00  0.00     0.000 A 
ENDBRANCH  58  72
BRANCH  59  78
ATOM     78  C   UNL A   1      38.522  29.264  29.022  1.00  0.00    -0.014 A 
ATOM     79  C   UNL A   1      37.626  29.136  30.094  1.00  0.00     0.009 A 
ATOM     80  C   UNL A   1      38.060  29.801  27.810  1.00  0.00     0.009 A 
ATOM     81  C   UNL A   1      36.289  29.513  29.947  1.00  0.00     0.001 A 
ATOM     82  C   UNL A   1      36.729  30.204  27.676  1.00  0.00     0.001 A 
ATOM     83  C   UNL A   1      35.843  30.051  28.741  1.00  0.00     0.000 A 
ENDBRANCH  59  78
BRANCH  71  84
ATOM     84  C   UNL A   1      44.239  32.397  31.459  1.00  0.00    -0.014 A 
ATOM     85  C   UNL A   1      44.575  33.463  30.610  1.00  0.00     0.009 A 
ATOM     86  C   UNL A   1      44.094  32.640  32.833  1.00  0.00     0.009 A 
ATOM     87  C   UNL A   1      44.794  34.739  31.134  1.00  0.00     0.001 A 
ATOM     88  C   UNL A   1      44.285  33.921  33.350  1.00  0.00     0.001 A 
ATOM     89  C   UNL A   1      44.643  34.968  32.501  1.00  0.00     0.000 A 
ENDBRANCH  71  84
ENDBRANCH  45  46
ENDBRANCH  37  40
ENDBRANCH  35  36
ENDBRANCH  34  35
ENDBRANCH  33  34
ENDBRANCH  32  33
ENDBRANCH  31  32
ENDBRANCH  30  31
ENDBRANCH   3  30
TORSDOF 22
ENDMDL
