MODEL 1
REMARK VINA RESULT:     -11.2      0.000      0.000
REMARK SMILES Cc1cc(-c2cc(C(=O)NCCCCCCNC(=O)c3ccc(-c4c5nc(c(-c6ccccc6)c6ccc([nH]6)c(-c6ccccc6)c6nc(c(-c7ccccc7)c7ccc4[nH]7)C=C6)C=C5)cc3)c[nH]c2=O)ccc1Cl
REMARK SMILES IDX 14 1 13 2 12 3 11 4 10 5 8 6 9 7 7 9 5 10 6 11 70 12 69 13
REMARK SMILES IDX 71 14 68 15 4 17 1 18 2 19 3 20 74 21 73 22 75 23 72 24
REMARK SMILES IDX 15 25 16 26 17 27 18 28 19 30 20 31 21 32 67 33 22 34 66 35
REMARK SMILES IDX 23 36 24 37 25 38 60 39 26 40 65 41 59 42 61 43 27 44 64 45
REMARK SMILES IDX 58 46 57 47 28 49 50 50 35 51 49 52 36 53 39 54 48 55 62 56
REMARK SMILES IDX 37 57 38 58 47 60 63 61 40 62 29 63 30 64 34 65 31 66 33 67
REMARK SMILES IDX 32 68 51 69 52 70 56 71 53 72 55 73 54 74 41 75 42 76 46 77
REMARK SMILES IDX 43 78 45 79 44 80
REMARK H PARENT 10 8 69 16 17 29 61 48 39 59
REMARK Flexibility Score: inf
ROOT
ATOM      1  C   UNL A   1      33.162  29.330  24.855  1.00  0.00     0.002 C 
ENDROOT
BRANCH   1   2
ATOM      2  C   UNL A   1      33.104  29.020  23.354  1.00  0.00     0.002 C 
BRANCH   2   3
ATOM      3  C   UNL A   1      33.673  27.651  22.952  1.00  0.00     0.021 C 
BRANCH   3   4
ATOM      4  C   UNL A   1      32.657  26.769  22.219  1.00  0.00     0.116 C 
BRANCH   4   5
ATOM      5  N   UNL A   1      31.314  27.073  22.676  1.00  0.00    -0.352 N 
ATOM      6  C   UNL A   1      30.516  26.567  23.651  1.00  0.00     0.252 C 
ATOM      7  O   UNL A   1      29.376  27.035  23.728  1.00  0.00    -0.269 OA
ATOM      8  H   UNL A   1      30.890  27.803  22.169  1.00  0.00     0.163 HD
BRANCH   6   9
ATOM      9  C   UNL A   1      30.981  25.550  24.650  1.00  0.00     0.056 A 
ATOM     10  C   UNL A   1      32.643  24.054  25.645  1.00  0.00     0.048 A 
ATOM     11  C   UNL A   1      32.220  24.801  24.605  1.00  0.00     0.029 A 
ATOM     12  C   UNL A   1      31.717  23.845  26.806  1.00  0.00     0.255 A 
ATOM     13  N   UNL A   1      30.506  24.493  26.717  1.00  0.00    -0.328 N 
ATOM     14  O   UNL A   1      32.002  23.136  27.763  1.00  0.00    -0.269 OA
ATOM     15  C   UNL A   1      30.154  25.335  25.690  1.00  0.00     0.099 A 
ATOM     16  H   UNL A   1      29.850  24.344  27.436  1.00  0.00     0.169 HD
BRANCH  10  17
ATOM     17  C   UNL A   1      33.999  23.489  25.616  1.00  0.00    -0.012 A 
ATOM     18  C   UNL A   1      35.728  20.158  24.977  1.00  0.00     0.046 C 
ATOM     19  C   UNL A   1      35.526  21.616  25.274  1.00  0.00    -0.032 A 
ATOM     20  C   UNL A   1      34.219  22.132  25.353  1.00  0.00     0.014 A 
ATOM     21  C   UNL A   1      36.611  22.485  25.478  1.00  0.00     0.044 A 
ATOM     22  C   UNL A   1      36.396  23.836  25.757  1.00  0.00     0.021 A 
ATOM     23  Cl  UNL A   1      38.245  21.933  25.386  1.00  0.00    -0.084 Cl
ATOM     24  C   UNL A   1      35.096  24.335  25.825  1.00  0.00     0.010 A 
ENDBRANCH  10  17
ENDBRANCH   6   9
ENDBRANCH   4   5
ENDBRANCH   3   4
ENDBRANCH   2   3
ENDBRANCH   1   2
BRANCH   1  25
ATOM     25  C   UNL A   1      33.623  28.168  25.739  1.00  0.00     0.021 C 
BRANCH  25  26
ATOM     26  C   UNL A   1      33.555  28.451  27.237  1.00  0.00     0.116 C 
BRANCH  26  27
ATOM     27  N   UNL A   1      33.527  29.878  27.515  1.00  0.00    -0.352 N 
ATOM     28  C   UNL A   1      34.470  30.665  28.127  1.00  0.00     0.251 C 
ATOM     29  H   UNL A   1      32.713  30.348  27.222  1.00  0.00     0.163 HD
ATOM     30  O   UNL A   1      34.188  31.805  28.479  1.00  0.00    -0.269 OA
BRANCH  28  31
ATOM     31  C   UNL A   1      35.826  30.132  28.373  1.00  0.00     0.039 A 
ATOM     32  C   UNL A   1      36.768  30.179  27.342  1.00  0.00     0.014 A 
ATOM     33  C   UNL A   1      36.160  29.567  29.607  1.00  0.00     0.014 A 
ATOM     34  C   UNL A   1      38.062  29.703  27.565  1.00  0.00     0.010 A 
ATOM     35  C   UNL A   1      37.467  29.155  29.849  1.00  0.00     0.010 A 
ATOM     36  C   UNL A   1      38.428  29.212  28.829  1.00  0.00    -0.014 A 
BRANCH  36  37
ATOM     37  C   UNL A   1      39.810  28.746  29.101  1.00  0.00     0.031 A 
ATOM     38  C   UNL A   1      40.812  29.675  29.724  1.00  0.00     0.074 A 
ATOM     39  C   UNL A   1      40.181  27.508  28.724  1.00  0.00     0.049 A 
ATOM     40  N   UNL A   1      42.079  29.471  29.981  1.00  0.00    -0.248 NA
ATOM     41  C   UNL A   1      40.335  31.021  30.079  1.00  0.00     0.031 C 
ATOM     42  C   UNL A   1      39.315  26.527  28.067  1.00  0.00     0.029 A 
ATOM     43  N   UNL A   1      41.390  26.870  28.828  1.00  0.00    -0.354 N 
ATOM     44  C   UNL A   1      42.552  30.664  30.513  1.00  0.00     0.074 A 
ATOM     45  C   UNL A   1      41.452  31.602  30.492  1.00  0.00     0.031 C 
ATOM     46  C   UNL A   1      40.017  25.406  27.841  1.00  0.00     0.029 A 
ATOM     47  C   UNL A   1      41.387  25.601  28.305  1.00  0.00     0.049 A 
ATOM     48  H   UNL A   1      42.184  27.282  29.239  1.00  0.00     0.167 HD
ATOM     49  C   UNL A   1      43.786  30.948  30.995  1.00  0.00     0.031 A 
ATOM     50  C   UNL A   1      42.379  24.696  28.200  1.00  0.00     0.031 A 
ATOM     51  C   UNL A   1      44.881  30.016  31.016  1.00  0.00     0.049 A 
ATOM     52  C   UNL A   1      43.741  25.032  28.737  1.00  0.00     0.074 A 
ATOM     53  C   UNL A   1      46.155  30.190  31.529  1.00  0.00     0.029 A 
ATOM     54  N   UNL A   1      44.832  28.731  30.495  1.00  0.00    -0.354 N 
ATOM     55  N   UNL A   1      44.155  26.141  29.301  1.00  0.00    -0.248 NA
ATOM     56  C   UNL A   1      44.767  23.987  28.637  1.00  0.00     0.031 C 
ATOM     57  C   UNL A   1      46.891  29.028  31.276  1.00  0.00     0.029 A 
ATOM     58  C   UNL A   1      46.059  28.110  30.654  1.00  0.00     0.049 A 
ATOM     59  H   UNL A   1      44.041  28.323  30.074  1.00  0.00     0.167 HD
ATOM     60  C   UNL A   1      45.482  25.921  29.641  1.00  0.00     0.074 A 
ATOM     61  C   UNL A   1      45.799  24.566  29.235  1.00  0.00     0.031 C 
ATOM     62  C   UNL A   1      46.361  26.765  30.235  1.00  0.00     0.031 A 
BRANCH  49  63
ATOM     63  C   UNL A   1      44.009  32.337  31.529  1.00  0.00    -0.014 A 
ATOM     64  C   UNL A   1      43.769  32.644  32.879  1.00  0.00     0.009 A 
ATOM     65  C   UNL A   1      44.467  33.351  30.675  1.00  0.00     0.009 A 
ATOM     66  C   UNL A   1      43.937  33.947  33.350  1.00  0.00     0.001 A 
ATOM     67  C   UNL A   1      44.663  34.647  31.156  1.00  0.00     0.001 A 
ATOM     68  C   UNL A   1      44.386  34.947  32.488  1.00  0.00     0.000 A 
ENDBRANCH  49  63
BRANCH  50  69
ATOM     69  C   UNL A   1      42.107  23.379  27.571  1.00  0.00    -0.014 A 
ATOM     70  C   UNL A   1      42.470  23.136  26.238  1.00  0.00     0.009 A 
ATOM     71  C   UNL A   1      41.508  22.347  28.311  1.00  0.00     0.009 A 
ATOM     72  C   UNL A   1      42.221  21.893  25.653  1.00  0.00     0.001 A 
ATOM     73  C   UNL A   1      41.284  21.097  27.731  1.00  0.00     0.001 A 
ATOM     74  C   UNL A   1      41.634  20.873  26.401  1.00  0.00     0.000 A 
ENDBRANCH  50  69
BRANCH  62  75
ATOM     75  C   UNL A   1      47.743  26.238  30.503  1.00  0.00    -0.014 A 
ATOM     76  C   UNL A   1      48.731  26.248  29.507  1.00  0.00     0.009 A 
ATOM     77  C   UNL A   1      48.068  25.762  31.783  1.00  0.00     0.009 A 
ATOM     78  C   UNL A   1      50.011  25.762  29.780  1.00  0.00     0.001 A 
ATOM     79  C   UNL A   1      49.356  25.301  32.060  1.00  0.00     0.001 A 
ATOM     80  C   UNL A   1      50.324  25.293  31.056  1.00  0.00     0.000 A 
ENDBRANCH  62  75
ENDBRANCH  36  37
ENDBRANCH  28  31
ENDBRANCH  26  27
ENDBRANCH  25  26
ENDBRANCH   1  25
TORSDOF 14
ENDMDL
MODEL 2
REMARK VINA RESULT:     -11.0      3.776      6.866
REMARK SMILES Cc1cc(-c2cc(C(=O)NCCCCCCNC(=O)c3ccc(-c4c5nc(c(-c6ccccc6)c6ccc([nH]6)c(-c6ccccc6)c6nc(c(-c7ccccc7)c7ccc4[nH]7)C=C6)C=C5)cc3)c[nH]c2=O)ccc1Cl
REMARK SMILES IDX 14 1 13 2 12 3 11 4 10 5 8 6 9 7 7 9 5 10 6 11 70 12 69 13
REMARK SMILES IDX 71 14 68 15 4 17 1 18 2 19 3 20 74 21 73 22 75 23 72 24
REMARK SMILES IDX 15 25 16 26 17 27 18 28 19 30 20 31 21 32 67 33 22 34 66 35
REMARK SMILES IDX 23 36 24 37 25 38 60 39 26 40 65 41 59 42 61 43 27 44 64 45
REMARK SMILES IDX 58 46 57 47 28 49 50 50 35 51 49 52 36 53 39 54 48 55 62 56
REMARK SMILES IDX 37 57 38 58 47 60 63 61 40 62 29 63 30 64 34 65 31 66 33 67
REMARK SMILES IDX 32 68 51 69 52 70 56 71 53 72 55 73 54 74 41 75 42 76 46 77
REMARK SMILES IDX 43 78 45 79 44 80
REMARK H PARENT 10 8 69 16 17 29 61 48 39 59
REMARK Flexibility Score: inf
ROOT
ATOM      1  C   UNL A   1      36.666  33.652  28.167  1.00  0.00     0.002 C 
ENDROOT
BRANCH   1   2
ATOM      2  C   UNL A   1      37.790  33.245  29.129  1.00  0.00     0.002 C 
BRANCH   2   3
ATOM      3  C   UNL A   1      38.716  34.391  29.564  1.00  0.00     0.021 C 
BRANCH   3   4
ATOM      4  C   UNL A   1      38.997  34.397  31.070  1.00  0.00     0.116 C 
BRANCH   4   5
ATOM      5  N   UNL A   1      37.854  34.929  31.788  1.00  0.00    -0.352 N 
ATOM      6  C   UNL A   1      37.144  34.510  32.868  1.00  0.00     0.252 C 
ATOM      7  O   UNL A   1      36.167  35.195  33.184  1.00  0.00    -0.269 OA
ATOM      8  H   UNL A   1      37.521  35.775  31.411  1.00  0.00     0.163 HD
BRANCH   6   9
ATOM      9  C   UNL A   1      37.538  33.330  33.704  1.00  0.00     0.056 A 
ATOM     10  C   UNL A   1      38.850  31.319  34.180  1.00  0.00     0.048 A 
ATOM     11  C   UNL A   1      38.394  32.234  33.301  1.00  0.00     0.029 A 
ATOM     12  C   UNL A   1      38.306  31.331  35.578  1.00  0.00     0.255 A 
ATOM     13  N   UNL A   1      37.402  32.333  35.849  1.00  0.00    -0.328 N 
ATOM     14  O   UNL A   1      38.624  30.502  36.421  1.00  0.00    -0.269 OA
ATOM     15  C   UNL A   1      37.044  33.314  34.956  1.00  0.00     0.099 A 
ATOM     16  H   UNL A   1      36.984  32.347  36.741  1.00  0.00     0.169 HD
BRANCH  10  17
ATOM     17  C   UNL A   1      39.875  30.359  33.750  1.00  0.00    -0.012 A 
ATOM     18  C   UNL A   1      43.623  29.788  34.090  1.00  0.00     0.046 C 
ATOM     19  C   UNL A   1      42.186  29.576  33.708  1.00  0.00    -0.032 A 
ATOM     20  C   UNL A   1      41.224  30.533  34.080  1.00  0.00     0.014 A 
ATOM     21  C   UNL A   1      41.773  28.446  32.985  1.00  0.00     0.044 A 
ATOM     22  C   UNL A   1      40.431  28.275  32.639  1.00  0.00     0.021 A 
ATOM     23  Cl  UNL A   1      42.890  27.220  32.502  1.00  0.00    -0.084 Cl
ATOM     24  C   UNL A   1      39.487  29.227  33.020  1.00  0.00     0.010 A 
ENDBRANCH  10  17
ENDBRANCH   6   9
ENDBRANCH   4   5
ENDBRANCH   3   4
ENDBRANCH   2   3
ENDBRANCH   1   2
BRANCH   1  25
ATOM     25  C   UNL A   1      35.295  33.849  28.819  1.00  0.00     0.021 C 
BRANCH  25  26
ATOM     26  C   UNL A   1      34.831  32.677  29.678  1.00  0.00     0.116 C 
BRANCH  26  27
ATOM     27  N   UNL A   1      34.069  31.710  28.904  1.00  0.00    -0.352 N 
ATOM     28  C   UNL A   1      34.505  30.599  28.226  1.00  0.00     0.251 C 
ATOM     29  H   UNL A   1      33.100  31.876  28.859  1.00  0.00     0.163 HD
ATOM     30  O   UNL A   1      33.760  30.021  27.443  1.00  0.00    -0.269 OA
BRANCH  28  31
ATOM     31  C   UNL A   1      35.883  30.104  28.433  1.00  0.00     0.039 A 
ATOM     32  C   UNL A   1      36.775  30.118  27.359  1.00  0.00     0.014 A 
ATOM     33  C   UNL A   1      36.284  29.605  29.675  1.00  0.00     0.014 A 
ATOM     34  C   UNL A   1      38.087  29.678  27.543  1.00  0.00     0.010 A 
ATOM     35  C   UNL A   1      37.608  29.229  29.875  1.00  0.00     0.010 A 
ATOM     36  C   UNL A   1      38.521  29.255  28.810  1.00  0.00    -0.014 A 
BRANCH  36  37
ATOM     37  C   UNL A   1      39.923  28.829  29.039  1.00  0.00     0.031 A 
ATOM     38  C   UNL A   1      40.927  29.798  29.593  1.00  0.00     0.074 A 
ATOM     39  C   UNL A   1      40.307  27.589  28.684  1.00  0.00     0.049 A 
ATOM     40  N   UNL A   1      42.209  29.630  29.804  1.00  0.00    -0.248 NA
ATOM     41  C   UNL A   1      40.434  31.143  29.928  1.00  0.00     0.031 C 
ATOM     42  C   UNL A   1      39.439  26.569  28.092  1.00  0.00     0.029 A 
ATOM     43  N   UNL A   1      41.535  26.980  28.757  1.00  0.00    -0.354 N 
ATOM     44  C   UNL A   1      42.674  30.848  30.282  1.00  0.00     0.074 A 
ATOM     45  C   UNL A   1      41.552  31.761  30.278  1.00  0.00     0.031 C 
ATOM     46  C   UNL A   1      40.158  25.457  27.870  1.00  0.00     0.029 A 
ATOM     47  C   UNL A   1      41.540  25.696  28.272  1.00  0.00     0.049 A 
ATOM     48  H   UNL A   1      42.335  27.423  29.123  1.00  0.00     0.167 HD
ATOM     49  C   UNL A   1      43.919  31.175  30.705  1.00  0.00     0.031 A 
ATOM     50  C   UNL A   1      42.549  24.812  28.153  1.00  0.00     0.031 A 
ATOM     51  C   UNL A   1      45.036  30.268  30.708  1.00  0.00     0.049 A 
ATOM     52  C   UNL A   1      43.923  25.194  28.624  1.00  0.00     0.074 A 
ATOM     53  C   UNL A   1      46.325  30.486  31.163  1.00  0.00     0.029 A 
ATOM     54  N   UNL A   1      44.996  28.968  30.227  1.00  0.00    -0.354 N 
ATOM     55  N   UNL A   1      44.333  26.328  29.138  1.00  0.00    -0.248 NA
ATOM     56  C   UNL A   1      44.968  24.169  28.513  1.00  0.00     0.031 C 
ATOM     57  C   UNL A   1      47.077  29.333  30.915  1.00  0.00     0.029 A 
ATOM     58  C   UNL A   1      46.243  28.379  30.354  1.00  0.00     0.049 A 
ATOM     59  H   UNL A   1      44.199  28.529  29.851  1.00  0.00     0.167 HD
ATOM     60  C   UNL A   1      45.677  26.148  29.430  1.00  0.00     0.074 A 
ATOM     61  C   UNL A   1      46.009  24.789  29.052  1.00  0.00     0.031 C 
ATOM     62  C   UNL A   1      46.559  27.029  29.963  1.00  0.00     0.031 A 
BRANCH  49  63
ATOM     63  C   UNL A   1      44.130  32.584  31.188  1.00  0.00    -0.014 A 
ATOM     64  C   UNL A   1      44.559  33.596  30.313  1.00  0.00     0.009 A 
ATOM     65  C   UNL A   1      43.895  32.906  32.533  1.00  0.00     0.009 A 
ATOM     66  C   UNL A   1      44.794  34.888  30.785  1.00  0.00     0.001 A 
ATOM     67  C   UNL A   1      44.102  34.207  32.996  1.00  0.00     0.001 A 
ATOM     68  C   UNL A   1      44.563  35.193  32.125  1.00  0.00     0.000 A 
ENDBRANCH  49  63
BRANCH  50  69
ATOM     69  C   UNL A   1      42.283  23.470  27.575  1.00  0.00    -0.014 A 
ATOM     70  C   UNL A   1      41.760  22.440  28.373  1.00  0.00     0.009 A 
ATOM     71  C   UNL A   1      42.525  23.220  26.216  1.00  0.00     0.009 A 
ATOM     72  C   UNL A   1      41.503  21.183  27.824  1.00  0.00     0.001 A 
ATOM     73  C   UNL A   1      42.241  21.968  25.664  1.00  0.00     0.001 A 
ATOM     74  C   UNL A   1      41.737  20.950  26.470  1.00  0.00     0.000 A 
ENDBRANCH  50  69
BRANCH  62  75
ATOM     75  C   UNL A   1      47.962  26.542  30.190  1.00  0.00    -0.014 A 
ATOM     76  C   UNL A   1      48.950  26.682  29.203  1.00  0.00     0.009 A 
ATOM     77  C   UNL A   1      48.308  25.969  31.424  1.00  0.00     0.009 A 
ATOM     78  C   UNL A   1      50.250  26.230  29.437  1.00  0.00     0.001 A 
ATOM     79  C   UNL A   1      49.615  25.542  31.665  1.00  0.00     0.001 A 
ATOM     80  C   UNL A   1      50.583  25.665  30.669  1.00  0.00     0.000 A 
ENDBRANCH  62  75
ENDBRANCH  36  37
ENDBRANCH  28  31
ENDBRANCH  26  27
ENDBRANCH  25  26
ENDBRANCH   1  25
TORSDOF 14
ENDMDL
MODEL 3
REMARK VINA RESULT:     -11.0      4.428      7.441
REMARK SMILES Cc1cc(-c2cc(C(=O)NCCCCCCNC(=O)c3ccc(-c4c5nc(c(-c6ccccc6)c6ccc([nH]6)c(-c6ccccc6)c6nc(c(-c7ccccc7)c7ccc4[nH]7)C=C6)C=C5)cc3)c[nH]c2=O)ccc1Cl
REMARK SMILES IDX 14 1 13 2 12 3 11 4 10 5 8 6 9 7 7 9 5 10 6 11 70 12 69 13
REMARK SMILES IDX 71 14 68 15 4 17 1 18 2 19 3 20 74 21 73 22 75 23 72 24
REMARK SMILES IDX 15 25 16 26 17 27 18 28 19 30 20 31 21 32 67 33 22 34 66 35
REMARK SMILES IDX 23 36 24 37 25 38 60 39 26 40 65 41 59 42 61 43 27 44 64 45
REMARK SMILES IDX 58 46 57 47 28 49 50 50 35 51 49 52 36 53 39 54 48 55 62 56
REMARK SMILES IDX 37 57 38 58 47 60 63 61 40 62 29 63 30 64 34 65 31 66 33 67
REMARK SMILES IDX 32 68 51 69 52 70 56 71 53 72 55 73 54 74 41 75 42 76 46 77
REMARK SMILES IDX 43 78 45 79 44 80
REMARK H PARENT 10 8 69 16 17 29 61 48 39 59
REMARK Flexibility Score: inf
ROOT
ATOM      1  C   UNL A   1      34.753  35.015  28.236  1.00  0.00     0.002 C 
ENDROOT
BRANCH   1   2
ATOM      2  C   UNL A   1      33.343  35.359  28.733  1.00  0.00     0.002 C 
BRANCH   2   3
ATOM      3  C   UNL A   1      33.276  36.516  29.741  1.00  0.00     0.021 C 
BRANCH   3   4
ATOM      4  C   UNL A   1      32.409  36.198  30.964  1.00  0.00     0.116 C 
BRANCH   4   5
ATOM      5  N   UNL A   1      32.907  36.911  32.125  1.00  0.00    -0.352 N 
ATOM      6  C   UNL A   1      33.812  36.613  33.094  1.00  0.00     0.252 C 
ATOM      7  O   UNL A   1      33.954  37.450  33.990  1.00  0.00    -0.269 OA
ATOM      8  H   UNL A   1      32.501  37.801  32.235  1.00  0.00     0.163 HD
BRANCH   6   9
ATOM      9  C   UNL A   1      34.668  35.383  33.070  1.00  0.00     0.056 A 
ATOM     10  C   UNL A   1      36.797  34.196  32.845  1.00  0.00     0.048 A 
ATOM     11  C   UNL A   1      36.052  35.302  32.649  1.00  0.00     0.029 A 
ATOM     12  C   UNL A   1      36.122  32.952  33.342  1.00  0.00     0.255 A 
ATOM     13  N   UNL A   1      34.776  33.076  33.602  1.00  0.00    -0.328 N 
ATOM     14  O   UNL A   1      36.714  31.891  33.493  1.00  0.00    -0.269 OA
ATOM     15  C   UNL A   1      34.073  34.252  33.494  1.00  0.00     0.099 A 
ATOM     16  H   UNL A   1      34.285  32.271  33.884  1.00  0.00     0.169 HD
BRANCH  10  17
ATOM     17  C   UNL A   1      38.242  34.249  32.587  1.00  0.00    -0.012 A 
ATOM     18  C   UNL A   1      40.655  34.189  29.644  1.00  0.00     0.046 C 
ATOM     19  C   UNL A   1      40.139  34.273  31.051  1.00  0.00    -0.032 A 
ATOM     20  C   UNL A   1      38.756  34.164  31.288  1.00  0.00     0.014 A 
ATOM     21  C   UNL A   1      41.001  34.456  32.144  1.00  0.00     0.044 A 
ATOM     22  C   UNL A   1      40.495  34.526  33.444  1.00  0.00     0.021 A 
ATOM     23  Cl  UNL A   1      42.709  34.611  31.937  1.00  0.00    -0.084 Cl
ATOM     24  C   UNL A   1      39.122  34.424  33.664  1.00  0.00     0.010 A 
ENDBRANCH  10  17
ENDBRANCH   6   9
ENDBRANCH   4   5
ENDBRANCH   3   4
ENDBRANCH   2   3
ENDBRANCH   1   2
BRANCH   1  25
ATOM     25  C   UNL A   1      35.545  34.067  29.141  1.00  0.00     0.021 C 
BRANCH  25  26
ATOM     26  C   UNL A   1      34.716  32.945  29.757  1.00  0.00     0.116 C 
BRANCH  26  27
ATOM     27  N   UNL A   1      34.099  32.109  28.739  1.00  0.00    -0.352 N 
ATOM     28  C   UNL A   1      34.620  31.037  28.060  1.00  0.00     0.251 C 
ATOM     29  H   UNL A   1      33.174  32.347  28.502  1.00  0.00     0.163 HD
ATOM     30  O   UNL A   1      34.040  30.587  27.078  1.00  0.00    -0.269 OA
BRANCH  28  31
ATOM     31  C   UNL A   1      35.890  30.428  28.508  1.00  0.00     0.039 A 
ATOM     32  C   UNL A   1      37.079  30.798  27.873  1.00  0.00     0.014 A 
ATOM     33  C   UNL A   1      35.905  29.477  29.532  1.00  0.00     0.014 A 
ATOM     34  C   UNL A   1      38.290  30.252  28.301  1.00  0.00     0.010 A 
ATOM     35  C   UNL A   1      37.119  28.985  30.001  1.00  0.00     0.010 A 
ATOM     36  C   UNL A   1      38.322  29.361  29.386  1.00  0.00    -0.014 A 
BRANCH  36  37
ATOM     37  C   UNL A   1      39.603  28.806  29.887  1.00  0.00     0.031 A 
ATOM     38  C   UNL A   1      40.263  29.401  31.097  1.00  0.00     0.074 A 
ATOM     39  C   UNL A   1      40.206  27.811  29.210  1.00  0.00     0.049 A 
ATOM     40  N   UNL A   1      41.411  29.095  31.647  1.00  0.00    -0.248 NA
ATOM     41  C   UNL A   1      39.554  30.507  31.761  1.00  0.00     0.031 C 
ATOM     42  C   UNL A   1      39.691  27.178  27.994  1.00  0.00     0.029 A 
ATOM     43  N   UNL A   1      41.394  27.165  29.446  1.00  0.00    -0.354 N 
ATOM     44  C   UNL A   1      41.567  29.976  32.710  1.00  0.00     0.074 A 
ATOM     45  C   UNL A   1      40.424  30.862  32.694  1.00  0.00     0.031 C 
ATOM     46  C   UNL A   1      40.551  26.226  27.599  1.00  0.00     0.029 A 
ATOM     47  C   UNL A   1      41.689  26.204  28.511  1.00  0.00     0.049 A 
ATOM     48  H   UNL A   1      41.978  27.372  30.211  1.00  0.00     0.167 HD
ATOM     49  C   UNL A   1      42.561  30.031  33.629  1.00  0.00     0.031 A 
ATOM     50  C   UNL A   1      42.763  25.399  28.395  1.00  0.00     0.031 A 
ATOM     51  C   UNL A   1      43.698  29.149  33.644  1.00  0.00     0.049 A 
ATOM     52  C   UNL A   1      43.856  25.477  29.422  1.00  0.00     0.074 A 
ATOM     53  C   UNL A   1      44.733  29.090  34.561  1.00  0.00     0.029 A 
ATOM     54  N   UNL A   1      43.950  28.173  32.691  1.00  0.00    -0.354 N 
ATOM     55  N   UNL A   1      43.956  26.270  30.462  1.00  0.00    -0.248 NA
ATOM     56  C   UNL A   1      44.976  24.541  29.267  1.00  0.00     0.031 C 
ATOM     57  C   UNL A   1      45.636  28.110  34.137  1.00  0.00     0.029 A 
ATOM     58  C   UNL A   1      45.136  27.522  32.986  1.00  0.00     0.049 A 
ATOM     59  H   UNL A   1      43.372  27.974  31.920  1.00  0.00     0.167 HD
ATOM     60  C   UNL A   1      45.138  25.915  31.096  1.00  0.00     0.074 A 
ATOM     61  C   UNL A   1      45.711  24.824  30.334  1.00  0.00     0.031 C 
ATOM     62  C   UNL A   1      45.699  26.445  32.211  1.00  0.00     0.031 A 
BRANCH  49  63
ATOM     63  C   UNL A   1      42.457  31.095  34.687  1.00  0.00    -0.014 A 
ATOM     64  C   UNL A   1      41.640  30.919  35.816  1.00  0.00     0.009 A 
ATOM     65  C   UNL A   1      43.186  32.286  34.556  1.00  0.00     0.009 A 
ATOM     66  C   UNL A   1      41.519  31.934  36.767  1.00  0.00     0.001 A 
ATOM     67  C   UNL A   1      43.086  33.287  35.525  1.00  0.00     0.001 A 
ATOM     68  C   UNL A   1      42.243  33.115  36.622  1.00  0.00     0.000 A 
ENDBRANCH  49  63
BRANCH  50  69
ATOM     69  C   UNL A   1      42.840  24.438  27.266  1.00  0.00    -0.014 A 
ATOM     70  C   UNL A   1      43.462  24.801  26.061  1.00  0.00     0.009 A 
ATOM     71  C   UNL A   1      42.316  23.142  27.396  1.00  0.00     0.009 A 
ATOM     72  C   UNL A   1      43.541  23.892  25.005  1.00  0.00     0.001 A 
ATOM     73  C   UNL A   1      42.420  22.227  26.347  1.00  0.00     0.001 A 
ATOM     74  C   UNL A   1      43.026  22.605  25.151  1.00  0.00     0.000 A 
ENDBRANCH  50  69
BRANCH  62  75
ATOM     75  C   UNL A   1      46.988  25.836  32.686  1.00  0.00    -0.014 A 
ATOM     76  C   UNL A   1      48.226  26.282  32.199  1.00  0.00     0.009 A 
ATOM     77  C   UNL A   1      46.962  24.828  33.662  1.00  0.00     0.009 A 
ATOM     78  C   UNL A   1      49.412  25.709  32.659  1.00  0.00     0.001 A 
ATOM     79  C   UNL A   1      48.151  24.274  34.140  1.00  0.00     0.001 A 
ATOM     80  C   UNL A   1      49.375  24.709  33.632  1.00  0.00     0.000 A 
ENDBRANCH  62  75
ENDBRANCH  36  37
ENDBRANCH  28  31
ENDBRANCH  26  27
ENDBRANCH  25  26
ENDBRANCH   1  25
TORSDOF 14
ENDMDL
