MODEL 1
REMARK VINA RESULT:     -11.5      0.000      0.000
REMARK SMILES CSc1ccc(/C=C2\C(C)=C(CC(=O)NCCCCCCNC(=O)c3ccc(-c4c5nc(c(-c6ccccc6)c6ccc([nH]6)c(-c6ccccc6)c6nc(c(-c7ccccc7)c7ccc4[nH]7)C=C6)C=C5)cc3)c3cc(F)ccc32)cc1
REMARK SMILES IDX 18 1 17 2 16 3 15 4 13 5 14 6 12 8 11 9 7 10 8 11 9 12 79 13
REMARK SMILES IDX 10 14 73 15 78 16 74 17 77 18 75 19 76 20 6 21 3 22 4 23
REMARK SMILES IDX 81 24 5 25 80 26 2 27 1 28 19 29 20 30 21 31 22 32 23 33
REMARK SMILES IDX 24 35 25 36 26 37 72 38 27 39 71 40 28 41 29 42 30 43 65 44
REMARK SMILES IDX 31 45 70 46 64 47 66 48 32 49 69 50 63 51 62 52 33 54 55 55
REMARK SMILES IDX 40 56 54 57 41 58 44 59 53 60 67 61 42 62 43 63 52 65 68 66
REMARK SMILES IDX 45 67 34 68 35 69 39 70 36 71 38 72 37 73 56 74 57 75 61 76
REMARK SMILES IDX 58 77 60 78 59 79 46 80 47 81 51 82 48 83 50 84 49 85
REMARK H PARENT 15 7 22 34 66 53 44 64
REMARK Flexibility Score: inf
ROOT
ATOM      1  C   UNL A   1      40.990  21.859  25.962  1.00  0.00     0.002 C 
ENDROOT
BRANCH   1   2
ATOM      2  C   UNL A   1      40.047  22.574  26.930  1.00  0.00     0.021 C 
BRANCH   2   3
ATOM      3  C   UNL A   1      38.841  23.246  26.278  1.00  0.00     0.116 C 
BRANCH   3   4
ATOM      4  N   UNL A   1      37.735  22.323  26.152  1.00  0.00    -0.356 N 
ATOM      5  C   UNL A   1      36.415  22.624  25.980  1.00  0.00     0.224 C 
ATOM      6  O   UNL A   1      35.584  21.716  26.029  1.00  0.00    -0.275 OA
ATOM      7  H   UNL A   1      37.960  21.366  26.193  1.00  0.00     0.163 HD
BRANCH   5   8
ATOM      8  C   UNL A   1      36.013  24.063  25.716  1.00  0.00     0.136 C 
BRANCH   8   9
ATOM      9  C   UNL A   1      34.523  24.169  25.454  1.00  0.00    -0.027 C 
ATOM     10  C   UNL A   1      34.043  27.570  24.889  1.00  0.00     0.017 C 
ATOM     11  C   UNL A   1      33.933  26.235  24.800  1.00  0.00    -0.014 C 
ATOM     12  C   UNL A   1      33.785  25.236  25.881  1.00  0.00    -0.039 C 
ATOM     13  C   UNL A   1      33.928  25.432  23.562  1.00  0.00    -0.010 A 
ATOM     14  C   UNL A   1      32.288  24.975  26.141  1.00  0.00     0.045 C 
ATOM     15  C   UNL A   1      34.192  24.122  24.010  1.00  0.00    -0.011 A 
ATOM     16  C   UNL A   1      33.294  25.661  22.354  1.00  0.00     0.012 A 
ATOM     17  C   UNL A   1      33.805  23.008  23.287  1.00  0.00     0.048 A 
ATOM     18  C   UNL A   1      32.882  24.540  21.623  1.00  0.00     0.040 A 
ATOM     19  C   UNL A   1      33.127  23.239  22.097  1.00  0.00     0.123 A 
ATOM     20  F   UNL A   1      32.601  22.198  21.437  1.00  0.00    -0.207 F 
BRANCH  10  21
ATOM     21  C   UNL A   1      33.768  28.477  26.031  1.00  0.00    -0.025 A 
ATOM     22  C   UNL A   1      33.758  30.892  27.511  1.00  0.00     0.007 A 
ATOM     23  C   UNL A   1      32.643  30.511  26.775  1.00  0.00     0.015 A 
ATOM     24  C   UNL A   1      34.795  29.963  27.658  1.00  0.00     0.015 A 
ATOM     25  C   UNL A   1      32.648  29.311  26.060  1.00  0.00     0.009 A 
ATOM     26  C   UNL A   1      34.801  28.763  26.928  1.00  0.00     0.009 A 
BRANCH  22  27
ATOM     27  S   UNL A   1      33.982  32.525  28.200  1.00  0.00    -0.130 SA
ATOM     28  C   UNL A   1      35.767  32.827  27.998  1.00  0.00     0.091 C 
ENDBRANCH  22  27
ENDBRANCH  10  21
ENDBRANCH   8   9
ENDBRANCH   5   8
ENDBRANCH   3   4
ENDBRANCH   2   3
ENDBRANCH   1   2
BRANCH   1  29
ATOM     29  C   UNL A   1      41.871  20.784  26.597  1.00  0.00     0.002 C 
BRANCH  29  30
ATOM     30  C   UNL A   1      42.063  19.525  25.752  1.00  0.00     0.021 C 
BRANCH  30  31
ATOM     31  C   UNL A   1      43.349  18.762  26.040  1.00  0.00     0.116 C 
BRANCH  31  32
ATOM     32  N   UNL A   1      44.145  18.581  24.839  1.00  0.00    -0.352 N 
ATOM     33  C   UNL A   1      44.739  19.533  24.050  1.00  0.00     0.251 C 
ATOM     34  H   UNL A   1      44.276  17.648  24.552  1.00  0.00     0.163 HD
ATOM     35  O   UNL A   1      45.174  19.241  22.942  1.00  0.00    -0.269 OA
BRANCH  33  36
ATOM     36  C   UNL A   1      44.844  20.920  24.546  1.00  0.00     0.039 A 
ATOM     37  C   UNL A   1      45.506  21.160  25.752  1.00  0.00     0.014 A 
ATOM     38  C   UNL A   1      44.277  21.975  23.825  1.00  0.00     0.014 A 
ATOM     39  C   UNL A   1      45.637  22.469  26.216  1.00  0.00     0.010 A 
ATOM     40  C   UNL A   1      44.469  23.284  24.253  1.00  0.00     0.010 A 
ATOM     41  C   UNL A   1      45.137  23.541  25.459  1.00  0.00    -0.014 A 
BRANCH  41  42
ATOM     42  C   UNL A   1      45.279  24.941  25.926  1.00  0.00     0.031 A 
ATOM     43  C   UNL A   1      46.621  25.615  25.878  1.00  0.00     0.074 A 
ATOM     44  C   UNL A   1      44.214  25.585  26.440  1.00  0.00     0.049 A 
ATOM     45  N   UNL A   1      46.959  26.814  26.280  1.00  0.00    -0.248 NA
ATOM     46  C   UNL A   1      47.737  24.829  25.328  1.00  0.00     0.031 C 
ATOM     47  C   UNL A   1      42.865  25.031  26.566  1.00  0.00     0.029 A 
ATOM     48  N   UNL A   1      44.103  26.853  26.951  1.00  0.00    -0.354 N 
ATOM     49  C   UNL A   1      48.323  26.919  26.046  1.00  0.00     0.074 A 
ATOM     50  C   UNL A   1      48.762  25.646  25.518  1.00  0.00     0.031 C 
ATOM     51  C   UNL A   1      42.054  25.966  27.086  1.00  0.00     0.029 A 
ATOM     52  C   UNL A   1      42.832  27.168  27.363  1.00  0.00     0.049 A 
ATOM     53  H   UNL A   1      44.862  27.477  27.017  1.00  0.00     0.167 HD
ATOM     54  C   UNL A   1      49.137  27.985  26.234  1.00  0.00     0.031 A 
ATOM     55  C   UNL A   1      42.349  28.303  27.903  1.00  0.00     0.031 A 
ATOM     56  C   UNL A   1      48.700  29.254  26.750  1.00  0.00     0.049 A 
ATOM     57  C   UNL A   1      43.276  29.463  28.127  1.00  0.00     0.074 A 
ATOM     58  C   UNL A   1      49.434  30.412  26.931  1.00  0.00     0.029 A 
ATOM     59  N   UNL A   1      47.407  29.529  27.170  1.00  0.00    -0.354 N 
ATOM     60  N   UNL A   1      44.553  29.566  27.850  1.00  0.00    -0.248 NA
ATOM     61  C   UNL A   1      42.690  30.667  28.733  1.00  0.00     0.031 C 
ATOM     62  C   UNL A   1      48.594  31.376  27.501  1.00  0.00     0.029 A 
ATOM     63  C   UNL A   1      47.327  30.831  27.631  1.00  0.00     0.049 A 
ATOM     64  H   UNL A   1      46.657  28.891  27.144  1.00  0.00     0.167 HD
ATOM     65  C   UNL A   1      44.918  30.854  28.219  1.00  0.00     0.074 A 
ATOM     66  C   UNL A   1      43.724  31.497  28.731  1.00  0.00     0.031 C 
ATOM     67  C   UNL A   1      46.131  31.452  28.139  1.00  0.00     0.031 A 
BRANCH  54  68
ATOM     68  C   UNL A   1      50.588  27.809  25.884  1.00  0.00    -0.014 A 
ATOM     69  C   UNL A   1      51.519  27.372  26.841  1.00  0.00     0.009 A 
ATOM     70  C   UNL A   1      51.032  28.080  24.581  1.00  0.00     0.009 A 
ATOM     71  C   UNL A   1      52.871  27.256  26.512  1.00  0.00     0.001 A 
ATOM     72  C   UNL A   1      52.380  27.935  24.247  1.00  0.00     0.001 A 
ATOM     73  C   UNL A   1      53.300  27.535  25.215  1.00  0.00     0.000 A 
ENDBRANCH  54  68
BRANCH  55  74
ATOM     74  C   UNL A   1      40.905  28.409  28.236  1.00  0.00    -0.014 A 
ATOM     75  C   UNL A   1      40.435  27.962  29.479  1.00  0.00     0.009 A 
ATOM     76  C   UNL A   1      39.994  28.958  27.320  1.00  0.00     0.009 A 
ATOM     77  C   UNL A   1      39.077  28.044  29.794  1.00  0.00     0.001 A 
ATOM     78  C   UNL A   1      38.640  29.060  27.648  1.00  0.00     0.001 A 
ATOM     79  C   UNL A   1      38.182  28.597  28.879  1.00  0.00     0.000 A 
ENDBRANCH  55  74
BRANCH  67  80
ATOM     80  C   UNL A   1      46.217  32.884  28.583  1.00  0.00    -0.014 A 
ATOM     81  C   UNL A   1      46.561  33.217  29.902  1.00  0.00     0.009 A 
ATOM     82  C   UNL A   1      45.982  33.913  27.657  1.00  0.00     0.009 A 
ATOM     83  C   UNL A   1      46.638  34.556  30.292  1.00  0.00     0.001 A 
ATOM     84  C   UNL A   1      46.086  35.249  28.045  1.00  0.00     0.001 A 
ATOM     85  C   UNL A   1      46.404  35.570  29.364  1.00  0.00     0.000 A 
ENDBRANCH  67  80
ENDBRANCH  41  42
ENDBRANCH  33  36
ENDBRANCH  31  32
ENDBRANCH  30  31
ENDBRANCH  29  30
ENDBRANCH   1  29
TORSDOF 16
ENDMDL
MODEL 2
REMARK VINA RESULT:     -11.5      1.541      2.430
REMARK SMILES CSc1ccc(/C=C2\C(C)=C(CC(=O)NCCCCCCNC(=O)c3ccc(-c4c5nc(c(-c6ccccc6)c6ccc([nH]6)c(-c6ccccc6)c6nc(c(-c7ccccc7)c7ccc4[nH]7)C=C6)C=C5)cc3)c3cc(F)ccc32)cc1
REMARK SMILES IDX 18 1 17 2 16 3 15 4 13 5 14 6 12 8 11 9 7 10 8 11 9 12 79 13
REMARK SMILES IDX 10 14 73 15 78 16 74 17 77 18 75 19 76 20 6 21 3 22 4 23
REMARK SMILES IDX 81 24 5 25 80 26 2 27 1 28 19 29 20 30 21 31 22 32 23 33
REMARK SMILES IDX 24 35 25 36 26 37 72 38 27 39 71 40 28 41 29 42 30 43 65 44
REMARK SMILES IDX 31 45 70 46 64 47 66 48 32 49 69 50 63 51 62 52 33 54 55 55
REMARK SMILES IDX 40 56 54 57 41 58 44 59 53 60 67 61 42 62 43 63 52 65 68 66
REMARK SMILES IDX 45 67 34 68 35 69 39 70 36 71 38 72 37 73 56 74 57 75 61 76
REMARK SMILES IDX 58 77 60 78 59 79 46 80 47 81 51 82 48 83 50 84 49 85
REMARK H PARENT 15 7 22 34 66 53 44 64
REMARK Flexibility Score: inf
ROOT
ATOM      1  C   UNL A   1      41.926  21.127  26.722  1.00  0.00     0.002 C 
ENDROOT
BRANCH   1   2
ATOM      2  C   UNL A   1      40.747  22.063  26.987  1.00  0.00     0.021 C 
BRANCH   2   3
ATOM      3  C   UNL A   1      39.466  21.718  26.231  1.00  0.00     0.116 C 
BRANCH   3   4
ATOM      4  N   UNL A   1      38.599  22.871  26.119  1.00  0.00    -0.356 N 
ATOM      5  C   UNL A   1      37.439  22.975  25.408  1.00  0.00     0.224 C 
ATOM      6  O   UNL A   1      36.895  24.075  25.311  1.00  0.00    -0.275 OA
ATOM      7  H   UNL A   1      38.878  23.673  26.616  1.00  0.00     0.163 HD
BRANCH   5   8
ATOM      8  C   UNL A   1      36.846  21.730  24.775  1.00  0.00     0.136 C 
BRANCH   8   9
ATOM      9  C   UNL A   1      35.658  21.231  25.574  1.00  0.00    -0.027 C 
ATOM     10  C   UNL A   1      33.173  23.564  24.870  1.00  0.00     0.017 C 
ATOM     11  C   UNL A   1      33.795  22.403  25.126  1.00  0.00    -0.014 C 
ATOM     12  C   UNL A   1      34.782  22.083  26.182  1.00  0.00    -0.039 C 
ATOM     13  C   UNL A   1      33.628  21.133  24.393  1.00  0.00    -0.010 A 
ATOM     14  C   UNL A   1      34.049  21.544  27.426  1.00  0.00     0.045 C 
ATOM     15  C   UNL A   1      34.751  20.372  24.775  1.00  0.00    -0.011 A 
ATOM     16  C   UNL A   1      32.480  20.524  23.916  1.00  0.00     0.012 A 
ATOM     17  C   UNL A   1      34.753  18.990  24.724  1.00  0.00     0.048 A 
ATOM     18  C   UNL A   1      32.465  19.124  23.878  1.00  0.00     0.040 A 
ATOM     19  C   UNL A   1      33.584  18.379  24.290  1.00  0.00     0.123 A 
ATOM     20  F   UNL A   1      33.482  17.044  24.365  1.00  0.00    -0.207 F 
BRANCH  10  21
ATOM     21  C   UNL A   1      33.048  24.784  25.705  1.00  0.00    -0.025 A 
ATOM     22  C   UNL A   1      32.400  27.469  26.334  1.00  0.00     0.007 A 
ATOM     23  C   UNL A   1      31.526  26.438  26.656  1.00  0.00     0.015 A 
ATOM     24  C   UNL A   1      33.679  27.126  25.877  1.00  0.00     0.015 A 
ATOM     25  C   UNL A   1      31.858  25.115  26.358  1.00  0.00     0.009 A 
ATOM     26  C   UNL A   1      34.003  25.795  25.568  1.00  0.00     0.009 A 
BRANCH  22  27
ATOM     27  S   UNL A   1      31.955  29.199  26.381  1.00  0.00    -0.130 SA
ATOM     28  C   UNL A   1      31.354  29.526  24.693  1.00  0.00     0.091 C 
ENDBRANCH  22  27
ENDBRANCH  10  21
ENDBRANCH   8   9
ENDBRANCH   5   8
ENDBRANCH   3   4
ENDBRANCH   2   3
ENDBRANCH   1   2
BRANCH   1  29
ATOM     29  C   UNL A   1      41.589  19.885  25.899  1.00  0.00     0.002 C 
BRANCH  29  30
ATOM     30  C   UNL A   1      42.353  18.621  26.297  1.00  0.00     0.021 C 
BRANCH  30  31
ATOM     31  C   UNL A   1      43.867  18.738  26.187  1.00  0.00     0.116 C 
BRANCH  31  32
ATOM     32  N   UNL A   1      44.314  18.634  24.810  1.00  0.00    -0.352 N 
ATOM     33  C   UNL A   1      44.639  19.637  23.933  1.00  0.00     0.251 C 
ATOM     34  H   UNL A   1      44.395  17.718  24.458  1.00  0.00     0.163 HD
ATOM     35  O   UNL A   1      44.767  19.402  22.737  1.00  0.00    -0.269 OA
BRANCH  33  36
ATOM     36  C   UNL A   1      44.826  21.010  24.443  1.00  0.00     0.039 A 
ATOM     37  C   UNL A   1      44.284  22.079  23.726  1.00  0.00     0.014 A 
ATOM     38  C   UNL A   1      45.546  21.237  25.621  1.00  0.00     0.014 A 
ATOM     39  C   UNL A   1      44.429  23.378  24.215  1.00  0.00     0.010 A 
ATOM     40  C   UNL A   1      45.629  22.524  26.141  1.00  0.00     0.010 A 
ATOM     41  C   UNL A   1      45.084  23.607  25.435  1.00  0.00    -0.014 A 
BRANCH  41  42
ATOM     42  C   UNL A   1      45.235  24.977  25.979  1.00  0.00     0.031 A 
ATOM     43  C   UNL A   1      46.573  25.661  25.928  1.00  0.00     0.074 A 
ATOM     44  C   UNL A   1      44.185  25.584  26.564  1.00  0.00     0.049 A 
ATOM     45  N   UNL A   1      46.918  26.836  26.390  1.00  0.00    -0.248 NA
ATOM     46  C   UNL A   1      47.674  24.915  25.297  1.00  0.00     0.031 C 
ATOM     47  C   UNL A   1      42.843  25.015  26.700  1.00  0.00     0.029 A 
ATOM     48  N   UNL A   1      44.085  26.819  27.152  1.00  0.00    -0.354 N 
ATOM     49  C   UNL A   1      48.274  26.962  26.119  1.00  0.00     0.074 A 
ATOM     50  C   UNL A   1      48.701  25.725  25.502  1.00  0.00     0.031 C 
ATOM     51  C   UNL A   1      42.045  25.913  27.300  1.00  0.00     0.029 A 
ATOM     52  C   UNL A   1      42.827  27.101  27.623  1.00  0.00     0.049 A 
ATOM     53  H   UNL A   1      44.843  27.442  27.230  1.00  0.00     0.167 HD
ATOM     54  C   UNL A   1      49.089  28.020  26.343  1.00  0.00     0.031 A 
ATOM     55  C   UNL A   1      42.357  28.199  28.243  1.00  0.00     0.031 A 
ATOM     56  C   UNL A   1      48.664  29.254  26.947  1.00  0.00     0.049 A 
ATOM     57  C   UNL A   1      43.286  29.350  28.506  1.00  0.00     0.074 A 
ATOM     58  C   UNL A   1      49.399  30.404  27.173  1.00  0.00     0.029 A 
ATOM     59  N   UNL A   1      47.384  29.496  27.423  1.00  0.00    -0.354 N 
ATOM     60  N   UNL A   1      44.554  29.477  28.195  1.00  0.00    -0.248 NA
ATOM     61  C   UNL A   1      42.715  30.512  29.200  1.00  0.00     0.031 C 
ATOM     62  C   UNL A   1      48.574  31.328  27.826  1.00  0.00     0.029 A 
ATOM     63  C   UNL A   1      47.313  30.769  27.963  1.00  0.00     0.049 A 
ATOM     64  H   UNL A   1      46.636  28.856  27.384  1.00  0.00     0.167 HD
ATOM     65  C   UNL A   1      44.924  30.742  28.628  1.00  0.00     0.074 A 
ATOM     66  C   UNL A   1      43.746  31.347  29.215  1.00  0.00     0.031 C 
ATOM     67  C   UNL A   1      46.132  31.351  28.544  1.00  0.00     0.031 A 
BRANCH  54  68
ATOM     68  C   UNL A   1      50.529  27.874  25.937  1.00  0.00    -0.014 A 
ATOM     69  C   UNL A   1      50.957  28.210  24.642  1.00  0.00     0.009 A 
ATOM     70  C   UNL A   1      51.472  27.396  26.860  1.00  0.00     0.009 A 
ATOM     71  C   UNL A   1      52.289  28.027  24.267  1.00  0.00     0.001 A 
ATOM     72  C   UNL A   1      52.810  27.242  26.491  1.00  0.00     0.001 A 
ATOM     73  C   UNL A   1      53.215  27.545  25.193  1.00  0.00     0.000 A 
ENDBRANCH  54  68
BRANCH  55  74
ATOM     74  C   UNL A   1      40.924  28.278  28.628  1.00  0.00    -0.014 A 
ATOM     75  C   UNL A   1      40.494  27.740  29.850  1.00  0.00     0.009 A 
ATOM     76  C   UNL A   1      39.985  28.889  27.783  1.00  0.00     0.009 A 
ATOM     77  C   UNL A   1      39.146  27.795  30.212  1.00  0.00     0.001 A 
ATOM     78  C   UNL A   1      38.641  28.963  28.159  1.00  0.00     0.001 A 
ATOM     79  C   UNL A   1      38.222  28.411  29.368  1.00  0.00     0.000 A 
ENDBRANCH  55  74
BRANCH  67  80
ATOM     80  C   UNL A   1      46.227  32.755  29.069  1.00  0.00    -0.014 A 
ATOM     81  C   UNL A   1      46.603  33.012  30.397  1.00  0.00     0.009 A 
ATOM     82  C   UNL A   1      45.967  33.836  28.212  1.00  0.00     0.009 A 
ATOM     83  C   UNL A   1      46.687  34.326  30.863  1.00  0.00     0.001 A 
ATOM     84  C   UNL A   1      46.078  35.148  28.674  1.00  0.00     0.001 A 
ATOM     85  C   UNL A   1      46.428  35.392  30.001  1.00  0.00     0.000 A 
ENDBRANCH  67  80
ENDBRANCH  41  42
ENDBRANCH  33  36
ENDBRANCH  31  32
ENDBRANCH  30  31
ENDBRANCH  29  30
ENDBRANCH   1  29
TORSDOF 16
ENDMDL
MODEL 3
REMARK VINA RESULT:     -11.4      6.665     11.730
REMARK SMILES CSc1ccc(/C=C2\C(C)=C(CC(=O)NCCCCCCNC(=O)c3ccc(-c4c5nc(c(-c6ccccc6)c6ccc([nH]6)c(-c6ccccc6)c6nc(c(-c7ccccc7)c7ccc4[nH]7)C=C6)C=C5)cc3)c3cc(F)ccc32)cc1
REMARK SMILES IDX 18 1 17 2 16 3 15 4 13 5 14 6 12 8 11 9 7 10 8 11 9 12 79 13
REMARK SMILES IDX 10 14 73 15 78 16 74 17 77 18 75 19 76 20 6 21 3 22 4 23
REMARK SMILES IDX 81 24 5 25 80 26 2 27 1 28 19 29 20 30 21 31 22 32 23 33
REMARK SMILES IDX 24 35 25 36 26 37 72 38 27 39 71 40 28 41 29 42 30 43 65 44
REMARK SMILES IDX 31 45 70 46 64 47 66 48 32 49 69 50 63 51 62 52 33 54 55 55
REMARK SMILES IDX 40 56 54 57 41 58 44 59 53 60 67 61 42 62 43 63 52 65 68 66
REMARK SMILES IDX 45 67 34 68 35 69 39 70 36 71 38 72 37 73 56 74 57 75 61 76
REMARK SMILES IDX 58 77 60 78 59 79 46 80 47 81 51 82 48 83 50 84 49 85
REMARK H PARENT 15 7 22 34 66 53 44 64
REMARK Flexibility Score: inf
ROOT
ATOM      1  C   UNL A   1      35.185  32.869  29.112  1.00  0.00     0.002 C 
ENDROOT
BRANCH   1   2
ATOM      2  C   UNL A   1      35.697  31.816  28.129  1.00  0.00     0.021 C 
BRANCH   2   3
ATOM      3  C   UNL A   1      34.633  30.861  27.594  1.00  0.00     0.116 C 
BRANCH   3   4
ATOM      4  N   UNL A   1      33.356  31.527  27.455  1.00  0.00    -0.356 N 
ATOM      5  C   UNL A   1      32.225  31.044  26.865  1.00  0.00     0.224 C 
ATOM      6  O   UNL A   1      31.263  31.798  26.711  1.00  0.00    -0.275 OA
ATOM      7  H   UNL A   1      33.296  32.434  27.833  1.00  0.00     0.163 HD
BRANCH   5   8
ATOM      8  C   UNL A   1      32.179  29.590  26.433  1.00  0.00     0.136 C 
BRANCH   8   9
ATOM      9  C   UNL A   1      32.171  29.475  24.921  1.00  0.00    -0.027 C 
ATOM     10  C   UNL A   1      32.292  26.039  24.373  1.00  0.00     0.017 C 
ATOM     11  C   UNL A   1      31.988  27.340  24.245  1.00  0.00    -0.014 C 
ATOM     12  C   UNL A   1      32.887  28.516  24.262  1.00  0.00    -0.039 C 
ATOM     13  C   UNL A   1      30.644  27.916  24.045  1.00  0.00    -0.010 A 
ATOM     14  C   UNL A   1      33.323  28.852  22.823  1.00  0.00     0.045 C 
ATOM     15  C   UNL A   1      30.809  29.278  24.369  1.00  0.00    -0.011 A 
ATOM     16  C   UNL A   1      29.607  27.495  23.232  1.00  0.00     0.012 A 
ATOM     17  C   UNL A   1      29.970  30.258  23.871  1.00  0.00     0.048 A 
ATOM     18  C   UNL A   1      28.762  28.482  22.707  1.00  0.00     0.040 A 
ATOM     19  C   UNL A   1      28.957  29.839  23.017  1.00  0.00     0.123 A 
ATOM     20  F   UNL A   1      28.213  30.762  22.390  1.00  0.00    -0.207 F 
BRANCH  10  21
ATOM     21  C   UNL A   1      33.603  25.352  24.282  1.00  0.00    -0.025 A 
ATOM     22  C   UNL A   1      35.512  23.296  24.672  1.00  0.00     0.007 A 
ATOM     23  C   UNL A   1      34.807  23.386  23.479  1.00  0.00     0.015 A 
ATOM     24  C   UNL A   1      35.398  24.353  25.583  1.00  0.00     0.015 A 
ATOM     25  C   UNL A   1      33.878  24.411  23.286  1.00  0.00     0.009 A 
ATOM     26  C   UNL A   1      34.455  25.375  25.390  1.00  0.00     0.009 A 
BRANCH  22  27
ATOM     27  S   UNL A   1      36.480  21.871  25.147  1.00  0.00    -0.130 SA
ATOM     28  C   UNL A   1      35.325  20.481  24.918  1.00  0.00     0.091 C 
ENDBRANCH  22  27
ENDBRANCH  10  21
ENDBRANCH   8   9
ENDBRANCH   5   8
ENDBRANCH   3   4
ENDBRANCH   2   3
ENDBRANCH   1   2
BRANCH   1  29
ATOM     29  C   UNL A   1      35.454  34.316  28.704  1.00  0.00     0.002 C 
BRANCH  29  30
ATOM     30  C   UNL A   1      34.260  35.261  28.850  1.00  0.00     0.021 C 
BRANCH  30  31
ATOM     31  C   UNL A   1      33.079  34.672  29.610  1.00  0.00     0.116 C 
BRANCH  31  32
ATOM     32  N   UNL A   1      32.669  35.528  30.708  1.00  0.00    -0.352 N 
ATOM     33  C   UNL A   1      33.109  35.530  32.008  1.00  0.00     0.251 C 
ATOM     34  H   UNL A   1      31.981  36.198  30.490  1.00  0.00     0.163 HD
ATOM     35  O   UNL A   1      32.499  36.149  32.871  1.00  0.00    -0.269 OA
BRANCH  33  36
ATOM     36  C   UNL A   1      34.325  34.771  32.360  1.00  0.00     0.039 A 
ATOM     37  C   UNL A   1      34.196  33.458  32.816  1.00  0.00     0.014 A 
ATOM     38  C   UNL A   1      35.587  35.363  32.250  1.00  0.00     0.014 A 
ATOM     39  C   UNL A   1      35.340  32.720  33.123  1.00  0.00     0.010 A 
ATOM     40  C   UNL A   1      36.728  34.605  32.490  1.00  0.00     0.010 A 
ATOM     41  C   UNL A   1      36.614  33.283  32.943  1.00  0.00    -0.014 A 
BRANCH  41  42
ATOM     42  C   UNL A   1      37.842  32.512  33.248  1.00  0.00     0.031 A 
ATOM     43  C   UNL A   1      38.600  32.781  34.518  1.00  0.00     0.074 A 
ATOM     44  C   UNL A   1      38.303  31.608  32.362  1.00  0.00     0.049 A 
ATOM     45  N   UNL A   1      39.717  32.247  34.943  1.00  0.00    -0.248 NA
ATOM     46  C   UNL A   1      38.042  33.804  35.417  1.00  0.00     0.031 C 
ATOM     47  C   UNL A   1      37.673  31.276  31.084  1.00  0.00     0.029 A 
ATOM     48  N   UNL A   1      39.412  30.803  32.408  1.00  0.00    -0.354 N 
ATOM     49  C   UNL A   1      40.001  32.878  36.147  1.00  0.00     0.074 A 
ATOM     50  C   UNL A   1      38.971  33.871  36.359  1.00  0.00     0.031 C 
ATOM     51  C   UNL A   1      38.386  30.310  30.482  1.00  0.00     0.029 A 
ATOM     52  C   UNL A   1      39.539  29.984  31.313  1.00  0.00     0.049 A 
ATOM     53  H   UNL A   1      40.055  30.812  33.153  1.00  0.00     0.167 HD
ATOM     54  C   UNL A   1      41.016  32.640  37.010  1.00  0.00     0.031 A 
ATOM     55  C   UNL A   1      40.482  29.070  31.016  1.00  0.00     0.031 A 
ATOM     56  C   UNL A   1      42.035  31.646  36.805  1.00  0.00     0.049 A 
ATOM     57  C   UNL A   1      41.613  28.842  31.977  1.00  0.00     0.074 A 
ATOM     58  C   UNL A   1      43.078  31.292  37.643  1.00  0.00     0.029 A 
ATOM     59  N   UNL A   1      42.137  30.846  35.677  1.00  0.00    -0.354 N 
ATOM     60  N   UNL A   1      41.839  29.408  33.138  1.00  0.00    -0.248 NA
ATOM     61  C   UNL A   1      42.617  27.842  31.587  1.00  0.00     0.031 C 
ATOM     62  C   UNL A   1      43.837  30.306  37.002  1.00  0.00     0.029 A 
ATOM     63  C   UNL A   1      43.239  30.015  35.786  1.00  0.00     0.049 A 
ATOM     64  H   UNL A   1      41.519  30.867  34.912  1.00  0.00     0.167 HD
ATOM     65  C   UNL A   1      42.992  28.813  33.631  1.00  0.00     0.074 A 
ATOM     66  C   UNL A   1      43.413  27.835  32.648  1.00  0.00     0.031 C 
ATOM     67  C   UNL A   1      43.643  29.051  34.796  1.00  0.00     0.031 A 
BRANCH  54  68
ATOM     68  C   UNL A   1      41.071  33.484  38.253  1.00  0.00    -0.014 A 
ATOM     69  C   UNL A   1      41.802  34.683  38.286  1.00  0.00     0.009 A 
ATOM     70  C   UNL A   1      40.382  33.079  39.406  1.00  0.00     0.009 A 
ATOM     71  C   UNL A   1      41.879  35.434  39.460  1.00  0.00     0.001 A 
ATOM     72  C   UNL A   1      40.436  33.846  40.571  1.00  0.00     0.001 A 
ATOM     73  C   UNL A   1      41.194  35.016  40.601  1.00  0.00     0.000 A 
ENDBRANCH  54  68
BRANCH  55  74
ATOM     74  C   UNL A   1      40.375  28.274  29.766  1.00  0.00    -0.014 A 
ATOM     75  C   UNL A   1      39.612  27.098  29.745  1.00  0.00     0.009 A 
ATOM     76  C   UNL A   1      41.028  28.685  28.595  1.00  0.00     0.009 A 
ATOM     77  C   UNL A   1      39.519  26.335  28.578  1.00  0.00     0.001 A 
ATOM     78  C   UNL A   1      40.914  27.932  27.423  1.00  0.00     0.001 A 
ATOM     79  C   UNL A   1      40.167  26.756  27.417  1.00  0.00     0.000 A 
ENDBRANCH  55  74
BRANCH  67  80
ATOM     80  C   UNL A   1      44.858  28.216  35.082  1.00  0.00    -0.014 A 
ATOM     81  C   UNL A   1      46.140  28.643  34.705  1.00  0.00     0.009 A 
ATOM     82  C   UNL A   1      44.717  27.001  35.770  1.00  0.00     0.009 A 
ATOM     83  C   UNL A   1      47.256  27.851  34.984  1.00  0.00     0.001 A 
ATOM     84  C   UNL A   1      45.838  26.225  36.071  1.00  0.00     0.001 A 
ATOM     85  C   UNL A   1      47.105  26.646  35.669  1.00  0.00     0.000 A 
ENDBRANCH  67  80
ENDBRANCH  41  42
ENDBRANCH  33  36
ENDBRANCH  31  32
ENDBRANCH  30  31
ENDBRANCH  29  30
ENDBRANCH   1  29
TORSDOF 16
ENDMDL
