MODEL 1
REMARK VINA RESULT:     -12.1      0.000      0.000
REMARK SMILES Cc1ccc(-c2csc(NC(=O)[C@H]3[C@@H](C(=O)NCCCCCCNC(=O)c4ccc(-c5c6nc(c(-c7ccccc7)c7ccc([nH]7)c(-c7ccccc7)c7nc(c(-c8ccccc8)c8ccc5[nH]8)C=C7)C=C6)cc4)[C@H]4C=C[C@@H]3C4)c2C(=O)NC2CC2)cc1
REMARK SMILES IDX 19 1 18 2 17 3 15 4 16 5 14 7 13 8 78 9 75 10 77 11 79 12
REMARK SMILES IDX 76 13 11 14 10 15 12 17 9 18 6 19 7 20 80 21 8 22 5 23 1 24
REMARK SMILES IDX 2 25 3 26 88 27 4 28 87 29 81 30 82 31 83 32 84 34 85 35
REMARK SMILES IDX 86 36 20 37 21 38 22 39 23 40 24 41 25 42 26 44 27 45 28 46
REMARK SMILES IDX 74 47 29 48 73 49 30 50 31 51 32 52 67 53 33 54 72 55 66 56
REMARK SMILES IDX 68 57 34 58 71 59 65 60 64 61 35 63 57 64 42 65 56 66 43 67
REMARK SMILES IDX 46 68 55 69 69 70 44 71 45 72 54 74 70 75 47 76 36 77 37 78
REMARK SMILES IDX 41 79 38 80 40 81 39 82 58 83 59 84 63 85 60 86 62 87 61 88
REMARK SMILES IDX 48 89 49 90 53 91 50 92 52 93 51 94
REMARK H PARENT 17 6 10 16 83 33 24 43 68 62 46 73
REMARK Flexibility Score: inf
ROOT
ATOM      1  C   UNL A   1      33.685  29.054  23.255  1.00  0.00     0.021 C 
ENDROOT
BRANCH   1   2
ATOM      2  C   UNL A   1      34.107  27.687  22.717  1.00  0.00     0.116 C 
BRANCH   2   3
ATOM      3  N   UNL A   1      33.005  26.987  22.095  1.00  0.00    -0.356 N 
ATOM      4  C   UNL A   1      32.010  26.228  22.633  1.00  0.00     0.224 C 
ATOM      5  O   UNL A   1      31.196  25.740  21.847  1.00  0.00    -0.275 OA
ATOM      6  H   UNL A   1      32.968  27.074  21.116  1.00  0.00     0.163 HD
BRANCH   4   7
ATOM      7  C   UNL A   1      31.879  26.108  24.151  1.00  0.00     0.098 C 
ATOM      8  C   UNL A   1      31.177  24.825  24.752  1.00  0.00     0.099 C 
ATOM      9  C   UNL A   1      29.975  25.464  25.503  1.00  0.00     0.025 C 
ATOM     10  C   UNL A   1      31.005  27.275  24.704  1.00  0.00     0.025 C 
ATOM     11  C   UNL A   1      29.025  26.120  24.539  1.00  0.00    -0.027 C 
ATOM     12  C   UNL A   1      30.639  26.727  26.080  1.00  0.00     0.017 C 
ATOM     13  C   UNL A   1      29.626  27.230  24.088  1.00  0.00    -0.027 C 
BRANCH   8  14
ATOM     14  C   UNL A   1      30.960  23.692  23.748  1.00  0.00     0.229 C 
ATOM     15  N   UNL A   1      31.909  22.746  23.492  1.00  0.00    -0.317 N 
ATOM     16  H   UNL A   1      31.558  21.877  23.190  1.00  0.00     0.170 HD
ATOM     17  O   UNL A   1      29.919  23.638  23.084  1.00  0.00    -0.274 OA
BRANCH  15  18
ATOM     18  C   UNL A   1      33.283  22.819  23.591  1.00  0.00     0.108 A 
ATOM     19  C   UNL A   1      35.472  22.742  24.362  1.00  0.00     0.007 A 
ATOM     20  C   UNL A   1      35.604  23.354  23.125  1.00  0.00     0.076 A 
ATOM     21  C   UNL A   1      34.093  22.342  24.626  1.00  0.00     0.082 A 
ATOM     22  S   UNL A   1      34.162  23.349  22.236  1.00  0.00    -0.125 S 
BRANCH  19  23
ATOM     23  C   UNL A   1      36.697  22.579  25.137  1.00  0.00    -0.017 A 
ATOM     24  C   UNL A   1      40.608  22.523  26.913  1.00  0.00     0.044 C 
ATOM     25  C   UNL A   1      39.187  22.487  26.433  1.00  0.00    -0.051 A 
ATOM     26  C   UNL A   1      38.434  23.661  26.451  1.00  0.00     0.004 A 
ATOM     27  C   UNL A   1      38.643  21.334  25.844  1.00  0.00     0.004 A 
ATOM     28  C   UNL A   1      37.187  23.696  25.834  1.00  0.00     0.009 A 
ATOM     29  C   UNL A   1      37.401  21.376  25.195  1.00  0.00     0.009 A 
ENDBRANCH  19  23
BRANCH  21  30
ATOM     30  C   UNL A   1      33.441  21.787  25.819  1.00  0.00     0.255 C 
ATOM     31  O   UNL A   1      33.261  22.518  26.802  1.00  0.00    -0.269 OA
ATOM     32  N   UNL A   1      32.873  20.542  25.948  1.00  0.00    -0.349 N 
ATOM     33  H   UNL A   1      32.452  20.445  26.833  1.00  0.00     0.164 HD
BRANCH  32  34
ATOM     34  C   UNL A   1      32.712  19.353  25.188  1.00  0.00     0.082 C 
ATOM     35  C   UNL A   1      32.648  19.175  23.715  1.00  0.00     0.027 C 
ATOM     36  C   UNL A   1      33.911  18.829  24.457  1.00  0.00     0.027 C 
ENDBRANCH  32  34
ENDBRANCH  21  30
ENDBRANCH  15  18
ENDBRANCH   8  14
ENDBRANCH   4   7
ENDBRANCH   2   3
ENDBRANCH   1   2
BRANCH   1  37
ATOM     37  C   UNL A   1      33.662  29.194  24.782  1.00  0.00     0.002 C 
BRANCH  37  38
ATOM     38  C   UNL A   1      32.489  29.980  25.390  1.00  0.00     0.002 C 
BRANCH  38  39
ATOM     39  C   UNL A   1      32.483  30.129  26.912  1.00  0.00     0.021 C 
BRANCH  39  40
ATOM     40  C   UNL A   1      33.833  29.906  27.574  1.00  0.00     0.116 C 
BRANCH  40  41
ATOM     41  N   UNL A   1      34.294  31.010  28.406  1.00  0.00    -0.352 N 
ATOM     42  C   UNL A   1      35.503  31.146  29.077  1.00  0.00     0.251 C 
ATOM     43  H   UNL A   1      33.664  31.760  28.505  1.00  0.00     0.163 HD
ATOM     44  O   UNL A   1      35.739  32.129  29.742  1.00  0.00    -0.269 OA
BRANCH  42  45
ATOM     45  C   UNL A   1      36.557  30.122  28.847  1.00  0.00     0.039 A 
ATOM     46  C   UNL A   1      36.865  29.263  29.905  1.00  0.00     0.014 A 
ATOM     47  C   UNL A   1      37.377  30.175  27.723  1.00  0.00     0.014 A 
ATOM     48  C   UNL A   1      38.129  28.681  29.957  1.00  0.00     0.010 A 
ATOM     49  C   UNL A   1      38.662  29.682  27.814  1.00  0.00     0.010 A 
ATOM     50  C   UNL A   1      39.060  29.002  28.966  1.00  0.00    -0.014 A 
BRANCH  50  51
ATOM     51  C   UNL A   1      40.480  28.713  29.100  1.00  0.00     0.031 A 
ATOM     52  C   UNL A   1      41.015  27.468  28.512  1.00  0.00     0.074 A 
ATOM     53  C   UNL A   1      41.298  29.546  29.784  1.00  0.00     0.049 A 
ATOM     54  N   UNL A   1      41.926  26.741  29.066  1.00  0.00    -0.248 NA
ATOM     55  C   UNL A   1      40.527  26.927  27.245  1.00  0.00     0.031 C 
ATOM     56  C   UNL A   1      42.747  29.410  29.930  1.00  0.00     0.029 A 
ATOM     57  N   UNL A   1      40.981  30.581  30.669  1.00  0.00    -0.354 N 
ATOM     58  C   UNL A   1      42.347  25.838  28.118  1.00  0.00     0.074 A 
ATOM     59  C   UNL A   1      41.386  25.924  27.041  1.00  0.00     0.031 C 
ATOM     60  C   UNL A   1      43.124  30.049  31.050  1.00  0.00     0.029 A 
ATOM     61  C   UNL A   1      41.911  30.497  31.716  1.00  0.00     0.049 A 
ATOM     62  H   UNL A   1      40.252  31.235  30.576  1.00  0.00     0.167 HD
ATOM     63  C   UNL A   1      43.555  25.223  28.243  1.00  0.00     0.031 A 
ATOM     64  C   UNL A   1      41.587  30.234  33.016  1.00  0.00     0.031 A 
ATOM     65  C   UNL A   1      44.273  25.664  29.432  1.00  0.00     0.049 A 
ATOM     66  C   UNL A   1      42.285  29.003  33.568  1.00  0.00     0.074 A 
ATOM     67  C   UNL A   1      45.267  26.612  29.619  1.00  0.00     0.029 A 
ATOM     68  N   UNL A   1      43.772  25.363  30.691  1.00  0.00    -0.354 N 
ATOM     69  N   UNL A   1      42.841  28.092  32.815  1.00  0.00    -0.248 NA
ATOM     70  C   UNL A   1      42.376  28.670  34.989  1.00  0.00     0.031 C 
ATOM     71  C   UNL A   1      45.314  26.931  31.000  1.00  0.00     0.029 A 
ATOM     72  C   UNL A   1      44.373  26.154  31.652  1.00  0.00     0.049 A 
ATOM     73  H   UNL A   1      43.084  24.683  30.875  1.00  0.00     0.167 HD
ATOM     74  C   UNL A   1      43.365  27.096  33.599  1.00  0.00     0.074 A 
ATOM     75  C   UNL A   1      43.048  27.504  34.954  1.00  0.00     0.031 C 
ATOM     76  C   UNL A   1      44.011  26.022  33.055  1.00  0.00     0.031 A 
BRANCH  63  77
ATOM     77  C   UNL A   1      44.190  24.495  27.090  1.00  0.00    -0.014 A 
ATOM     78  C   UNL A   1      44.933  25.207  26.132  1.00  0.00     0.009 A 
ATOM     79  C   UNL A   1      44.044  23.114  26.874  1.00  0.00     0.009 A 
ATOM     80  C   UNL A   1      45.415  24.596  24.969  1.00  0.00     0.001 A 
ATOM     81  C   UNL A   1      44.490  22.504  25.694  1.00  0.00     0.001 A 
ATOM     82  C   UNL A   1      45.165  23.249  24.735  1.00  0.00     0.000 A 
ENDBRANCH  63  77
BRANCH  64  83
ATOM     83  C   UNL A   1      40.230  30.690  33.418  1.00  0.00    -0.014 A 
ATOM     84  C   UNL A   1      39.972  32.074  33.427  1.00  0.00     0.009 A 
ATOM     85  C   UNL A   1      39.143  29.806  33.407  1.00  0.00     0.009 A 
ATOM     86  C   UNL A   1      38.668  32.560  33.292  1.00  0.00     0.001 A 
ATOM     87  C   UNL A   1      37.838  30.298  33.282  1.00  0.00     0.001 A 
ATOM     88  C   UNL A   1      37.604  31.670  33.182  1.00  0.00     0.000 A 
ENDBRANCH  64  83
BRANCH  76  89
ATOM     89  C   UNL A   1      44.453  24.770  33.779  1.00  0.00    -0.014 A 
ATOM     90  C   UNL A   1      43.584  23.834  34.352  1.00  0.00     0.009 A 
ATOM     91  C   UNL A   1      45.828  24.434  33.775  1.00  0.00     0.009 A 
ATOM     92  C   UNL A   1      44.067  22.648  34.927  1.00  0.00     0.001 A 
ATOM     93  C   UNL A   1      46.308  23.232  34.302  1.00  0.00     0.001 A 
ATOM     94  C   UNL A   1      45.425  22.343  34.891  1.00  0.00     0.000 A 
ENDBRANCH  76  89
ENDBRANCH  50  51
ENDBRANCH  42  45
ENDBRANCH  40  41
ENDBRANCH  39  40
ENDBRANCH  38  39
ENDBRANCH  37  38
ENDBRANCH   1  37
TORSDOF 18
ENDMDL
MODEL 2
REMARK VINA RESULT:     -11.6      2.821      7.797
REMARK SMILES Cc1ccc(-c2csc(NC(=O)[C@H]3[C@@H](C(=O)NCCCCCCNC(=O)c4ccc(-c5c6nc(c(-c7ccccc7)c7ccc([nH]7)c(-c7ccccc7)c7nc(c(-c8ccccc8)c8ccc5[nH]8)C=C7)C=C6)cc4)[C@H]4C=C[C@@H]3C4)c2C(=O)NC2CC2)cc1
REMARK SMILES IDX 19 1 18 2 17 3 15 4 16 5 14 7 13 8 78 9 75 10 77 11 79 12
REMARK SMILES IDX 76 13 11 14 10 15 12 17 9 18 6 19 7 20 80 21 8 22 5 23 1 24
REMARK SMILES IDX 2 25 3 26 88 27 4 28 87 29 81 30 82 31 83 32 84 34 85 35
REMARK SMILES IDX 86 36 20 37 21 38 22 39 23 40 24 41 25 42 26 44 27 45 28 46
REMARK SMILES IDX 74 47 29 48 73 49 30 50 31 51 32 52 67 53 33 54 72 55 66 56
REMARK SMILES IDX 68 57 34 58 71 59 65 60 64 61 35 63 57 64 42 65 56 66 43 67
REMARK SMILES IDX 46 68 55 69 69 70 44 71 45 72 54 74 70 75 47 76 36 77 37 78
REMARK SMILES IDX 41 79 38 80 40 81 39 82 58 83 59 84 63 85 60 86 62 87 61 88
REMARK SMILES IDX 48 89 49 90 53 91 50 92 52 93 51 94
REMARK H PARENT 17 6 10 16 83 33 24 43 68 62 46 73
REMARK Flexibility Score: inf
ROOT
ATOM      1  C   UNL A   1      36.059  23.595  24.561  1.00  0.00     0.021 C 
ENDROOT
BRANCH   1   2
ATOM      2  C   UNL A   1      35.119  24.515  25.339  1.00  0.00     0.116 C 
BRANCH   2   3
ATOM      3  N   UNL A   1      34.651  25.619  24.530  1.00  0.00    -0.356 N 
ATOM      4  C   UNL A   1      33.770  26.620  24.808  1.00  0.00     0.224 C 
ATOM      5  O   UNL A   1      33.552  27.434  23.909  1.00  0.00    -0.275 OA
ATOM      6  H   UNL A   1      35.034  25.652  23.625  1.00  0.00     0.163 HD
BRANCH   4   7
ATOM      7  C   UNL A   1      33.191  26.756  26.216  1.00  0.00     0.098 C 
ATOM      8  C   UNL A   1      31.623  26.664  26.403  1.00  0.00     0.099 C 
ATOM      9  C   UNL A   1      31.309  28.062  27.005  1.00  0.00     0.025 C 
ATOM     10  C   UNL A   1      33.528  28.163  26.796  1.00  0.00     0.025 C 
ATOM     11  C   UNL A   1      31.608  29.154  26.015  1.00  0.00    -0.027 C 
ATOM     12  C   UNL A   1      32.519  28.248  27.938  1.00  0.00     0.017 C 
ATOM     13  C   UNL A   1      32.941  29.244  25.918  1.00  0.00    -0.027 C 
BRANCH   8  14
ATOM     14  C   UNL A   1      30.867  26.152  25.176  1.00  0.00     0.229 C 
ATOM     15  N   UNL A   1      30.696  24.824  24.919  1.00  0.00    -0.317 N 
ATOM     16  H   UNL A   1      29.893  24.602  24.395  1.00  0.00     0.170 HD
ATOM     17  O   UNL A   1      30.435  26.947  24.333  1.00  0.00    -0.274 OA
BRANCH  15  18
ATOM     18  C   UNL A   1      31.474  23.743  25.282  1.00  0.00     0.108 A 
ATOM     19  C   UNL A   1      32.656  21.744  25.282  1.00  0.00     0.007 A 
ATOM     20  C   UNL A   1      32.693  22.123  26.615  1.00  0.00     0.076 A 
ATOM     21  C   UNL A   1      31.993  22.746  24.452  1.00  0.00     0.082 A 
ATOM     22  S   UNL A   1      32.075  23.679  26.871  1.00  0.00    -0.125 S 
BRANCH  19  23
ATOM     23  C   UNL A   1      33.294  20.475  24.952  1.00  0.00    -0.017 A 
ATOM     24  C   UNL A   1      34.888  16.501  24.605  1.00  0.00     0.044 C 
ATOM     25  C   UNL A   1      34.365  17.906  24.570  1.00  0.00    -0.051 A 
ATOM     26  C   UNL A   1      32.992  18.117  24.440  1.00  0.00     0.004 A 
ATOM     27  C   UNL A   1      35.207  19.007  24.799  1.00  0.00     0.004 A 
ATOM     28  C   UNL A   1      32.467  19.395  24.600  1.00  0.00     0.009 A 
ATOM     29  C   UNL A   1      34.676  20.291  24.991  1.00  0.00     0.009 A 
ENDBRANCH  19  23
BRANCH  21  30
ATOM     30  C   UNL A   1      31.604  22.747  23.035  1.00  0.00     0.255 C 
ATOM     31  O   UNL A   1      30.901  21.825  22.604  1.00  0.00    -0.269 OA
ATOM     32  N   UNL A   1      31.829  23.744  22.117  1.00  0.00    -0.349 N 
ATOM     33  H   UNL A   1      31.412  23.518  21.254  1.00  0.00     0.164 HD
BRANCH  32  34
ATOM     34  C   UNL A   1      32.482  25.003  22.038  1.00  0.00     0.082 C 
ATOM     35  C   UNL A   1      32.990  25.731  20.847  1.00  0.00     0.027 C 
ATOM     36  C   UNL A   1      31.698  26.158  21.490  1.00  0.00     0.027 C 
ENDBRANCH  32  34
ENDBRANCH  21  30
ENDBRANCH  15  18
ENDBRANCH   8  14
ENDBRANCH   4   7
ENDBRANCH   2   3
ENDBRANCH   1   2
BRANCH   1  37
ATOM     37  C   UNL A   1      37.379  23.243  25.260  1.00  0.00     0.002 C 
BRANCH  37  38
ATOM     38  C   UNL A   1      37.940  21.833  25.014  1.00  0.00     0.002 C 
BRANCH  38  39
ATOM     39  C   UNL A   1      38.838  21.255  26.109  1.00  0.00     0.021 C 
BRANCH  39  40
ATOM     40  C   UNL A   1      40.255  21.805  26.120  1.00  0.00     0.116 C 
BRANCH  40  41
ATOM     41  N   UNL A   1      41.274  20.875  25.650  1.00  0.00    -0.352 N 
ATOM     42  C   UNL A   1      42.645  20.902  25.873  1.00  0.00     0.251 C 
ATOM     43  H   UNL A   1      40.946  20.126  25.102  1.00  0.00     0.163 HD
ATOM     44  O   UNL A   1      43.369  20.055  25.405  1.00  0.00    -0.269 OA
BRANCH  42  45
ATOM     45  C   UNL A   1      43.186  21.917  26.817  1.00  0.00     0.039 A 
ATOM     46  C   UNL A   1      42.839  21.795  28.165  1.00  0.00     0.014 A 
ATOM     47  C   UNL A   1      43.799  23.077  26.351  1.00  0.00     0.014 A 
ATOM     48  C   UNL A   1      42.847  22.931  28.970  1.00  0.00     0.010 A 
ATOM     49  C   UNL A   1      43.718  24.224  27.113  1.00  0.00     0.010 A 
ATOM     50  C   UNL A   1      43.169  24.162  28.395  1.00  0.00    -0.014 A 
BRANCH  50  51
ATOM     51  C   UNL A   1      42.897  25.431  29.054  1.00  0.00     0.031 A 
ATOM     52  C   UNL A   1      41.714  26.213  28.641  1.00  0.00     0.074 A 
ATOM     53  C   UNL A   1      43.731  25.915  30.005  1.00  0.00     0.049 A 
ATOM     54  N   UNL A   1      41.694  27.500  28.550  1.00  0.00    -0.248 NA
ATOM     55  C   UNL A   1      40.451  25.581  28.263  1.00  0.00     0.031 C 
ATOM     56  C   UNL A   1      43.535  27.133  30.790  1.00  0.00     0.029 A 
ATOM     57  N   UNL A   1      45.035  25.530  30.327  1.00  0.00    -0.354 N 
ATOM     58  C   UNL A   1      40.377  27.870  28.404  1.00  0.00     0.074 A 
ATOM     59  C   UNL A   1      39.655  26.647  28.133  1.00  0.00     0.031 C 
ATOM     60  C   UNL A   1      44.736  27.568  31.206  1.00  0.00     0.029 A 
ATOM     61  C   UNL A   1      45.739  26.715  30.589  1.00  0.00     0.049 A 
ATOM     62  H   UNL A   1      45.389  24.612  30.362  1.00  0.00     0.167 HD
ATOM     63  C   UNL A   1      39.985  29.140  28.694  1.00  0.00     0.031 A 
ATOM     64  C   UNL A   1      46.802  27.159  29.856  1.00  0.00     0.031 A 
ATOM     65  C   UNL A   1      41.092  29.962  29.166  1.00  0.00     0.049 A 
ATOM     66  C   UNL A   1      46.585  28.540  29.263  1.00  0.00     0.074 A 
ATOM     67  C   UNL A   1      41.517  30.307  30.440  1.00  0.00     0.029 A 
ATOM     68  N   UNL A   1      42.135  30.274  28.304  1.00  0.00    -0.354 N 
ATOM     69  N   UNL A   1      45.410  29.098  29.149  1.00  0.00    -0.248 NA
ATOM     70  C   UNL A   1      47.647  29.381  28.713  1.00  0.00     0.031 C 
ATOM     71  C   UNL A   1      42.854  30.768  30.346  1.00  0.00     0.029 A 
ATOM     72  C   UNL A   1      43.227  30.733  29.015  1.00  0.00     0.049 A 
ATOM     73  H   UNL A   1      42.101  30.180  27.324  1.00  0.00     0.167 HD
ATOM     74  C   UNL A   1      45.534  30.328  28.556  1.00  0.00     0.074 A 
ATOM     75  C   UNL A   1      46.956  30.461  28.302  1.00  0.00     0.031 C 
ATOM     76  C   UNL A   1      44.448  31.126  28.326  1.00  0.00     0.031 A 
BRANCH  63  77
ATOM     77  C   UNL A   1      38.532  29.494  28.866  1.00  0.00    -0.014 A 
ATOM     78  C   UNL A   1      37.922  29.367  30.126  1.00  0.00     0.009 A 
ATOM     79  C   UNL A   1      37.709  29.911  27.806  1.00  0.00     0.009 A 
ATOM     80  C   UNL A   1      36.544  29.543  30.299  1.00  0.00     0.001 A 
ATOM     81  C   UNL A   1      36.323  30.051  27.964  1.00  0.00     0.001 A 
ATOM     82  C   UNL A   1      35.739  29.855  29.210  1.00  0.00     0.000 A 
ENDBRANCH  63  77
BRANCH  64  83
ATOM     83  C   UNL A   1      47.606  26.080  29.221  1.00  0.00    -0.014 A 
ATOM     84  C   UNL A   1      47.258  25.675  27.918  1.00  0.00     0.009 A 
ATOM     85  C   UNL A   1      48.878  25.751  29.708  1.00  0.00     0.009 A 
ATOM     86  C   UNL A   1      48.203  25.076  27.079  1.00  0.00     0.001 A 
ATOM     87  C   UNL A   1      49.817  25.142  28.867  1.00  0.00     0.001 A 
ATOM     88  C   UNL A   1      49.495  24.845  27.543  1.00  0.00     0.000 A 
ENDBRANCH  64  83
BRANCH  76  89
ATOM     89  C   UNL A   1      44.416  32.398  27.511  1.00  0.00    -0.014 A 
ATOM     90  C   UNL A   1      44.448  32.448  26.112  1.00  0.00     0.009 A 
ATOM     91  C   UNL A   1      44.208  33.628  28.181  1.00  0.00     0.009 A 
ATOM     92  C   UNL A   1      44.321  33.665  25.424  1.00  0.00     0.001 A 
ATOM     93  C   UNL A   1      44.032  34.834  27.498  1.00  0.00     0.001 A 
ATOM     94  C   UNL A   1      44.102  34.853  26.115  1.00  0.00     0.000 A 
ENDBRANCH  76  89
ENDBRANCH  50  51
ENDBRANCH  42  45
ENDBRANCH  40  41
ENDBRANCH  39  40
ENDBRANCH  38  39
ENDBRANCH  37  38
ENDBRANCH   1  37
TORSDOF 18
ENDMDL
MODEL 3
REMARK VINA RESULT:     -11.6      2.697      8.688
REMARK SMILES Cc1ccc(-c2csc(NC(=O)[C@H]3[C@@H](C(=O)NCCCCCCNC(=O)c4ccc(-c5c6nc(c(-c7ccccc7)c7ccc([nH]7)c(-c7ccccc7)c7nc(c(-c8ccccc8)c8ccc5[nH]8)C=C7)C=C6)cc4)[C@H]4C=C[C@@H]3C4)c2C(=O)NC2CC2)cc1
REMARK SMILES IDX 19 1 18 2 17 3 15 4 16 5 14 7 13 8 78 9 75 10 77 11 79 12
REMARK SMILES IDX 76 13 11 14 10 15 12 17 9 18 6 19 7 20 80 21 8 22 5 23 1 24
REMARK SMILES IDX 2 25 3 26 88 27 4 28 87 29 81 30 82 31 83 32 84 34 85 35
REMARK SMILES IDX 86 36 20 37 21 38 22 39 23 40 24 41 25 42 26 44 27 45 28 46
REMARK SMILES IDX 74 47 29 48 73 49 30 50 31 51 32 52 67 53 33 54 72 55 66 56
REMARK SMILES IDX 68 57 34 58 71 59 65 60 64 61 35 63 57 64 42 65 56 66 43 67
REMARK SMILES IDX 46 68 55 69 69 70 44 71 45 72 54 74 70 75 47 76 36 77 37 78
REMARK SMILES IDX 41 79 38 80 40 81 39 82 58 83 59 84 63 85 60 86 62 87 61 88
REMARK SMILES IDX 48 89 49 90 53 91 50 92 52 93 51 94
REMARK H PARENT 17 6 10 16 83 33 24 43 68 62 46 73
REMARK Flexibility Score: inf
ROOT
ATOM      1  C   UNL A   1      38.423  21.310  25.434  1.00  0.00     0.021 C 
ENDROOT
BRANCH   1   2
ATOM      2  C   UNL A   1      37.062  20.793  24.970  1.00  0.00     0.116 C 
BRANCH   2   3
ATOM      3  N   UNL A   1      36.046  20.956  25.985  1.00  0.00    -0.356 N 
ATOM      4  C   UNL A   1      34.749  21.365  25.895  1.00  0.00     0.224 C 
ATOM      5  O   UNL A   1      34.108  21.417  26.945  1.00  0.00    -0.275 OA
ATOM      6  H   UNL A   1      36.340  20.735  26.897  1.00  0.00     0.163 HD
BRANCH   4   7
ATOM      7  C   UNL A   1      34.127  21.626  24.523  1.00  0.00     0.098 C 
ATOM      8  C   UNL A   1      33.935  23.123  24.051  1.00  0.00     0.099 C 
ATOM      9  C   UNL A   1      32.392  23.188  23.873  1.00  0.00     0.025 C 
ATOM     10  C   UNL A   1      32.675  21.059  24.481  1.00  0.00     0.025 C 
ATOM     11  C   UNL A   1      31.690  23.010  25.192  1.00  0.00    -0.027 C 
ATOM     12  C   UNL A   1      32.117  21.799  23.268  1.00  0.00     0.017 C 
ATOM     13  C   UNL A   1      31.825  21.723  25.539  1.00  0.00    -0.027 C 
BRANCH   8  14
ATOM     14  C   UNL A   1      34.669  24.157  24.906  1.00  0.00     0.229 C 
ATOM     15  N   UNL A   1      34.164  25.400  25.150  1.00  0.00    -0.317 N 
ATOM     16  H   UNL A   1      34.461  25.811  25.995  1.00  0.00     0.170 HD
ATOM     17  O   UNL A   1      35.792  23.908  25.359  1.00  0.00    -0.274 OA
BRANCH  15  18
ATOM     18  C   UNL A   1      33.302  26.172  24.397  1.00  0.00     0.108 A 
ATOM     19  C   UNL A   1      31.627  27.628  23.716  1.00  0.00     0.007 A 
ATOM     20  C   UNL A   1      32.051  27.067  22.521  1.00  0.00     0.076 A 
ATOM     21  C   UNL A   1      32.421  27.159  24.848  1.00  0.00     0.082 A 
ATOM     22  S   UNL A   1      33.433  26.106  22.704  1.00  0.00    -0.125 S 
BRANCH  19  23
ATOM     23  C   UNL A   1      30.526  28.581  23.630  1.00  0.00    -0.017 A 
ATOM     24  C   UNL A   1      27.420  31.386  22.661  1.00  0.00     0.044 C 
ATOM     25  C   UNL A   1      28.432  30.388  23.141  1.00  0.00    -0.051 A 
ATOM     26  C   UNL A   1      28.308  29.054  22.751  1.00  0.00     0.004 A 
ATOM     27  C   UNL A   1      29.570  30.788  23.861  1.00  0.00     0.004 A 
ATOM     28  C   UNL A   1      29.334  28.154  23.020  1.00  0.00     0.009 A 
ATOM     29  C   UNL A   1      30.618  29.888  24.106  1.00  0.00     0.009 A 
ENDBRANCH  19  23
BRANCH  21  30
ATOM     30  C   UNL A   1      32.285  27.360  26.296  1.00  0.00     0.255 C 
ATOM     31  O   UNL A   1      31.887  26.422  26.999  1.00  0.00    -0.269 OA
ATOM     32  N   UNL A   1      32.672  28.462  27.019  1.00  0.00    -0.349 N 
ATOM     33  H   UNL A   1      32.522  28.315  27.980  1.00  0.00     0.164 HD
BRANCH  32  34
ATOM     34  C   UNL A   1      33.224  29.752  26.794  1.00  0.00     0.082 C 
ATOM     35  C   UNL A   1      33.653  30.781  27.776  1.00  0.00     0.027 C 
ATOM     36  C   UNL A   1      34.685  29.940  27.076  1.00  0.00     0.027 C 
ENDBRANCH  32  34
ENDBRANCH  21  30
ENDBRANCH  15  18
ENDBRANCH   8  14
ENDBRANCH   4   7
ENDBRANCH   2   3
ENDBRANCH   1   2
BRANCH   1  37
ATOM     37  C   UNL A   1      39.496  20.241  25.681  1.00  0.00     0.002 C 
BRANCH  37  38
ATOM     38  C   UNL A   1      40.699  20.652  26.545  1.00  0.00     0.002 C 
BRANCH  38  39
ATOM     39  C   UNL A   1      40.567  21.964  27.319  1.00  0.00     0.021 C 
BRANCH  39  40
ATOM     40  C   UNL A   1      41.711  22.943  27.103  1.00  0.00     0.116 C 
BRANCH  40  41
ATOM     41  N   UNL A   1      41.433  24.003  26.144  1.00  0.00    -0.352 N 
ATOM     42  C   UNL A   1      40.950  25.284  26.380  1.00  0.00     0.251 C 
ATOM     43  H   UNL A   1      41.614  23.782  25.201  1.00  0.00     0.163 HD
ATOM     44  O   UNL A   1      40.762  26.057  25.468  1.00  0.00    -0.269 OA
BRANCH  42  45
ATOM     45  C   UNL A   1      40.802  25.734  27.790  1.00  0.00     0.039 A 
ATOM     46  C   UNL A   1      39.551  25.571  28.392  1.00  0.00     0.014 A 
ATOM     47  C   UNL A   1      41.782  26.510  28.403  1.00  0.00     0.014 A 
ATOM     48  C   UNL A   1      39.196  26.407  29.447  1.00  0.00     0.010 A 
ATOM     49  C   UNL A   1      41.404  27.406  29.382  1.00  0.00     0.010 A 
ATOM     50  C   UNL A   1      40.089  27.404  29.847  1.00  0.00    -0.014 A 
BRANCH  50  51
ATOM     51  C   UNL A   1      39.694  28.514  30.702  1.00  0.00     0.031 A 
ATOM     52  C   UNL A   1      38.989  29.664  30.100  1.00  0.00     0.074 A 
ATOM     53  C   UNL A   1      39.996  28.519  32.022  1.00  0.00     0.049 A 
ATOM     54  N   UNL A   1      39.187  30.893  30.443  1.00  0.00    -0.248 NA
ATOM     55  C   UNL A   1      38.014  29.509  29.022  1.00  0.00     0.031 C 
ATOM     56  C   UNL A   1      39.595  29.532  32.997  1.00  0.00     0.029 A 
ATOM     57  N   UNL A   1      40.901  27.726  32.732  1.00  0.00    -0.354 N 
ATOM     58  C   UNL A   1      38.181  31.634  29.870  1.00  0.00     0.074 A 
ATOM     59  C   UNL A   1      37.537  30.754  28.920  1.00  0.00     0.031 C 
ATOM     60  C   UNL A   1      40.473  29.512  34.015  1.00  0.00     0.029 A 
ATOM     61  C   UNL A   1      41.528  28.579  33.653  1.00  0.00     0.049 A 
ATOM     62  H   UNL A   1      41.065  26.763  32.611  1.00  0.00     0.167 HD
ATOM     63  C   UNL A   1      37.867  32.863  30.363  1.00  0.00     0.031 A 
ATOM     64  C   UNL A   1      42.863  28.866  33.652  1.00  0.00     0.031 A 
ATOM     65  C   UNL A   1      38.687  33.218  31.514  1.00  0.00     0.049 A 
ATOM     66  C   UNL A   1      43.154  30.351  33.522  1.00  0.00     0.074 A 
ATOM     67  C   UNL A   1      38.460  33.133  32.879  1.00  0.00     0.029 A 
ATOM     68  N   UNL A   1      40.052  33.417  31.353  1.00  0.00    -0.354 N 
ATOM     69  N   UNL A   1      42.279  31.222  33.099  1.00  0.00    -0.248 NA
ATOM     70  C   UNL A   1      44.450  30.968  33.806  1.00  0.00     0.031 C 
ATOM     71  C   UNL A   1      39.712  33.216  33.538  1.00  0.00     0.029 A 
ATOM     72  C   UNL A   1      40.693  33.383  32.577  1.00  0.00     0.049 A 
ATOM     73  H   UNL A   1      40.500  33.562  30.489  1.00  0.00     0.167 HD
ATOM     74  C   UNL A   1      42.843  32.472  33.067  1.00  0.00     0.074 A 
ATOM     75  C   UNL A   1      44.205  32.261  33.520  1.00  0.00     0.031 C 
ATOM     76  C   UNL A   1      42.133  33.569  32.666  1.00  0.00     0.031 A 
BRANCH  63  77
ATOM     77  C   UNL A   1      36.584  33.556  29.991  1.00  0.00    -0.014 A 
ATOM     78  C   UNL A   1      35.568  33.718  30.948  1.00  0.00     0.009 A 
ATOM     79  C   UNL A   1      36.308  34.022  28.694  1.00  0.00     0.009 A 
ATOM     80  C   UNL A   1      34.308  34.222  30.609  1.00  0.00     0.001 A 
ATOM     81  C   UNL A   1      35.035  34.491  28.338  1.00  0.00     0.001 A 
ATOM     82  C   UNL A   1      34.031  34.580  29.294  1.00  0.00     0.000 A 
ENDBRANCH  63  77
BRANCH  64  83
ATOM     83  C   UNL A   1      43.726  27.782  33.114  1.00  0.00    -0.014 A 
ATOM     84  C   UNL A   1      43.947  26.649  33.919  1.00  0.00     0.009 A 
ATOM     85  C   UNL A   1      43.989  27.689  31.740  1.00  0.00     0.009 A 
ATOM     86  C   UNL A   1      44.292  25.420  33.347  1.00  0.00     0.001 A 
ATOM     87  C   UNL A   1      44.344  26.459  31.174  1.00  0.00     0.001 A 
ATOM     88  C   UNL A   1      44.453  25.318  31.969  1.00  0.00     0.000 A 
ENDBRANCH  64  83
BRANCH  76  89
ATOM     89  C   UNL A   1      42.680  34.951  32.394  1.00  0.00    -0.014 A 
ATOM     90  C   UNL A   1      42.936  35.914  33.378  1.00  0.00     0.009 A 
ATOM     91  C   UNL A   1      43.093  35.272  31.078  1.00  0.00     0.009 A 
ATOM     92  C   UNL A   1      43.532  37.143  33.058  1.00  0.00     0.001 A 
ATOM     93  C   UNL A   1      43.730  36.474  30.763  1.00  0.00     0.001 A 
ATOM     94  C   UNL A   1      43.939  37.418  31.755  1.00  0.00     0.000 A 
ENDBRANCH  76  89
ENDBRANCH  50  51
ENDBRANCH  42  45
ENDBRANCH  40  41
ENDBRANCH  39  40
ENDBRANCH  38  39
ENDBRANCH  37  38
ENDBRANCH   1  37
TORSDOF 18
ENDMDL
