MODEL 1
REMARK VINA RESULT:     -10.2      0.000      0.000
REMARK SMILES C[C@H]1C[N@H+]2CCCC[C@@H]2CN1C(=O)[C@H]([NH3+])CC(=O)NCCCCCCNC(=O)c1ccc(-c2c3nc(c(-c4ccccc4)c4ccc([nH]4)c(-c4ccccc4)c4nc(c(-c5ccccc5)c5ccc2[nH]5)C=C4)C=C3)cc1
REMARK SMILES IDX 22 1 21 2 20 3 19 4 17 5 18 6 16 8 14 9 12 10 13 11 11 12
REMARK SMILES IDX 1 13 2 14 3 15 4 16 10 17 5 18 9 19 6 21 8 22 7 23 15 24
REMARK SMILES IDX 23 28 24 29 25 30 26 31 27 32 28 34 29 35 30 36 76 37 31 38
REMARK SMILES IDX 75 39 32 40 33 41 34 42 69 43 35 44 74 45 68 46 70 47 36 48
REMARK SMILES IDX 73 49 67 50 66 51 37 53 59 54 44 55 58 56 45 57 48 58 57 59
REMARK SMILES IDX 71 60 46 61 47 62 56 64 72 65 49 66 38 67 39 68 43 69 40 70
REMARK SMILES IDX 42 71 41 72 60 73 61 74 65 75 62 76 64 77 63 78 50 79 51 80
REMARK SMILES IDX 55 81 52 82 54 83 53 84
REMARK H PARENT 19 7 4 20 15 25 15 26 15 27 26 33 70 52 48 63
REMARK Flexibility Score: inf
ROOT
ATOM      1  C   UNL A   1      34.130  22.100  27.568  1.00  0.00     0.002 C 
ENDROOT
BRANCH   1   2
ATOM      2  C   UNL A   1      32.733  22.564  27.167  1.00  0.00     0.021 C 
BRANCH   2   3
ATOM      3  C   UNL A   1      32.304  22.149  25.752  1.00  0.00     0.116 C 
BRANCH   3   4
ATOM      4  N   UNL A   1      31.262  23.029  25.253  1.00  0.00    -0.356 N 
ATOM      5  C   UNL A   1      31.377  24.296  24.755  1.00  0.00     0.226 C 
ATOM      6  O   UNL A   1      30.347  24.948  24.573  1.00  0.00    -0.275 OA
ATOM      7  H   UNL A   1      30.348  22.663  25.277  1.00  0.00     0.163 HD
BRANCH   5   8
ATOM      8  C   UNL A   1      32.739  24.873  24.412  1.00  0.00     0.175 C 
BRANCH   8   9
ATOM      9  C   UNL A   1      33.025  24.926  22.908  1.00  0.00     0.280 C 
BRANCH   9  10
ATOM     10  C   UNL A   1      33.245  26.393  22.417  1.00  0.00     0.281 C 
ATOM     11  O   UNL A   1      33.698  26.602  21.290  1.00  0.00    -0.268 OA
BRANCH  10  12
ATOM     12  N   UNL A   1      32.925  27.439  23.306  1.00  0.00    -0.323 N 
ATOM     13  C   UNL A   1      30.564  27.704  22.414  1.00  0.00     0.037 C 
ATOM     14  C   UNL A   1      31.820  28.380  22.994  1.00  0.00     0.137 C 
ATOM     15  C   UNL A   1      31.361  29.214  24.235  1.00  0.00     0.287 C 
ATOM     16  N   UNL A   1      32.437  29.773  25.080  1.00  0.00    -0.329 N 
ATOM     17  C   UNL A   1      33.919  27.956  24.249  1.00  0.00     0.185 C 
ATOM     18  C   UNL A   1      31.865  30.373  26.300  1.00  0.00     0.262 C 
ATOM     19  C   UNL A   1      33.369  28.702  25.461  1.00  0.00     0.203 C 
ATOM     20  H   UNL A   1      32.931  30.491  24.552  1.00  0.00     0.348 HD
ATOM     21  C   UNL A   1      32.949  30.967  27.207  1.00  0.00     0.062 C 
ATOM     22  C   UNL A   1      34.551  29.304  26.239  1.00  0.00     0.067 C 
ATOM     23  C   UNL A   1      34.062  29.969  27.515  1.00  0.00     0.012 C 
ENDBRANCH  10  12
ENDBRANCH   9  10
BRANCH   9  24
ATOM     24  N   UNL A   1      31.889  24.343  22.171  1.00  0.00    -0.347 N 
ATOM     25  H   UNL A   1      31.206  25.073  21.969  1.00  0.00     0.345 HD
ATOM     26  H   UNL A   1      31.453  23.616  22.738  1.00  0.00     0.345 HD
ATOM     27  H   UNL A   1      32.223  23.937  21.297  1.00  0.00     0.345 HD
ENDBRANCH   9  24
ENDBRANCH   8   9
ENDBRANCH   5   8
ENDBRANCH   3   4
ENDBRANCH   2   3
ENDBRANCH   1   2
BRANCH   1  28
ATOM     28  C   UNL A   1      35.151  22.112  26.430  1.00  0.00     0.002 C 
BRANCH  28  29
ATOM     29  C   UNL A   1      35.690  23.496  26.057  1.00  0.00     0.021 C 
BRANCH  29  30
ATOM     30  C   UNL A   1      36.926  23.477  25.163  1.00  0.00     0.116 C 
BRANCH  30  31
ATOM     31  N   UNL A   1      37.910  22.508  25.623  1.00  0.00    -0.352 N 
ATOM     32  C   UNL A   1      39.103  22.724  26.258  1.00  0.00     0.251 C 
ATOM     33  H   UNL A   1      37.686  21.565  25.452  1.00  0.00     0.163 HD
ATOM     34  O   UNL A   1      39.932  21.817  26.352  1.00  0.00    -0.269 OA
BRANCH  32  35
ATOM     35  C   UNL A   1      39.399  24.051  26.827  1.00  0.00     0.039 A 
ATOM     36  C   UNL A   1      38.977  24.349  28.124  1.00  0.00     0.014 A 
ATOM     37  C   UNL A   1      40.092  25.003  26.072  1.00  0.00     0.014 A 
ATOM     38  C   UNL A   1      39.298  25.585  28.686  1.00  0.00     0.010 A 
ATOM     39  C   UNL A   1      40.475  26.204  26.660  1.00  0.00     0.010 A 
ATOM     40  C   UNL A   1      40.077  26.509  27.970  1.00  0.00    -0.014 A 
BRANCH  40  41
ATOM     41  C   UNL A   1      40.485  27.802  28.573  1.00  0.00     0.031 A 
ATOM     42  C   UNL A   1      41.881  27.984  29.097  1.00  0.00     0.074 A 
ATOM     43  C   UNL A   1      39.578  28.791  28.704  1.00  0.00     0.049 A 
ATOM     44  N   UNL A   1      42.404  29.015  29.712  1.00  0.00    -0.248 NA
ATOM     45  C   UNL A   1      42.806  26.850  28.933  1.00  0.00     0.031 C 
ATOM     46  C   UNL A   1      38.182  28.725  28.266  1.00  0.00     0.029 A 
ATOM     47  N   UNL A   1      39.696  30.043  29.252  1.00  0.00    -0.354 N 
ATOM     48  C   UNL A   1      43.709  28.648  30.020  1.00  0.00     0.074 A 
ATOM     49  C   UNL A   1      43.882  27.284  29.573  1.00  0.00     0.031 C 
ATOM     50  C   UNL A   1      37.582  29.896  28.537  1.00  0.00     0.029 A 
ATOM     51  C   UNL A   1      38.533  30.774  29.209  1.00  0.00     0.049 A 
ATOM     52  H   UNL A   1      40.534  30.384  29.641  1.00  0.00     0.167 HD
ATOM     53  C   UNL A   1      44.681  29.387  30.604  1.00  0.00     0.031 A 
ATOM     54  C   UNL A   1      38.262  32.011  29.668  1.00  0.00     0.031 A 
ATOM     55  C   UNL A   1      44.509  30.746  31.045  1.00  0.00     0.049 A 
ATOM     56  C   UNL A   1      39.350  32.799  30.341  1.00  0.00     0.074 A 
ATOM     57  C   UNL A   1      45.447  31.597  31.601  1.00  0.00     0.029 A 
ATOM     58  N   UNL A   1      43.316  31.449  30.984  1.00  0.00    -0.354 N 
ATOM     59  N   UNL A   1      40.598  32.463  30.563  1.00  0.00    -0.248 NA
ATOM     60  C   UNL A   1      38.994  34.142  30.818  1.00  0.00     0.031 C 
ATOM     61  C   UNL A   1      44.807  32.795  31.934  1.00  0.00     0.029 A 
ATOM     62  C   UNL A   1      43.486  32.714  31.521  1.00  0.00     0.049 A 
ATOM     63  H   UNL A   1      42.472  31.102  30.615  1.00  0.00     0.167 HD
ATOM     64  C   UNL A   1      41.184  33.563  31.176  1.00  0.00     0.074 A 
ATOM     65  C   UNL A   1      40.158  34.582  31.276  1.00  0.00     0.031 C 
ATOM     66  C   UNL A   1      42.456  33.717  31.615  1.00  0.00     0.031 A 
BRANCH  53  67
ATOM     67  C   UNL A   1      46.020  28.732  30.812  1.00  0.00    -0.014 A 
ATOM     68  C   UNL A   1      47.027  28.804  29.837  1.00  0.00     0.009 A 
ATOM     69  C   UNL A   1      46.290  28.064  32.017  1.00  0.00     0.009 A 
ATOM     70  C   UNL A   1      48.263  28.188  30.047  1.00  0.00     0.001 A 
ATOM     71  C   UNL A   1      47.537  27.477  32.238  1.00  0.00     0.001 A 
ATOM     72  C   UNL A   1      48.518  27.529  31.249  1.00  0.00     0.000 A 
ENDBRANCH  53  67
BRANCH  54  73
ATOM     73  C   UNL A   1      36.901  32.585  29.500  1.00  0.00    -0.014 A 
ATOM     74  C   UNL A   1      36.560  33.283  28.330  1.00  0.00     0.009 A 
ATOM     75  C   UNL A   1      35.936  32.447  30.510  1.00  0.00     0.009 A 
ATOM     76  C   UNL A   1      35.293  33.854  28.189  1.00  0.00     0.001 A 
ATOM     77  C   UNL A   1      34.660  32.993  30.353  1.00  0.00     0.001 A 
ATOM     78  C   UNL A   1      34.343  33.704  29.199  1.00  0.00     0.000 A 
ENDBRANCH  54  73
BRANCH  66  79
ATOM     79  C   UNL A   1      42.826  35.048  32.208  1.00  0.00    -0.014 A 
ATOM     80  C   UNL A   1      42.604  35.333  33.565  1.00  0.00     0.009 A 
ATOM     81  C   UNL A   1      43.450  36.015  31.404  1.00  0.00     0.009 A 
ATOM     82  C   UNL A   1      42.969  36.572  34.094  1.00  0.00     0.001 A 
ATOM     83  C   UNL A   1      43.843  37.240  31.943  1.00  0.00     0.001 A 
ATOM     84  C   UNL A   1      43.594  37.521  33.285  1.00  0.00     0.000 A 
ENDBRANCH  66  79
ENDBRANCH  40  41
ENDBRANCH  32  35
ENDBRANCH  30  31
ENDBRANCH  29  30
ENDBRANCH  28  29
ENDBRANCH   1  28
TORSDOF 17
ENDMDL
MODEL 2
REMARK VINA RESULT:     -10.1      2.238      7.868
REMARK SMILES C[C@H]1C[N@H+]2CCCC[C@@H]2CN1C(=O)[C@H]([NH3+])CC(=O)NCCCCCCNC(=O)c1ccc(-c2c3nc(c(-c4ccccc4)c4ccc([nH]4)c(-c4ccccc4)c4nc(c(-c5ccccc5)c5ccc2[nH]5)C=C4)C=C3)cc1
REMARK SMILES IDX 22 1 21 2 20 3 19 4 17 5 18 6 16 8 14 9 12 10 13 11 11 12
REMARK SMILES IDX 1 13 2 14 3 15 4 16 10 17 5 18 9 19 6 21 8 22 7 23 15 24
REMARK SMILES IDX 23 28 24 29 25 30 26 31 27 32 28 34 29 35 30 36 76 37 31 38
REMARK SMILES IDX 75 39 32 40 33 41 34 42 69 43 35 44 74 45 68 46 70 47 36 48
REMARK SMILES IDX 73 49 67 50 66 51 37 53 59 54 44 55 58 56 45 57 48 58 57 59
REMARK SMILES IDX 71 60 46 61 47 62 56 64 72 65 49 66 38 67 39 68 43 69 40 70
REMARK SMILES IDX 42 71 41 72 60 73 61 74 65 75 62 76 64 77 63 78 50 79 51 80
REMARK SMILES IDX 55 81 52 82 54 83 53 84
REMARK H PARENT 19 7 4 20 15 25 15 26 15 27 26 33 70 52 48 63
REMARK Flexibility Score: inf
ROOT
ATOM      1  C   UNL A   1      32.948  28.876  23.663  1.00  0.00     0.002 C 
ENDROOT
BRANCH   1   2
ATOM      2  C   UNL A   1      33.306  28.041  22.436  1.00  0.00     0.021 C 
BRANCH   2   3
ATOM      3  C   UNL A   1      32.442  26.786  22.245  1.00  0.00     0.116 C 
BRANCH   3   4
ATOM      4  N   UNL A   1      33.276  25.622  21.997  1.00  0.00    -0.356 N 
ATOM      5  C   UNL A   1      33.089  24.332  22.406  1.00  0.00     0.226 C 
ATOM      6  O   UNL A   1      34.017  23.534  22.263  1.00  0.00    -0.275 OA
ATOM      7  H   UNL A   1      34.086  25.786  21.462  1.00  0.00     0.163 HD
BRANCH   5   8
ATOM      8  C   UNL A   1      31.762  23.892  22.999  1.00  0.00     0.175 C 
BRANCH   8   9
ATOM      9  C   UNL A   1      31.528  24.398  24.426  1.00  0.00     0.280 C 
BRANCH   9  10
ATOM     10  C   UNL A   1      31.849  23.296  25.486  1.00  0.00     0.281 C 
ATOM     11  O   UNL A   1      30.999  22.979  26.320  1.00  0.00    -0.268 OA
BRANCH  10  12
ATOM     12  N   UNL A   1      33.130  22.708  25.455  1.00  0.00    -0.323 N 
ATOM     13  C   UNL A   1      32.294  20.535  24.445  1.00  0.00     0.037 C 
ATOM     14  C   UNL A   1      33.278  21.231  25.403  1.00  0.00     0.137 C 
ATOM     15  C   UNL A   1      34.718  20.778  24.992  1.00  0.00     0.287 C 
ATOM     16  N   UNL A   1      35.837  21.496  25.637  1.00  0.00    -0.329 N 
ATOM     17  C   UNL A   1      34.298  23.420  25.976  1.00  0.00     0.185 C 
ATOM     18  C   UNL A   1      37.118  21.093  25.027  1.00  0.00     0.262 C 
ATOM     19  C   UNL A   1      35.655  22.944  25.468  1.00  0.00     0.203 C 
ATOM     20  H   UNL A   1      35.850  21.261  26.629  1.00  0.00     0.348 HD
ATOM     21  C   UNL A   1      38.308  21.815  25.668  1.00  0.00     0.062 C 
ATOM     22  C   UNL A   1      36.755  23.692  26.240  1.00  0.00     0.067 C 
ATOM     23  C   UNL A   1      38.127  23.329  25.695  1.00  0.00     0.012 C 
ENDBRANCH  10  12
ENDBRANCH   9  10
BRANCH   9  24
ATOM     24  N   UNL A   1      30.120  24.807  24.577  1.00  0.00    -0.347 N 
ATOM     25  H   UNL A   1      29.661  24.786  23.667  1.00  0.00     0.345 HD
ATOM     26  H   UNL A   1      30.079  25.752  24.958  1.00  0.00     0.345 HD
ATOM     27  H   UNL A   1      29.646  24.164  25.213  1.00  0.00     0.345 HD
ENDBRANCH   9  24
ENDBRANCH   8   9
ENDBRANCH   5   8
ENDBRANCH   3   4
ENDBRANCH   2   3
ENDBRANCH   1   2
BRANCH   1  28
ATOM     28  C   UNL A   1      32.977  28.105  24.982  1.00  0.00     0.002 C 
BRANCH  28  29
ATOM     29  C   UNL A   1      34.084  28.525  25.954  1.00  0.00     0.021 C 
BRANCH  29  30
ATOM     30  C   UNL A   1      33.622  28.730  27.393  1.00  0.00     0.116 C 
BRANCH  30  31
ATOM     31  N   UNL A   1      33.636  30.136  27.770  1.00  0.00    -0.352 N 
ATOM     32  C   UNL A   1      34.604  30.846  28.428  1.00  0.00     0.251 C 
ATOM     33  H   UNL A   1      32.835  30.649  27.515  1.00  0.00     0.163 HD
ATOM     34  O   UNL A   1      34.355  31.959  28.890  1.00  0.00    -0.269 OA
BRANCH  32  35
ATOM     35  C   UNL A   1      35.951  30.268  28.588  1.00  0.00     0.039 A 
ATOM     36  C   UNL A   1      36.850  30.325  27.522  1.00  0.00     0.014 A 
ATOM     37  C   UNL A   1      36.321  29.666  29.795  1.00  0.00     0.014 A 
ATOM     38  C   UNL A   1      38.144  29.826  27.685  1.00  0.00     0.010 A 
ATOM     39  C   UNL A   1      37.631  29.238  29.979  1.00  0.00     0.010 A 
ATOM     40  C   UNL A   1      38.553  29.308  28.924  1.00  0.00    -0.014 A 
BRANCH  40  41
ATOM     41  C   UNL A   1      39.942  28.832  29.138  1.00  0.00     0.031 A 
ATOM     42  C   UNL A   1      40.975  29.753  29.723  1.00  0.00     0.074 A 
ATOM     43  C   UNL A   1      40.288  27.589  28.747  1.00  0.00     0.049 A 
ATOM     44  N   UNL A   1      42.251  29.540  29.927  1.00  0.00    -0.248 NA
ATOM     45  C   UNL A   1      40.522  31.101  30.107  1.00  0.00     0.031 C 
ATOM     46  C   UNL A   1      39.385  26.610  28.135  1.00  0.00     0.029 A 
ATOM     47  N   UNL A   1      41.495  26.940  28.800  1.00  0.00    -0.354 N 
ATOM     48  C   UNL A   1      42.753  30.727  30.446  1.00  0.00     0.074 A 
ATOM     49  C   UNL A   1      41.659  31.672  30.477  1.00  0.00     0.031 C 
ATOM     50  C   UNL A   1      40.065  25.477  27.896  1.00  0.00     0.029 A 
ATOM     51  C   UNL A   1      41.456  25.664  28.292  1.00  0.00     0.049 A 
ATOM     52  H   UNL A   1      42.312  27.350  29.166  1.00  0.00     0.167 HD
ATOM     53  C   UNL A   1      44.007  31.001  30.876  1.00  0.00     0.031 A 
ATOM     54  C   UNL A   1      42.435  24.749  28.152  1.00  0.00     0.031 A 
ATOM     55  C   UNL A   1      45.094  30.058  30.849  1.00  0.00     0.049 A 
ATOM     56  C   UNL A   1      43.827  25.088  28.609  1.00  0.00     0.074 A 
ATOM     57  C   UNL A   1      46.388  30.221  31.310  1.00  0.00     0.029 A 
ATOM     58  N   UNL A   1      45.014  28.777  30.325  1.00  0.00    -0.354 N 
ATOM     59  N   UNL A   1      44.270  26.191  29.161  1.00  0.00    -0.248 NA
ATOM     60  C   UNL A   1      44.850  24.049  28.433  1.00  0.00     0.031 C 
ATOM     61  C   UNL A   1      47.108  29.060  31.010  1.00  0.00     0.029 A 
ATOM     62  C   UNL A   1      46.243  28.149  30.424  1.00  0.00     0.049 A 
ATOM     63  H   UNL A   1      44.203  28.373  29.940  1.00  0.00     0.167 HD
ATOM     64  C   UNL A   1      45.614  25.969  29.427  1.00  0.00     0.074 A 
ATOM     65  C   UNL A   1      45.910  24.620  28.990  1.00  0.00     0.031 C 
ATOM     66  C   UNL A   1      46.523  26.806  29.984  1.00  0.00     0.031 A 
BRANCH  53  67
ATOM     67  C   UNL A   1      44.274  32.384  31.404  1.00  0.00    -0.014 A 
ATOM     68  C   UNL A   1      44.116  32.689  32.765  1.00  0.00     0.009 A 
ATOM     69  C   UNL A   1      44.725  33.388  30.533  1.00  0.00     0.009 A 
ATOM     70  C   UNL A   1      44.365  33.980  33.236  1.00  0.00     0.001 A 
ATOM     71  C   UNL A   1      45.006  34.670  31.012  1.00  0.00     0.001 A 
ATOM     72  C   UNL A   1      44.815  34.967  32.360  1.00  0.00     0.000 A 
ENDBRANCH  53  67
BRANCH  54  73
ATOM     73  C   UNL A   1      42.133  23.420  27.558  1.00  0.00    -0.014 A 
ATOM     74  C   UNL A   1      41.574  22.398  28.342  1.00  0.00     0.009 A 
ATOM     75  C   UNL A   1      42.409  23.161  26.207  1.00  0.00     0.009 A 
ATOM     76  C   UNL A   1      41.325  21.138  27.793  1.00  0.00     0.001 A 
ATOM     77  C   UNL A   1      42.130  21.910  25.652  1.00  0.00     0.001 A 
ATOM     78  C   UNL A   1      41.600  20.897  26.447  1.00  0.00     0.000 A 
ENDBRANCH  54  73
BRANCH  66  79
ATOM     79  C   UNL A   1      47.914  26.275  30.191  1.00  0.00    -0.014 A 
ATOM     80  C   UNL A   1      48.871  26.306  29.164  1.00  0.00     0.009 A 
ATOM     81  C   UNL A   1      48.286  25.780  31.451  1.00  0.00     0.009 A 
ATOM     82  C   UNL A   1      50.161  25.820  29.387  1.00  0.00     0.001 A 
ATOM     83  C   UNL A   1      49.585  25.325  31.680  1.00  0.00     0.001 A 
ATOM     84  C   UNL A   1      50.518  25.336  30.645  1.00  0.00     0.000 A 
ENDBRANCH  66  79
ENDBRANCH  40  41
ENDBRANCH  32  35
ENDBRANCH  30  31
ENDBRANCH  29  30
ENDBRANCH  28  29
ENDBRANCH   1  28
TORSDOF 17
ENDMDL
MODEL 3
REMARK VINA RESULT:      -9.9      2.132      3.406
REMARK SMILES C[C@H]1C[N@H+]2CCCC[C@@H]2CN1C(=O)[C@H]([NH3+])CC(=O)NCCCCCCNC(=O)c1ccc(-c2c3nc(c(-c4ccccc4)c4ccc([nH]4)c(-c4ccccc4)c4nc(c(-c5ccccc5)c5ccc2[nH]5)C=C4)C=C3)cc1
REMARK SMILES IDX 22 1 21 2 20 3 19 4 17 5 18 6 16 8 14 9 12 10 13 11 11 12
REMARK SMILES IDX 1 13 2 14 3 15 4 16 10 17 5 18 9 19 6 21 8 22 7 23 15 24
REMARK SMILES IDX 23 28 24 29 25 30 26 31 27 32 28 34 29 35 30 36 76 37 31 38
REMARK SMILES IDX 75 39 32 40 33 41 34 42 69 43 35 44 74 45 68 46 70 47 36 48
REMARK SMILES IDX 73 49 67 50 66 51 37 53 59 54 44 55 58 56 45 57 48 58 57 59
REMARK SMILES IDX 71 60 46 61 47 62 56 64 72 65 49 66 38 67 39 68 43 69 40 70
REMARK SMILES IDX 42 71 41 72 60 73 61 74 65 75 62 76 64 77 63 78 50 79 51 80
REMARK SMILES IDX 55 81 52 82 54 83 53 84
REMARK H PARENT 19 7 4 20 15 25 15 26 15 27 26 33 70 52 48 63
REMARK Flexibility Score: inf
ROOT
ATOM      1  C   UNL A   1      36.328  22.000  25.661  1.00  0.00     0.002 C 
ENDROOT
BRANCH   1   2
ATOM      2  C   UNL A   1      35.157  22.570  26.457  1.00  0.00     0.021 C 
BRANCH   2   3
ATOM      3  C   UNL A   1      34.142  21.522  26.936  1.00  0.00     0.116 C 
BRANCH   3   4
ATOM      4  N   UNL A   1      32.941  22.165  27.442  1.00  0.00    -0.356 N 
ATOM      5  C   UNL A   1      31.815  22.533  26.761  1.00  0.00     0.226 C 
ATOM      6  O   UNL A   1      30.993  23.249  27.336  1.00  0.00    -0.275 OA
ATOM      7  H   UNL A   1      32.940  22.364  28.406  1.00  0.00     0.163 HD
BRANCH   5   8
ATOM      8  C   UNL A   1      31.574  22.049  25.343  1.00  0.00     0.175 C 
BRANCH   8   9
ATOM      9  C   UNL A   1      32.249  22.916  24.274  1.00  0.00     0.280 C 
BRANCH   9  10
ATOM     10  C   UNL A   1      31.380  24.163  23.914  1.00  0.00     0.281 C 
ATOM     11  O   UNL A   1      30.277  24.013  23.388  1.00  0.00    -0.268 OA
BRANCH  10  12
ATOM     12  N   UNL A   1      31.913  25.438  24.196  1.00  0.00    -0.323 N 
ATOM     13  C   UNL A   1      33.023  25.664  21.926  1.00  0.00     0.037 C 
ATOM     14  C   UNL A   1      33.082  25.949  23.437  1.00  0.00     0.137 C 
ATOM     15  C   UNL A   1      33.291  27.490  23.606  1.00  0.00     0.287 C 
ATOM     16  N   UNL A   1      33.158  28.021  24.979  1.00  0.00    -0.329 N 
ATOM     17  C   UNL A   1      31.713  26.066  25.504  1.00  0.00     0.185 C 
ATOM     18  C   UNL A   1      33.199  29.495  24.961  1.00  0.00     0.262 C 
ATOM     19  C   UNL A   1      31.879  27.581  25.554  1.00  0.00     0.203 C 
ATOM     20  H   UNL A   1      33.930  27.670  25.544  1.00  0.00     0.348 HD
ATOM     21  C   UNL A   1      33.064  30.088  26.367  1.00  0.00     0.062 C 
ATOM     22  C   UNL A   1      31.794  28.033  27.021  1.00  0.00     0.067 C 
ATOM     23  C   UNL A   1      31.847  29.549  27.113  1.00  0.00     0.012 C 
ENDBRANCH  10  12
ENDBRANCH   9  10
BRANCH   9  24
ATOM     24  N   UNL A   1      32.460  22.116  23.054  1.00  0.00    -0.347 N 
ATOM     25  H   UNL A   1      32.617  22.739  22.263  1.00  0.00     0.345 HD
ATOM     26  H   UNL A   1      31.636  21.542  22.878  1.00  0.00     0.345 HD
ATOM     27  H   UNL A   1      33.274  21.513  23.180  1.00  0.00     0.345 HD
ENDBRANCH   9  24
ENDBRANCH   8   9
ENDBRANCH   5   8
ENDBRANCH   3   4
ENDBRANCH   2   3
ENDBRANCH   1   2
BRANCH   1  28
ATOM     28  C   UNL A   1      36.104  20.583  25.134  1.00  0.00     0.002 C 
BRANCH  28  29
ATOM     29  C   UNL A   1      37.377  19.748  24.957  1.00  0.00     0.021 C 
BRANCH  29  30
ATOM     30  C   UNL A   1      38.633  20.370  25.560  1.00  0.00     0.116 C 
BRANCH  30  31
ATOM     31  N   UNL A   1      39.702  19.393  25.705  1.00  0.00    -0.352 N 
ATOM     32  C   UNL A   1      41.018  19.592  26.023  1.00  0.00     0.251 C 
ATOM     33  H   UNL A   1      39.441  18.456  25.550  1.00  0.00     0.163 HD
ATOM     34  O   UNL A   1      41.843  18.693  25.858  1.00  0.00    -0.269 OA
BRANCH  32  35
ATOM     35  C   UNL A   1      41.450  20.895  26.562  1.00  0.00     0.039 A 
ATOM     36  C   UNL A   1      42.145  21.780  25.736  1.00  0.00     0.014 A 
ATOM     37  C   UNL A   1      41.169  21.237  27.889  1.00  0.00     0.014 A 
ATOM     38  C   UNL A   1      42.512  23.034  26.225  1.00  0.00     0.010 A 
ATOM     39  C   UNL A   1      41.468  22.514  28.350  1.00  0.00     0.010 A 
ATOM     40  C   UNL A   1      42.149  23.423  27.525  1.00  0.00    -0.014 A 
BRANCH  40  41
ATOM     41  C   UNL A   1      42.471  24.776  28.043  1.00  0.00     0.031 A 
ATOM     42  C   UNL A   1      43.872  25.107  28.472  1.00  0.00     0.074 A 
ATOM     43  C   UNL A   1      41.487  25.686  28.185  1.00  0.00     0.049 A 
ATOM     44  N   UNL A   1      44.334  26.209  29.007  1.00  0.00    -0.248 NA
ATOM     45  C   UNL A   1      44.886  24.052  28.302  1.00  0.00     0.031 C 
ATOM     46  C   UNL A   1      40.079  25.476  27.836  1.00  0.00     0.029 A 
ATOM     47  N   UNL A   1      41.522  26.969  28.668  1.00  0.00    -0.354 N 
ATOM     48  C   UNL A   1      45.681  25.975  29.250  1.00  0.00     0.074 A 
ATOM     49  C   UNL A   1      45.952  24.610  28.855  1.00  0.00     0.031 C 
ATOM     50  C   UNL A   1      39.392  26.601  28.091  1.00  0.00     0.029 A 
ATOM     51  C   UNL A   1      40.296  27.592  28.663  1.00  0.00     0.049 A 
ATOM     52  H   UNL A   1      42.345  27.403  28.989  1.00  0.00     0.167 HD
ATOM     53  C   UNL A   1      46.614  26.825  29.741  1.00  0.00     0.031 A 
ATOM     54  C   UNL A   1      39.940  28.821  29.082  1.00  0.00     0.031 A 
ATOM     55  C   UNL A   1      46.344  28.184  30.130  1.00  0.00     0.049 A 
ATOM     56  C   UNL A   1      40.988  29.735  29.652  1.00  0.00     0.074 A 
ATOM     57  C   UNL A   1      47.231  29.141  30.589  1.00  0.00     0.029 A 
ATOM     58  N   UNL A   1      45.091  28.775  30.111  1.00  0.00    -0.354 N 
ATOM     59  N   UNL A   1      42.272  29.523  29.811  1.00  0.00    -0.248 NA
ATOM     60  C   UNL A   1      40.539  31.064  30.088  1.00  0.00     0.031 C 
ATOM     61  C   UNL A   1      46.505  30.293  30.906  1.00  0.00     0.029 A 
ATOM     62  C   UNL A   1      45.175  30.075  30.579  1.00  0.00     0.049 A 
ATOM     63  H   UNL A   1      44.262  28.336  29.810  1.00  0.00     0.167 HD
ATOM     64  C   UNL A   1      42.789  30.699  30.337  1.00  0.00     0.074 A 
ATOM     65  C   UNL A   1      41.683  31.627  30.454  1.00  0.00     0.031 C 
ATOM     66  C   UNL A   1      44.066  30.987  30.690  1.00  0.00     0.031 A 
BRANCH  53  67
ATOM     67  C   UNL A   1      48.016  26.302  29.895  1.00  0.00    -0.014 A 
ATOM     68  C   UNL A   1      48.938  26.360  28.838  1.00  0.00     0.009 A 
ATOM     69  C   UNL A   1      48.434  25.777  31.129  1.00  0.00     0.009 A 
ATOM     70  C   UNL A   1      50.235  25.867  29.000  1.00  0.00     0.001 A 
ATOM     71  C   UNL A   1      49.740  25.315  31.298  1.00  0.00     0.001 A 
ATOM     72  C   UNL A   1      50.636  25.350  30.231  1.00  0.00     0.000 A 
ENDBRANCH  53  67
BRANCH  54  73
ATOM     73  C   UNL A   1      38.524  29.264  28.972  1.00  0.00    -0.014 A 
ATOM     74  C   UNL A   1      38.032  29.786  27.765  1.00  0.00     0.009 A 
ATOM     75  C   UNL A   1      37.659  29.177  30.074  1.00  0.00     0.009 A 
ATOM     76  C   UNL A   1      36.713  30.236  27.673  1.00  0.00     0.001 A 
ATOM     77  C   UNL A   1      36.333  29.599  29.970  1.00  0.00     0.001 A 
ATOM     78  C   UNL A   1      35.864  30.138  28.775  1.00  0.00     0.000 A 
ENDBRANCH  54  73
BRANCH  66  79
ATOM     79  C   UNL A   1      44.345  32.373  31.199  1.00  0.00    -0.014 A 
ATOM     80  C   UNL A   1      44.630  33.433  30.322  1.00  0.00     0.009 A 
ATOM     81  C   UNL A   1      44.276  32.633  32.577  1.00  0.00     0.009 A 
ATOM     82  C   UNL A   1      44.871  34.714  30.819  1.00  0.00     0.001 A 
ATOM     83  C   UNL A   1      44.486  33.921  33.069  1.00  0.00     0.001 A 
ATOM     84  C   UNL A   1      44.793  34.959  32.190  1.00  0.00     0.000 A 
ENDBRANCH  66  79
ENDBRANCH  40  41
ENDBRANCH  32  35
ENDBRANCH  30  31
ENDBRANCH  29  30
ENDBRANCH  28  29
ENDBRANCH   1  28
TORSDOF 17
ENDMDL
