MODEL 1
REMARK VINA RESULT:     -10.6      0.000      0.000
REMARK SMILES CS(=O)(=O)CC[C@H](NC(=O)Cc1ccn[nH]1)C(=O)NCCCCCCNC(=O)c1ccc(-c2c3nc(c(-c4ccccc4)c4ccc([nH]4)c(-c4ccccc4)c4nc(c(-c5ccccc5)c5ccc2[nH]5)C=C4)C=C3)cc1
REMARK SMILES IDX 22 1 21 2 20 3 19 4 17 5 18 6 7 8 6 9 5 10 2 11 1 12 3 13
REMARK SMILES IDX 4 14 8 15 9 16 10 18 11 19 12 20 13 21 16 22 14 23 15 24
REMARK SMILES IDX 23 26 24 27 25 28 26 29 27 30 28 32 29 33 30 34 76 35 31 36
REMARK SMILES IDX 75 37 32 38 33 39 34 40 69 41 35 42 74 43 68 44 70 45 36 46
REMARK SMILES IDX 73 47 67 48 66 49 37 51 59 52 44 53 58 54 45 55 48 56 57 57
REMARK SMILES IDX 71 58 46 59 47 60 56 62 72 63 49 64 38 65 39 66 43 67 40 68
REMARK SMILES IDX 42 69 41 70 60 71 61 72 65 73 62 74 64 75 63 76 50 77 51 78
REMARK SMILES IDX 55 79 52 80 54 81 53 82
REMARK H PARENT 19 7 8 17 16 25 26 31 70 50 48 61
REMARK Flexibility Score: inf
ROOT
ATOM      1  C   UNL A   1      32.158  29.915  27.058  1.00  0.00     0.002 C 
ENDROOT
BRANCH   1   2
ATOM      2  C   UNL A   1      31.702  28.455  27.040  1.00  0.00     0.021 C 
BRANCH   2   3
ATOM      3  C   UNL A   1      32.025  27.728  25.740  1.00  0.00     0.116 C 
BRANCH   3   4
ATOM      4  N   UNL A   1      30.847  27.148  25.124  1.00  0.00    -0.354 N 
ATOM      5  C   UNL A   1      30.459  27.161  23.817  1.00  0.00     0.242 C 
ATOM      6  O   UNL A   1      29.480  26.488  23.489  1.00  0.00    -0.273 OA
ATOM      7  H   UNL A   1      30.240  26.677  25.737  1.00  0.00     0.163 HD
BRANCH   5   8
ATOM      8  C   UNL A   1      31.291  27.913  22.758  1.00  0.00     0.172 C 
BRANCH   8   9
ATOM      9  C   UNL A   1      30.477  29.110  22.231  1.00  0.00     0.051 C 
BRANCH   9  10
ATOM     10  C   UNL A   1      29.522  29.765  23.225  1.00  0.00     0.139 C 
BRANCH  10  11
ATOM     11  S   UNL A   1      28.169  30.678  22.483  1.00  0.00     0.147 S 
ATOM     12  C   UNL A   1      28.758  32.354  22.337  1.00  0.00     0.158 C 
ATOM     13  O   UNL A   1      27.077  30.683  23.442  1.00  0.00    -0.229 OA
ATOM     14  O   UNL A   1      27.963  30.174  21.139  1.00  0.00    -0.229 OA
ENDBRANCH  10  11
ENDBRANCH   9  10
ENDBRANCH   8   9
BRANCH   8  15
ATOM     15  N   UNL A   1      31.768  26.991  21.733  1.00  0.00    -0.344 N 
ATOM     16  C   UNL A   1      32.887  26.206  21.752  1.00  0.00     0.226 C 
ATOM     17  H   UNL A   1      31.213  26.927  20.922  1.00  0.00     0.164 HD
ATOM     18  O   UNL A   1      33.189  25.607  20.716  1.00  0.00    -0.275 OA
BRANCH  16  19
ATOM     19  C   UNL A   1      33.705  26.021  23.023  1.00  0.00     0.155 C 
BRANCH  19  20
ATOM     20  C   UNL A   1      33.853  24.594  23.402  1.00  0.00     0.044 A 
ATOM     21  C   UNL A   1      34.928  23.895  23.912  1.00  0.00     0.045 A 
ATOM     22  N   UNL A   1      32.828  23.691  23.323  1.00  0.00    -0.282 N 
ATOM     23  C   UNL A   1      34.473  22.571  24.023  1.00  0.00     0.135 A 
ATOM     24  N   UNL A   1      33.201  22.440  23.641  1.00  0.00    -0.184 NA
ATOM     25  H   UNL A   1      31.911  23.933  23.059  1.00  0.00     0.190 HD
ENDBRANCH  19  20
ENDBRANCH  16  19
ENDBRANCH   8  15
ENDBRANCH   5   8
ENDBRANCH   3   4
ENDBRANCH   2   3
ENDBRANCH   1   2
BRANCH   1  26
ATOM     26  C   UNL A   1      31.385  30.837  26.110  1.00  0.00     0.002 C 
BRANCH  26  27
ATOM     27  C   UNL A   1      31.289  32.297  26.564  1.00  0.00     0.021 C 
BRANCH  27  28
ATOM     28  C   UNL A   1      32.552  32.836  27.225  1.00  0.00     0.116 C 
BRANCH  28  29
ATOM     29  N   UNL A   1      32.368  34.196  27.698  1.00  0.00    -0.352 N 
ATOM     30  C   UNL A   1      33.037  34.877  28.680  1.00  0.00     0.251 C 
ATOM     31  H   UNL A   1      31.658  34.705  27.246  1.00  0.00     0.163 HD
ATOM     32  O   UNL A   1      32.584  35.936  29.105  1.00  0.00    -0.269 OA
BRANCH  30  33
ATOM     33  C   UNL A   1      34.294  34.335  29.238  1.00  0.00     0.039 A 
ATOM     34  C   UNL A   1      34.231  33.591  30.417  1.00  0.00     0.014 A 
ATOM     35  C   UNL A   1      35.527  34.583  28.627  1.00  0.00     0.014 A 
ATOM     36  C   UNL A   1      35.401  33.058  30.958  1.00  0.00     0.010 A 
ATOM     37  C   UNL A   1      36.681  33.982  29.122  1.00  0.00     0.010 A 
ATOM     38  C   UNL A   1      36.632  33.223  30.300  1.00  0.00    -0.014 A 
BRANCH  38  39
ATOM     39  C   UNL A   1      37.857  32.581  30.835  1.00  0.00     0.031 A 
ATOM     40  C   UNL A   1      38.511  33.090  32.089  1.00  0.00     0.074 A 
ATOM     41  C   UNL A   1      38.394  31.540  30.170  1.00  0.00     0.049 A 
ATOM     42  N   UNL A   1      39.550  32.611  32.728  1.00  0.00    -0.248 NA
ATOM     43  C   UNL A   1      37.944  34.305  32.695  1.00  0.00     0.031 C 
ATOM     44  C   UNL A   1      37.887  30.989  28.910  1.00  0.00     0.029 A 
ATOM     45  N   UNL A   1      39.475  30.749  30.466  1.00  0.00    -0.354 N 
ATOM     46  C   UNL A   1      39.762  33.466  33.802  1.00  0.00     0.074 A 
ATOM     47  C   UNL A   1      38.782  34.525  33.698  1.00  0.00     0.031 C 
ATOM     48  C   UNL A   1      38.627  29.923  28.567  1.00  0.00     0.029 A 
ATOM     49  C   UNL A   1      39.680  29.739  29.558  1.00  0.00     0.049 A 
ATOM     50  H   UNL A   1      40.048  30.893  31.253  1.00  0.00     0.167 HD
ATOM     51  C   UNL A   1      40.676  33.369  34.797  1.00  0.00     0.031 A 
ATOM     52  C   UNL A   1      40.610  28.767  29.528  1.00  0.00     0.031 A 
ATOM     53  C   UNL A   1      41.654  32.318  34.895  1.00  0.00     0.049 A 
ATOM     54  C   UNL A   1      41.616  28.683  30.642  1.00  0.00     0.074 A 
ATOM     55  C   UNL A   1      42.584  32.095  35.897  1.00  0.00     0.029 A 
ATOM     56  N   UNL A   1      41.839  31.319  33.951  1.00  0.00    -0.354 N 
ATOM     57  N   UNL A   1      41.742  29.444  31.702  1.00  0.00    -0.248 NA
ATOM     58  C   UNL A   1      42.596  27.592  30.561  1.00  0.00     0.031 C 
ATOM     59  C   UNL A   1      43.374  31.001  35.526  1.00  0.00     0.029 A 
ATOM     60  C   UNL A   1      42.890  30.498  34.329  1.00  0.00     0.049 A 
ATOM     61  H   UNL A   1      41.301  31.208  33.134  1.00  0.00     0.167 HD
ATOM     62  C   UNL A   1      42.804  28.916  32.424  1.00  0.00     0.074 A 
ATOM     63  C   UNL A   1      43.263  27.750  31.695  1.00  0.00     0.031 C 
ATOM     64  C   UNL A   1      43.352  29.355  33.583  1.00  0.00     0.031 A 
BRANCH  51  65
ATOM     65  C   UNL A   1      40.670  34.443  35.852  1.00  0.00    -0.014 A 
ATOM     66  C   UNL A   1      39.940  34.293  37.044  1.00  0.00     0.009 A 
ATOM     67  C   UNL A   1      41.435  35.605  35.671  1.00  0.00     0.009 A 
ATOM     68  C   UNL A   1      39.945  35.302  38.010  1.00  0.00     0.001 A 
ATOM     69  C   UNL A   1      41.465  36.598  36.653  1.00  0.00     0.001 A 
ATOM     70  C   UNL A   1      40.711  36.451  37.816  1.00  0.00     0.000 A 
ENDBRANCH  51  65
BRANCH  52  71
ATOM     71  C   UNL A   1      40.622  27.784  28.413  1.00  0.00    -0.014 A 
ATOM     72  C   UNL A   1      39.972  26.547  28.540  1.00  0.00     0.009 A 
ATOM     73  C   UNL A   1      41.285  28.082  27.212  1.00  0.00     0.009 A 
ATOM     74  C   UNL A   1      40.010  25.617  27.498  1.00  0.00     0.001 A 
ATOM     75  C   UNL A   1      41.292  27.164  26.159  1.00  0.00     0.001 A 
ATOM     76  C   UNL A   1      40.665  25.929  26.307  1.00  0.00     0.000 A 
ENDBRANCH  52  71
BRANCH  64  77
ATOM     77  C   UNL A   1      44.501  28.558  34.138  1.00  0.00    -0.014 A 
ATOM     78  C   UNL A   1      44.287  27.477  35.007  1.00  0.00     0.009 A 
ATOM     79  C   UNL A   1      45.816  28.890  33.779  1.00  0.00     0.009 A 
ATOM     80  C   UNL A   1      45.369  26.777  35.546  1.00  0.00     0.001 A 
ATOM     81  C   UNL A   1      46.895  28.165  34.289  1.00  0.00     0.001 A 
ATOM     82  C   UNL A   1      46.671  27.119  35.182  1.00  0.00     0.000 A 
ENDBRANCH  64  77
ENDBRANCH  38  39
ENDBRANCH  30  33
ENDBRANCH  28  29
ENDBRANCH  27  28
ENDBRANCH  26  27
ENDBRANCH   1  26
TORSDOF 19
ENDMDL
MODEL 2
REMARK VINA RESULT:     -10.3      3.456      5.419
REMARK SMILES CS(=O)(=O)CC[C@H](NC(=O)Cc1ccn[nH]1)C(=O)NCCCCCCNC(=O)c1ccc(-c2c3nc(c(-c4ccccc4)c4ccc([nH]4)c(-c4ccccc4)c4nc(c(-c5ccccc5)c5ccc2[nH]5)C=C4)C=C3)cc1
REMARK SMILES IDX 22 1 21 2 20 3 19 4 17 5 18 6 7 8 6 9 5 10 2 11 1 12 3 13
REMARK SMILES IDX 4 14 8 15 9 16 10 18 11 19 12 20 13 21 16 22 14 23 15 24
REMARK SMILES IDX 23 26 24 27 25 28 26 29 27 30 28 32 29 33 30 34 76 35 31 36
REMARK SMILES IDX 75 37 32 38 33 39 34 40 69 41 35 42 74 43 68 44 70 45 36 46
REMARK SMILES IDX 73 47 67 48 66 49 37 51 59 52 44 53 58 54 45 55 48 56 57 57
REMARK SMILES IDX 71 58 46 59 47 60 56 62 72 63 49 64 38 65 39 66 43 67 40 68
REMARK SMILES IDX 42 69 41 70 60 71 61 72 65 73 62 74 64 75 63 76 50 77 51 78
REMARK SMILES IDX 55 79 52 80 54 81 53 82
REMARK H PARENT 19 7 8 17 16 25 26 31 70 50 48 61
REMARK Flexibility Score: inf
ROOT
ATOM      1  C   UNL A   1      33.644  28.757  23.681  1.00  0.00     0.002 C 
ENDROOT
BRANCH   1   2
ATOM      2  C   UNL A   1      33.210  28.144  22.349  1.00  0.00     0.021 C 
BRANCH   2   3
ATOM      3  C   UNL A   1      33.325  26.625  22.307  1.00  0.00     0.116 C 
BRANCH   3   4
ATOM      4  N   UNL A   1      32.038  25.968  22.425  1.00  0.00    -0.354 N 
ATOM      5  C   UNL A   1      31.729  24.759  22.974  1.00  0.00     0.242 C 
ATOM      6  O   UNL A   1      30.541  24.452  23.086  1.00  0.00    -0.273 OA
ATOM      7  H   UNL A   1      31.275  26.468  22.055  1.00  0.00     0.163 HD
BRANCH   5   8
ATOM      8  C   UNL A   1      32.838  23.849  23.541  1.00  0.00     0.172 C 
BRANCH   8   9
ATOM      9  C   UNL A   1      33.048  22.655  22.591  1.00  0.00     0.051 C 
BRANCH   9  10
ATOM     10  C   UNL A   1      32.145  21.446  22.819  1.00  0.00     0.139 C 
BRANCH  10  11
ATOM     11  S   UNL A   1      32.672  20.346  24.134  1.00  0.00     0.147 S 
ATOM     12  C   UNL A   1      32.532  18.704  23.456  1.00  0.00     0.158 C 
ATOM     13  O   UNL A   1      31.696  20.459  25.204  1.00  0.00    -0.229 OA
ATOM     14  O   UNL A   1      34.077  20.588  24.394  1.00  0.00    -0.229 OA
ENDBRANCH  10  11
ENDBRANCH   9  10
ENDBRANCH   8   9
BRANCH   8  15
ATOM     15  N   UNL A   1      32.550  23.493  24.926  1.00  0.00    -0.344 N 
ATOM     16  C   UNL A   1      33.371  23.588  26.016  1.00  0.00     0.226 C 
ATOM     17  H   UNL A   1      31.648  23.137  25.099  1.00  0.00     0.164 HD
ATOM     18  O   UNL A   1      32.981  23.092  27.076  1.00  0.00    -0.275 OA
BRANCH  16  19
ATOM     19  C   UNL A   1      34.696  24.335  25.947  1.00  0.00     0.155 C 
BRANCH  19  20
ATOM     20  C   UNL A   1      35.850  23.426  25.732  1.00  0.00     0.044 A 
ATOM     21  C   UNL A   1      37.050  23.619  25.080  1.00  0.00     0.045 A 
ATOM     22  N   UNL A   1      35.901  22.154  26.233  1.00  0.00    -0.282 N 
ATOM     23  C   UNL A   1      37.711  22.383  25.174  1.00  0.00     0.135 A 
ATOM     24  N   UNL A   1      37.001  21.481  25.856  1.00  0.00    -0.184 NA
ATOM     25  H   UNL A   1      35.203  21.771  26.812  1.00  0.00     0.190 HD
ENDBRANCH  19  20
ENDBRANCH  16  19
ENDBRANCH   8  15
ENDBRANCH   5   8
ENDBRANCH   3   4
ENDBRANCH   2   3
ENDBRANCH   1   2
BRANCH   1  26
ATOM     26  C   UNL A   1      32.968  28.149  24.914  1.00  0.00     0.002 C 
BRANCH  26  27
ATOM     27  C   UNL A   1      33.892  27.933  26.116  1.00  0.00     0.021 C 
BRANCH  27  28
ATOM     28  C   UNL A   1      33.336  28.447  27.439  1.00  0.00     0.116 C 
BRANCH  28  29
ATOM     29  N   UNL A   1      33.361  29.897  27.502  1.00  0.00    -0.352 N 
ATOM     30  C   UNL A   1      34.328  30.734  27.992  1.00  0.00     0.251 C 
ATOM     31  H   UNL A   1      32.564  30.346  27.138  1.00  0.00     0.163 HD
ATOM     32  O   UNL A   1      34.070  31.919  28.182  1.00  0.00    -0.269 OA
BRANCH  30  33
ATOM     33  C   UNL A   1      35.674  30.213  28.306  1.00  0.00     0.039 A 
ATOM     34  C   UNL A   1      36.636  30.205  27.295  1.00  0.00     0.014 A 
ATOM     35  C   UNL A   1      35.981  29.704  29.572  1.00  0.00     0.014 A 
ATOM     36  C   UNL A   1      37.918  29.728  27.567  1.00  0.00     0.010 A 
ATOM     37  C   UNL A   1      37.282  29.306  29.865  1.00  0.00     0.010 A 
ATOM     38  C   UNL A   1      38.261  29.303  28.862  1.00  0.00    -0.014 A 
BRANCH  38  39
ATOM     39  C   UNL A   1      39.650  28.879  29.166  1.00  0.00     0.031 A 
ATOM     40  C   UNL A   1      40.586  29.782  29.920  1.00  0.00     0.074 A 
ATOM     41  C   UNL A   1      40.074  27.674  28.738  1.00  0.00     0.049 A 
ATOM     42  N   UNL A   1      41.811  29.546  30.322  1.00  0.00    -0.248 NA
ATOM     43  C   UNL A   1      40.097  31.130  30.249  1.00  0.00     0.031 C 
ATOM     44  C   UNL A   1      39.281  26.731  27.946  1.00  0.00     0.029 A 
ATOM     45  N   UNL A   1      41.272  27.030  28.920  1.00  0.00    -0.354 N 
ATOM     46  C   UNL A   1      42.237  30.714  30.942  1.00  0.00     0.074 A 
ATOM     47  C   UNL A   1      41.164  31.675  30.815  1.00  0.00     0.031 C 
ATOM     48  C   UNL A   1      39.995  25.611  27.752  1.00  0.00     0.029 A 
ATOM     49  C   UNL A   1      41.306  25.772  28.369  1.00  0.00     0.049 A 
ATOM     50  H   UNL A   1      42.032  27.431  29.400  1.00  0.00     0.167 HD
ATOM     51  C   UNL A   1      43.408  30.958  31.579  1.00  0.00     0.031 A 
ATOM     52  C   UNL A   1      42.284  24.847  28.365  1.00  0.00     0.031 A 
ATOM     53  C   UNL A   1      44.477  30.002  31.700  1.00  0.00     0.049 A 
ATOM     54  C   UNL A   1      43.575  25.144  29.074  1.00  0.00     0.074 A 
ATOM     55  C   UNL A   1      45.677  30.131  32.378  1.00  0.00     0.029 A 
ATOM     56  N   UNL A   1      44.480  28.742  31.119  1.00  0.00    -0.354 N 
ATOM     57  N   UNL A   1      43.926  26.219  29.738  1.00  0.00    -0.248 NA
ATOM     58  C   UNL A   1      44.597  24.090  29.047  1.00  0.00     0.031 C 
ATOM     59  C   UNL A   1      46.433  28.975  32.151  1.00  0.00     0.029 A 
ATOM     60  C   UNL A   1      45.676  28.098  31.392  1.00  0.00     0.049 A 
ATOM     61  H   UNL A   1      43.741  28.363  30.590  1.00  0.00     0.167 HD
ATOM     62  C   UNL A   1      45.201  25.965  30.223  1.00  0.00     0.074 A 
ATOM     63  C   UNL A   1      45.547  24.622  29.803  1.00  0.00     0.031 C 
ATOM     64  C   UNL A   1      46.016  26.770  30.948  1.00  0.00     0.031 A 
BRANCH  51  65
ATOM     65  C   UNL A   1      43.599  32.325  32.180  1.00  0.00    -0.014 A 
ATOM     66  C   UNL A   1      43.240  32.595  33.512  1.00  0.00     0.009 A 
ATOM     67  C   UNL A   1      44.181  33.349  31.417  1.00  0.00     0.009 A 
ATOM     68  C   UNL A   1      43.422  33.871  34.050  1.00  0.00     0.001 A 
ATOM     69  C   UNL A   1      44.392  34.615  31.968  1.00  0.00     0.001 A 
ATOM     70  C   UNL A   1      44.002  34.878  33.280  1.00  0.00     0.000 A 
ENDBRANCH  51  65
BRANCH  52  71
ATOM     71  C   UNL A   1      42.071  23.545  27.679  1.00  0.00    -0.014 A 
ATOM     72  C   UNL A   1      41.445  22.479  28.343  1.00  0.00     0.009 A 
ATOM     73  C   UNL A   1      42.494  23.364  26.353  1.00  0.00     0.009 A 
ATOM     74  C   UNL A   1      41.273  21.250  27.701  1.00  0.00     0.001 A 
ATOM     75  C   UNL A   1      42.290  22.146  25.703  1.00  0.00     0.001 A 
ATOM     76  C   UNL A   1      41.690  21.086  26.381  1.00  0.00     0.000 A 
ENDBRANCH  52  71
BRANCH  64  77
ATOM     77  C   UNL A   1      47.354  26.207  31.343  1.00  0.00    -0.014 A 
ATOM     78  C   UNL A   1      48.451  26.246  30.468  1.00  0.00     0.009 A 
ATOM     79  C   UNL A   1      47.521  25.636  32.614  1.00  0.00     0.009 A 
ATOM     80  C   UNL A   1      49.673  25.679  30.838  1.00  0.00     0.001 A 
ATOM     81  C   UNL A   1      48.754  25.104  32.996  1.00  0.00     0.001 A 
ATOM     82  C   UNL A   1      49.823  25.113  32.103  1.00  0.00     0.000 A 
ENDBRANCH  64  77
ENDBRANCH  38  39
ENDBRANCH  30  33
ENDBRANCH  28  29
ENDBRANCH  27  28
ENDBRANCH  26  27
ENDBRANCH   1  26
TORSDOF 19
ENDMDL
MODEL 3
REMARK VINA RESULT:     -10.2      1.856      2.653
REMARK SMILES CS(=O)(=O)CC[C@H](NC(=O)Cc1ccn[nH]1)C(=O)NCCCCCCNC(=O)c1ccc(-c2c3nc(c(-c4ccccc4)c4ccc([nH]4)c(-c4ccccc4)c4nc(c(-c5ccccc5)c5ccc2[nH]5)C=C4)C=C3)cc1
REMARK SMILES IDX 22 1 21 2 20 3 19 4 17 5 18 6 7 8 6 9 5 10 2 11 1 12 3 13
REMARK SMILES IDX 4 14 8 15 9 16 10 18 11 19 12 20 13 21 16 22 14 23 15 24
REMARK SMILES IDX 23 26 24 27 25 28 26 29 27 30 28 32 29 33 30 34 76 35 31 36
REMARK SMILES IDX 75 37 32 38 33 39 34 40 69 41 35 42 74 43 68 44 70 45 36 46
REMARK SMILES IDX 73 47 67 48 66 49 37 51 59 52 44 53 58 54 45 55 48 56 57 57
REMARK SMILES IDX 71 58 46 59 47 60 56 62 72 63 49 64 38 65 39 66 43 67 40 68
REMARK SMILES IDX 42 69 41 70 60 71 61 72 65 73 62 74 64 75 63 76 50 77 51 78
REMARK SMILES IDX 55 79 52 80 54 81 53 82
REMARK H PARENT 19 7 8 17 16 25 26 31 70 50 48 61
REMARK Flexibility Score: inf
ROOT
ATOM      1  C   UNL A   1      32.068  29.492  26.611  1.00  0.00     0.002 C 
ENDROOT
BRANCH   1   2
ATOM      2  C   UNL A   1      32.584  28.310  25.788  1.00  0.00     0.021 C 
BRANCH   2   3
ATOM      3  C   UNL A   1      32.509  26.975  26.519  1.00  0.00     0.116 C 
BRANCH   3   4
ATOM      4  N   UNL A   1      31.144  26.524  26.708  1.00  0.00    -0.354 N 
ATOM      5  C   UNL A   1      30.457  25.545  26.053  1.00  0.00     0.242 C 
ATOM      6  O   UNL A   1      29.338  25.236  26.468  1.00  0.00    -0.273 OA
ATOM      7  H   UNL A   1      30.640  26.992  27.411  1.00  0.00     0.163 HD
BRANCH   5   8
ATOM      8  C   UNL A   1      31.111  24.770  24.891  1.00  0.00     0.172 C 
BRANCH   8   9
ATOM      9  C   UNL A   1      30.630  25.362  23.553  1.00  0.00     0.051 C 
BRANCH   9  10
ATOM     10  C   UNL A   1      31.536  26.412  22.916  1.00  0.00     0.139 C 
BRANCH  10  11
ATOM     11  S   UNL A   1      32.543  25.817  21.557  1.00  0.00     0.147 S 
ATOM     12  C   UNL A   1      32.926  24.124  21.964  1.00  0.00     0.158 C 
ATOM     13  O   UNL A   1      33.789  26.563  21.587  1.00  0.00    -0.229 OA
ATOM     14  O   UNL A   1      31.727  25.799  20.359  1.00  0.00    -0.229 OA
ENDBRANCH  10  11
ENDBRANCH   9  10
ENDBRANCH   8   9
BRANCH   8  15
ATOM     15  N   UNL A   1      30.894  23.336  25.045  1.00  0.00    -0.344 N 
ATOM     16  C   UNL A   1      31.751  22.396  25.549  1.00  0.00     0.226 C 
ATOM     17  H   UNL A   1      30.017  23.000  24.748  1.00  0.00     0.164 HD
ATOM     18  O   UNL A   1      31.426  21.210  25.453  1.00  0.00    -0.275 OA
BRANCH  16  19
ATOM     19  C   UNL A   1      33.036  22.797  26.261  1.00  0.00     0.155 C 
BRANCH  19  20
ATOM     20  C   UNL A   1      34.234  22.136  25.686  1.00  0.00     0.044 A 
ATOM     21  C   UNL A   1      35.348  22.657  25.061  1.00  0.00     0.045 A 
ATOM     22  N   UNL A   1      34.435  20.783  25.734  1.00  0.00    -0.282 N 
ATOM     23  C   UNL A   1      36.112  21.536  24.699  1.00  0.00     0.135 A 
ATOM     24  N   UNL A   1      35.546  20.391  25.087  1.00  0.00    -0.184 NA
ATOM     25  H   UNL A   1      33.828  20.161  26.196  1.00  0.00     0.190 HD
ENDBRANCH  19  20
ENDBRANCH  16  19
ENDBRANCH   8  15
ENDBRANCH   5   8
ENDBRANCH   3   4
ENDBRANCH   2   3
ENDBRANCH   1   2
BRANCH   1  26
ATOM     26  C   UNL A   1      31.451  30.624  25.785  1.00  0.00     0.002 C 
BRANCH  26  27
ATOM     27  C   UNL A   1      31.275  31.949  26.533  1.00  0.00     0.021 C 
BRANCH  27  28
ATOM     28  C   UNL A   1      32.547  32.479  27.184  1.00  0.00     0.116 C 
BRANCH  28  29
ATOM     29  N   UNL A   1      32.386  33.850  27.632  1.00  0.00    -0.352 N 
ATOM     30  C   UNL A   1      33.098  34.553  28.568  1.00  0.00     0.251 C 
ATOM     31  H   UNL A   1      31.656  34.350  27.200  1.00  0.00     0.163 HD
ATOM     32  O   UNL A   1      32.666  35.623  28.987  1.00  0.00    -0.269 OA
BRANCH  30  33
ATOM     33  C   UNL A   1      34.378  34.022  29.081  1.00  0.00     0.039 A 
ATOM     34  C   UNL A   1      34.348  33.173  30.188  1.00  0.00     0.014 A 
ATOM     35  C   UNL A   1      35.599  34.381  28.503  1.00  0.00     0.014 A 
ATOM     36  C   UNL A   1      35.541  32.648  30.686  1.00  0.00     0.010 A 
ATOM     37  C   UNL A   1      36.780  33.793  28.949  1.00  0.00     0.010 A 
ATOM     38  C   UNL A   1      36.764  32.929  30.052  1.00  0.00    -0.014 A 
BRANCH  38  39
ATOM     39  C   UNL A   1      38.017  32.299  30.535  1.00  0.00     0.031 A 
ATOM     40  C   UNL A   1      38.771  32.873  31.702  1.00  0.00     0.074 A 
ATOM     41  C   UNL A   1      38.487  31.208  29.900  1.00  0.00     0.049 A 
ATOM     42  N   UNL A   1      39.848  32.415  32.291  1.00  0.00    -0.248 NA
ATOM     43  C   UNL A   1      38.268  34.134  32.270  1.00  0.00     0.031 C 
ATOM     44  C   UNL A   1      37.879  30.589  28.719  1.00  0.00     0.029 A 
ATOM     45  N   UNL A   1      39.577  30.417  30.164  1.00  0.00    -0.354 N 
ATOM     46  C   UNL A   1      40.152  33.332  33.289  1.00  0.00     0.074 A 
ATOM     47  C   UNL A   1      39.182  34.400  33.191  1.00  0.00     0.031 C 
ATOM     48  C   UNL A   1      38.575  29.490  28.391  1.00  0.00     0.029 A 
ATOM     49  C   UNL A   1      39.698  29.348  29.310  1.00  0.00     0.049 A 
ATOM     50  H   UNL A   1      40.209  30.599  30.896  1.00  0.00     0.167 HD
ATOM     51  C   UNL A   1      41.138  33.280  34.217  1.00  0.00     0.031 A 
ATOM     52  C   UNL A   1      40.610  28.359  29.274  1.00  0.00     0.031 A 
ATOM     53  C   UNL A   1      42.106  32.219  34.310  1.00  0.00     0.049 A 
ATOM     54  C   UNL A   1      41.696  28.326  30.312  1.00  0.00     0.074 A 
ATOM     55  C   UNL A   1      43.105  32.042  35.252  1.00  0.00     0.029 A 
ATOM     56  N   UNL A   1      42.204  31.159  33.420  1.00  0.00    -0.354 N 
ATOM     57  N   UNL A   1      41.912  29.150  31.309  1.00  0.00    -0.248 NA
ATOM     58  C   UNL A   1      42.652  27.214  30.228  1.00  0.00     0.031 C 
ATOM     59  C   UNL A   1      43.849  30.913  34.893  1.00  0.00     0.029 A 
ATOM     60  C   UNL A   1      43.270  30.345  33.770  1.00  0.00     0.049 A 
ATOM     61  H   UNL A   1      41.605  31.008  32.654  1.00  0.00     0.167 HD
ATOM     62  C   UNL A   1      43.018  28.648  31.982  1.00  0.00     0.074 A 
ATOM     63  C   UNL A   1      43.404  27.431  31.297  1.00  0.00     0.031 C 
ATOM     64  C   UNL A   1      43.658  29.149  33.066  1.00  0.00     0.031 A 
BRANCH  51  65
ATOM     65  C   UNL A   1      41.227  34.418  35.200  1.00  0.00    -0.014 A 
ATOM     66  C   UNL A   1      42.042  35.536  34.952  1.00  0.00     0.009 A 
ATOM     67  C   UNL A   1      40.456  34.391  36.372  1.00  0.00     0.009 A 
ATOM     68  C   UNL A   1      42.113  36.580  35.877  1.00  0.00     0.001 A 
ATOM     69  C   UNL A   1      40.504  35.451  37.279  1.00  0.00     0.001 A 
ATOM     70  C   UNL A   1      41.341  36.539  37.037  1.00  0.00     0.000 A 
ENDBRANCH  51  65
BRANCH  52  71
ATOM     71  C   UNL A   1      40.523  27.308  28.226  1.00  0.00    -0.014 A 
ATOM     72  C   UNL A   1      39.800  26.127  28.452  1.00  0.00     0.009 A 
ATOM     73  C   UNL A   1      41.165  27.484  26.989  1.00  0.00     0.009 A 
ATOM     74  C   UNL A   1      39.746  25.132  27.473  1.00  0.00     0.001 A 
ATOM     75  C   UNL A   1      41.081  26.503  26.000  1.00  0.00     0.001 A 
ATOM     76  C   UNL A   1      40.381  25.323  26.246  1.00  0.00     0.000 A 
ENDBRANCH  52  71
BRANCH  64  77
ATOM     77  C   UNL A   1      44.834  28.367  33.584  1.00  0.00    -0.014 A 
ATOM     78  C   UNL A   1      46.133  28.596  33.104  1.00  0.00     0.009 A 
ATOM     79  C   UNL A   1      44.639  27.391  34.575  1.00  0.00     0.009 A 
ATOM     80  C   UNL A   1      47.205  27.829  33.567  1.00  0.00     0.001 A 
ATOM     81  C   UNL A   1      45.718  26.652  35.064  1.00  0.00     0.001 A 
ATOM     82  C   UNL A   1      46.996  26.861  34.549  1.00  0.00     0.000 A 
ENDBRANCH  64  77
ENDBRANCH  38  39
ENDBRANCH  30  33
ENDBRANCH  28  29
ENDBRANCH  27  28
ENDBRANCH  26  27
ENDBRANCH   1  26
TORSDOF 19
ENDMDL
