MODEL 1
REMARK VINA RESULT:     -10.2      0.000      0.000
REMARK SMILES CCCc1nsc(N2CCO[C@H](CC(=O)NCCCCCCNC(=O)c3ccc(-c4c5nc(c(-c6ccccc6)c6ccc([nH]6)c(-c6ccccc6)c6nc(c(-c7ccccc7)c7ccc4[nH]7)C=C6)C=C5)cc3)C2)n1
REMARK SMILES IDX 18 1 17 2 16 3 14 4 15 5 13 7 12 8 8 9 9 10 74 11 10 12
REMARK SMILES IDX 11 13 7 14 4 15 5 16 75 17 6 18 3 19 2 20 1 21 19 22 20 23
REMARK SMILES IDX 21 24 22 25 23 26 24 27 25 29 26 30 27 31 73 32 28 33 72 34
REMARK SMILES IDX 29 35 30 36 31 37 66 38 32 39 71 40 65 41 67 42 33 43 70 44
REMARK SMILES IDX 64 45 63 46 34 48 56 49 41 50 55 51 42 52 45 53 54 54 68 55
REMARK SMILES IDX 43 56 44 57 53 59 69 60 46 61 35 62 36 63 40 64 37 65 39 66
REMARK SMILES IDX 38 67 57 68 58 69 62 70 59 71 61 72 60 73 47 74 48 75 52 76
REMARK SMILES IDX 49 77 51 78 50 79
REMARK H PARENT 16 6 23 28 67 47 45 58
REMARK Flexibility Score: inf
ROOT
ATOM      1  C   UNL A   1      34.159  31.958  28.317  1.00  0.00     0.021 C 
ENDROOT
BRANCH   1   2
ATOM      2  C   UNL A   1      34.453  30.687  27.517  1.00  0.00     0.116 C 
BRANCH   2   3
ATOM      3  N   UNL A   1      33.538  29.619  27.867  1.00  0.00    -0.356 N 
ATOM      4  C   UNL A   1      32.551  29.053  27.119  1.00  0.00     0.222 C 
ATOM      5  O   UNL A   1      31.832  28.198  27.640  1.00  0.00    -0.275 OA
ATOM      6  H   UNL A   1      33.645  29.251  28.774  1.00  0.00     0.163 HD
BRANCH   4   7
ATOM      7  C   UNL A   1      32.337  29.471  25.679  1.00  0.00     0.133 C 
BRANCH   7   8
ATOM      8  C   UNL A   1      33.369  28.797  24.765  1.00  0.00     0.147 C 
ATOM      9  N   UNL A   1      31.987  28.133  22.803  1.00  0.00    -0.342 N 
ATOM     10  C   UNL A   1      32.164  26.723  23.142  1.00  0.00     0.147 C 
ATOM     11  C   UNL A   1      33.071  29.008  23.256  1.00  0.00     0.151 C 
ATOM     12  C   UNL A   1      32.441  26.572  24.636  1.00  0.00     0.182 C 
ATOM     13  O   UNL A   1      33.538  27.393  25.071  1.00  0.00    -0.374 OA
BRANCH   9  14
ATOM     14  C   UNL A   1      30.739  28.631  22.615  1.00  0.00     0.205 A 
ATOM     15  C   UNL A   1      29.059  29.872  21.919  1.00  0.00     0.144 A 
ATOM     16  N   UNL A   1      28.293  29.052  22.640  1.00  0.00    -0.174 NA
ATOM     17  N   UNL A   1      30.441  29.705  21.914  1.00  0.00    -0.203 NA
ATOM     18  S   UNL A   1      29.317  27.930  23.320  1.00  0.00     0.004 S 
BRANCH  15  19
ATOM     19  C   UNL A   1      28.424  30.911  21.058  1.00  0.00     0.078 C 
BRANCH  19  20
ATOM     20  C   UNL A   1      27.941  32.130  21.850  1.00  0.00     0.005 C 
ATOM     21  C   UNL A   1      28.694  32.345  23.158  1.00  0.00     0.004 C 
ENDBRANCH  19  20
ENDBRANCH  15  19
ENDBRANCH   9  14
ENDBRANCH   7   8
ENDBRANCH   4   7
ENDBRANCH   2   3
ENDBRANCH   1   2
BRANCH   1  22
ATOM     22  C   UNL A   1      35.131  33.105  28.012  1.00  0.00     0.002 C 
BRANCH  22  23
ATOM     23  C   UNL A   1      34.947  34.354  28.885  1.00  0.00     0.002 C 
BRANCH  23  24
ATOM     24  C   UNL A   1      33.501  34.825  29.066  1.00  0.00     0.021 C 
BRANCH  24  25
ATOM     25  C   UNL A   1      33.351  36.254  29.583  1.00  0.00     0.116 C 
BRANCH  25  26
ATOM     26  N   UNL A   1      32.510  36.318  30.768  1.00  0.00    -0.352 N 
ATOM     27  C   UNL A   1      32.632  35.674  31.973  1.00  0.00     0.251 C 
ATOM     28  H   UNL A   1      31.732  36.916  30.693  1.00  0.00     0.163 HD
ATOM     29  O   UNL A   1      31.706  35.697  32.776  1.00  0.00    -0.269 OA
BRANCH  27  30
ATOM     30  C   UNL A   1      33.874  34.945  32.309  1.00  0.00     0.039 A 
ATOM     31  C   UNL A   1      33.797  33.574  32.573  1.00  0.00     0.014 A 
ATOM     32  C   UNL A   1      35.098  35.611  32.415  1.00  0.00     0.014 A 
ATOM     33  C   UNL A   1      34.955  32.863  32.897  1.00  0.00     0.010 A 
ATOM     34  C   UNL A   1      36.261  34.890  32.676  1.00  0.00     0.010 A 
ATOM     35  C   UNL A   1      36.199  33.512  32.929  1.00  0.00    -0.014 A 
BRANCH  35  36
ATOM     36  C   UNL A   1      37.442  32.764  33.236  1.00  0.00     0.031 A 
ATOM     37  C   UNL A   1      38.173  33.005  34.529  1.00  0.00     0.074 A 
ATOM     38  C   UNL A   1      37.941  31.900  32.331  1.00  0.00     0.049 A 
ATOM     39  N   UNL A   1      39.290  32.472  34.958  1.00  0.00    -0.248 NA
ATOM     40  C   UNL A   1      37.583  33.988  35.451  1.00  0.00     0.031 C 
ATOM     41  C   UNL A   1      37.345  31.600  31.028  1.00  0.00     0.029 A 
ATOM     42  N   UNL A   1      39.065  31.115  32.373  1.00  0.00    -0.354 N 
ATOM     43  C   UNL A   1      39.541  33.065  36.188  1.00  0.00     0.074 A 
ATOM     44  C   UNL A   1      38.489  34.032  36.415  1.00  0.00     0.031 C 
ATOM     45  C   UNL A   1      38.092  30.672  30.408  1.00  0.00     0.029 A 
ATOM     46  C   UNL A   1      39.235  30.339  31.253  1.00  0.00     0.049 A 
ATOM     47  H   UNL A   1      39.690  31.108  33.133  1.00  0.00     0.167 HD
ATOM     48  C   UNL A   1      40.547  32.815  37.061  1.00  0.00     0.031 A 
ATOM     49  C   UNL A   1      40.201  29.456  30.941  1.00  0.00     0.031 A 
ATOM     50  C   UNL A   1      41.590  31.849  36.842  1.00  0.00     0.049 A 
ATOM     51  C   UNL A   1      41.313  29.206  31.920  1.00  0.00     0.074 A 
ATOM     52  C   UNL A   1      42.627  31.491  37.685  1.00  0.00     0.029 A 
ATOM     53  N   UNL A   1      41.727  31.086  35.693  1.00  0.00    -0.354 N 
ATOM     54  N   UNL A   1      41.506  29.736  33.103  1.00  0.00    -0.248 NA
ATOM     55  C   UNL A   1      42.333  28.225  31.522  1.00  0.00     0.031 C 
ATOM     56  C   UNL A   1      43.416  30.540  37.029  1.00  0.00     0.029 A 
ATOM     57  C   UNL A   1      42.841  30.270  35.798  1.00  0.00     0.049 A 
ATOM     58  H   UNL A   1      41.121  31.118  34.918  1.00  0.00     0.167 HD
ATOM     59  C   UNL A   1      42.653  29.133  33.603  1.00  0.00     0.074 A 
ATOM     60  C   UNL A   1      43.102  28.189  32.601  1.00  0.00     0.031 C 
ATOM     61  C   UNL A   1      43.276  29.340  34.789  1.00  0.00     0.031 A 
BRANCH  48  62
ATOM     62  C   UNL A   1      40.564  33.613  38.336  1.00  0.00    -0.014 A 
ATOM     63  C   UNL A   1      41.318  34.793  38.443  1.00  0.00     0.009 A 
ATOM     64  C   UNL A   1      39.804  33.191  39.436  1.00  0.00     0.009 A 
ATOM     65  C   UNL A   1      41.343  35.512  39.640  1.00  0.00     0.001 A 
ATOM     66  C   UNL A   1      39.809  33.927  40.624  1.00  0.00     0.001 A 
ATOM     67  C   UNL A   1      40.585  35.079  40.728  1.00  0.00     0.000 A 
ENDBRANCH  48  62
BRANCH  49  68
ATOM     68  C   UNL A   1      40.145  28.716  29.655  1.00  0.00    -0.014 A 
ATOM     69  C   UNL A   1      39.530  27.457  29.590  1.00  0.00     0.009 A 
ATOM     70  C   UNL A   1      40.704  29.260  28.489  1.00  0.00     0.009 A 
ATOM     71  C   UNL A   1      39.499  26.745  28.389  1.00  0.00     0.001 A 
ATOM     72  C   UNL A   1      40.648  28.558  27.283  1.00  0.00     0.001 A 
ATOM     73  C   UNL A   1      40.054  27.298  27.236  1.00  0.00     0.000 A 
ENDBRANCH  49  68
BRANCH  61  74
ATOM     74  C   UNL A   1      44.490  28.504  35.077  1.00  0.00    -0.014 A 
ATOM     75  C   UNL A   1      45.778  28.946  34.736  1.00  0.00     0.009 A 
ATOM     76  C   UNL A   1      44.344  27.265  35.720  1.00  0.00     0.009 A 
ATOM     77  C   UNL A   1      46.891  28.149  35.002  1.00  0.00     0.001 A 
ATOM     78  C   UNL A   1      45.461  26.482  36.009  1.00  0.00     0.001 A 
ATOM     79  C   UNL A   1      46.733  26.918  35.641  1.00  0.00     0.000 A 
ENDBRANCH  61  74
ENDBRANCH  35  36
ENDBRANCH  27  30
ENDBRANCH  25  26
ENDBRANCH  24  25
ENDBRANCH  23  24
ENDBRANCH  22  23
ENDBRANCH   1  22
TORSDOF 17
ENDMDL
MODEL 2
REMARK VINA RESULT:     -10.1      5.126     10.149
REMARK SMILES CCCc1nsc(N2CCO[C@H](CC(=O)NCCCCCCNC(=O)c3ccc(-c4c5nc(c(-c6ccccc6)c6ccc([nH]6)c(-c6ccccc6)c6nc(c(-c7ccccc7)c7ccc4[nH]7)C=C6)C=C5)cc3)C2)n1
REMARK SMILES IDX 18 1 17 2 16 3 14 4 15 5 13 7 12 8 8 9 9 10 74 11 10 12
REMARK SMILES IDX 11 13 7 14 4 15 5 16 75 17 6 18 3 19 2 20 1 21 19 22 20 23
REMARK SMILES IDX 21 24 22 25 23 26 24 27 25 29 26 30 27 31 73 32 28 33 72 34
REMARK SMILES IDX 29 35 30 36 31 37 66 38 32 39 71 40 65 41 67 42 33 43 70 44
REMARK SMILES IDX 64 45 63 46 34 48 56 49 41 50 55 51 42 52 45 53 54 54 68 55
REMARK SMILES IDX 43 56 44 57 53 59 69 60 46 61 35 62 36 63 40 64 37 65 39 66
REMARK SMILES IDX 38 67 57 68 58 69 62 70 59 71 61 72 60 73 47 74 48 75 52 76
REMARK SMILES IDX 49 77 51 78 50 79
REMARK H PARENT 16 6 23 28 67 47 45 58
REMARK Flexibility Score: inf
ROOT
ATOM      1  C   UNL A   1      38.093  23.619  26.198  1.00  0.00     0.021 C 
ENDROOT
BRANCH   1   2
ATOM      2  C   UNL A   1      36.688  23.609  25.591  1.00  0.00     0.116 C 
BRANCH   2   3
ATOM      3  N   UNL A   1      35.720  23.041  26.508  1.00  0.00    -0.356 N 
ATOM      4  C   UNL A   1      34.388  23.301  26.622  1.00  0.00     0.222 C 
ATOM      5  O   UNL A   1      33.755  22.756  27.528  1.00  0.00    -0.275 OA
ATOM      6  H   UNL A   1      36.076  22.373  27.138  1.00  0.00     0.163 HD
BRANCH   4   7
ATOM      7  C   UNL A   1      33.701  24.246  25.658  1.00  0.00     0.133 C 
BRANCH   7   8
ATOM      8  C   UNL A   1      33.261  23.498  24.393  1.00  0.00     0.147 C 
ATOM      9  N   UNL A   1      32.130  25.288  23.083  1.00  0.00    -0.342 N 
ATOM     10  C   UNL A   1      30.841  24.627  23.272  1.00  0.00     0.147 C 
ATOM     11  C   UNL A   1      33.286  24.389  23.122  1.00  0.00     0.151 C 
ATOM     12  C   UNL A   1      30.868  23.776  24.539  1.00  0.00     0.182 C 
ATOM     13  O   UNL A   1      31.973  22.858  24.554  1.00  0.00    -0.374 OA
BRANCH   9  14
ATOM     14  C   UNL A   1      32.270  26.598  23.406  1.00  0.00     0.205 A 
ATOM     15  C   UNL A   1      32.047  28.547  24.406  1.00  0.00     0.144 A 
ATOM     16  N   UNL A   1      32.951  28.982  23.528  1.00  0.00    -0.174 NA
ATOM     17  N   UNL A   1      31.597  27.231  24.344  1.00  0.00    -0.203 NA
ATOM     18  S   UNL A   1      33.358  27.673  22.585  1.00  0.00     0.004 S 
BRANCH  15  19
ATOM     19  C   UNL A   1      31.582  29.450  25.498  1.00  0.00     0.078 C 
BRANCH  19  20
ATOM     20  C   UNL A   1      31.770  28.848  26.894  1.00  0.00     0.005 C 
ATOM     21  C   UNL A   1      33.219  28.502  27.219  1.00  0.00     0.004 C 
ENDBRANCH  19  20
ENDBRANCH  15  19
ENDBRANCH   9  14
ENDBRANCH   7   8
ENDBRANCH   4   7
ENDBRANCH   2   3
ENDBRANCH   1   2
BRANCH   1  22
ATOM     22  C   UNL A   1      38.835  22.288  26.030  1.00  0.00     0.002 C 
BRANCH  22  23
ATOM     23  C   UNL A   1      38.150  21.281  25.097  1.00  0.00     0.002 C 
BRANCH  23  24
ATOM     24  C   UNL A   1      38.679  19.845  25.173  1.00  0.00     0.021 C 
BRANCH  24  25
ATOM     25  C   UNL A   1      39.642  19.576  26.327  1.00  0.00     0.116 C 
BRANCH  25  26
ATOM     26  N   UNL A   1      40.918  19.056  25.862  1.00  0.00    -0.352 N 
ATOM     27  C   UNL A   1      42.129  19.685  25.723  1.00  0.00     0.251 C 
ATOM     28  H   UNL A   1      40.911  18.106  25.606  1.00  0.00     0.163 HD
ATOM     29  O   UNL A   1      43.040  19.132  25.116  1.00  0.00    -0.269 OA
BRANCH  27  30
ATOM     30  C   UNL A   1      42.344  21.031  26.296  1.00  0.00     0.039 A 
ATOM     31  C   UNL A   1      42.252  21.195  27.681  1.00  0.00     0.014 A 
ATOM     32  C   UNL A   1      42.583  22.136  25.474  1.00  0.00     0.014 A 
ATOM     33  C   UNL A   1      42.446  22.458  28.246  1.00  0.00     0.010 A 
ATOM     34  C   UNL A   1      42.839  23.382  26.042  1.00  0.00     0.010 A 
ATOM     35  C   UNL A   1      42.763  23.556  27.432  1.00  0.00    -0.014 A 
BRANCH  35  36
ATOM     36  C   UNL A   1      43.007  24.896  28.019  1.00  0.00     0.031 A 
ATOM     37  C   UNL A   1      44.393  25.299  28.443  1.00  0.00     0.074 A 
ATOM     38  C   UNL A   1      41.972  25.736  28.215  1.00  0.00     0.049 A 
ATOM     39  N   UNL A   1      44.795  26.412  29.004  1.00  0.00    -0.248 NA
ATOM     40  C   UNL A   1      45.464  24.313  28.228  1.00  0.00     0.031 C 
ATOM     41  C   UNL A   1      40.576  25.453  27.876  1.00  0.00     0.029 A 
ATOM     42  N   UNL A   1      41.938  27.000  28.746  1.00  0.00    -0.354 N 
ATOM     43  C   UNL A   1      46.158  26.254  29.220  1.00  0.00     0.074 A 
ATOM     44  C   UNL A   1      46.505  24.922  28.776  1.00  0.00     0.031 C 
ATOM     45  C   UNL A   1      39.827  26.526  28.178  1.00  0.00     0.029 A 
ATOM     46  C   UNL A   1      40.682  27.554  28.763  1.00  0.00     0.049 A 
ATOM     47  H   UNL A   1      42.737  27.465  29.083  1.00  0.00     0.167 HD
ATOM     48  C   UNL A   1      47.046  27.144  29.725  1.00  0.00     0.031 A 
ATOM     49  C   UNL A   1      40.265  28.758  29.197  1.00  0.00     0.031 A 
ATOM     50  C   UNL A   1      46.704  28.472  30.160  1.00  0.00     0.049 A 
ATOM     51  C   UNL A   1      41.267  29.722  29.766  1.00  0.00     0.074 A 
ATOM     52  C   UNL A   1      47.539  29.464  30.645  1.00  0.00     0.029 A 
ATOM     53  N   UNL A   1      45.421  28.994  30.163  1.00  0.00    -0.354 N 
ATOM     54  N   UNL A   1      42.561  29.578  29.913  1.00  0.00    -0.248 NA
ATOM     55  C   UNL A   1      40.748  31.021  30.216  1.00  0.00     0.031 C 
ATOM     56  C   UNL A   1      46.754  30.572  30.979  1.00  0.00     0.029 A 
ATOM     57  C   UNL A   1      45.437  30.288  30.656  1.00  0.00     0.049 A 
ATOM     58  H   UNL A   1      44.616  28.516  29.857  1.00  0.00     0.167 HD
ATOM     59  C   UNL A   1      43.016  30.776  30.446  1.00  0.00     0.074 A 
ATOM     60  C   UNL A   1      41.861  31.640  30.584  1.00  0.00     0.031 C 
ATOM     61  C   UNL A   1      44.279  31.131  30.789  1.00  0.00     0.031 A 
BRANCH  48  62
ATOM     62  C   UNL A   1      48.477  26.697  29.839  1.00  0.00    -0.014 A 
ATOM     63  C   UNL A   1      48.939  26.028  30.983  1.00  0.00     0.009 A 
ATOM     64  C   UNL A   1      49.370  26.932  28.783  1.00  0.00     0.009 A 
ATOM     65  C   UNL A   1      50.276  25.638  31.085  1.00  0.00     0.001 A 
ATOM     66  C   UNL A   1      50.700  26.517  28.876  1.00  0.00     0.001 A 
ATOM     67  C   UNL A   1      51.155  25.880  30.029  1.00  0.00     0.000 A 
ENDBRANCH  48  62
BRANCH  49  68
ATOM     68  C   UNL A   1      38.833  29.135  29.083  1.00  0.00    -0.014 A 
ATOM     69  C   UNL A   1      38.326  29.627  27.871  1.00  0.00     0.009 A 
ATOM     70  C   UNL A   1      37.967  29.005  30.180  1.00  0.00     0.009 A 
ATOM     71  C   UNL A   1      36.987  30.008  27.767  1.00  0.00     0.001 A 
ATOM     72  C   UNL A   1      36.622  29.361  30.064  1.00  0.00     0.001 A 
ATOM     73  C   UNL A   1      36.135  29.870  28.862  1.00  0.00     0.000 A 
ENDBRANCH  49  68
BRANCH  61  74
ATOM     74  C   UNL A   1      44.477  32.526  31.312  1.00  0.00    -0.014 A 
ATOM     75  C   UNL A   1      44.446  32.800  32.688  1.00  0.00     0.009 A 
ATOM     76  C   UNL A   1      44.722  33.576  30.414  1.00  0.00     0.009 A 
ATOM     77  C   UNL A   1      44.621  34.104  33.152  1.00  0.00     0.001 A 
ATOM     78  C   UNL A   1      44.924  34.874  30.882  1.00  0.00     0.001 A 
ATOM     79  C   UNL A   1      44.863  35.140  32.249  1.00  0.00     0.000 A 
ENDBRANCH  61  74
ENDBRANCH  35  36
ENDBRANCH  27  30
ENDBRANCH  25  26
ENDBRANCH  24  25
ENDBRANCH  23  24
ENDBRANCH  22  23
ENDBRANCH   1  22
TORSDOF 17
ENDMDL
MODEL 3
REMARK VINA RESULT:     -10.1      5.073     10.020
REMARK SMILES CCCc1nsc(N2CCO[C@H](CC(=O)NCCCCCCNC(=O)c3ccc(-c4c5nc(c(-c6ccccc6)c6ccc([nH]6)c(-c6ccccc6)c6nc(c(-c7ccccc7)c7ccc4[nH]7)C=C6)C=C5)cc3)C2)n1
REMARK SMILES IDX 18 1 17 2 16 3 14 4 15 5 13 7 12 8 8 9 9 10 74 11 10 12
REMARK SMILES IDX 11 13 7 14 4 15 5 16 75 17 6 18 3 19 2 20 1 21 19 22 20 23
REMARK SMILES IDX 21 24 22 25 23 26 24 27 25 29 26 30 27 31 73 32 28 33 72 34
REMARK SMILES IDX 29 35 30 36 31 37 66 38 32 39 71 40 65 41 67 42 33 43 70 44
REMARK SMILES IDX 64 45 63 46 34 48 56 49 41 50 55 51 42 52 45 53 54 54 68 55
REMARK SMILES IDX 43 56 44 57 53 59 69 60 46 61 35 62 36 63 40 64 37 65 39 66
REMARK SMILES IDX 38 67 57 68 58 69 62 70 59 71 61 72 60 73 47 74 48 75 52 76
REMARK SMILES IDX 49 77 51 78 50 79
REMARK H PARENT 16 6 23 28 67 47 45 58
REMARK Flexibility Score: inf
ROOT
ATOM      1  C   UNL A   1      35.581  23.695  26.178  1.00  0.00     0.021 C 
ENDROOT
BRANCH   1   2
ATOM      2  C   UNL A   1      34.335  23.810  25.298  1.00  0.00     0.116 C 
BRANCH   2   3
ATOM      3  N   UNL A   1      33.121  23.709  26.084  1.00  0.00    -0.356 N 
ATOM      4  C   UNL A   1      32.288  24.698  26.511  1.00  0.00     0.222 C 
ATOM      5  O   UNL A   1      31.340  24.399  27.239  1.00  0.00    -0.275 OA
ATOM      6  H   UNL A   1      32.863  22.796  26.347  1.00  0.00     0.163 HD
BRANCH   4   7
ATOM      7  C   UNL A   1      32.527  26.138  26.104  1.00  0.00     0.133 C 
BRANCH   7   8
ATOM      8  C   UNL A   1      31.209  26.806  25.691  1.00  0.00     0.147 C 
ATOM      9  N   UNL A   1      30.870  25.932  23.385  1.00  0.00    -0.342 N 
ATOM     10  C   UNL A   1      31.094  27.267  22.835  1.00  0.00     0.147 C 
ATOM     11  C   UNL A   1      30.347  25.918  24.753  1.00  0.00     0.151 C 
ATOM     12  C   UNL A   1      31.955  28.091  23.789  1.00  0.00     0.182 C 
ATOM     13  O   UNL A   1      31.415  28.120  25.121  1.00  0.00    -0.374 OA
BRANCH   9  14
ATOM     14  C   UNL A   1      31.585  24.879  22.914  1.00  0.00     0.205 A 
ATOM     15  C   UNL A   1      32.294  22.831  22.528  1.00  0.00     0.144 A 
ATOM     16  N   UNL A   1      33.203  23.408  21.741  1.00  0.00    -0.174 NA
ATOM     17  N   UNL A   1      31.398  23.619  23.245  1.00  0.00    -0.203 NA
ATOM     18  S   UNL A   1      32.911  25.045  21.808  1.00  0.00     0.004 S 
BRANCH  15  19
ATOM     19  C   UNL A   1      32.191  21.344  22.572  1.00  0.00     0.078 C 
BRANCH  19  20
ATOM     20  C   UNL A   1      33.001  20.722  23.714  1.00  0.00     0.005 C 
ATOM     21  C   UNL A   1      32.179  20.455  24.969  1.00  0.00     0.004 C 
ENDBRANCH  19  20
ENDBRANCH  15  19
ENDBRANCH   9  14
ENDBRANCH   7   8
ENDBRANCH   4   7
ENDBRANCH   2   3
ENDBRANCH   1   2
BRANCH   1  22
ATOM     22  C   UNL A   1      36.599  22.674  25.657  1.00  0.00     0.002 C 
BRANCH  22  23
ATOM     23  C   UNL A   1      36.017  21.292  25.331  1.00  0.00     0.002 C 
BRANCH  23  24
ATOM     24  C   UNL A   1      37.046  20.194  25.045  1.00  0.00     0.021 C 
BRANCH  24  25
ATOM     25  C   UNL A   1      38.498  20.666  25.019  1.00  0.00     0.116 C 
BRANCH  25  26
ATOM     26  N   UNL A   1      39.418  19.618  25.431  1.00  0.00    -0.352 N 
ATOM     27  C   UNL A   1      40.644  19.709  26.040  1.00  0.00     0.251 C 
ATOM     28  H   UNL A   1      39.114  18.701  25.244  1.00  0.00     0.163 HD
ATOM     29  O   UNL A   1      41.364  18.720  26.118  1.00  0.00    -0.269 OA
BRANCH  27  30
ATOM     30  C   UNL A   1      41.109  20.998  26.596  1.00  0.00     0.039 A 
ATOM     31  C   UNL A   1      41.687  21.934  25.733  1.00  0.00     0.014 A 
ATOM     32  C   UNL A   1      41.026  21.266  27.965  1.00  0.00     0.014 A 
ATOM     33  C   UNL A   1      42.138  23.156  26.234  1.00  0.00     0.010 A 
ATOM     34  C   UNL A   1      41.418  22.510  28.455  1.00  0.00     0.010 A 
ATOM     35  C   UNL A   1      41.986  23.462  27.595  1.00  0.00    -0.014 A 
BRANCH  35  36
ATOM     36  C   UNL A   1      42.428  24.771  28.138  1.00  0.00     0.031 A 
ATOM     37  C   UNL A   1      41.433  25.876  28.357  1.00  0.00     0.074 A 
ATOM     38  C   UNL A   1      43.735  24.980  28.390  1.00  0.00     0.049 A 
ATOM     39  N   UNL A   1      41.635  27.096  28.791  1.00  0.00    -0.248 NA
ATOM     40  C   UNL A   1      40.030  25.581  28.026  1.00  0.00     0.031 C 
ATOM     41  C   UNL A   1      44.804  24.000  28.191  1.00  0.00     0.029 A 
ATOM     42  N   UNL A   1      44.383  26.089  28.871  1.00  0.00    -0.354 N 
ATOM     43  C   UNL A   1      40.391  27.714  28.771  1.00  0.00     0.074 A 
ATOM     44  C   UNL A   1      39.451  26.753  28.237  1.00  0.00     0.031 C 
ATOM     45  C   UNL A   1      45.971  24.541  28.577  1.00  0.00     0.029 A 
ATOM     46  C   UNL A   1      45.737  25.913  29.016  1.00  0.00     0.049 A 
ATOM     47  H   UNL A   1      43.922  26.930  29.091  1.00  0.00     0.167 HD
ATOM     48  C   UNL A   1      40.057  28.962  29.177  1.00  0.00     0.031 A 
ATOM     49  C   UNL A   1      46.685  26.760  29.456  1.00  0.00     0.031 A 
ATOM     50  C   UNL A   1      40.989  29.916  29.715  1.00  0.00     0.049 A 
ATOM     51  C   UNL A   1      46.291  28.144  29.889  1.00  0.00     0.074 A 
ATOM     52  C   UNL A   1      40.741  31.190  30.197  1.00  0.00     0.029 A 
ATOM     53  N   UNL A   1      42.352  29.700  29.844  1.00  0.00    -0.354 N 
ATOM     54  N   UNL A   1      45.102  28.695  29.914  1.00  0.00    -0.248 NA
ATOM     55  C   UNL A   1      47.373  29.018  30.365  1.00  0.00     0.031 C 
ATOM     56  C   UNL A   1      41.960  31.759  30.579  1.00  0.00     0.029 A 
ATOM     57  C   UNL A   1      42.960  30.821  30.381  1.00  0.00     0.049 A 
ATOM     58  H   UNL A   1      42.818  28.870  29.591  1.00  0.00     0.167 HD
ATOM     59  C   UNL A   1      45.287  29.968  30.435  1.00  0.00     0.074 A 
ATOM     60  C   UNL A   1      46.700  30.103  30.724  1.00  0.00     0.031 C 
ATOM     61  C   UNL A   1      44.368  30.939  30.658  1.00  0.00     0.031 A 
BRANCH  48  62
ATOM     62  C   UNL A   1      38.614  29.364  29.044  1.00  0.00    -0.014 A 
ATOM     63  C   UNL A   1      38.089  29.785  27.812  1.00  0.00     0.009 A 
ATOM     64  C   UNL A   1      37.765  29.306  30.159  1.00  0.00     0.009 A 
ATOM     65  C   UNL A   1      36.753  30.178  27.707  1.00  0.00     0.001 A 
ATOM     66  C   UNL A   1      36.422  29.672  30.046  1.00  0.00     0.001 A 
ATOM     67  C   UNL A   1      35.920  30.118  28.824  1.00  0.00     0.000 A 
ENDBRANCH  48  62
BRANCH  49  68
ATOM     68  C   UNL A   1      48.099  26.315  29.542  1.00  0.00    -0.014 A 
ATOM     69  C   UNL A   1      48.956  26.471  28.442  1.00  0.00     0.009 A 
ATOM     70  C   UNL A   1      48.600  25.735  30.717  1.00  0.00     0.009 A 
ATOM     71  C   UNL A   1      50.280  26.030  28.509  1.00  0.00     0.001 A 
ATOM     72  C   UNL A   1      49.931  25.320  30.790  1.00  0.00     0.001 A 
ATOM     73  C   UNL A   1      50.767  25.459  29.683  1.00  0.00     0.000 A 
ENDBRANCH  49  68
BRANCH  61  74
ATOM     74  C   UNL A   1      44.861  32.217  31.275  1.00  0.00    -0.014 A 
ATOM     75  C   UNL A   1      44.920  32.378  32.668  1.00  0.00     0.009 A 
ATOM     76  C   UNL A   1      45.296  33.265  30.449  1.00  0.00     0.009 A 
ATOM     77  C   UNL A   1      45.371  33.577  33.221  1.00  0.00     0.001 A 
ATOM     78  C   UNL A   1      45.773  34.452  31.004  1.00  0.00     0.001 A 
ATOM     79  C   UNL A   1      45.800  34.612  32.389  1.00  0.00     0.000 A 
ENDBRANCH  61  74
ENDBRANCH  35  36
ENDBRANCH  27  30
ENDBRANCH  25  26
ENDBRANCH  24  25
ENDBRANCH  23  24
ENDBRANCH  22  23
ENDBRANCH   1  22
TORSDOF 17
ENDMDL
