MODEL 1
REMARK VINA RESULT:     -10.9      0.000      0.000
REMARK SMILES C/C(=N\Nc1nc(-c2ccc(Cl)cc2)cs1)c1nnn(-c2ccc(C(=O)NCCCCCCNC(=O)c3ccc(-c4c5nc(c(-c6ccccc6)c6ccc([nH]6)c(-c6ccccc6)c6nc(c(-c7ccccc7)c7ccc4[nH]7)C=C6)C=C5)cc3)cc2)c1C
REMARK SMILES IDX 29 1 28 2 27 3 25 4 26 5 24 7 21 8 22 9 86 10 23 11 85 12
REMARK SMILES IDX 20 13 17 14 18 15 87 16 19 17 88 18 2 19 1 20 3 21 4 22 5 24
REMARK SMILES IDX 6 25 16 26 7 27 15 28 8 29 9 30 14 31 10 32 13 33 11 34
REMARK SMILES IDX 12 35 30 36 31 37 32 38 33 39 34 40 35 41 36 43 37 44 38 45
REMARK SMILES IDX 84 46 39 47 83 48 40 49 41 50 42 51 77 52 43 53 82 54 76 55
REMARK SMILES IDX 78 56 44 57 81 58 75 59 74 60 45 62 67 63 52 64 66 65 53 66
REMARK SMILES IDX 56 67 65 68 79 69 54 70 55 71 64 73 80 74 57 75 46 76 47 77
REMARK SMILES IDX 51 78 48 79 50 80 49 81 68 82 69 83 73 84 70 85 72 86 71 87
REMARK SMILES IDX 58 88 59 89 63 90 60 91 62 92 61 93
REMARK H PARENT 27 6 4 23 34 42 78 61 56 72
REMARK Flexibility Score: inf
ROOT
ATOM      1  C   UNL A   1      34.861  30.847  27.232  1.00  0.00     0.021 C 
ENDROOT
BRANCH   1   2
ATOM      2  C   UNL A   1      34.024  29.578  27.418  1.00  0.00     0.116 C 
BRANCH   2   3
ATOM      3  N   UNL A   1      32.766  29.690  26.701  1.00  0.00    -0.352 N 
ATOM      4  C   UNL A   1      32.186  28.938  25.710  1.00  0.00     0.251 C 
ATOM      5  O   UNL A   1      31.070  29.278  25.316  1.00  0.00    -0.269 OA
ATOM      6  H   UNL A   1      32.221  30.460  26.981  1.00  0.00     0.163 HD
BRANCH   4   7
ATOM      7  C   UNL A   1      32.803  27.703  25.151  1.00  0.00     0.039 A 
ATOM      8  C   UNL A   1      34.161  25.387  24.381  1.00  0.00     0.067 A 
ATOM      9  C   UNL A   1      33.387  25.363  25.540  1.00  0.00     0.029 A 
ATOM     10  C   UNL A   1      34.167  26.508  23.547  1.00  0.00     0.029 A 
ATOM     11  C   UNL A   1      32.732  26.534  25.933  1.00  0.00     0.016 A 
ATOM     12  C   UNL A   1      33.445  27.643  23.913  1.00  0.00     0.016 A 
BRANCH   8  13
ATOM     13  N   UNL A   1      35.053  24.332  24.119  1.00  0.00    -0.217 N 
ATOM     14  C   UNL A   1      36.405  22.640  24.326  1.00  0.00     0.132 A 
ATOM     15  N   UNL A   1      35.991  22.714  23.024  1.00  0.00    -0.128 NA
ATOM     16  C   UNL A   1      35.825  23.668  25.053  1.00  0.00     0.071 A 
ATOM     17  N   UNL A   1      35.099  23.694  22.932  1.00  0.00    -0.061 NA
ATOM     18  C   UNL A   1      35.802  23.936  26.515  1.00  0.00     0.069 C 
BRANCH  14  19
ATOM     19  C   UNL A   1      37.156  21.528  24.888  1.00  0.00     0.087 C 
ATOM     20  C   UNL A   1      36.445  20.195  24.822  1.00  0.00     0.071 C 
ATOM     21  N   UNL A   1      38.305  21.816  25.436  1.00  0.00    -0.176 NA
BRANCH  21  22
ATOM     22  N   UNL A   1      39.058  20.883  26.112  1.00  0.00    -0.252 N 
ATOM     23  H   UNL A   1      38.591  20.042  26.320  1.00  0.00     0.193 HD
BRANCH  22  24
ATOM     24  C   UNL A   1      40.345  20.946  26.538  1.00  0.00     0.203 A 
ATOM     25  N   UNL A   1      40.877  21.925  27.229  1.00  0.00    -0.219 NA
ATOM     26  S   UNL A   1      41.486  19.738  26.055  1.00  0.00    -0.103 S 
ATOM     27  C   UNL A   1      42.250  21.915  27.104  1.00  0.00     0.084 A 
ATOM     28  C   UNL A   1      42.772  20.799  26.485  1.00  0.00     0.097 A 
BRANCH  27  29
ATOM     29  C   UNL A   1      43.006  23.082  27.515  1.00  0.00     0.001 A 
ATOM     30  C   UNL A   1      42.536  23.860  28.581  1.00  0.00     0.012 A 
ATOM     31  C   UNL A   1      44.109  23.524  26.771  1.00  0.00     0.012 A 
ATOM     32  C   UNL A   1      43.173  25.056  28.916  1.00  0.00     0.021 A 
ATOM     33  C   UNL A   1      44.739  24.728  27.101  1.00  0.00     0.021 A 
ATOM     34  C   UNL A   1      44.271  25.487  28.173  1.00  0.00     0.041 A 
ATOM     35  Cl  UNL A   1      45.039  26.975  28.566  1.00  0.00    -0.084 Cl
ENDBRANCH  27  29
ENDBRANCH  22  24
ENDBRANCH  21  22
ENDBRANCH  14  19
ENDBRANCH   8  13
ENDBRANCH   4   7
ENDBRANCH   2   3
ENDBRANCH   1   2
BRANCH   1  36
ATOM     36  C   UNL A   1      34.632  31.899  28.325  1.00  0.00     0.002 C 
BRANCH  36  37
ATOM     37  C   UNL A   1      35.397  33.218  28.139  1.00  0.00     0.002 C 
BRANCH  37  38
ATOM     38  C   UNL A   1      34.662  34.484  28.602  1.00  0.00     0.021 C 
BRANCH  38  39
ATOM     39  C   UNL A   1      33.325  34.198  29.277  1.00  0.00     0.116 C 
BRANCH  39  40
ATOM     40  N   UNL A   1      33.169  34.977  30.497  1.00  0.00    -0.352 N 
ATOM     41  C   UNL A   1      33.782  34.808  31.715  1.00  0.00     0.251 C 
ATOM     42  H   UNL A   1      32.537  35.729  30.441  1.00  0.00     0.163 HD
ATOM     43  O   UNL A   1      33.300  35.312  32.722  1.00  0.00    -0.269 OA
BRANCH  41  44
ATOM     44  C   UNL A   1      35.012  34.002  31.814  1.00  0.00     0.039 A 
ATOM     45  C   UNL A   1      34.908  32.610  31.870  1.00  0.00     0.014 A 
ATOM     46  C   UNL A   1      36.260  34.624  31.880  1.00  0.00     0.014 A 
ATOM     47  C   UNL A   1      36.067  31.843  31.913  1.00  0.00     0.010 A 
ATOM     48  C   UNL A   1      37.416  33.861  31.857  1.00  0.00     0.010 A 
ATOM     49  C   UNL A   1      37.323  32.469  31.876  1.00  0.00    -0.014 A 
BRANCH  49  50
ATOM     50  C   UNL A   1      38.514  31.643  31.665  1.00  0.00     0.031 A 
ATOM     51  C   UNL A   1      39.214  31.240  32.920  1.00  0.00     0.074 A 
ATOM     52  C   UNL A   1      38.870  31.082  30.491  1.00  0.00     0.049 A 
ATOM     53  N   UNL A   1      40.420  31.525  33.288  1.00  0.00    -0.248 NA
ATOM     54  C   UNL A   1      38.436  30.510  33.934  1.00  0.00     0.031 C 
ATOM     55  C   UNL A   1      38.124  31.088  29.230  1.00  0.00     0.029 A 
ATOM     56  N   UNL A   1      39.937  30.275  30.213  1.00  0.00    -0.354 N 
ATOM     57  C   UNL A   1      40.620  30.867  34.501  1.00  0.00     0.074 A 
ATOM     58  C   UNL A   1      39.328  30.387  34.918  1.00  0.00     0.031 C 
ATOM     59  C   UNL A   1      38.634  30.147  28.404  1.00  0.00     0.029 A 
ATOM     60  C   UNL A   1      39.827  29.584  29.012  1.00  0.00     0.049 A 
ATOM     61  H   UNL A   1      40.715  30.191  30.810  1.00  0.00     0.167 HD
ATOM     62  C   UNL A   1      41.869  30.566  34.952  1.00  0.00     0.031 A 
ATOM     63  C   UNL A   1      40.636  28.597  28.558  1.00  0.00     0.031 A 
ATOM     64  C   UNL A   1      42.881  31.318  34.254  1.00  0.00     0.049 A 
ATOM     65  C   UNL A   1      41.905  28.668  29.308  1.00  0.00     0.074 A 
ATOM     66  C   UNL A   1      43.188  32.653  34.096  1.00  0.00     0.029 A 
ATOM     67  N   UNL A   1      43.569  30.645  33.275  1.00  0.00    -0.354 N 
ATOM     68  N   UNL A   1      42.782  29.617  29.161  1.00  0.00    -0.248 NA
ATOM     69  C   UNL A   1      42.069  27.845  30.496  1.00  0.00     0.031 C 
ATOM     70  C   UNL A   1      43.702  32.762  32.770  1.00  0.00     0.029 A 
ATOM     71  C   UNL A   1      43.729  31.484  32.208  1.00  0.00     0.049 A 
ATOM     72  H   UNL A   1      43.893  29.718  33.332  1.00  0.00     0.167 HD
ATOM     73  C   UNL A   1      43.313  29.799  30.426  1.00  0.00     0.074 A 
ATOM     74  C   UNL A   1      42.958  28.589  31.160  1.00  0.00     0.031 C 
ATOM     75  C   UNL A   1      43.731  31.033  30.833  1.00  0.00     0.031 A 
BRANCH  62  76
ATOM     76  C   UNL A   1      42.213  29.279  35.676  1.00  0.00    -0.014 A 
ATOM     77  C   UNL A   1      43.292  29.288  36.583  1.00  0.00     0.009 A 
ATOM     78  C   UNL A   1      41.741  28.013  35.281  1.00  0.00     0.009 A 
ATOM     79  C   UNL A   1      43.934  28.106  36.973  1.00  0.00     0.001 A 
ATOM     80  C   UNL A   1      42.351  26.828  35.705  1.00  0.00     0.001 A 
ATOM     81  C   UNL A   1      43.471  26.876  36.520  1.00  0.00     0.000 A 
ENDBRANCH  62  76
BRANCH  63  82
ATOM     82  C   UNL A   1      40.348  27.478  27.636  1.00  0.00    -0.014 A 
ATOM     83  C   UNL A   1      41.177  27.239  26.527  1.00  0.00     0.009 A 
ATOM     84  C   UNL A   1      39.424  26.481  27.991  1.00  0.00     0.009 A 
ATOM     85  C   UNL A   1      41.118  26.023  25.832  1.00  0.00     0.001 A 
ATOM     86  C   UNL A   1      39.359  25.271  27.292  1.00  0.00     0.001 A 
ATOM     87  C   UNL A   1      40.219  25.036  26.225  1.00  0.00     0.000 A 
ENDBRANCH  63  82
BRANCH  75  88
ATOM     88  C   UNL A   1      43.958  32.088  29.780  1.00  0.00    -0.014 A 
ATOM     89  C   UNL A   1      45.053  32.082  28.898  1.00  0.00     0.009 A 
ATOM     90  C   UNL A   1      42.958  33.054  29.594  1.00  0.00     0.009 A 
ATOM     91  C   UNL A   1      45.158  33.038  27.885  1.00  0.00     0.001 A 
ATOM     92  C   UNL A   1      43.050  33.992  28.566  1.00  0.00     0.001 A 
ATOM     93  C   UNL A   1      44.154  33.990  27.716  1.00  0.00     0.000 A 
ENDBRANCH  75  88
ENDBRANCH  49  50
ENDBRANCH  41  44
ENDBRANCH  39  40
ENDBRANCH  38  39
ENDBRANCH  37  38
ENDBRANCH  36  37
ENDBRANCH   1  36
TORSDOF 18
ENDMDL
MODEL 2
REMARK VINA RESULT:     -10.7      3.880      9.785
REMARK SMILES C/C(=N\Nc1nc(-c2ccc(Cl)cc2)cs1)c1nnn(-c2ccc(C(=O)NCCCCCCNC(=O)c3ccc(-c4c5nc(c(-c6ccccc6)c6ccc([nH]6)c(-c6ccccc6)c6nc(c(-c7ccccc7)c7ccc4[nH]7)C=C6)C=C5)cc3)cc2)c1C
REMARK SMILES IDX 29 1 28 2 27 3 25 4 26 5 24 7 21 8 22 9 86 10 23 11 85 12
REMARK SMILES IDX 20 13 17 14 18 15 87 16 19 17 88 18 2 19 1 20 3 21 4 22 5 24
REMARK SMILES IDX 6 25 16 26 7 27 15 28 8 29 9 30 14 31 10 32 13 33 11 34
REMARK SMILES IDX 12 35 30 36 31 37 32 38 33 39 34 40 35 41 36 43 37 44 38 45
REMARK SMILES IDX 84 46 39 47 83 48 40 49 41 50 42 51 77 52 43 53 82 54 76 55
REMARK SMILES IDX 78 56 44 57 81 58 75 59 74 60 45 62 67 63 52 64 66 65 53 66
REMARK SMILES IDX 56 67 65 68 79 69 54 70 55 71 64 73 80 74 57 75 46 76 47 77
REMARK SMILES IDX 51 78 48 79 50 80 49 81 68 82 69 83 73 84 70 85 72 86 71 87
REMARK SMILES IDX 58 88 59 89 63 90 60 91 62 92 61 93
REMARK H PARENT 27 6 4 23 34 42 78 61 56 72
REMARK Flexibility Score: inf
ROOT
ATOM      1  C   UNL A   1      50.408  25.226  26.856  1.00  0.00     0.021 C 
ENDROOT
BRANCH   1   2
ATOM      2  C   UNL A   1      49.772  26.467  26.222  1.00  0.00     0.116 C 
BRANCH   2   3
ATOM      3  N   UNL A   1      49.272  26.159  24.895  1.00  0.00    -0.352 N 
ATOM      4  C   UNL A   1      48.101  25.600  24.444  1.00  0.00     0.251 C 
ATOM      5  O   UNL A   1      47.952  25.492  23.227  1.00  0.00    -0.269 OA
ATOM      6  H   UNL A   1      49.898  26.396  24.173  1.00  0.00     0.163 HD
BRANCH   4   7
ATOM      7  C   UNL A   1      46.987  25.196  25.346  1.00  0.00     0.039 A 
ATOM      8  C   UNL A   1      44.730  24.348  26.756  1.00  0.00     0.067 A 
ATOM      9  C   UNL A   1      45.461  23.413  26.025  1.00  0.00     0.029 A 
ATOM     10  C   UNL A   1      45.178  25.665  26.886  1.00  0.00     0.029 A 
ATOM     11  C   UNL A   1      46.574  23.850  25.301  1.00  0.00     0.016 A 
ATOM     12  C   UNL A   1      46.335  26.068  26.220  1.00  0.00     0.016 A 
BRANCH   8  13
ATOM     13  N   UNL A   1      43.459  24.005  27.250  1.00  0.00    -0.217 N 
ATOM     14  C   UNL A   1      41.311  23.767  27.503  1.00  0.00     0.132 A 
ATOM     15  N   UNL A   1      41.950  22.860  28.302  1.00  0.00    -0.128 NA
ATOM     16  C   UNL A   1      42.252  24.522  26.819  1.00  0.00     0.071 A 
ATOM     17  N   UNL A   1      43.255  22.956  28.070  1.00  0.00    -0.061 NA
ATOM     18  C   UNL A   1      42.097  25.505  25.714  1.00  0.00     0.069 C 
BRANCH  14  19
ATOM     19  C   UNL A   1      39.878  23.779  27.255  1.00  0.00     0.087 C 
ATOM     20  C   UNL A   1      39.162  25.008  27.768  1.00  0.00     0.071 C 
ATOM     21  N   UNL A   1      39.374  22.715  26.691  1.00  0.00    -0.176 NA
BRANCH  21  22
ATOM     22  N   UNL A   1      38.019  22.541  26.512  1.00  0.00    -0.252 N 
ATOM     23  H   UNL A   1      37.572  22.013  27.212  1.00  0.00     0.193 HD
BRANCH  22  24
ATOM     24  C   UNL A   1      37.207  22.986  25.520  1.00  0.00     0.203 A 
ATOM     25  N   UNL A   1      36.467  24.067  25.562  1.00  0.00    -0.219 NA
ATOM     26  S   UNL A   1      36.961  22.031  24.098  1.00  0.00    -0.103 S 
ATOM     27  C   UNL A   1      35.449  23.992  24.635  1.00  0.00     0.084 A 
ATOM     28  C   UNL A   1      35.544  22.942  23.747  1.00  0.00     0.097 A 
BRANCH  27  29
ATOM     29  C   UNL A   1      34.339  24.920  24.729  1.00  0.00     0.001 A 
ATOM     30  C   UNL A   1      34.063  25.768  23.650  1.00  0.00     0.012 A 
ATOM     31  C   UNL A   1      33.638  25.084  25.932  1.00  0.00     0.012 A 
ATOM     32  C   UNL A   1      33.083  26.756  23.760  1.00  0.00     0.021 A 
ATOM     33  C   UNL A   1      32.664  26.081  26.046  1.00  0.00     0.021 A 
ATOM     34  C   UNL A   1      32.389  26.910  24.958  1.00  0.00     0.041 A 
ATOM     35  Cl  UNL A   1      31.200  28.145  25.106  1.00  0.00    -0.084 Cl
ENDBRANCH  27  29
ENDBRANCH  22  24
ENDBRANCH  21  22
ENDBRANCH  14  19
ENDBRANCH   8  13
ENDBRANCH   4   7
ENDBRANCH   2   3
ENDBRANCH   1   2
BRANCH   1  36
ATOM     36  C   UNL A   1      50.065  25.052  28.342  1.00  0.00     0.002 C 
BRANCH  36  37
ATOM     37  C   UNL A   1      48.605  25.345  28.717  1.00  0.00     0.002 C 
BRANCH  37  38
ATOM     38  C   UNL A   1      48.382  26.581  29.601  1.00  0.00     0.021 C 
BRANCH  38  39
ATOM     39  C   UNL A   1      46.931  26.767  30.031  1.00  0.00     0.116 C 
BRANCH  39  40
ATOM     40  N   UNL A   1      46.314  25.495  30.380  1.00  0.00    -0.352 N 
ATOM     41  C   UNL A   1      45.067  25.254  30.904  1.00  0.00     0.251 C 
ATOM     42  H   UNL A   1      46.867  24.698  30.218  1.00  0.00     0.163 HD
ATOM     43  O   UNL A   1      44.828  24.187  31.459  1.00  0.00    -0.269 OA
BRANCH  41  44
ATOM     44  C   UNL A   1      44.020  26.286  30.818  1.00  0.00     0.039 A 
ATOM     45  C   UNL A   1      43.858  27.180  31.880  1.00  0.00     0.014 A 
ATOM     46  C   UNL A   1      43.183  26.353  29.702  1.00  0.00     0.014 A 
ATOM     47  C   UNL A   1      42.906  28.188  31.783  1.00  0.00     0.010 A 
ATOM     48  C   UNL A   1      42.280  27.394  29.575  1.00  0.00     0.010 A 
ATOM     49  C   UNL A   1      42.136  28.313  30.615  1.00  0.00    -0.014 A 
BRANCH  49  50
ATOM     50  C   UNL A   1      41.330  29.522  30.431  1.00  0.00     0.031 A 
ATOM     51  C   UNL A   1      42.120  30.744  30.101  1.00  0.00     0.074 A 
ATOM     52  C   UNL A   1      39.985  29.550  30.338  1.00  0.00     0.049 A 
ATOM     53  N   UNL A   1      42.217  31.840  30.778  1.00  0.00    -0.248 NA
ATOM     54  C   UNL A   1      42.989  30.696  28.913  1.00  0.00     0.031 C 
ATOM     55  C   UNL A   1      39.063  28.412  30.300  1.00  0.00     0.029 A 
ATOM     56  N   UNL A   1      39.160  30.621  30.133  1.00  0.00    -0.354 N 
ATOM     57  C   UNL A   1      43.019  32.693  30.022  1.00  0.00     0.074 A 
ATOM     58  C   UNL A   1      43.581  31.890  28.967  1.00  0.00     0.031 C 
ATOM     59  C   UNL A   1      37.854  28.829  29.862  1.00  0.00     0.029 A 
ATOM     60  C   UNL A   1      37.873  30.276  29.735  1.00  0.00     0.049 A 
ATOM     61  H   UNL A   1      39.451  31.552  30.256  1.00  0.00     0.167 HD
ATOM     62  C   UNL A   1      42.973  34.045  30.183  1.00  0.00     0.031 A 
ATOM     63  C   UNL A   1      36.900  31.111  29.300  1.00  0.00     0.031 A 
ATOM     64  C   UNL A   1      42.332  34.410  31.420  1.00  0.00     0.049 A 
ATOM     65  C   UNL A   1      37.246  32.479  29.734  1.00  0.00     0.074 A 
ATOM     66  C   UNL A   1      42.571  34.192  32.761  1.00  0.00     0.029 A 
ATOM     67  N   UNL A   1      41.030  34.837  31.326  1.00  0.00    -0.354 N 
ATOM     68  N   UNL A   1      37.204  32.879  30.971  1.00  0.00    -0.248 NA
ATOM     69  C   UNL A   1      37.978  33.344  28.823  1.00  0.00     0.031 C 
ATOM     70  C   UNL A   1      41.280  34.086  33.356  1.00  0.00     0.029 A 
ATOM     71  C   UNL A   1      40.324  34.295  32.361  1.00  0.00     0.049 A 
ATOM     72  H   UNL A   1      40.669  35.433  30.631  1.00  0.00     0.167 HD
ATOM     73  C   UNL A   1      38.254  33.774  31.083  1.00  0.00     0.074 A 
ATOM     74  C   UNL A   1      38.587  34.135  29.709  1.00  0.00     0.031 C 
ATOM     75  C   UNL A   1      38.934  33.904  32.260  1.00  0.00     0.031 A 
BRANCH  62  76
ATOM     76  C   UNL A   1      43.078  35.031  29.036  1.00  0.00    -0.014 A 
ATOM     77  C   UNL A   1      41.890  35.459  28.409  1.00  0.00     0.009 A 
ATOM     78  C   UNL A   1      44.277  35.308  28.353  1.00  0.00     0.009 A 
ATOM     79  C   UNL A   1      41.896  36.016  27.125  1.00  0.00     0.001 A 
ATOM     80  C   UNL A   1      44.290  35.906  27.089  1.00  0.00     0.001 A 
ATOM     81  C   UNL A   1      43.097  36.225  26.458  1.00  0.00     0.000 A 
ENDBRANCH  62  76
BRANCH  63  82
ATOM     82  C   UNL A   1      35.763  30.857  28.391  1.00  0.00    -0.014 A 
ATOM     83  C   UNL A   1      35.607  29.603  27.777  1.00  0.00     0.009 A 
ATOM     84  C   UNL A   1      34.682  31.753  28.335  1.00  0.00     0.009 A 
ATOM     85  C   UNL A   1      34.394  29.240  27.177  1.00  0.00     0.001 A 
ATOM     86  C   UNL A   1      33.473  31.394  27.728  1.00  0.00     0.001 A 
ATOM     87  C   UNL A   1      33.324  30.130  27.165  1.00  0.00     0.000 A 
ENDBRANCH  63  82
BRANCH  75  88
ATOM     88  C   UNL A   1      38.296  33.356  33.511  1.00  0.00    -0.014 A 
ATOM     89  C   UNL A   1      38.445  32.026  33.940  1.00  0.00     0.009 A 
ATOM     90  C   UNL A   1      37.623  34.256  34.351  1.00  0.00     0.009 A 
ATOM     91  C   UNL A   1      37.903  31.604  35.157  1.00  0.00     0.001 A 
ATOM     92  C   UNL A   1      37.105  33.841  35.578  1.00  0.00     0.001 A 
ATOM     93  C   UNL A   1      37.237  32.513  35.977  1.00  0.00     0.000 A 
ENDBRANCH  75  88
ENDBRANCH  49  50
ENDBRANCH  41  44
ENDBRANCH  39  40
ENDBRANCH  38  39
ENDBRANCH  37  38
ENDBRANCH  36  37
ENDBRANCH   1  36
TORSDOF 18
ENDMDL
MODEL 3
REMARK VINA RESULT:     -10.4      4.076     10.187
REMARK SMILES C/C(=N\Nc1nc(-c2ccc(Cl)cc2)cs1)c1nnn(-c2ccc(C(=O)NCCCCCCNC(=O)c3ccc(-c4c5nc(c(-c6ccccc6)c6ccc([nH]6)c(-c6ccccc6)c6nc(c(-c7ccccc7)c7ccc4[nH]7)C=C6)C=C5)cc3)cc2)c1C
REMARK SMILES IDX 29 1 28 2 27 3 25 4 26 5 24 7 21 8 22 9 86 10 23 11 85 12
REMARK SMILES IDX 20 13 17 14 18 15 87 16 19 17 88 18 2 19 1 20 3 21 4 22 5 24
REMARK SMILES IDX 6 25 16 26 7 27 15 28 8 29 9 30 14 31 10 32 13 33 11 34
REMARK SMILES IDX 12 35 30 36 31 37 32 38 33 39 34 40 35 41 36 43 37 44 38 45
REMARK SMILES IDX 84 46 39 47 83 48 40 49 41 50 42 51 77 52 43 53 82 54 76 55
REMARK SMILES IDX 78 56 44 57 81 58 75 59 74 60 45 62 67 63 52 64 66 65 53 66
REMARK SMILES IDX 56 67 65 68 79 69 54 70 55 71 64 73 80 74 57 75 46 76 47 77
REMARK SMILES IDX 51 78 48 79 50 80 49 81 68 82 69 83 73 84 70 85 72 86 71 87
REMARK SMILES IDX 58 88 59 89 63 90 60 91 62 92 61 93
REMARK H PARENT 27 6 4 23 34 42 78 61 56 72
REMARK Flexibility Score: inf
ROOT
ATOM      1  C   UNL A   1      42.152  28.068  32.563  1.00  0.00     0.021 C 
ENDROOT
BRANCH   1   2
ATOM      2  C   UNL A   1      40.796  28.655  32.157  1.00  0.00     0.116 C 
BRANCH   2   3
ATOM      3  N   UNL A   1      40.544  29.892  32.872  1.00  0.00    -0.352 N 
ATOM      4  C   UNL A   1      39.616  30.892  32.712  1.00  0.00     0.251 C 
ATOM      5  O   UNL A   1      39.637  31.824  33.516  1.00  0.00    -0.269 OA
ATOM      6  H   UNL A   1      41.163  30.047  33.623  1.00  0.00     0.163 HD
BRANCH   4   7
ATOM      7  C   UNL A   1      38.552  30.861  31.670  1.00  0.00     0.039 A 
ATOM      8  C   UNL A   1      36.554  31.143  29.739  1.00  0.00     0.067 A 
ATOM      9  C   UNL A   1      37.822  31.662  29.481  1.00  0.00     0.029 A 
ATOM     10  C   UNL A   1      36.310  30.388  30.889  1.00  0.00     0.029 A 
ATOM     11  C   UNL A   1      38.809  31.540  30.463  1.00  0.00     0.016 A 
ATOM     12  C   UNL A   1      37.328  30.208  31.824  1.00  0.00     0.016 A 
BRANCH   8  13
ATOM     13  N   UNL A   1      35.475  31.499  28.910  1.00  0.00    -0.217 N 
ATOM     14  C   UNL A   1      33.818  31.446  27.502  1.00  0.00     0.132 A 
ATOM     15  N   UNL A   1      33.741  32.604  28.226  1.00  0.00    -0.128 NA
ATOM     16  C   UNL A   1      34.923  30.718  27.913  1.00  0.00     0.071 A 
ATOM     17  N   UNL A   1      34.705  32.581  29.141  1.00  0.00    -0.061 NA
ATOM     18  C   UNL A   1      35.358  29.335  27.583  1.00  0.00     0.069 C 
BRANCH  14  19
ATOM     19  C   UNL A   1      32.777  30.968  26.605  1.00  0.00     0.087 C 
ATOM     20  C   UNL A   1      31.455  31.691  26.737  1.00  0.00     0.071 C 
ATOM     21  N   UNL A   1      33.078  29.944  25.854  1.00  0.00    -0.176 NA
BRANCH  21  22
ATOM     22  N   UNL A   1      32.152  29.315  25.053  1.00  0.00    -0.252 N 
ATOM     23  H   UNL A   1      31.215  29.559  25.229  1.00  0.00     0.193 HD
BRANCH  22  24
ATOM     24  C   UNL A   1      32.333  28.408  24.059  1.00  0.00     0.203 A 
ATOM     25  N   UNL A   1      31.897  27.171  24.062  1.00  0.00    -0.219 NA
ATOM     26  S   UNL A   1      33.330  28.789  22.698  1.00  0.00    -0.103 S 
ATOM     27  C   UNL A   1      32.613  26.404  23.167  1.00  0.00     0.084 A 
ATOM     28  C   UNL A   1      33.455  27.111  22.335  1.00  0.00     0.097 A 
BRANCH  27  29
ATOM     29  C   UNL A   1      32.517  24.960  23.240  1.00  0.00     0.001 A 
ATOM     30  C   UNL A   1      33.671  24.187  23.061  1.00  0.00     0.012 A 
ATOM     31  C   UNL A   1      31.270  24.325  23.336  1.00  0.00     0.012 A 
ATOM     32  C   UNL A   1      33.587  22.795  23.000  1.00  0.00     0.021 A 
ATOM     33  C   UNL A   1      31.185  22.932  23.263  1.00  0.00     0.021 A 
ATOM     34  C   UNL A   1      32.344  22.173  23.100  1.00  0.00     0.041 A 
ATOM     35  Cl  UNL A   1      32.234  20.459  22.996  1.00  0.00    -0.084 Cl
ENDBRANCH  27  29
ENDBRANCH  22  24
ENDBRANCH  21  22
ENDBRANCH  14  19
ENDBRANCH   8  13
ENDBRANCH   4   7
ENDBRANCH   2   3
ENDBRANCH   1   2
BRANCH   1  36
ATOM     36  C   UNL A   1      42.334  27.940  34.082  1.00  0.00     0.002 C 
BRANCH  36  37
ATOM     37  C   UNL A   1      41.989  26.564  34.670  1.00  0.00     0.002 C 
BRANCH  37  38
ATOM     38  C   UNL A   1      42.349  26.364  36.150  1.00  0.00     0.021 C 
BRANCH  38  39
ATOM     39  C   UNL A   1      42.893  24.975  36.461  1.00  0.00     0.116 C 
BRANCH  39  40
ATOM     40  N   UNL A   1      44.265  25.038  36.946  1.00  0.00    -0.352 N 
ATOM     41  C   UNL A   1      45.436  24.864  36.251  1.00  0.00     0.251 C 
ATOM     42  H   UNL A   1      44.366  25.233  37.905  1.00  0.00     0.163 HD
ATOM     43  O   UNL A   1      46.474  24.605  36.848  1.00  0.00    -0.269 OA
BRANCH  41  44
ATOM     44  C   UNL A   1      45.442  24.967  34.781  1.00  0.00     0.039 A 
ATOM     45  C   UNL A   1      45.258  23.811  34.018  1.00  0.00     0.014 A 
ATOM     46  C   UNL A   1      45.657  26.200  34.160  1.00  0.00     0.014 A 
ATOM     47  C   UNL A   1      45.211  23.910  32.632  1.00  0.00     0.010 A 
ATOM     48  C   UNL A   1      45.547  26.311  32.784  1.00  0.00     0.010 A 
ATOM     49  C   UNL A   1      45.327  25.167  32.016  1.00  0.00    -0.014 A 
BRANCH  49  50
ATOM     50  C   UNL A   1      45.021  25.280  30.588  1.00  0.00     0.031 A 
ATOM     51  C   UNL A   1      45.993  26.108  29.815  1.00  0.00     0.074 A 
ATOM     52  C   UNL A   1      44.095  24.551  29.933  1.00  0.00     0.049 A 
ATOM     53  N   UNL A   1      45.769  27.201  29.163  1.00  0.00    -0.248 NA
ATOM     54  C   UNL A   1      47.412  25.717  29.858  1.00  0.00     0.031 C 
ATOM     55  C   UNL A   1      43.281  23.452  30.459  1.00  0.00     0.029 A 
ATOM     56  N   UNL A   1      43.770  24.566  28.606  1.00  0.00    -0.354 N 
ATOM     57  C   UNL A   1      46.979  27.549  28.564  1.00  0.00     0.074 A 
ATOM     58  C   UNL A   1      47.979  26.690  29.144  1.00  0.00     0.031 C 
ATOM     59  C   UNL A   1      42.736  22.766  29.429  1.00  0.00     0.029 A 
ATOM     60  C   UNL A   1      43.035  23.462  28.190  1.00  0.00     0.049 A 
ATOM     61  H   UNL A   1      44.032  25.295  27.998  1.00  0.00     0.167 HD
ATOM     62  C   UNL A   1      47.027  28.357  27.469  1.00  0.00     0.031 A 
ATOM     63  C   UNL A   1      42.719  23.121  26.918  1.00  0.00     0.031 A 
ATOM     64  C   UNL A   1      45.787  29.066  27.278  1.00  0.00     0.049 A 
ATOM     65  C   UNL A   1      42.878  24.320  26.072  1.00  0.00     0.074 A 
ATOM     66  C   UNL A   1      45.049  29.979  28.000  1.00  0.00     0.029 A 
ATOM     67  N   UNL A   1      44.949  28.571  26.310  1.00  0.00    -0.354 N 
ATOM     68  N   UNL A   1      42.087  25.351  26.119  1.00  0.00    -0.248 NA
ATOM     69  C   UNL A   1      44.141  24.534  25.383  1.00  0.00     0.031 C 
ATOM     70  C   UNL A   1      43.688  29.673  27.705  1.00  0.00     0.029 A 
ATOM     71  C   UNL A   1      43.668  28.627  26.782  1.00  0.00     0.049 A 
ATOM     72  H   UNL A   1      45.223  28.235  25.427  1.00  0.00     0.167 HD
ATOM     73  C   UNL A   1      42.912  26.435  25.878  1.00  0.00     0.074 A 
ATOM     74  C   UNL A   1      44.115  25.865  25.281  1.00  0.00     0.031 C 
ATOM     75  C   UNL A   1      42.655  27.646  26.454  1.00  0.00     0.031 A 
BRANCH  62  76
ATOM     76  C   UNL A   1      47.999  28.159  26.321  1.00  0.00    -0.014 A 
ATOM     77  C   UNL A   1      47.747  27.119  25.402  1.00  0.00     0.009 A 
ATOM     78  C   UNL A   1      49.286  28.726  26.283  1.00  0.00     0.009 A 
ATOM     79  C   UNL A   1      48.759  26.601  24.584  1.00  0.00     0.001 A 
ATOM     80  C   UNL A   1      50.287  28.241  25.435  1.00  0.00     0.001 A 
ATOM     81  C   UNL A   1      50.034  27.154  24.613  1.00  0.00     0.000 A 
ENDBRANCH  62  76
BRANCH  63  82
ATOM     82  C   UNL A   1      42.445  21.794  26.327  1.00  0.00    -0.014 A 
ATOM     83  C   UNL A   1      43.495  21.009  25.821  1.00  0.00     0.009 A 
ATOM     84  C   UNL A   1      41.194  21.180  26.504  1.00  0.00     0.009 A 
ATOM     85  C   UNL A   1      43.311  19.646  25.552  1.00  0.00     0.001 A 
ATOM     86  C   UNL A   1      41.008  19.821  26.229  1.00  0.00     0.001 A 
ATOM     87  C   UNL A   1      42.071  19.051  25.770  1.00  0.00     0.000 A 
ENDBRANCH  63  82
BRANCH  75  88
ATOM     88  C   UNL A   1      41.282  27.879  27.031  1.00  0.00    -0.014 A 
ATOM     89  C   UNL A   1      40.799  27.221  28.176  1.00  0.00     0.009 A 
ATOM     90  C   UNL A   1      40.498  28.896  26.465  1.00  0.00     0.009 A 
ATOM     91  C   UNL A   1      39.551  27.549  28.713  1.00  0.00     0.001 A 
ATOM     92  C   UNL A   1      39.264  29.240  27.018  1.00  0.00     0.001 A 
ATOM     93  C   UNL A   1      38.787  28.561  28.137  1.00  0.00     0.000 A 
ENDBRANCH  75  88
ENDBRANCH  49  50
ENDBRANCH  41  44
ENDBRANCH  39  40
ENDBRANCH  38  39
ENDBRANCH  37  38
ENDBRANCH  36  37
ENDBRANCH   1  36
TORSDOF 18
ENDMDL
