MODEL 1
REMARK VINA RESULT:     -10.6      0.000      0.000
REMARK SMILES CCN(C)C(=O)Cn1ccc2c(C(=O)NCCCCCCNC(=O)c3ccc(-c4c5nc(c(-c6ccccc6)c6ccc([nH]6)c(-c6ccccc6)c6nc(c(-c7ccccc7)c7ccc4[nH]7)C=C6)C=C5)cc3)cccc21
REMARK SMILES IDX 17 1 16 2 15 3 13 4 14 5 12 7 8 8 9 9 76 10 10 11 11 12
REMARK SMILES IDX 75 13 74 14 73 15 7 16 5 17 6 18 3 19 4 20 2 21 1 22 18 23
REMARK SMILES IDX 19 24 20 25 21 26 22 27 23 28 24 30 25 31 26 32 72 33 27 34
REMARK SMILES IDX 71 35 28 36 29 37 30 38 65 39 31 40 70 41 64 42 66 43 32 44
REMARK SMILES IDX 69 45 63 46 62 47 33 49 55 50 40 51 54 52 41 53 44 54 53 55
REMARK SMILES IDX 67 56 42 57 43 58 52 60 68 61 45 62 34 63 35 64 39 65 36 66
REMARK SMILES IDX 38 67 37 68 56 69 57 70 61 71 58 72 60 73 59 74 46 75 47 76
REMARK SMILES IDX 51 77 48 78 50 79 49 80
REMARK H PARENT 15 6 22 29 66 48 44 59
REMARK Flexibility Score: inf
ROOT
ATOM      1  C   UNL A   1      35.315  20.707  25.323  1.00  0.00     0.021 C 
ENDROOT
BRANCH   1   2
ATOM      2  C   UNL A   1      33.797  20.517  25.266  1.00  0.00     0.116 C 
BRANCH   2   3
ATOM      3  N   UNL A   1      33.196  21.122  26.442  1.00  0.00    -0.352 N 
ATOM      4  C   UNL A   1      33.024  22.421  26.847  1.00  0.00     0.251 C 
ATOM      5  O   UNL A   1      32.586  22.587  27.990  1.00  0.00    -0.269 OA
ATOM      6  H   UNL A   1      32.839  20.463  27.080  1.00  0.00     0.163 HD
BRANCH   4   7
ATOM      7  C   UNL A   1      33.260  23.586  25.952  1.00  0.00     0.049 A 
ATOM      8  N   UNL A   1      31.566  25.074  23.170  1.00  0.00    -0.338 N 
ATOM      9  C   UNL A   1      30.609  24.128  23.462  1.00  0.00     0.087 A 
ATOM     10  C   UNL A   1      32.682  24.837  23.949  1.00  0.00     0.049 A 
ATOM     11  C   UNL A   1      31.068  23.363  24.507  1.00  0.00     0.029 A 
ATOM     12  C   UNL A   1      32.343  23.866  24.902  1.00  0.00     0.012 A 
ATOM     13  C   UNL A   1      33.957  25.410  23.937  1.00  0.00     0.027 A 
ATOM     14  C   UNL A   1      34.742  25.297  25.074  1.00  0.00     0.003 A 
ATOM     15  C   UNL A   1      34.351  24.456  26.101  1.00  0.00     0.014 A 
BRANCH   8  16
ATOM     16  C   UNL A   1      31.243  26.266  22.373  1.00  0.00     0.222 C 
BRANCH  16  17
ATOM     17  C   UNL A   1      30.742  27.496  23.109  1.00  0.00     0.242 C 
ATOM     18  O   UNL A   1      29.527  27.646  23.278  1.00  0.00    -0.273 OA
BRANCH  17  19
ATOM     19  N   UNL A   1      31.664  28.427  23.599  1.00  0.00    -0.344 N 
ATOM     20  C   UNL A   1      32.858  28.838  22.866  1.00  0.00     0.146 C 
BRANCH  19  21
ATOM     21  C   UNL A   1      31.527  28.899  24.983  1.00  0.00     0.115 C 
ATOM     22  C   UNL A   1      31.786  27.830  26.044  1.00  0.00     0.027 C 
ENDBRANCH  19  21
ENDBRANCH  17  19
ENDBRANCH  16  17
ENDBRANCH   8  16
ENDBRANCH   4   7
ENDBRANCH   2   3
ENDBRANCH   1   2
BRANCH   1  23
ATOM     23  C   UNL A   1      35.813  21.690  24.257  1.00  0.00     0.002 C 
BRANCH  23  24
ATOM     24  C   UNL A   1      37.150  22.360  24.600  1.00  0.00     0.002 C 
BRANCH  24  25
ATOM     25  C   UNL A   1      38.108  21.496  25.427  1.00  0.00     0.021 C 
BRANCH  25  26
ATOM     26  C   UNL A   1      39.054  22.306  26.314  1.00  0.00     0.116 C 
BRANCH  26  27
ATOM     27  N   UNL A   1      40.442  22.189  25.922  1.00  0.00    -0.352 N 
ATOM     28  C   UNL A   1      41.565  22.938  26.124  1.00  0.00     0.251 C 
ATOM     29  H   UNL A   1      40.617  21.383  25.386  1.00  0.00     0.163 HD
ATOM     30  O   UNL A   1      42.609  22.496  25.638  1.00  0.00    -0.269 OA
BRANCH  28  31
ATOM     31  C   UNL A   1      41.604  24.254  26.817  1.00  0.00     0.039 A 
ATOM     32  C   UNL A   1      42.307  24.547  27.986  1.00  0.00     0.014 A 
ATOM     33  C   UNL A   1      40.822  25.269  26.232  1.00  0.00     0.014 A 
ATOM     34  C   UNL A   1      42.147  25.778  28.614  1.00  0.00     0.010 A 
ATOM     35  C   UNL A   1      40.679  26.509  26.838  1.00  0.00     0.010 A 
ATOM     36  C   UNL A   1      41.303  26.742  28.057  1.00  0.00    -0.014 A 
BRANCH  36  37
ATOM     37  C   UNL A   1      41.203  28.040  28.718  1.00  0.00     0.031 A 
ATOM     38  C   UNL A   1      42.236  29.023  28.292  1.00  0.00     0.074 A 
ATOM     39  C   UNL A   1      40.201  28.372  29.556  1.00  0.00     0.049 A 
ATOM     40  N   UNL A   1      43.137  29.588  29.024  1.00  0.00    -0.248 NA
ATOM     41  C   UNL A   1      42.356  29.324  26.855  1.00  0.00     0.031 C 
ATOM     42  C   UNL A   1      38.990  27.597  29.845  1.00  0.00     0.029 A 
ATOM     43  N   UNL A   1      39.998  29.530  30.250  1.00  0.00    -0.354 N 
ATOM     44  C   UNL A   1      43.835  30.448  28.180  1.00  0.00     0.074 A 
ATOM     45  C   UNL A   1      43.406  30.145  26.840  1.00  0.00     0.031 C 
ATOM     46  C   UNL A   1      38.080  28.396  30.448  1.00  0.00     0.029 A 
ATOM     47  C   UNL A   1      38.702  29.677  30.732  1.00  0.00     0.049 A 
ATOM     48  H   UNL A   1      40.704  30.200  30.397  1.00  0.00     0.167 HD
ATOM     49  C   UNL A   1      44.548  31.499  28.672  1.00  0.00     0.031 A 
ATOM     50  C   UNL A   1      38.166  30.788  31.293  1.00  0.00     0.031 A 
ATOM     51  C   UNL A   1      44.758  31.374  30.088  1.00  0.00     0.049 A 
ATOM     52  C   UNL A   1      39.276  31.619  31.801  1.00  0.00     0.074 A 
ATOM     53  C   UNL A   1      45.566  30.620  30.907  1.00  0.00     0.029 A 
ATOM     54  N   UNL A   1      43.743  31.881  30.858  1.00  0.00    -0.354 N 
ATOM     55  N   UNL A   1      40.039  31.262  32.790  1.00  0.00    -0.248 NA
ATOM     56  C   UNL A   1      39.764  32.735  31.002  1.00  0.00     0.031 C 
ATOM     57  C   UNL A   1      44.851  30.481  32.132  1.00  0.00     0.029 A 
ATOM     58  C   UNL A   1      43.656  31.196  32.040  1.00  0.00     0.049 A 
ATOM     59  H   UNL A   1      43.161  32.630  30.596  1.00  0.00     0.167 HD
ATOM     60  C   UNL A   1      41.276  31.783  32.468  1.00  0.00     0.074 A 
ATOM     61  C   UNL A   1      41.007  32.824  31.483  1.00  0.00     0.031 C 
ATOM     62  C   UNL A   1      42.419  31.113  32.791  1.00  0.00     0.031 A 
BRANCH  49  63
ATOM     63  C   UNL A   1      44.664  32.839  27.983  1.00  0.00    -0.014 A 
ATOM     64  C   UNL A   1      45.620  33.119  26.989  1.00  0.00     0.009 A 
ATOM     65  C   UNL A   1      43.609  33.764  28.115  1.00  0.00     0.009 A 
ATOM     66  C   UNL A   1      45.529  34.244  26.163  1.00  0.00     0.001 A 
ATOM     67  C   UNL A   1      43.495  34.874  27.267  1.00  0.00     0.001 A 
ATOM     68  C   UNL A   1      44.454  35.111  26.289  1.00  0.00     0.000 A 
ENDBRANCH  49  63
BRANCH  50  69
ATOM     69  C   UNL A   1      36.794  31.323  31.195  1.00  0.00    -0.014 A 
ATOM     70  C   UNL A   1      36.273  31.669  29.935  1.00  0.00     0.009 A 
ATOM     71  C   UNL A   1      36.127  31.799  32.337  1.00  0.00     0.009 A 
ATOM     72  C   UNL A   1      35.168  32.518  29.820  1.00  0.00     0.001 A 
ATOM     73  C   UNL A   1      35.019  32.649  32.219  1.00  0.00     0.001 A 
ATOM     74  C   UNL A   1      34.555  33.025  30.961  1.00  0.00     0.000 A 
ENDBRANCH  50  69
BRANCH  62  75
ATOM     75  C   UNL A   1      42.335  30.054  33.859  1.00  0.00    -0.014 A 
ATOM     76  C   UNL A   1      42.042  28.742  33.453  1.00  0.00     0.009 A 
ATOM     77  C   UNL A   1      42.408  30.326  35.235  1.00  0.00     0.009 A 
ATOM     78  C   UNL A   1      41.808  27.737  34.391  1.00  0.00     0.001 A 
ATOM     79  C   UNL A   1      42.204  29.311  36.175  1.00  0.00     0.001 A 
ATOM     80  C   UNL A   1      41.892  28.020  35.753  1.00  0.00     0.000 A 
ENDBRANCH  62  75
ENDBRANCH  36  37
ENDBRANCH  28  31
ENDBRANCH  26  27
ENDBRANCH  25  26
ENDBRANCH  24  25
ENDBRANCH  23  24
ENDBRANCH   1  23
TORSDOF 17
ENDMDL
MODEL 2
REMARK VINA RESULT:     -10.5      1.582      2.281
REMARK SMILES CCN(C)C(=O)Cn1ccc2c(C(=O)NCCCCCCNC(=O)c3ccc(-c4c5nc(c(-c6ccccc6)c6ccc([nH]6)c(-c6ccccc6)c6nc(c(-c7ccccc7)c7ccc4[nH]7)C=C6)C=C5)cc3)cccc21
REMARK SMILES IDX 17 1 16 2 15 3 13 4 14 5 12 7 8 8 9 9 76 10 10 11 11 12
REMARK SMILES IDX 75 13 74 14 73 15 7 16 5 17 6 18 3 19 4 20 2 21 1 22 18 23
REMARK SMILES IDX 19 24 20 25 21 26 22 27 23 28 24 30 25 31 26 32 72 33 27 34
REMARK SMILES IDX 71 35 28 36 29 37 30 38 65 39 31 40 70 41 64 42 66 43 32 44
REMARK SMILES IDX 69 45 63 46 62 47 33 49 55 50 40 51 54 52 41 53 44 54 53 55
REMARK SMILES IDX 67 56 42 57 43 58 52 60 68 61 45 62 34 63 35 64 39 65 36 66
REMARK SMILES IDX 38 67 37 68 56 69 57 70 61 71 58 72 60 73 59 74 46 75 47 76
REMARK SMILES IDX 51 77 48 78 50 79 49 80
REMARK H PARENT 15 6 22 29 66 48 44 59
REMARK Flexibility Score: inf
ROOT
ATOM      1  C   UNL A   1      35.126  23.729  24.465  1.00  0.00     0.021 C 
ENDROOT
BRANCH   1   2
ATOM      2  C   UNL A   1      34.618  24.789  25.447  1.00  0.00     0.116 C 
BRANCH   2   3
ATOM      3  N   UNL A   1      33.395  24.314  26.071  1.00  0.00    -0.352 N 
ATOM      4  C   UNL A   1      32.232  24.932  26.454  1.00  0.00     0.251 C 
ATOM      5  O   UNL A   1      31.429  24.246  27.093  1.00  0.00    -0.269 OA
ATOM      6  H   UNL A   1      33.403  23.347  26.257  1.00  0.00     0.163 HD
BRANCH   4   7
ATOM      7  C   UNL A   1      31.889  26.326  26.061  1.00  0.00     0.049 A 
ATOM      8  N   UNL A   1      31.178  28.030  22.992  1.00  0.00    -0.338 N 
ATOM      9  C   UNL A   1      31.264  26.762  22.463  1.00  0.00     0.087 A 
ATOM     10  C   UNL A   1      31.568  27.990  24.317  1.00  0.00     0.049 A 
ATOM     11  C   UNL A   1      31.594  25.896  23.478  1.00  0.00     0.029 A 
ATOM     12  C   UNL A   1      31.689  26.643  24.689  1.00  0.00     0.012 A 
ATOM     13  C   UNL A   1      31.792  29.009  25.247  1.00  0.00     0.027 A 
ATOM     14  C   UNL A   1      31.764  28.691  26.595  1.00  0.00     0.003 A 
ATOM     15  C   UNL A   1      31.730  27.365  26.991  1.00  0.00     0.014 A 
BRANCH   8  16
ATOM     16  C   UNL A   1      30.490  29.111  22.273  1.00  0.00     0.222 C 
BRANCH  16  17
ATOM     17  C   UNL A   1      29.044  29.398  22.639  1.00  0.00     0.242 C 
ATOM     18  O   UNL A   1      28.328  28.474  23.041  1.00  0.00    -0.273 OA
BRANCH  17  19
ATOM     19  N   UNL A   1      28.554  30.704  22.534  1.00  0.00    -0.344 N 
ATOM     20  C   UNL A   1      27.640  31.299  23.505  1.00  0.00     0.146 C 
BRANCH  19  21
ATOM     21  C   UNL A   1      28.829  31.469  21.310  1.00  0.00     0.115 C 
ATOM     22  C   UNL A   1      27.770  32.516  20.968  1.00  0.00     0.027 C 
ENDBRANCH  19  21
ENDBRANCH  17  19
ENDBRANCH  16  17
ENDBRANCH   8  16
ENDBRANCH   4   7
ENDBRANCH   2   3
ENDBRANCH   1   2
BRANCH   1  23
ATOM     23  C   UNL A   1      34.624  22.325  24.824  1.00  0.00     0.002 C 
BRANCH  23  24
ATOM     24  C   UNL A   1      35.710  21.244  24.785  1.00  0.00     0.002 C 
BRANCH  24  25
ATOM     25  C   UNL A   1      37.136  21.771  24.590  1.00  0.00     0.021 C 
BRANCH  25  26
ATOM     26  C   UNL A   1      37.845  22.119  25.899  1.00  0.00     0.116 C 
BRANCH  26  27
ATOM     27  N   UNL A   1      39.276  21.911  25.844  1.00  0.00    -0.352 N 
ATOM     28  C   UNL A   1      40.365  22.585  26.316  1.00  0.00     0.251 C 
ATOM     29  H   UNL A   1      39.520  21.094  25.354  1.00  0.00     0.163 HD
ATOM     30  O   UNL A   1      41.464  22.075  26.084  1.00  0.00    -0.269 OA
BRANCH  28  31
ATOM     31  C   UNL A   1      40.323  23.896  27.016  1.00  0.00     0.039 A 
ATOM     32  C   UNL A   1      39.292  24.835  26.943  1.00  0.00     0.014 A 
ATOM     33  C   UNL A   1      41.458  24.205  27.792  1.00  0.00     0.014 A 
ATOM     34  C   UNL A   1      39.438  26.087  27.532  1.00  0.00     0.010 A 
ATOM     35  C   UNL A   1      41.598  25.442  28.405  1.00  0.00     0.010 A 
ATOM     36  C   UNL A   1      40.607  26.400  28.230  1.00  0.00    -0.014 A 
BRANCH  36  37
ATOM     37  C   UNL A   1      40.698  27.704  28.878  1.00  0.00     0.031 A 
ATOM     38  C   UNL A   1      41.680  28.631  28.252  1.00  0.00     0.074 A 
ATOM     39  C   UNL A   1      39.889  28.091  29.884  1.00  0.00     0.049 A 
ATOM     40  N   UNL A   1      42.730  29.152  28.795  1.00  0.00    -0.248 NA
ATOM     41  C   UNL A   1      41.543  28.919  26.815  1.00  0.00     0.031 C 
ATOM     42  C   UNL A   1      38.717  27.382  30.406  1.00  0.00     0.029 A 
ATOM     43  N   UNL A   1      39.877  29.262  30.588  1.00  0.00    -0.354 N 
ATOM     44  C   UNL A   1      43.299  29.971  27.823  1.00  0.00     0.074 A 
ATOM     45  C   UNL A   1      42.611  29.684  26.592  1.00  0.00     0.031 C 
ATOM     46  C   UNL A   1      37.976  28.230  31.157  1.00  0.00     0.029 A 
ATOM     47  C   UNL A   1      38.704  29.479  31.301  1.00  0.00     0.049 A 
ATOM     48  H   UNL A   1      40.632  29.895  30.590  1.00  0.00     0.167 HD
ATOM     49  C   UNL A   1      44.143  30.986  28.157  1.00  0.00     0.031 A 
ATOM     50  C   UNL A   1      38.339  30.618  31.937  1.00  0.00     0.031 A 
ATOM     51  C   UNL A   1      44.608  30.857  29.511  1.00  0.00     0.049 A 
ATOM     52  C   UNL A   1      39.564  31.393  32.216  1.00  0.00     0.074 A 
ATOM     53  C   UNL A   1      45.517  30.066  30.175  1.00  0.00     0.029 A 
ATOM     54  N   UNL A   1      43.782  31.419  30.450  1.00  0.00    -0.354 N 
ATOM     55  N   UNL A   1      40.481  31.002  33.050  1.00  0.00    -0.248 NA
ATOM     56  C   UNL A   1      39.949  32.478  31.324  1.00  0.00     0.031 C 
ATOM     57  C   UNL A   1      45.038  29.970  31.514  1.00  0.00     0.029 A 
ATOM     58  C   UNL A   1      43.885  30.745  31.637  1.00  0.00     0.049 A 
ATOM     59  H   UNL A   1      43.200  32.196  30.291  1.00  0.00     0.167 HD
ATOM     60  C   UNL A   1      41.660  31.457  32.495  1.00  0.00     0.074 A 
ATOM     61  C   UNL A   1      41.263  32.505  31.563  1.00  0.00     0.031 C 
ATOM     62  C   UNL A   1      42.808  30.730  32.607  1.00  0.00     0.031 A 
BRANCH  49  63
ATOM     63  C   UNL A   1      44.194  32.315  27.440  1.00  0.00    -0.014 A 
ATOM     64  C   UNL A   1      44.361  32.438  26.048  1.00  0.00     0.009 A 
ATOM     65  C   UNL A   1      43.775  33.472  28.125  1.00  0.00     0.009 A 
ATOM     66  C   UNL A   1      44.113  33.636  25.371  1.00  0.00     0.001 A 
ATOM     67  C   UNL A   1      43.493  34.666  27.446  1.00  0.00     0.001 A 
ATOM     68  C   UNL A   1      43.659  34.746  26.068  1.00  0.00     0.000 A 
ENDBRANCH  49  63
BRANCH  50  69
ATOM     69  C   UNL A   1      37.001  31.223  32.090  1.00  0.00    -0.014 A 
ATOM     70  C   UNL A   1      36.232  31.504  30.946  1.00  0.00     0.009 A 
ATOM     71  C   UNL A   1      36.619  31.820  33.303  1.00  0.00     0.009 A 
ATOM     72  C   UNL A   1      35.165  32.405  30.998  1.00  0.00     0.001 A 
ATOM     73  C   UNL A   1      35.548  32.721  33.354  1.00  0.00     0.001 A 
ATOM     74  C   UNL A   1      34.836  33.030  32.197  1.00  0.00     0.000 A 
ENDBRANCH  50  69
BRANCH  62  75
ATOM     75  C   UNL A   1      42.873  29.681  33.687  1.00  0.00    -0.014 A 
ATOM     76  C   UNL A   1      42.372  28.405  33.387  1.00  0.00     0.009 A 
ATOM     77  C   UNL A   1      43.288  29.942  35.004  1.00  0.00     0.009 A 
ATOM     78  C   UNL A   1      42.268  27.425  34.373  1.00  0.00     0.001 A 
ATOM     79  C   UNL A   1      43.211  28.949  35.986  1.00  0.00     0.001 A 
ATOM     80  C   UNL A   1      42.690  27.696  35.673  1.00  0.00     0.000 A 
ENDBRANCH  62  75
ENDBRANCH  36  37
ENDBRANCH  28  31
ENDBRANCH  26  27
ENDBRANCH  25  26
ENDBRANCH  24  25
ENDBRANCH  23  24
ENDBRANCH   1  23
TORSDOF 17
ENDMDL
MODEL 3
REMARK VINA RESULT:     -10.5      2.361      7.830
REMARK SMILES CCN(C)C(=O)Cn1ccc2c(C(=O)NCCCCCCNC(=O)c3ccc(-c4c5nc(c(-c6ccccc6)c6ccc([nH]6)c(-c6ccccc6)c6nc(c(-c7ccccc7)c7ccc4[nH]7)C=C6)C=C5)cc3)cccc21
REMARK SMILES IDX 17 1 16 2 15 3 13 4 14 5 12 7 8 8 9 9 76 10 10 11 11 12
REMARK SMILES IDX 75 13 74 14 73 15 7 16 5 17 6 18 3 19 4 20 2 21 1 22 18 23
REMARK SMILES IDX 19 24 20 25 21 26 22 27 23 28 24 30 25 31 26 32 72 33 27 34
REMARK SMILES IDX 71 35 28 36 29 37 30 38 65 39 31 40 70 41 64 42 66 43 32 44
REMARK SMILES IDX 69 45 63 46 62 47 33 49 55 50 40 51 54 52 41 53 44 54 53 55
REMARK SMILES IDX 67 56 42 57 43 58 52 60 68 61 45 62 34 63 35 64 39 65 36 66
REMARK SMILES IDX 38 67 37 68 56 69 57 70 61 71 58 72 60 73 59 74 46 75 47 76
REMARK SMILES IDX 51 77 48 78 50 79 49 80
REMARK H PARENT 15 6 22 29 66 48 44 59
REMARK Flexibility Score: inf
ROOT
ATOM      1  C   UNL A   1      31.435  26.176  26.444  1.00  0.00     0.021 C 
ENDROOT
BRANCH   1   2
ATOM      2  C   UNL A   1      30.296  25.514  25.663  1.00  0.00     0.116 C 
BRANCH   2   3
ATOM      3  N   UNL A   1      30.247  24.101  25.998  1.00  0.00    -0.352 N 
ATOM      4  C   UNL A   1      30.904  22.997  25.517  1.00  0.00     0.251 C 
ATOM      5  O   UNL A   1      30.521  21.902  25.938  1.00  0.00    -0.269 OA
ATOM      6  H   UNL A   1      29.611  23.893  26.719  1.00  0.00     0.163 HD
BRANCH   4   7
ATOM      7  C   UNL A   1      32.077  23.087  24.604  1.00  0.00     0.049 A 
ATOM      8  N   UNL A   1      35.634  22.869  24.959  1.00  0.00    -0.338 N 
ATOM      9  C   UNL A   1      35.316  22.556  26.262  1.00  0.00     0.087 A 
ATOM     10  C   UNL A   1      34.483  23.254  24.298  1.00  0.00     0.049 A 
ATOM     11  C   UNL A   1      33.950  22.627  26.398  1.00  0.00     0.029 A 
ATOM     12  C   UNL A   1      33.392  22.967  25.131  1.00  0.00     0.012 A 
ATOM     13  C   UNL A   1      34.284  23.795  23.025  1.00  0.00     0.027 A 
ATOM     14  C   UNL A   1      33.025  23.697  22.455  1.00  0.00     0.003 A 
ATOM     15  C   UNL A   1      31.953  23.269  23.218  1.00  0.00     0.014 A 
BRANCH   8  16
ATOM     16  C   UNL A   1      36.945  22.529  24.391  1.00  0.00     0.222 C 
BRANCH  16  17
ATOM     17  C   UNL A   1      37.865  21.644  25.213  1.00  0.00     0.242 C 
ATOM     18  O   UNL A   1      37.769  20.416  25.114  1.00  0.00    -0.273 OA
BRANCH  17  19
ATOM     19  N   UNL A   1      38.819  22.232  26.051  1.00  0.00    -0.344 N 
ATOM     20  C   UNL A   1      38.774  23.634  26.459  1.00  0.00     0.146 C 
BRANCH  19  21
ATOM     21  C   UNL A   1      40.017  21.463  26.412  1.00  0.00     0.115 C 
ATOM     22  C   UNL A   1      40.764  21.993  27.635  1.00  0.00     0.027 C 
ENDBRANCH  19  21
ENDBRANCH  17  19
ENDBRANCH  16  17
ENDBRANCH   8  16
ENDBRANCH   4   7
ENDBRANCH   2   3
ENDBRANCH   1   2
BRANCH   1  23
ATOM     23  C   UNL A   1      32.646  26.474  25.552  1.00  0.00     0.002 C 
BRANCH  23  24
ATOM     24  C   UNL A   1      33.709  27.358  26.217  1.00  0.00     0.002 C 
BRANCH  24  25
ATOM     25  C   UNL A   1      33.153  28.539  27.019  1.00  0.00     0.021 C 
BRANCH  25  26
ATOM     26  C   UNL A   1      33.419  29.899  26.373  1.00  0.00     0.116 C 
BRANCH  26  27
ATOM     27  N   UNL A   1      33.563  30.969  27.336  1.00  0.00    -0.352 N 
ATOM     28  C   UNL A   1      34.581  31.424  28.123  1.00  0.00     0.251 C 
ATOM     29  H   UNL A   1      32.735  31.488  27.451  1.00  0.00     0.163 HD
ATOM     30  O   UNL A   1      34.329  32.405  28.826  1.00  0.00    -0.269 OA
BRANCH  28  31
ATOM     31  C   UNL A   1      35.922  30.791  28.238  1.00  0.00     0.039 A 
ATOM     32  C   UNL A   1      36.240  29.472  27.912  1.00  0.00     0.014 A 
ATOM     33  C   UNL A   1      36.938  31.617  28.758  1.00  0.00     0.014 A 
ATOM     34  C   UNL A   1      37.501  28.959  28.201  1.00  0.00     0.010 A 
ATOM     35  C   UNL A   1      38.206  31.120  29.023  1.00  0.00     0.010 A 
ATOM     36  C   UNL A   1      38.469  29.776  28.791  1.00  0.00    -0.014 A 
BRANCH  36  37
ATOM     37  C   UNL A   1      39.795  29.216  29.029  1.00  0.00     0.031 A 
ATOM     38  C   UNL A   1      40.085  28.915  30.457  1.00  0.00     0.074 A 
ATOM     39  C   UNL A   1      40.651  28.887  28.040  1.00  0.00     0.049 A 
ATOM     40  N   UNL A   1      41.016  29.420  31.196  1.00  0.00    -0.248 NA
ATOM     41  C   UNL A   1      39.155  28.034  31.182  1.00  0.00     0.031 C 
ATOM     42  C   UNL A   1      40.384  28.882  26.598  1.00  0.00     0.029 A 
ATOM     43  N   UNL A   1      41.916  28.379  28.119  1.00  0.00    -0.354 N 
ATOM     44  C   UNL A   1      40.900  28.799  32.438  1.00  0.00     0.074 A 
ATOM     45  C   UNL A   1      39.663  28.063  32.414  1.00  0.00     0.031 C 
ATOM     46  C   UNL A   1      41.348  28.175  25.965  1.00  0.00     0.029 A 
ATOM     47  C   UNL A   1      42.376  27.824  26.930  1.00  0.00     0.049 A 
ATOM     48  H   UNL A   1      42.454  28.404  28.944  1.00  0.00     0.167 HD
ATOM     49  C   UNL A   1      41.946  28.757  33.309  1.00  0.00     0.031 A 
ATOM     50  C   UNL A   1      43.506  27.097  26.758  1.00  0.00     0.031 A 
ATOM     51  C   UNL A   1      42.973  29.692  32.941  1.00  0.00     0.049 A 
ATOM     52  C   UNL A   1      44.429  27.424  27.862  1.00  0.00     0.074 A 
ATOM     53  C   UNL A   1      43.145  31.055  33.014  1.00  0.00     0.029 A 
ATOM     54  N   UNL A   1      43.885  29.206  32.039  1.00  0.00    -0.354 N 
ATOM     55  N   UNL A   1      44.982  28.592  28.007  1.00  0.00    -0.248 NA
ATOM     56  C   UNL A   1      44.507  26.545  29.020  1.00  0.00     0.031 C 
ATOM     57  C   UNL A   1      44.009  31.393  31.932  1.00  0.00     0.029 A 
ATOM     58  C   UNL A   1      44.378  30.223  31.266  1.00  0.00     0.049 A 
ATOM     59  H   UNL A   1      44.146  28.260  31.960  1.00  0.00     0.167 HD
ATOM     60  C   UNL A   1      45.064  28.760  29.375  1.00  0.00     0.074 A 
ATOM     61  C   UNL A   1      44.946  27.418  29.932  1.00  0.00     0.031 C 
ATOM     62  C   UNL A   1      44.903  29.992  29.936  1.00  0.00     0.031 A 
BRANCH  49  63
ATOM     63  C   UNL A   1      42.249  27.584  34.212  1.00  0.00    -0.014 A 
ATOM     64  C   UNL A   1      43.145  26.554  33.870  1.00  0.00     0.009 A 
ATOM     65  C   UNL A   1      41.855  27.648  35.563  1.00  0.00     0.009 A 
ATOM     66  C   UNL A   1      43.635  25.647  34.816  1.00  0.00     0.001 A 
ATOM     67  C   UNL A   1      42.370  26.763  36.521  1.00  0.00     0.001 A 
ATOM     68  C   UNL A   1      43.263  25.766  36.147  1.00  0.00     0.000 A 
ENDBRANCH  49  63
BRANCH  50  69
ATOM     69  C   UNL A   1      43.755  25.944  25.869  1.00  0.00    -0.014 A 
ATOM     70  C   UNL A   1      42.780  24.939  25.746  1.00  0.00     0.009 A 
ATOM     71  C   UNL A   1      45.053  25.662  25.411  1.00  0.00     0.009 A 
ATOM     72  C   UNL A   1      43.105  23.674  25.249  1.00  0.00     0.001 A 
ATOM     73  C   UNL A   1      45.378  24.394  24.910  1.00  0.00     0.001 A 
ATOM     74  C   UNL A   1      44.408  23.394  24.851  1.00  0.00     0.000 A 
ENDBRANCH  50  69
BRANCH  62  75
ATOM     75  C   UNL A   1      45.072  31.196  29.046  1.00  0.00    -0.014 A 
ATOM     76  C   UNL A   1      43.949  31.641  28.333  1.00  0.00     0.009 A 
ATOM     77  C   UNL A   1      46.309  31.815  28.798  1.00  0.00     0.009 A 
ATOM     78  C   UNL A   1      44.058  32.659  27.385  1.00  0.00     0.001 A 
ATOM     79  C   UNL A   1      46.412  32.856  27.869  1.00  0.00     0.001 A 
ATOM     80  C   UNL A   1      45.289  33.268  27.155  1.00  0.00     0.000 A 
ENDBRANCH  62  75
ENDBRANCH  36  37
ENDBRANCH  28  31
ENDBRANCH  26  27
ENDBRANCH  25  26
ENDBRANCH  24  25
ENDBRANCH  23  24
ENDBRANCH   1  23
TORSDOF 17
ENDMDL
