MODEL 1
REMARK VINA RESULT:     -11.1      0.000      0.000
REMARK SMILES Cc1nn(C)c(C)c1CNC(=O)N[C@H]1CC[C@@H](C(=O)NCCCCCCNC(=O)c2ccc(-c3c4nc(c(-c5ccccc5)c5ccc([nH]5)c(-c5ccccc5)c5nc(c(-c6ccccc6)c6ccc3[nH]6)C=C5)C=C4)cc2)C1
REMARK SMILES IDX 23 1 22 2 21 3 20 4 18 5 19 6 17 8 14 9 15 10 78 11 16 12
REMARK SMILES IDX 13 13 10 14 11 15 12 17 9 19 8 20 1 21 2 22 3 23 4 24 6 25
REMARK SMILES IDX 5 26 7 27 24 28 25 29 26 30 27 31 28 32 29 34 30 35 31 36
REMARK SMILES IDX 77 37 32 38 76 39 33 40 34 41 35 42 70 43 36 44 75 45 69 46
REMARK SMILES IDX 71 47 37 48 74 49 68 50 67 51 38 53 60 54 45 55 59 56 46 57
REMARK SMILES IDX 49 58 58 59 72 60 47 61 48 62 57 64 73 65 50 66 39 67 40 68
REMARK SMILES IDX 44 69 41 70 43 71 42 72 61 73 62 74 66 75 63 76 65 77 64 78
REMARK SMILES IDX 51 79 52 80 56 81 53 82 55 83 54 84
REMARK H PARENT 20 7 10 16 13 18 27 33 71 52 49 63
REMARK Flexibility Score: inf
ROOT
ATOM      1  C   UNL A   1      34.372  32.440  28.758  1.00  0.00     0.002 C 
ENDROOT
BRANCH   1   2
ATOM      2  C   UNL A   1      33.469  31.918  27.637  1.00  0.00     0.021 C 
BRANCH   2   3
ATOM      3  C   UNL A   1      33.736  30.474  27.219  1.00  0.00     0.116 C 
BRANCH   3   4
ATOM      4  N   UNL A   1      32.741  29.546  27.707  1.00  0.00    -0.356 N 
ATOM      5  C   UNL A   1      32.169  28.439  27.177  1.00  0.00     0.223 C 
ATOM      6  O   UNL A   1      31.462  27.780  27.952  1.00  0.00    -0.275 OA
ATOM      7  H   UNL A   1      32.411  29.764  28.609  1.00  0.00     0.163 HD
BRANCH   5   8
ATOM      8  C   UNL A   1      32.365  27.913  25.754  1.00  0.00     0.080 C 
ATOM      9  C   UNL A   1      31.983  25.684  24.789  1.00  0.00     0.084 C 
ATOM     10  C   UNL A   1      31.189  26.716  23.991  1.00  0.00     0.026 C 
ATOM     11  C   UNL A   1      33.048  26.571  25.461  1.00  0.00     0.038 C 
ATOM     12  C   UNL A   1      31.046  27.887  24.965  1.00  0.00     0.015 C 
BRANCH   9  13
ATOM     13  N   UNL A   1      31.067  25.014  25.715  1.00  0.00    -0.335 N 
ATOM     14  N   UNL A   1      31.693  22.748  25.892  1.00  0.00    -0.334 N 
ATOM     15  C   UNL A   1      30.985  23.807  26.281  1.00  0.00     0.315 C 
ATOM     16  H   UNL A   1      31.938  22.125  26.613  1.00  0.00     0.165 HD
ATOM     17  O   UNL A   1      30.238  23.687  27.253  1.00  0.00    -0.249 OA
ATOM     18  H   UNL A   1      30.325  25.600  25.988  1.00  0.00     0.165 HD
BRANCH  14  19
ATOM     19  C   UNL A   1      32.152  22.372  24.584  1.00  0.00     0.157 C 
BRANCH  19  20
ATOM     20  C   UNL A   1      33.517  21.777  24.626  1.00  0.00     0.015 A 
ATOM     21  C   UNL A   1      32.794  19.277  24.962  1.00  0.00     0.069 C 
ATOM     22  C   UNL A   1      33.772  20.386  24.813  1.00  0.00     0.065 A 
ATOM     23  N   UNL A   1      35.076  20.117  24.860  1.00  0.00    -0.178 NA
ATOM     24  N   UNL A   1      35.669  21.310  24.703  1.00  0.00    -0.272 N 
ATOM     25  C   UNL A   1      34.784  22.339  24.492  1.00  0.00     0.040 A 
ATOM     26  C   UNL A   1      37.111  21.362  24.796  1.00  0.00     0.174 C 
ATOM     27  C   UNL A   1      35.236  23.727  24.212  1.00  0.00     0.067 C 
ENDBRANCH  19  20
ENDBRANCH  14  19
ENDBRANCH   9  13
ENDBRANCH   5   8
ENDBRANCH   3   4
ENDBRANCH   2   3
ENDBRANCH   1   2
BRANCH   1  28
ATOM     28  C   UNL A   1      34.521  33.964  28.845  1.00  0.00     0.002 C 
BRANCH  28  29
ATOM     29  C   UNL A   1      33.218  34.767  28.859  1.00  0.00     0.021 C 
BRANCH  29  30
ATOM     30  C   UNL A   1      33.291  36.147  29.500  1.00  0.00     0.116 C 
BRANCH  30  31
ATOM     31  N   UNL A   1      32.502  36.242  30.715  1.00  0.00    -0.352 N 
ATOM     32  C   UNL A   1      32.670  35.642  31.933  1.00  0.00     0.251 C 
ATOM     33  H   UNL A   1      31.718  36.835  30.653  1.00  0.00     0.163 HD
ATOM     34  O   UNL A   1      31.777  35.738  32.781  1.00  0.00    -0.269 OA
BRANCH  32  35
ATOM     35  C   UNL A   1      33.891  34.871  32.253  1.00  0.00     0.039 A 
ATOM     36  C   UNL A   1      35.124  35.532  32.219  1.00  0.00     0.014 A 
ATOM     37  C   UNL A   1      33.848  33.501  32.524  1.00  0.00     0.014 A 
ATOM     38  C   UNL A   1      36.300  34.833  32.493  1.00  0.00     0.010 A 
ATOM     39  C   UNL A   1      35.014  32.819  32.870  1.00  0.00     0.010 A 
ATOM     40  C   UNL A   1      36.255  33.474  32.843  1.00  0.00    -0.014 A 
BRANCH  40  41
ATOM     41  C   UNL A   1      37.498  32.727  33.159  1.00  0.00     0.031 A 
ATOM     42  C   UNL A   1      38.225  32.974  34.455  1.00  0.00     0.074 A 
ATOM     43  C   UNL A   1      37.999  31.853  32.266  1.00  0.00     0.049 A 
ATOM     44  N   UNL A   1      39.336  32.436  34.894  1.00  0.00    -0.248 NA
ATOM     45  C   UNL A   1      37.640  33.970  35.366  1.00  0.00     0.031 C 
ATOM     46  C   UNL A   1      37.415  31.550  30.957  1.00  0.00     0.029 A 
ATOM     47  N   UNL A   1      39.115  31.057  32.324  1.00  0.00    -0.354 N 
ATOM     48  C   UNL A   1      39.589  33.040  36.120  1.00  0.00     0.074 A 
ATOM     49  C   UNL A   1      38.545  34.018  36.332  1.00  0.00     0.031 C 
ATOM     50  C   UNL A   1      38.161  30.613  30.350  1.00  0.00     0.029 A 
ATOM     51  C   UNL A   1      39.291  30.274  31.209  1.00  0.00     0.049 A 
ATOM     52  H   UNL A   1      39.731  31.047  33.092  1.00  0.00     0.167 HD
ATOM     53  C   UNL A   1      40.588  32.790  37.001  1.00  0.00     0.031 A 
ATOM     54  C   UNL A   1      40.254  29.382  30.911  1.00  0.00     0.031 A 
ATOM     55  C   UNL A   1      41.619  31.808  36.800  1.00  0.00     0.049 A 
ATOM     56  C   UNL A   1      41.347  29.117  31.907  1.00  0.00     0.074 A 
ATOM     57  C   UNL A   1      42.647  31.448  37.656  1.00  0.00     0.029 A 
ATOM     58  N   UNL A   1      41.753  31.027  35.663  1.00  0.00    -0.354 N 
ATOM     59  N   UNL A   1      41.537  29.654  33.088  1.00  0.00    -0.248 NA
ATOM     60  C   UNL A   1      42.350  28.109  31.534  1.00  0.00     0.031 C 
ATOM     61  C   UNL A   1      43.426  30.477  37.018  1.00  0.00     0.029 A 
ATOM     62  C   UNL A   1      42.854  30.197  35.787  1.00  0.00     0.049 A 
ATOM     63  H   UNL A   1      41.154  31.058  34.882  1.00  0.00     0.167 HD
ATOM     64  C   UNL A   1      42.663  29.032  33.609  1.00  0.00     0.074 A 
ATOM     65  C   UNL A   1      43.103  28.066  32.624  1.00  0.00     0.031 C 
ATOM     66  C   UNL A   1      43.279  29.242  34.798  1.00  0.00     0.031 A 
BRANCH  53  67
ATOM     67  C   UNL A   1      40.608  33.601  38.267  1.00  0.00    -0.014 A 
ATOM     68  C   UNL A   1      41.302  34.820  38.338  1.00  0.00     0.009 A 
ATOM     69  C   UNL A   1      39.902  33.155  39.395  1.00  0.00     0.009 A 
ATOM     70  C   UNL A   1      41.320  35.556  39.525  1.00  0.00     0.001 A 
ATOM     71  C   UNL A   1      39.900  33.907  40.572  1.00  0.00     0.001 A 
ATOM     72  C   UNL A   1      40.617  35.101  40.639  1.00  0.00     0.000 A 
ENDBRANCH  53  67
BRANCH  54  73
ATOM     73  C   UNL A   1      40.213  28.651  29.618  1.00  0.00    -0.014 A 
ATOM     74  C   UNL A   1      39.577  27.403  29.527  1.00  0.00     0.009 A 
ATOM     75  C   UNL A   1      40.814  29.192  28.472  1.00  0.00     0.009 A 
ATOM     76  C   UNL A   1      39.565  26.701  28.319  1.00  0.00     0.001 A 
ATOM     77  C   UNL A   1      40.778  28.501  27.260  1.00  0.00     0.001 A 
ATOM     78  C   UNL A   1      40.161  27.253  27.187  1.00  0.00     0.000 A 
ENDBRANCH  54  73
BRANCH  66  79
ATOM     79  C   UNL A   1      44.472  28.385  35.111  1.00  0.00    -0.014 A 
ATOM     80  C   UNL A   1      44.340  27.185  35.828  1.00  0.00     0.009 A 
ATOM     81  C   UNL A   1      45.743  28.772  34.660  1.00  0.00     0.009 A 
ATOM     82  C   UNL A   1      45.464  26.409  36.117  1.00  0.00     0.001 A 
ATOM     83  C   UNL A   1      46.861  27.980  34.926  1.00  0.00     0.001 A 
ATOM     84  C   UNL A   1      46.722  26.804  35.664  1.00  0.00     0.000 A 
ENDBRANCH  66  79
ENDBRANCH  40  41
ENDBRANCH  32  35
ENDBRANCH  30  31
ENDBRANCH  29  30
ENDBRANCH  28  29
ENDBRANCH   1  28
TORSDOF 16
ENDMDL
MODEL 2
REMARK VINA RESULT:     -11.1      6.368     12.065
REMARK SMILES Cc1nn(C)c(C)c1CNC(=O)N[C@H]1CC[C@@H](C(=O)NCCCCCCNC(=O)c2ccc(-c3c4nc(c(-c5ccccc5)c5ccc([nH]5)c(-c5ccccc5)c5nc(c(-c6ccccc6)c6ccc3[nH]6)C=C5)C=C4)cc2)C1
REMARK SMILES IDX 23 1 22 2 21 3 20 4 18 5 19 6 17 8 14 9 15 10 78 11 16 12
REMARK SMILES IDX 13 13 10 14 11 15 12 17 9 19 8 20 1 21 2 22 3 23 4 24 6 25
REMARK SMILES IDX 5 26 7 27 24 28 25 29 26 30 27 31 28 32 29 34 30 35 31 36
REMARK SMILES IDX 77 37 32 38 76 39 33 40 34 41 35 42 70 43 36 44 75 45 69 46
REMARK SMILES IDX 71 47 37 48 74 49 68 50 67 51 38 53 60 54 45 55 59 56 46 57
REMARK SMILES IDX 49 58 58 59 72 60 47 61 48 62 57 64 73 65 50 66 39 67 40 68
REMARK SMILES IDX 44 69 41 70 43 71 42 72 61 73 62 74 66 75 63 76 65 77 64 78
REMARK SMILES IDX 51 79 52 80 56 81 53 82 55 83 54 84
REMARK H PARENT 20 7 10 16 13 18 27 33 71 52 49 63
REMARK Flexibility Score: inf
ROOT
ATOM      1  C   UNL A   1      40.768  21.839  26.345  1.00  0.00     0.002 C 
ENDROOT
BRANCH   1   2
ATOM      2  C   UNL A   1      39.500  21.171  25.807  1.00  0.00     0.021 C 
BRANCH   2   3
ATOM      3  C   UNL A   1      38.267  22.073  25.768  1.00  0.00     0.116 C 
BRANCH   3   4
ATOM      4  N   UNL A   1      37.760  22.284  24.431  1.00  0.00    -0.356 N 
ATOM      5  C   UNL A   1      36.577  22.738  23.951  1.00  0.00     0.223 C 
ATOM      6  O   UNL A   1      36.543  22.952  22.731  1.00  0.00    -0.275 OA
ATOM      7  H   UNL A   1      38.405  22.051  23.725  1.00  0.00     0.163 HD
BRANCH   5   8
ATOM      8  C   UNL A   1      35.329  23.057  24.776  1.00  0.00     0.080 C 
ATOM      9  C   UNL A   1      33.348  24.414  24.249  1.00  0.00     0.084 C 
ATOM     10  C   UNL A   1      32.899  23.009  24.644  1.00  0.00     0.026 C 
ATOM     11  C   UNL A   1      34.753  24.474  24.879  1.00  0.00     0.038 C 
ATOM     12  C   UNL A   1      34.144  22.154  24.396  1.00  0.00     0.015 C 
BRANCH   9  13
ATOM     13  N   UNL A   1      33.324  24.512  22.788  1.00  0.00    -0.335 N 
ATOM     14  N   UNL A   1      31.985  26.352  22.174  1.00  0.00    -0.334 N 
ATOM     15  C   UNL A   1      32.849  25.379  21.890  1.00  0.00     0.315 C 
ATOM     16  H   UNL A   1      32.092  27.171  21.639  1.00  0.00     0.165 HD
ATOM     17  O   UNL A   1      33.276  25.293  20.738  1.00  0.00    -0.249 OA
ATOM     18  H   UNL A   1      33.770  23.746  22.360  1.00  0.00     0.165 HD
BRANCH  14  19
ATOM     19  C   UNL A   1      30.922  26.393  23.139  1.00  0.00     0.157 C 
BRANCH  19  20
ATOM     20  C   UNL A   1      31.045  27.566  24.050  1.00  0.00     0.015 A 
ATOM     21  C   UNL A   1      30.269  29.408  22.351  1.00  0.00     0.069 C 
ATOM     22  C   UNL A   1      30.760  28.908  23.661  1.00  0.00     0.065 A 
ATOM     23  N   UNL A   1      30.994  29.776  24.645  1.00  0.00    -0.178 NA
ATOM     24  N   UNL A   1      31.423  29.017  25.664  1.00  0.00    -0.272 N 
ATOM     25  C   UNL A   1      31.414  27.671  25.388  1.00  0.00     0.040 A 
ATOM     26  C   UNL A   1      31.847  29.690  26.871  1.00  0.00     0.174 C 
ATOM     27  C   UNL A   1      31.771  26.652  26.409  1.00  0.00     0.067 C 
ENDBRANCH  19  20
ENDBRANCH  14  19
ENDBRANCH   9  13
ENDBRANCH   5   8
ENDBRANCH   3   4
ENDBRANCH   2   3
ENDBRANCH   1   2
BRANCH   1  28
ATOM     28  C   UNL A   1      41.945  20.903  26.644  1.00  0.00     0.002 C 
BRANCH  28  29
ATOM     29  C   UNL A   1      42.044  19.648  25.773  1.00  0.00     0.021 C 
BRANCH  29  30
ATOM     30  C   UNL A   1      43.240  18.744  26.037  1.00  0.00     0.116 C 
BRANCH  30  31
ATOM     31  N   UNL A   1      44.080  18.572  24.866  1.00  0.00    -0.352 N 
ATOM     32  C   UNL A   1      44.778  19.489  24.129  1.00  0.00     0.251 C 
ATOM     33  H   UNL A   1      44.163  17.642  24.550  1.00  0.00     0.163 HD
ATOM     34  O   UNL A   1      45.298  19.140  23.065  1.00  0.00    -0.269 OA
BRANCH  32  35
ATOM     35  C   UNL A   1      44.912  20.895  24.573  1.00  0.00     0.039 A 
ATOM     36  C   UNL A   1      45.526  21.149  25.804  1.00  0.00     0.014 A 
ATOM     37  C   UNL A   1      44.391  21.956  23.827  1.00  0.00     0.014 A 
ATOM     38  C   UNL A   1      45.651  22.460  26.266  1.00  0.00     0.010 A 
ATOM     39  C   UNL A   1      44.581  23.270  24.253  1.00  0.00     0.010 A 
ATOM     40  C   UNL A   1      45.200  23.535  25.484  1.00  0.00    -0.014 A 
BRANCH  40  41
ATOM     41  C   UNL A   1      45.349  24.935  25.957  1.00  0.00     0.031 A 
ATOM     42  C   UNL A   1      46.688  25.621  25.893  1.00  0.00     0.074 A 
ATOM     43  C   UNL A   1      44.289  25.581  26.479  1.00  0.00     0.049 A 
ATOM     44  N   UNL A   1      47.017  26.828  26.280  1.00  0.00    -0.248 NA
ATOM     45  C   UNL A   1      47.808  24.840  25.345  1.00  0.00     0.031 C 
ATOM     46  C   UNL A   1      42.945  25.019  26.634  1.00  0.00     0.029 A 
ATOM     47  N   UNL A   1      44.176  26.855  26.977  1.00  0.00    -0.354 N 
ATOM     48  C   UNL A   1      48.381  26.944  26.037  1.00  0.00     0.074 A 
ATOM     49  C   UNL A   1      48.826  25.670  25.517  1.00  0.00     0.031 C 
ATOM     50  C   UNL A   1      42.137  25.953  27.162  1.00  0.00     0.029 A 
ATOM     51  C   UNL A   1      42.910  27.166  27.412  1.00  0.00     0.049 A 
ATOM     52  H   UNL A   1      44.930  27.486  27.018  1.00  0.00     0.167 HD
ATOM     53  C   UNL A   1      49.187  28.019  26.211  1.00  0.00     0.031 A 
ATOM     54  C   UNL A   1      42.426  28.300  27.950  1.00  0.00     0.031 A 
ATOM     55  C   UNL A   1      48.744  29.291  26.714  1.00  0.00     0.049 A 
ATOM     56  C   UNL A   1      43.338  29.480  28.127  1.00  0.00     0.074 A 
ATOM     57  C   UNL A   1      49.475  30.456  26.881  1.00  0.00     0.029 A 
ATOM     58  N   UNL A   1      47.451  29.567  27.130  1.00  0.00    -0.354 N 
ATOM     59  N   UNL A   1      44.611  29.592  27.836  1.00  0.00    -0.248 NA
ATOM     60  C   UNL A   1      42.739  30.698  28.692  1.00  0.00     0.031 C 
ATOM     61  C   UNL A   1      48.632  31.424  27.436  1.00  0.00     0.029 A 
ATOM     62  C   UNL A   1      47.366  30.879  27.568  1.00  0.00     0.049 A 
ATOM     63  H   UNL A   1      46.704  28.927  27.117  1.00  0.00     0.167 HD
ATOM     64  C   UNL A   1      44.959  30.896  28.157  1.00  0.00     0.074 A 
ATOM     65  C   UNL A   1      43.760  31.542  28.648  1.00  0.00     0.031 C 
ATOM     66  C   UNL A   1      46.165  31.506  28.055  1.00  0.00     0.031 A 
BRANCH  53  67
ATOM     67  C   UNL A   1      50.638  27.856  25.852  1.00  0.00    -0.014 A 
ATOM     68  C   UNL A   1      51.579  27.433  26.805  1.00  0.00     0.009 A 
ATOM     69  C   UNL A   1      51.065  28.103  24.538  1.00  0.00     0.009 A 
ATOM     70  C   UNL A   1      52.926  27.298  26.459  1.00  0.00     0.001 A 
ATOM     71  C   UNL A   1      52.408  27.940  24.188  1.00  0.00     0.001 A 
ATOM     72  C   UNL A   1      53.338  27.548  25.150  1.00  0.00     0.000 A 
ENDBRANCH  53  67
BRANCH  54  73
ATOM     73  C   UNL A   1      40.994  28.383  28.339  1.00  0.00    -0.014 A 
ATOM     74  C   UNL A   1      40.052  28.949  27.466  1.00  0.00     0.009 A 
ATOM     75  C   UNL A   1      40.563  27.904  29.585  1.00  0.00     0.009 A 
ATOM     76  C   UNL A   1      38.711  29.056  27.843  1.00  0.00     0.001 A 
ATOM     77  C   UNL A   1      39.218  27.988  29.949  1.00  0.00     0.001 A 
ATOM     78  C   UNL A   1      38.295  28.571  29.082  1.00  0.00     0.000 A 
ENDBRANCH  54  73
BRANCH  66  79
ATOM     79  C   UNL A   1      46.236  32.954  28.448  1.00  0.00    -0.014 A 
ATOM     80  C   UNL A   1      46.558  33.339  29.759  1.00  0.00     0.009 A 
ATOM     81  C   UNL A   1      46.000  33.947  27.486  1.00  0.00     0.009 A 
ATOM     82  C   UNL A   1      46.608  34.690  30.105  1.00  0.00     0.001 A 
ATOM     83  C   UNL A   1      46.077  35.299  27.827  1.00  0.00     0.001 A 
ATOM     84  C   UNL A   1      46.371  35.668  29.140  1.00  0.00     0.000 A 
ENDBRANCH  66  79
ENDBRANCH  40  41
ENDBRANCH  32  35
ENDBRANCH  30  31
ENDBRANCH  29  30
ENDBRANCH  28  29
ENDBRANCH   1  28
TORSDOF 16
ENDMDL
MODEL 3
REMARK VINA RESULT:     -10.9      4.456      9.184
REMARK SMILES Cc1nn(C)c(C)c1CNC(=O)N[C@H]1CC[C@@H](C(=O)NCCCCCCNC(=O)c2ccc(-c3c4nc(c(-c5ccccc5)c5ccc([nH]5)c(-c5ccccc5)c5nc(c(-c6ccccc6)c6ccc3[nH]6)C=C5)C=C4)cc2)C1
REMARK SMILES IDX 23 1 22 2 21 3 20 4 18 5 19 6 17 8 14 9 15 10 78 11 16 12
REMARK SMILES IDX 13 13 10 14 11 15 12 17 9 19 8 20 1 21 2 22 3 23 4 24 6 25
REMARK SMILES IDX 5 26 7 27 24 28 25 29 26 30 27 31 28 32 29 34 30 35 31 36
REMARK SMILES IDX 77 37 32 38 76 39 33 40 34 41 35 42 70 43 36 44 75 45 69 46
REMARK SMILES IDX 71 47 37 48 74 49 68 50 67 51 38 53 60 54 45 55 59 56 46 57
REMARK SMILES IDX 49 58 58 59 72 60 47 61 48 62 57 64 73 65 50 66 39 67 40 68
REMARK SMILES IDX 44 69 41 70 43 71 42 72 61 73 62 74 66 75 63 76 65 77 64 78
REMARK SMILES IDX 51 79 52 80 56 81 53 82 55 83 54 84
REMARK H PARENT 20 7 10 16 13 18 27 33 71 52 49 63
REMARK Flexibility Score: inf
ROOT
ATOM      1  C   UNL A   1      35.649  32.113  32.184  1.00  0.00     0.002 C 
ENDROOT
BRANCH   1   2
ATOM      2  C   UNL A   1      36.391  32.516  33.461  1.00  0.00     0.021 C 
BRANCH   2   3
ATOM      3  C   UNL A   1      37.749  31.842  33.653  1.00  0.00     0.116 C 
BRANCH   3   4
ATOM      4  N   UNL A   1      37.839  31.084  34.880  1.00  0.00    -0.356 N 
ATOM      5  C   UNL A   1      38.861  30.449  35.503  1.00  0.00     0.223 C 
ATOM      6  O   UNL A   1      38.615  30.034  36.643  1.00  0.00    -0.275 OA
ATOM      7  H   UNL A   1      36.984  31.015  35.362  1.00  0.00     0.163 HD
BRANCH   5   8
ATOM      8  C   UNL A   1      40.275  30.257  34.953  1.00  0.00     0.080 C 
ATOM      9  C   UNL A   1      41.991  28.571  35.460  1.00  0.00     0.084 C 
ATOM     10  C   UNL A   1      41.716  28.566  33.958  1.00  0.00     0.026 C 
ATOM     11  C   UNL A   1      41.477  29.967  35.860  1.00  0.00     0.038 C 
ATOM     12  C   UNL A   1      40.322  29.188  33.849  1.00  0.00     0.015 C 
BRANCH   9  13
ATOM     13  N   UNL A   1      41.265  27.452  36.065  1.00  0.00    -0.335 N 
ATOM     14  N   UNL A   1      42.686  26.371  37.605  1.00  0.00    -0.334 N 
ATOM     15  C   UNL A   1      41.494  26.575  37.047  1.00  0.00     0.315 C 
ATOM     16  H   UNL A   1      42.662  26.134  38.560  1.00  0.00     0.165 HD
ATOM     17  O   UNL A   1      40.526  25.955  37.489  1.00  0.00    -0.249 OA
ATOM     18  H   UNL A   1      40.389  27.309  35.641  1.00  0.00     0.165 HD
BRANCH  14  19
ATOM     19  C   UNL A   1      44.000  26.441  37.030  1.00  0.00     0.157 C 
BRANCH  19  20
ATOM     20  C   UNL A   1      44.441  25.123  36.492  1.00  0.00     0.015 A 
ATOM     21  C   UNL A   1      43.841  25.558  33.975  1.00  0.00     0.069 C 
ATOM     22  C   UNL A   1      44.341  24.752  35.119  1.00  0.00     0.065 A 
ATOM     23  N   UNL A   1      44.759  23.505  34.905  1.00  0.00    -0.178 NA
ATOM     24  N   UNL A   1      45.130  23.065  36.116  1.00  0.00    -0.272 N 
ATOM     25  C   UNL A   1      45.023  24.016  37.102  1.00  0.00     0.040 A 
ATOM     26  C   UNL A   1      45.557  21.688  36.230  1.00  0.00     0.174 C 
ATOM     27  C   UNL A   1      45.462  23.760  38.499  1.00  0.00     0.067 C 
ENDBRANCH  19  20
ENDBRANCH  14  19
ENDBRANCH   9  13
ENDBRANCH   5   8
ENDBRANCH   3   4
ENDBRANCH   2   3
ENDBRANCH   1   2
BRANCH   1  28
ATOM     28  C   UNL A   1      35.789  33.072  30.995  1.00  0.00     0.002 C 
BRANCH  28  29
ATOM     29  C   UNL A   1      34.537  33.263  30.134  1.00  0.00     0.021 C 
BRANCH  29  30
ATOM     30  C   UNL A   1      34.721  33.065  28.636  1.00  0.00     0.116 C 
BRANCH  30  31
ATOM     31  N   UNL A   1      33.980  31.925  28.127  1.00  0.00    -0.352 N 
ATOM     32  C   UNL A   1      34.398  30.659  27.820  1.00  0.00     0.251 C 
ATOM     33  H   UNL A   1      33.020  32.088  27.980  1.00  0.00     0.163 HD
ATOM     34  O   UNL A   1      33.623  29.891  27.241  1.00  0.00    -0.269 OA
BRANCH  32  35
ATOM     35  C   UNL A   1      35.761  30.192  28.156  1.00  0.00     0.039 A 
ATOM     36  C   UNL A   1      35.992  29.674  29.434  1.00  0.00     0.014 A 
ATOM     37  C   UNL A   1      36.824  30.314  27.256  1.00  0.00     0.014 A 
ATOM     38  C   UNL A   1      37.270  29.245  29.795  1.00  0.00     0.010 A 
ATOM     39  C   UNL A   1      38.084  29.817  27.590  1.00  0.00     0.010 A 
ATOM     40  C   UNL A   1      38.324  29.292  28.869  1.00  0.00    -0.014 A 
BRANCH  40  41
ATOM     41  C   UNL A   1      39.682  28.816  29.235  1.00  0.00     0.031 A 
ATOM     42  C   UNL A   1      40.605  29.695  30.036  1.00  0.00     0.074 A 
ATOM     43  C   UNL A   1      40.103  27.607  28.817  1.00  0.00     0.049 A 
ATOM     44  N   UNL A   1      41.832  29.462  30.430  1.00  0.00    -0.248 NA
ATOM     45  C   UNL A   1      40.091  31.017  30.427  1.00  0.00     0.031 C 
ATOM     46  C   UNL A   1      39.322  26.673  28.001  1.00  0.00     0.029 A 
ATOM     47  N   UNL A   1      41.294  26.956  29.020  1.00  0.00    -0.354 N 
ATOM     48  C   UNL A   1      42.240  30.611  31.097  1.00  0.00     0.074 A 
ATOM     49  C   UNL A   1      41.149  31.557  31.013  1.00  0.00     0.031 C 
ATOM     50  C   UNL A   1      40.043  25.559  27.800  1.00  0.00     0.029 A 
ATOM     51  C   UNL A   1      41.346  25.711  28.441  1.00  0.00     0.049 A 
ATOM     52  H   UNL A   1      42.039  27.344  29.532  1.00  0.00     0.167 HD
ATOM     53  C   UNL A   1      43.408  30.852  31.741  1.00  0.00     0.031 A 
ATOM     54  C   UNL A   1      42.331  24.795  28.429  1.00  0.00     0.031 A 
ATOM     55  C   UNL A   1      44.488  29.908  31.840  1.00  0.00     0.049 A 
ATOM     56  C   UNL A   1      43.614  25.082  29.155  1.00  0.00     0.074 A 
ATOM     57  C   UNL A   1      45.692  30.041  32.511  1.00  0.00     0.029 A 
ATOM     58  N   UNL A   1      44.495  28.653  31.250  1.00  0.00    -0.354 N 
ATOM     59  N   UNL A   1      43.960  26.151  29.832  1.00  0.00    -0.248 NA
ATOM     60  C   UNL A   1      44.638  24.027  29.129  1.00  0.00     0.031 C 
ATOM     61  C   UNL A   1      46.444  28.881  32.294  1.00  0.00     0.029 A 
ATOM     62  C   UNL A   1      45.688  28.007  31.530  1.00  0.00     0.049 A 
ATOM     63  H   UNL A   1      43.762  28.277  30.713  1.00  0.00     0.167 HD
ATOM     64  C   UNL A   1      45.227  25.887  30.334  1.00  0.00     0.074 A 
ATOM     65  C   UNL A   1      45.581  24.552  29.898  1.00  0.00     0.031 C 
ATOM     66  C   UNL A   1      46.026  26.680  31.088  1.00  0.00     0.031 A 
BRANCH  53  67
ATOM     67  C   UNL A   1      43.572  32.199  32.389  1.00  0.00    -0.014 A 
ATOM     68  C   UNL A   1      43.182  32.417  33.720  1.00  0.00     0.009 A 
ATOM     69  C   UNL A   1      44.149  33.256  31.668  1.00  0.00     0.009 A 
ATOM     70  C   UNL A   1      43.331  33.677  34.304  1.00  0.00     0.001 A 
ATOM     71  C   UNL A   1      44.323  34.507  32.264  1.00  0.00     0.001 A 
ATOM     72  C   UNL A   1      43.904  34.720  33.576  1.00  0.00     0.000 A 
ENDBRANCH  53  67
BRANCH  54  73
ATOM     73  C   UNL A   1      42.133  23.502  27.723  1.00  0.00    -0.014 A 
ATOM     74  C   UNL A   1      42.549  23.349  26.391  1.00  0.00     0.009 A 
ATOM     75  C   UNL A   1      41.522  22.420  28.373  1.00  0.00     0.009 A 
ATOM     76  C   UNL A   1      42.335  22.144  25.717  1.00  0.00     0.001 A 
ATOM     77  C   UNL A   1      41.333  21.208  27.705  1.00  0.00     0.001 A 
ATOM     78  C   UNL A   1      41.732  21.074  26.376  1.00  0.00     0.000 A 
ENDBRANCH  54  73
BRANCH  66  79
ATOM     79  C   UNL A   1      47.347  26.108  31.519  1.00  0.00    -0.014 A 
ATOM     80  C   UNL A   1      48.468  26.147  30.676  1.00  0.00     0.009 A 
ATOM     81  C   UNL A   1      47.475  25.544  32.797  1.00  0.00     0.009 A 
ATOM     82  C   UNL A   1      49.683  25.601  31.093  1.00  0.00     0.001 A 
ATOM     83  C   UNL A   1      48.698  25.022  33.223  1.00  0.00     0.001 A 
ATOM     84  C   UNL A   1      49.799  25.042  32.366  1.00  0.00     0.000 A 
ENDBRANCH  66  79
ENDBRANCH  40  41
ENDBRANCH  32  35
ENDBRANCH  30  31
ENDBRANCH  29  30
ENDBRANCH  28  29
ENDBRANCH   1  28
TORSDOF 16
ENDMDL
