MODEL 1
REMARK VINA RESULT:     -10.8      0.000      0.000
REMARK SMILES O=C1C[C@@H](C(=O)NCCCCCCNC(=O)c2ccc(-c3c4nc(c(-c5ccccc5)c5ccc([nH]5)c(-c5ccccc5)c5nc(c(-c6ccccc6)c6ccc3[nH]6)C=C5)C=C4)cc2)C2(CC[NH+](Cc3c[nH]nc3-c3ccc(Cl)cc3)CC2)N1
REMARK SMILES IDX 10 1 9 2 8 3 7 4 5 5 6 6 4 8 1 9 2 10 3 11 84 12 65 13 66 15
REMARK SMILES IDX 83 16 67 17 82 18 68 19 69 21 70 22 71 23 74 24 72 25 73 26
REMARK SMILES IDX 75 28 76 29 81 30 77 31 80 32 78 33 79 34 11 35 12 36 13 37
REMARK SMILES IDX 14 38 15 39 16 41 17 42 18 43 64 44 19 45 63 46 20 47 21 48
REMARK SMILES IDX 22 49 57 50 23 51 62 52 56 53 58 54 24 55 61 56 55 57 54 58
REMARK SMILES IDX 25 60 47 61 32 62 46 63 33 64 36 65 45 66 59 67 34 68 35 69
REMARK SMILES IDX 44 71 60 72 37 73 26 74 27 75 31 76 28 77 30 78 29 79 48 80
REMARK SMILES IDX 49 81 53 82 50 83 52 84 51 85 38 86 39 87 43 88 40 89 42 90
REMARK SMILES IDX 41 91
REMARK H PARENT 7 7 84 14 68 20 72 27 14 40 58 59 36 70
REMARK Flexibility Score: inf
ROOT
ATOM      1  C   UNL A   1      35.756  30.573  28.542  1.00  0.00     0.002 C 
ENDROOT
BRANCH   1   2
ATOM      2  C   UNL A   1      34.819  29.513  27.967  1.00  0.00     0.021 C 
BRANCH   2   3
ATOM      3  C   UNL A   1      34.479  29.714  26.488  1.00  0.00     0.116 C 
BRANCH   3   4
ATOM      4  N   UNL A   1      33.127  30.195  26.266  1.00  0.00    -0.356 N 
ATOM      5  C   UNL A   1      32.198  29.952  25.304  1.00  0.00     0.226 C 
ATOM      6  O   UNL A   1      31.135  30.576  25.403  1.00  0.00    -0.275 OA
ATOM      7  H   UNL A   1      32.820  30.828  26.954  1.00  0.00     0.163 HD
BRANCH   5   8
ATOM      8  C   UNL A   1      32.385  28.997  24.119  1.00  0.00     0.114 C 
ATOM      9  O   UNL A   1      29.686  28.843  21.780  1.00  0.00    -0.275 OA
ATOM     10  C   UNL A   1      30.569  28.667  22.597  1.00  0.00     0.221 C 
ATOM     11  C   UNL A   1      31.766  29.548  22.827  1.00  0.00     0.116 C 
ATOM     12  N   UNL A   1      30.613  27.628  23.500  1.00  0.00    -0.349 N 
ATOM     13  C   UNL A   1      31.859  27.549  24.252  1.00  0.00     0.063 C 
ATOM     14  H   UNL A   1      29.869  26.995  23.626  1.00  0.00     0.164 HD
ATOM     15  C   UNL A   1      31.600  27.116  25.703  1.00  0.00     0.091 C 
ATOM     16  C   UNL A   1      32.747  26.538  23.469  1.00  0.00     0.091 C 
ATOM     17  C   UNL A   1      32.770  26.413  26.368  1.00  0.00     0.264 C 
ATOM     18  C   UNL A   1      33.712  25.689  24.296  1.00  0.00     0.264 C 
ATOM     19  N   UNL A   1      33.228  25.276  25.601  1.00  0.00    -0.331 N 
ATOM     20  H   UNL A   1      34.058  24.909  26.066  1.00  0.00     0.348 HD
BRANCH  19  21
ATOM     21  C   UNL A   1      32.462  24.027  25.731  1.00  0.00     0.303 C 
BRANCH  21  22
ATOM     22  C   UNL A   1      32.252  23.242  24.471  1.00  0.00     0.052 A 
ATOM     23  C   UNL A   1      31.207  23.387  23.575  1.00  0.00     0.115 A 
ATOM     24  C   UNL A   1      33.116  22.287  23.823  1.00  0.00     0.101 A 
ATOM     25  N   UNL A   1      31.391  22.463  22.598  1.00  0.00    -0.285 N 
ATOM     26  N   UNL A   1      32.530  21.779  22.726  1.00  0.00    -0.175 NA
ATOM     27  H   UNL A   1      30.749  22.311  21.868  1.00  0.00     0.189 HD
BRANCH  24  28
ATOM     28  C   UNL A   1      34.481  21.867  24.149  1.00  0.00     0.003 A 
ATOM     29  C   UNL A   1      34.664  20.660  24.842  1.00  0.00     0.012 A 
ATOM     30  C   UNL A   1      35.606  22.635  23.834  1.00  0.00     0.012 A 
ATOM     31  C   UNL A   1      35.945  20.213  25.179  1.00  0.00     0.021 A 
ATOM     32  C   UNL A   1      36.891  22.187  24.162  1.00  0.00     0.021 A 
ATOM     33  C   UNL A   1      37.055  20.975  24.827  1.00  0.00     0.041 A 
ATOM     34  Cl  UNL A   1      38.634  20.422  25.226  1.00  0.00    -0.084 Cl
ENDBRANCH  24  28
ENDBRANCH  21  22
ENDBRANCH  19  21
ENDBRANCH   5   8
ENDBRANCH   3   4
ENDBRANCH   2   3
ENDBRANCH   1   2
BRANCH   1  35
ATOM     35  C   UNL A   1      35.371  32.010  28.186  1.00  0.00     0.002 C 
BRANCH  35  36
ATOM     36  C   UNL A   1      34.475  32.705  29.216  1.00  0.00     0.021 C 
BRANCH  36  37
ATOM     37  C   UNL A   1      34.791  32.345  30.663  1.00  0.00     0.116 C 
BRANCH  37  38
ATOM     38  N   UNL A   1      35.129  33.524  31.442  1.00  0.00    -0.352 N 
ATOM     39  C   UNL A   1      36.348  33.916  31.931  1.00  0.00     0.251 C 
ATOM     40  H   UNL A   1      34.378  34.125  31.650  1.00  0.00     0.163 HD
ATOM     41  O   UNL A   1      36.422  34.793  32.784  1.00  0.00    -0.269 OA
BRANCH  39  42
ATOM     42  C   UNL A   1      37.574  33.268  31.425  1.00  0.00     0.039 A 
ATOM     43  C   UNL A   1      38.259  32.378  32.254  1.00  0.00     0.014 A 
ATOM     44  C   UNL A   1      38.054  33.552  30.142  1.00  0.00     0.014 A 
ATOM     45  C   UNL A   1      39.405  31.740  31.780  1.00  0.00     0.010 A 
ATOM     46  C   UNL A   1      39.147  32.853  29.643  1.00  0.00     0.010 A 
ATOM     47  C   UNL A   1      39.843  31.953  30.463  1.00  0.00    -0.014 A 
BRANCH  47  48
ATOM     48  C   UNL A   1      41.033  31.245  29.932  1.00  0.00     0.031 A 
ATOM     49  C   UNL A   1      42.362  31.943  29.863  1.00  0.00     0.074 A 
ATOM     50  C   UNL A   1      40.903  29.991  29.459  1.00  0.00     0.049 A 
ATOM     51  N   UNL A   1      43.506  31.496  29.410  1.00  0.00    -0.248 NA
ATOM     52  C   UNL A   1      42.406  33.335  30.338  1.00  0.00     0.031 C 
ATOM     53  C   UNL A   1      39.655  29.226  29.420  1.00  0.00     0.029 A 
ATOM     54  N   UNL A   1      41.830  29.142  28.912  1.00  0.00    -0.354 N 
ATOM     55  C   UNL A   1      44.397  32.555  29.526  1.00  0.00     0.074 A 
ATOM     56  C   UNL A   1      43.649  33.682  30.040  1.00  0.00     0.031 C 
ATOM     57  C   UNL A   1      39.900  28.014  28.902  1.00  0.00     0.029 A 
ATOM     58  C   UNL A   1      41.310  27.930  28.533  1.00  0.00     0.049 A 
ATOM     59  H   UNL A   1      42.781  29.380  28.803  1.00  0.00     0.167 HD
ATOM     60  C   UNL A   1      45.722  32.584  29.247  1.00  0.00     0.031 A 
ATOM     61  C   UNL A   1      41.896  26.872  27.944  1.00  0.00     0.031 A 
ATOM     62  C   UNL A   1      46.461  31.461  28.734  1.00  0.00     0.049 A 
ATOM     63  C   UNL A   1      43.366  26.924  27.642  1.00  0.00     0.074 A 
ATOM     64  C   UNL A   1      47.819  31.364  28.485  1.00  0.00     0.029 A 
ATOM     65  N   UNL A   1      45.900  30.244  28.377  1.00  0.00    -0.354 N 
ATOM     66  N   UNL A   1      44.218  27.901  27.844  1.00  0.00    -0.248 NA
ATOM     67  C   UNL A   1      43.961  25.721  27.043  1.00  0.00     0.031 C 
ATOM     68  C   UNL A   1      48.068  30.113  27.910  1.00  0.00     0.029 A 
ATOM     69  C   UNL A   1      46.878  29.403  27.872  1.00  0.00     0.049 A 
ATOM     70  H   UNL A   1      44.947  30.012  28.468  1.00  0.00     0.167 HD
ATOM     71  C   UNL A   1      45.451  27.425  27.420  1.00  0.00     0.074 A 
ATOM     72  C   UNL A   1      45.239  26.064  26.968  1.00  0.00     0.031 C 
ATOM     73  C   UNL A   1      46.650  28.056  27.409  1.00  0.00     0.031 A 
BRANCH  60  74
ATOM     74  C   UNL A   1      46.445  33.887  29.465  1.00  0.00    -0.014 A 
ATOM     75  C   UNL A   1      47.047  34.200  30.695  1.00  0.00     0.009 A 
ATOM     76  C   UNL A   1      46.533  34.817  28.416  1.00  0.00     0.009 A 
ATOM     77  C   UNL A   1      47.670  35.435  30.887  1.00  0.00     0.001 A 
ATOM     78  C   UNL A   1      47.189  36.035  28.599  1.00  0.00     0.001 A 
ATOM     79  C   UNL A   1      47.744  36.350  29.838  1.00  0.00     0.000 A 
ENDBRANCH  60  74
BRANCH  61  80
ATOM     80  C   UNL A   1      41.082  25.673  27.611  1.00  0.00    -0.014 A 
ATOM     81  C   UNL A   1      40.150  25.706  26.563  1.00  0.00     0.009 A 
ATOM     82  C   UNL A   1      41.257  24.477  28.326  1.00  0.00     0.009 A 
ATOM     83  C   UNL A   1      39.396  24.572  26.251  1.00  0.00     0.001 A 
ATOM     84  C   UNL A   1      40.526  23.336  27.991  1.00  0.00     0.001 A 
ATOM     85  C   UNL A   1      39.590  23.387  26.959  1.00  0.00     0.000 A 
ENDBRANCH  61  80
BRANCH  73  86
ATOM     86  C   UNL A   1      47.836  27.273  26.915  1.00  0.00    -0.014 A 
ATOM     87  C   UNL A   1      48.238  27.320  25.571  1.00  0.00     0.009 A 
ATOM     88  C   UNL A   1      48.585  26.504  27.820  1.00  0.00     0.009 A 
ATOM     89  C   UNL A   1      49.344  26.584  25.138  1.00  0.00     0.001 A 
ATOM     90  C   UNL A   1      49.710  25.797  27.392  1.00  0.00     0.001 A 
ATOM     91  C   UNL A   1      50.081  25.829  26.050  1.00  0.00     0.000 A 
ENDBRANCH  73  86
ENDBRANCH  47  48
ENDBRANCH  39  42
ENDBRANCH  37  38
ENDBRANCH  36  37
ENDBRANCH  35  36
ENDBRANCH   1  35
TORSDOF 16
ENDMDL
MODEL 2
REMARK VINA RESULT:     -10.6      4.244      9.838
REMARK SMILES O=C1C[C@@H](C(=O)NCCCCCCNC(=O)c2ccc(-c3c4nc(c(-c5ccccc5)c5ccc([nH]5)c(-c5ccccc5)c5nc(c(-c6ccccc6)c6ccc3[nH]6)C=C5)C=C4)cc2)C2(CC[NH+](Cc3c[nH]nc3-c3ccc(Cl)cc3)CC2)N1
REMARK SMILES IDX 10 1 9 2 8 3 7 4 5 5 6 6 4 8 1 9 2 10 3 11 84 12 65 13 66 15
REMARK SMILES IDX 83 16 67 17 82 18 68 19 69 21 70 22 71 23 74 24 72 25 73 26
REMARK SMILES IDX 75 28 76 29 81 30 77 31 80 32 78 33 79 34 11 35 12 36 13 37
REMARK SMILES IDX 14 38 15 39 16 41 17 42 18 43 64 44 19 45 63 46 20 47 21 48
REMARK SMILES IDX 22 49 57 50 23 51 62 52 56 53 58 54 24 55 61 56 55 57 54 58
REMARK SMILES IDX 25 60 47 61 32 62 46 63 33 64 36 65 45 66 59 67 34 68 35 69
REMARK SMILES IDX 44 71 60 72 37 73 26 74 27 75 31 76 28 77 30 78 29 79 48 80
REMARK SMILES IDX 49 81 53 82 50 83 52 84 51 85 38 86 39 87 43 88 40 89 42 90
REMARK SMILES IDX 41 91
REMARK H PARENT 7 7 84 14 68 20 72 27 14 40 58 59 36 70
REMARK Flexibility Score: inf
ROOT
ATOM      1  C   UNL A   1      39.974  28.073  28.825  1.00  0.00     0.002 C 
ENDROOT
BRANCH   1   2
ATOM      2  C   UNL A   1      40.814  29.348  28.890  1.00  0.00     0.021 C 
BRANCH   2   3
ATOM      3  C   UNL A   1      40.998  29.904  30.305  1.00  0.00     0.116 C 
BRANCH   3   4
ATOM      4  N   UNL A   1      40.627  28.965  31.348  1.00  0.00    -0.356 N 
ATOM      5  C   UNL A   1      40.043  29.109  32.566  1.00  0.00     0.226 C 
ATOM      6  O   UNL A   1      39.902  28.076  33.230  1.00  0.00    -0.275 OA
ATOM      7  H   UNL A   1      40.842  28.030  31.127  1.00  0.00     0.163 HD
BRANCH   5   8
ATOM      8  C   UNL A   1      39.579  30.441  33.169  1.00  0.00     0.114 C 
ATOM      9  O   UNL A   1      38.397  30.317  36.540  1.00  0.00    -0.275 OA
ATOM     10  C   UNL A   1      38.589  30.446  35.347  1.00  0.00     0.221 C 
ATOM     11  C   UNL A   1      39.923  30.553  34.661  1.00  0.00     0.116 C 
ATOM     12  N   UNL A   1      37.601  30.485  34.389  1.00  0.00    -0.349 N 
ATOM     13  C   UNL A   1      38.084  30.819  33.055  1.00  0.00     0.063 C 
ATOM     14  H   UNL A   1      36.654  30.303  34.586  1.00  0.00     0.164 HD
ATOM     15  C   UNL A   1      37.326  30.025  31.979  1.00  0.00     0.091 C 
ATOM     16  C   UNL A   1      37.887  32.358  32.921  1.00  0.00     0.091 C 
ATOM     17  C   UNL A   1      37.273  30.699  30.620  1.00  0.00     0.264 C 
ATOM     18  C   UNL A   1      37.572  32.890  31.522  1.00  0.00     0.264 C 
ATOM     19  N   UNL A   1      36.733  32.038  30.698  1.00  0.00    -0.331 N 
ATOM     20  H   UNL A   1      36.805  32.450  29.768  1.00  0.00     0.348 HD
BRANCH  19  21
ATOM     21  C   UNL A   1      35.270  32.169  30.770  1.00  0.00     0.303 C 
BRANCH  21  22
ATOM     22  C   UNL A   1      34.623  32.994  29.699  1.00  0.00     0.052 A 
ATOM     23  C   UNL A   1      34.589  34.376  29.631  1.00  0.00     0.115 A 
ATOM     24  C   UNL A   1      34.029  32.584  28.451  1.00  0.00     0.101 A 
ATOM     25  N   UNL A   1      33.881  34.702  28.520  1.00  0.00    -0.285 N 
ATOM     26  N   UNL A   1      33.523  33.641  27.793  1.00  0.00    -0.175 NA
ATOM     27  H   UNL A   1      33.653  35.627  28.275  1.00  0.00     0.189 HD
BRANCH  24  28
ATOM     28  C   UNL A   1      33.960  31.265  27.819  1.00  0.00     0.003 A 
ATOM     29  C   UNL A   1      35.118  30.473  27.791  1.00  0.00     0.012 A 
ATOM     30  C   UNL A   1      32.801  30.776  27.209  1.00  0.00     0.012 A 
ATOM     31  C   UNL A   1      35.107  29.206  27.200  1.00  0.00     0.021 A 
ATOM     32  C   UNL A   1      32.783  29.505  26.623  1.00  0.00     0.021 A 
ATOM     33  C   UNL A   1      33.935  28.723  26.627  1.00  0.00     0.041 A 
ATOM     34  Cl  UNL A   1      33.912  27.159  25.912  1.00  0.00    -0.084 Cl
ENDBRANCH  24  28
ENDBRANCH  21  22
ENDBRANCH  19  21
ENDBRANCH   5   8
ENDBRANCH   3   4
ENDBRANCH   2   3
ENDBRANCH   1   2
BRANCH   1  35
ATOM     35  C   UNL A   1      40.331  27.146  27.662  1.00  0.00     0.002 C 
BRANCH  35  36
ATOM     36  C   UNL A   1      39.789  25.720  27.793  1.00  0.00     0.021 C 
BRANCH  36  37
ATOM     37  C   UNL A   1      39.962  24.868  26.541  1.00  0.00     0.116 C 
BRANCH  37  38
ATOM     38  N   UNL A   1      40.718  23.658  26.821  1.00  0.00    -0.352 N 
ATOM     39  C   UNL A   1      42.072  23.455  26.771  1.00  0.00     0.251 C 
ATOM     40  H   UNL A   1      40.182  22.875  27.083  1.00  0.00     0.163 HD
ATOM     41  O   UNL A   1      42.529  22.317  26.782  1.00  0.00    -0.269 OA
BRANCH  39  42
ATOM     42  C   UNL A   1      42.978  24.618  26.697  1.00  0.00     0.039 A 
ATOM     43  C   UNL A   1      43.494  25.149  27.879  1.00  0.00     0.014 A 
ATOM     44  C   UNL A   1      43.303  25.190  25.462  1.00  0.00     0.014 A 
ATOM     45  C   UNL A   1      44.371  26.232  27.821  1.00  0.00     0.010 A 
ATOM     46  C   UNL A   1      44.241  26.214  25.401  1.00  0.00     0.010 A 
ATOM     47  C   UNL A   1      44.771  26.756  26.581  1.00  0.00    -0.014 A 
BRANCH  47  48
ATOM     48  C   UNL A   1      45.739  27.876  26.505  1.00  0.00     0.031 A 
ATOM     49  C   UNL A   1      47.211  27.599  26.378  1.00  0.00     0.074 A 
ATOM     50  C   UNL A   1      45.297  29.144  26.610  1.00  0.00     0.049 A 
ATOM     51  N   UNL A   1      48.208  28.446  26.321  1.00  0.00    -0.248 NA
ATOM     52  C   UNL A   1      47.619  26.186  26.338  1.00  0.00     0.031 C 
ATOM     53  C   UNL A   1      43.899  29.540  26.792  1.00  0.00     0.029 A 
ATOM     54  N   UNL A   1      45.980  30.333  26.585  1.00  0.00    -0.354 N 
ATOM     55  C   UNL A   1      49.358  27.669  26.260  1.00  0.00     0.074 A 
ATOM     56  C   UNL A   1      48.940  26.287  26.342  1.00  0.00     0.031 C 
ATOM     57  C   UNL A   1      43.826  30.878  26.838  1.00  0.00     0.029 A 
ATOM     58  C   UNL A   1      45.172  31.433  26.731  1.00  0.00     0.049 A 
ATOM     59  H   UNL A   1      46.957  30.392  26.472  1.00  0.00     0.167 HD
ATOM     60  C   UNL A   1      50.646  28.070  26.130  1.00  0.00     0.031 A 
ATOM     61  C   UNL A   1      45.479  32.742  26.785  1.00  0.00     0.031 A 
ATOM     62  C   UNL A   1      51.057  29.446  26.051  1.00  0.00     0.049 A 
ATOM     63  C   UNL A   1      46.912  33.165  26.641  1.00  0.00     0.074 A 
ATOM     64  C   UNL A   1      52.327  29.956  25.848  1.00  0.00     0.029 A 
ATOM     65  N   UNL A   1      50.207  30.533  26.188  1.00  0.00    -0.354 N 
ATOM     66  N   UNL A   1      47.982  32.421  26.489  1.00  0.00    -0.248 NA
ATOM     67  C   UNL A   1      47.180  34.610  26.660  1.00  0.00     0.031 C 
ATOM     68  C   UNL A   1      52.256  31.351  25.932  1.00  0.00     0.029 A 
ATOM     69  C   UNL A   1      50.930  31.711  26.113  1.00  0.00     0.049 A 
ATOM     70  H   UNL A   1      49.232  30.475  26.320  1.00  0.00     0.167 HD
ATOM     71  C   UNL A   1      49.046  33.305  26.371  1.00  0.00     0.074 A 
ATOM     72  C   UNL A   1      48.489  34.641  26.450  1.00  0.00     0.031 C 
ATOM     73  C   UNL A   1      50.364  33.035  26.209  1.00  0.00     0.031 A 
BRANCH  60  74
ATOM     74  C   UNL A   1      51.702  26.996  26.097  1.00  0.00    -0.014 A 
ATOM     75  C   UNL A   1      52.048  26.338  24.904  1.00  0.00     0.009 A 
ATOM     76  C   UNL A   1      52.369  26.641  27.280  1.00  0.00     0.009 A 
ATOM     77  C   UNL A   1      52.996  25.313  24.908  1.00  0.00     0.001 A 
ATOM     78  C   UNL A   1      53.344  25.642  27.275  1.00  0.00     0.001 A 
ATOM     79  C   UNL A   1      53.646  24.968  26.092  1.00  0.00     0.000 A 
ENDBRANCH  60  74
BRANCH  61  80
ATOM     80  C   UNL A   1      44.395  33.742  26.981  1.00  0.00    -0.014 A 
ATOM     81  C   UNL A   1      43.977  34.105  28.270  1.00  0.00     0.009 A 
ATOM     82  C   UNL A   1      43.794  34.360  25.873  1.00  0.00     0.009 A 
ATOM     83  C   UNL A   1      42.965  35.052  28.444  1.00  0.00     0.001 A 
ATOM     84  C   UNL A   1      42.805  35.329  26.050  1.00  0.00     0.001 A 
ATOM     85  C   UNL A   1      42.386  35.669  27.335  1.00  0.00     0.000 A 
ENDBRANCH  61  80
BRANCH  73  86
ATOM     86  C   UNL A   1      51.297  34.209  26.080  1.00  0.00    -0.014 A 
ATOM     87  C   UNL A   1      51.953  34.751  27.196  1.00  0.00     0.009 A 
ATOM     88  C   UNL A   1      51.550  34.756  24.812  1.00  0.00     0.009 A 
ATOM     89  C   UNL A   1      52.815  35.841  27.048  1.00  0.00     0.001 A 
ATOM     90  C   UNL A   1      52.439  35.822  24.663  1.00  0.00     0.001 A 
ATOM     91  C   UNL A   1      53.061  36.370  25.783  1.00  0.00     0.000 A 
ENDBRANCH  73  86
ENDBRANCH  47  48
ENDBRANCH  39  42
ENDBRANCH  37  38
ENDBRANCH  36  37
ENDBRANCH  35  36
ENDBRANCH   1  35
TORSDOF 16
ENDMDL
MODEL 3
REMARK VINA RESULT:     -10.6      3.905      8.790
REMARK SMILES O=C1C[C@@H](C(=O)NCCCCCCNC(=O)c2ccc(-c3c4nc(c(-c5ccccc5)c5ccc([nH]5)c(-c5ccccc5)c5nc(c(-c6ccccc6)c6ccc3[nH]6)C=C5)C=C4)cc2)C2(CC[NH+](Cc3c[nH]nc3-c3ccc(Cl)cc3)CC2)N1
REMARK SMILES IDX 10 1 9 2 8 3 7 4 5 5 6 6 4 8 1 9 2 10 3 11 84 12 65 13 66 15
REMARK SMILES IDX 83 16 67 17 82 18 68 19 69 21 70 22 71 23 74 24 72 25 73 26
REMARK SMILES IDX 75 28 76 29 81 30 77 31 80 32 78 33 79 34 11 35 12 36 13 37
REMARK SMILES IDX 14 38 15 39 16 41 17 42 18 43 64 44 19 45 63 46 20 47 21 48
REMARK SMILES IDX 22 49 57 50 23 51 62 52 56 53 58 54 24 55 61 56 55 57 54 58
REMARK SMILES IDX 25 60 47 61 32 62 46 63 33 64 36 65 45 66 59 67 34 68 35 69
REMARK SMILES IDX 44 71 60 72 37 73 26 74 27 75 31 76 28 77 30 78 29 79 48 80
REMARK SMILES IDX 49 81 53 82 50 83 52 84 51 85 38 86 39 87 43 88 40 89 42 90
REMARK SMILES IDX 41 91
REMARK H PARENT 7 7 84 14 68 20 72 27 14 40 58 59 36 70
REMARK Flexibility Score: inf
ROOT
ATOM      1  C   UNL A   1      38.186  24.036  26.512  1.00  0.00     0.002 C 
ENDROOT
BRANCH   1   2
ATOM      2  C   UNL A   1      38.034  22.633  25.928  1.00  0.00     0.021 C 
BRANCH   2   3
ATOM      3  C   UNL A   1      36.599  22.272  25.533  1.00  0.00     0.116 C 
BRANCH   3   4
ATOM      4  N   UNL A   1      36.220  22.764  24.220  1.00  0.00    -0.356 N 
ATOM      5  C   UNL A   1      35.038  22.821  23.553  1.00  0.00     0.226 C 
ATOM      6  O   UNL A   1      35.080  23.282  22.406  1.00  0.00    -0.275 OA
ATOM      7  H   UNL A   1      36.975  23.134  23.708  1.00  0.00     0.163 HD
BRANCH   5   8
ATOM      8  C   UNL A   1      33.689  22.341  24.105  1.00  0.00     0.114 C 
ATOM      9  O   UNL A   1      31.531  20.696  21.778  1.00  0.00    -0.275 OA
ATOM     10  C   UNL A   1      32.088  21.402  22.597  1.00  0.00     0.221 C 
ATOM     11  C   UNL A   1      33.245  21.014  23.476  1.00  0.00     0.116 C 
ATOM     12  N   UNL A   1      31.772  22.718  22.847  1.00  0.00    -0.349 N 
ATOM     13  C   UNL A   1      32.471  23.287  23.993  1.00  0.00     0.063 C 
ATOM     14  H   UNL A   1      31.132  23.230  22.302  1.00  0.00     0.164 HD
ATOM     15  C   UNL A   1      32.848  24.754  23.736  1.00  0.00     0.091 C 
ATOM     16  C   UNL A   1      31.496  23.116  25.195  1.00  0.00     0.091 C 
ATOM     17  C   UNL A   1      32.986  25.598  24.990  1.00  0.00     0.264 C 
ATOM     18  C   UNL A   1      31.549  24.192  26.279  1.00  0.00     0.264 C 
ATOM     19  N   UNL A   1      31.799  25.544  25.814  1.00  0.00    -0.331 N 
ATOM     20  H   UNL A   1      31.997  26.064  26.668  1.00  0.00     0.348 HD
BRANCH  19  21
ATOM     21  C   UNL A   1      30.668  26.398  25.418  1.00  0.00     0.303 C 
BRANCH  21  22
ATOM     22  C   UNL A   1      30.909  27.329  24.269  1.00  0.00     0.052 A 
ATOM     23  C   UNL A   1      30.331  27.254  23.013  1.00  0.00     0.115 A 
ATOM     24  C   UNL A   1      31.651  28.564  24.221  1.00  0.00     0.101 A 
ATOM     25  N   UNL A   1      30.848  28.270  22.277  1.00  0.00    -0.285 N 
ATOM     26  N   UNL A   1      31.654  29.072  22.977  1.00  0.00    -0.175 NA
ATOM     27  H   UNL A   1      30.650  28.403  21.322  1.00  0.00     0.189 HD
BRANCH  24  28
ATOM     28  C   UNL A   1      32.310  29.318  25.289  1.00  0.00     0.003 A 
ATOM     29  C   UNL A   1      31.667  30.455  25.803  1.00  0.00     0.012 A 
ATOM     30  C   UNL A   1      33.570  28.978  25.792  1.00  0.00     0.012 A 
ATOM     31  C   UNL A   1      32.251  31.212  26.822  1.00  0.00     0.021 A 
ATOM     32  C   UNL A   1      34.156  29.729  26.818  1.00  0.00     0.021 A 
ATOM     33  C   UNL A   1      33.491  30.838  27.333  1.00  0.00     0.041 A 
ATOM     34  Cl  UNL A   1      34.208  31.757  28.597  1.00  0.00    -0.084 Cl
ENDBRANCH  24  28
ENDBRANCH  21  22
ENDBRANCH  19  21
ENDBRANCH   5   8
ENDBRANCH   3   4
ENDBRANCH   2   3
ENDBRANCH   1   2
BRANCH   1  35
ATOM     35  C   UNL A   1      39.638  24.481  26.702  1.00  0.00     0.002 C 
BRANCH  35  36
ATOM     36  C   UNL A   1      39.942  25.096  28.071  1.00  0.00     0.021 C 
BRANCH  36  37
ATOM     37  C   UNL A   1      41.415  25.052  28.463  1.00  0.00     0.116 C 
BRANCH  37  38
ATOM     38  N   UNL A   1      42.054  23.836  27.990  1.00  0.00    -0.352 N 
ATOM     39  C   UNL A   1      43.185  23.695  27.228  1.00  0.00     0.251 C 
ATOM     40  H   UNL A   1      41.614  22.996  28.252  1.00  0.00     0.163 HD
ATOM     41  O   UNL A   1      43.446  22.621  26.698  1.00  0.00    -0.269 OA
BRANCH  39  42
ATOM     42  C   UNL A   1      44.085  24.851  27.045  1.00  0.00     0.039 A 
ATOM     43  C   UNL A   1      44.187  25.433  25.780  1.00  0.00     0.014 A 
ATOM     44  C   UNL A   1      44.836  25.346  28.116  1.00  0.00     0.014 A 
ATOM     45  C   UNL A   1      45.015  26.541  25.599  1.00  0.00     0.010 A 
ATOM     46  C   UNL A   1      45.594  26.500  27.952  1.00  0.00     0.010 A 
ATOM     47  C   UNL A   1      45.704  27.098  26.689  1.00  0.00    -0.014 A 
BRANCH  47  48
ATOM     48  C   UNL A   1      46.550  28.304  26.518  1.00  0.00     0.031 A 
ATOM     49  C   UNL A   1      48.034  28.167  26.322  1.00  0.00     0.074 A 
ATOM     50  C   UNL A   1      45.989  29.525  26.596  1.00  0.00     0.049 A 
ATOM     51  N   UNL A   1      48.938  29.104  26.180  1.00  0.00    -0.248 NA
ATOM     52  C   UNL A   1      48.580  26.801  26.315  1.00  0.00     0.031 C 
ATOM     53  C   UNL A   1      44.569  29.790  26.838  1.00  0.00     0.029 A 
ATOM     54  N   UNL A   1      46.547  30.773  26.489  1.00  0.00    -0.354 N 
ATOM     55  C   UNL A   1      50.155  28.443  26.086  1.00  0.00     0.074 A 
ATOM     56  C   UNL A   1      49.882  27.031  26.244  1.00  0.00     0.031 C 
ATOM     57  C   UNL A   1      44.364  31.115  26.836  1.00  0.00     0.029 A 
ATOM     58  C   UNL A   1      45.641  31.794  26.636  1.00  0.00     0.049 A 
ATOM     59  H   UNL A   1      47.506  30.923  26.322  1.00  0.00     0.167 HD
ATOM     60  C   UNL A   1      51.388  28.961  25.872  1.00  0.00     0.031 A 
ATOM     61  C   UNL A   1      45.817  33.128  26.623  1.00  0.00     0.031 A 
ATOM     62  C   UNL A   1      51.655  30.366  25.718  1.00  0.00     0.049 A 
ATOM     63  C   UNL A   1      47.192  33.683  26.385  1.00  0.00     0.074 A 
ATOM     64  C   UNL A   1      52.856  30.989  25.427  1.00  0.00     0.029 A 
ATOM     65  N   UNL A   1      50.708  31.370  25.858  1.00  0.00    -0.354 N 
ATOM     66  N   UNL A   1      48.322  33.042  26.205  1.00  0.00    -0.248 NA
ATOM     67  C   UNL A   1      47.315  35.147  26.333  1.00  0.00     0.031 C 
ATOM     68  C   UNL A   1      52.649  32.373  25.462  1.00  0.00     0.029 A 
ATOM     69  C   UNL A   1      51.304  32.609  25.699  1.00  0.00     0.049 A 
ATOM     70  H   UNL A   1      49.751  31.222  26.044  1.00  0.00     0.167 HD
ATOM     71  C   UNL A   1      49.285  34.020  25.996  1.00  0.00     0.074 A 
ATOM     72  C   UNL A   1      48.601  35.297  26.052  1.00  0.00     0.031 C 
ATOM     73  C   UNL A   1      50.614  33.874  25.774  1.00  0.00     0.031 A 
BRANCH  60  74
ATOM     74  C   UNL A   1      52.543  27.996  25.825  1.00  0.00    -0.014 A 
ATOM     75  C   UNL A   1      53.231  27.610  26.988  1.00  0.00     0.009 A 
ATOM     76  C   UNL A   1      52.948  27.456  24.593  1.00  0.00     0.009 A 
ATOM     77  C   UNL A   1      54.328  26.751  26.912  1.00  0.00     0.001 A 
ATOM     78  C   UNL A   1      54.022  26.568  24.524  1.00  0.00     0.001 A 
ATOM     79  C   UNL A   1      54.722  26.227  25.681  1.00  0.00     0.000 A 
ENDBRANCH  60  74
BRANCH  61  80
ATOM     80  C   UNL A   1      44.650  34.024  26.837  1.00  0.00    -0.014 A 
ATOM     81  C   UNL A   1      44.325  34.486  28.121  1.00  0.00     0.009 A 
ATOM     82  C   UNL A   1      43.871  34.445  25.748  1.00  0.00     0.009 A 
ATOM     83  C   UNL A   1      43.232  35.336  28.312  1.00  0.00     0.001 A 
ATOM     84  C   UNL A   1      42.799  35.320  25.936  1.00  0.00     0.001 A 
ATOM     85  C   UNL A   1      42.476  35.758  27.219  1.00  0.00     0.000 A 
ENDBRANCH  61  80
BRANCH  73  86
ATOM     86  C   UNL A   1      51.417  35.127  25.550  1.00  0.00    -0.014 A 
ATOM     87  C   UNL A   1      52.024  35.810  26.615  1.00  0.00     0.009 A 
ATOM     88  C   UNL A   1      51.598  35.609  24.243  1.00  0.00     0.009 A 
ATOM     89  C   UNL A   1      52.765  36.970  26.379  1.00  0.00     0.001 A 
ATOM     90  C   UNL A   1      52.368  36.749  24.007  1.00  0.00     0.001 A 
ATOM     91  C   UNL A   1      52.941  37.434  25.076  1.00  0.00     0.000 A 
ENDBRANCH  73  86
ENDBRANCH  47  48
ENDBRANCH  39  42
ENDBRANCH  37  38
ENDBRANCH  36  37
ENDBRANCH  35  36
ENDBRANCH   1  35
TORSDOF 16
ENDMDL
