MODEL 1
REMARK VINA RESULT:     -11.0      0.000      0.000
REMARK SMILES CC1CC[NH+]([C@H](c2ccc(F)cc2)c2ccc([C@@H](C)C(=O)NCCCCCCNC(=O)c3ccc(-c4c5nc(c(-c6ccccc6)c6ccc([nH]6)c(-c6ccccc6)c6nc(c(-c7ccccc7)c7ccc4[nH]7)C=C6)C=C5)cc3)cc2-c2ccc(C(F)(F)F)cc2)CC1
REMARK SMILES IDX 25 1 24 2 23 3 22 4 20 5 21 6 18 8 19 9 17 10 14 11 15 12
REMARK SMILES IDX 81 13 16 14 80 15 6 16 5 17 1 18 2 19 3 20 93 21 4 22 92 23
REMARK SMILES IDX 7 25 8 26 13 27 9 28 12 29 10 30 11 31 82 32 83 33 91 34
REMARK SMILES IDX 84 35 90 36 85 37 86 38 87 39 88 40 89 41 26 42 27 43 28 44
REMARK SMILES IDX 29 45 30 46 31 48 32 49 33 50 79 51 34 52 78 53 35 54 36 55
REMARK SMILES IDX 37 56 72 57 38 58 77 59 71 60 73 61 39 62 76 63 70 64 69 65
REMARK SMILES IDX 40 67 62 68 47 69 61 70 48 71 51 72 60 73 74 74 49 75 50 76
REMARK SMILES IDX 59 78 75 79 52 80 41 81 42 82 46 83 43 84 45 85 44 86 63 87
REMARK SMILES IDX 64 88 68 89 65 90 67 91 66 92 53 93 54 94 58 95 55 96 57 97
REMARK SMILES IDX 56 98
REMARK H PARENT 22 7 5 24 29 47 73 66 51 77
REMARK Flexibility Score: inf
ROOT
ATOM      1  C   UNL A   1      36.074  23.632  26.329  1.00  0.00     0.002 C 
ENDROOT
BRANCH   1   2
ATOM      2  C   UNL A   1      34.936  24.032  25.387  1.00  0.00     0.021 C 
BRANCH   2   3
ATOM      3  C   UNL A   1      34.568  25.520  25.450  1.00  0.00     0.116 C 
BRANCH   3   4
ATOM      4  N   UNL A   1      33.305  25.732  26.128  1.00  0.00    -0.356 N 
ATOM      5  C   UNL A   1      32.525  26.832  26.312  1.00  0.00     0.227 C 
ATOM      6  O   UNL A   1      31.522  26.668  27.019  1.00  0.00    -0.274 OA
ATOM      7  H   UNL A   1      32.937  24.917  26.538  1.00  0.00     0.163 HD
BRANCH   5   8
ATOM      8  C   UNL A   1      32.806  28.219  25.703  1.00  0.00     0.105 C 
ATOM      9  C   UNL A   1      33.324  28.172  24.267  1.00  0.00     0.023 C 
BRANCH   8  10
ATOM     10  C   UNL A   1      33.568  29.140  26.639  1.00  0.00    -0.035 A 
ATOM     11  C   UNL A   1      35.090  31.109  28.061  1.00  0.00     0.022 A 
ATOM     12  C   UNL A   1      33.704  31.208  27.873  1.00  0.00     0.011 A 
ATOM     13  C   UNL A   1      35.698  29.893  27.641  1.00  0.00    -0.009 A 
ATOM     14  C   UNL A   1      32.954  30.204  27.274  1.00  0.00     0.005 A 
ATOM     15  C   UNL A   1      34.940  28.975  26.866  1.00  0.00     0.013 A 
BRANCH  11  16
ATOM     16  C   UNL A   1      35.881  32.253  28.763  1.00  0.00     0.247 C 
BRANCH  16  17
ATOM     17  N   UNL A   1      36.604  31.931  30.041  1.00  0.00    -0.325 N 
ATOM     18  C   UNL A   1      37.862  32.473  34.203  1.00  0.00     0.008 C 
ATOM     19  C   UNL A   1      37.234  32.589  32.823  1.00  0.00    -0.003 C 
ATOM     20  C   UNL A   1      36.330  31.396  32.524  1.00  0.00     0.065 C 
ATOM     21  C   UNL A   1      38.312  32.637  31.753  1.00  0.00     0.065 C 
ATOM     22  C   UNL A   1      35.733  31.438  31.112  1.00  0.00     0.263 C 
ATOM     23  C   UNL A   1      37.681  32.858  30.386  1.00  0.00     0.263 C 
ATOM     24  H   UNL A   1      37.158  31.097  29.849  1.00  0.00     0.348 HD
ENDBRANCH  16  17
BRANCH  16  25
ATOM     25  C   UNL A   1      35.066  33.553  28.926  1.00  0.00     0.014 A 
ATOM     26  C   UNL A   1      35.058  34.558  27.938  1.00  0.00     0.013 A 
ATOM     27  C   UNL A   1      34.303  33.756  30.091  1.00  0.00     0.013 A 
ATOM     28  C   UNL A   1      34.293  35.715  28.100  1.00  0.00     0.040 A 
ATOM     29  C   UNL A   1      33.572  34.932  30.270  1.00  0.00     0.040 A 
ATOM     30  C   UNL A   1      33.566  35.895  29.269  1.00  0.00     0.123 A 
ATOM     31  F   UNL A   1      32.847  37.013  29.433  1.00  0.00    -0.207 F 
ENDBRANCH  16  25
ENDBRANCH  11  16
BRANCH  13  32
ATOM     32  C   UNL A   1      37.068  29.491  28.019  1.00  0.00    -0.018 A 
ATOM     33  C   UNL A   1      38.147  29.634  27.135  1.00  0.00     0.009 A 
ATOM     34  C   UNL A   1      37.312  28.900  29.270  1.00  0.00     0.009 A 
ATOM     35  C   UNL A   1      39.436  29.233  27.504  1.00  0.00     0.014 A 
ATOM     36  C   UNL A   1      38.600  28.512  29.648  1.00  0.00     0.014 A 
ATOM     37  C   UNL A   1      39.678  28.683  28.771  1.00  0.00     0.056 A 
BRANCH  37  38
ATOM     38  C   UNL A   1      41.073  28.265  29.164  1.00  0.00     0.416 C 
ATOM     39  F   UNL A   1      41.704  27.567  28.180  1.00  0.00    -0.166 F 
ATOM     40  F   UNL A   1      41.879  29.325  29.449  1.00  0.00    -0.166 F 
ATOM     41  F   UNL A   1      41.108  27.466  30.268  1.00  0.00    -0.166 F 
ENDBRANCH  37  38
ENDBRANCH  13  32
ENDBRANCH   8  10
ENDBRANCH   5   8
ENDBRANCH   3   4
ENDBRANCH   2   3
ENDBRANCH   1   2
BRANCH   1  42
ATOM     42  C   UNL A   1      37.479  23.969  25.814  1.00  0.00     0.002 C 
BRANCH  42  43
ATOM     43  C   UNL A   1      38.516  24.268  26.901  1.00  0.00     0.021 C 
BRANCH  43  44
ATOM     44  C   UNL A   1      39.920  24.535  26.365  1.00  0.00     0.116 C 
BRANCH  44  45
ATOM     45  N   UNL A   1      40.771  23.359  26.494  1.00  0.00    -0.352 N 
ATOM     46  C   UNL A   1      42.137  23.258  26.362  1.00  0.00     0.251 C 
ATOM     47  H   UNL A   1      40.303  22.518  26.705  1.00  0.00     0.163 HD
ATOM     48  O   UNL A   1      42.679  22.170  26.235  1.00  0.00    -0.269 OA
BRANCH  46  49
ATOM     49  C   UNL A   1      42.944  24.492  26.390  1.00  0.00     0.039 A 
ATOM     50  C   UNL A   1      43.560  24.913  27.570  1.00  0.00     0.014 A 
ATOM     51  C   UNL A   1      43.098  25.226  25.215  1.00  0.00     0.014 A 
ATOM     52  C   UNL A   1      44.402  26.030  27.545  1.00  0.00     0.010 A 
ATOM     53  C   UNL A   1      43.999  26.279  25.173  1.00  0.00     0.010 A 
ATOM     54  C   UNL A   1      44.665  26.694  26.335  1.00  0.00    -0.014 A 
BRANCH  54  55
ATOM     55  C   UNL A   1      45.628  27.820  26.226  1.00  0.00     0.031 A 
ATOM     56  C   UNL A   1      47.100  27.535  26.084  1.00  0.00     0.074 A 
ATOM     57  C   UNL A   1      45.202  29.088  26.393  1.00  0.00     0.049 A 
ATOM     58  N   UNL A   1      48.113  28.361  26.147  1.00  0.00    -0.248 NA
ATOM     59  C   UNL A   1      47.483  26.127  25.888  1.00  0.00     0.031 C 
ATOM     60  C   UNL A   1      43.810  29.500  26.587  1.00  0.00     0.029 A 
ATOM     61  N   UNL A   1      45.907  30.265  26.451  1.00  0.00    -0.354 N 
ATOM     62  C   UNL A   1      49.250  27.569  26.034  1.00  0.00     0.074 A 
ATOM     63  C   UNL A   1      48.804  26.196  25.955  1.00  0.00     0.031 C 
ATOM     64  C   UNL A   1      43.762  30.834  26.724  1.00  0.00     0.029 A 
ATOM     65  C   UNL A   1      45.120  31.368  26.682  1.00  0.00     0.049 A 
ATOM     66  H   UNL A   1      46.884  30.314  26.339  1.00  0.00     0.167 HD
ATOM     67  C   UNL A   1      50.548  27.951  25.982  1.00  0.00     0.031 A 
ATOM     68  C   UNL A   1      45.453  32.660  26.860  1.00  0.00     0.031 A 
ATOM     69  C   UNL A   1      50.988  29.319  26.047  1.00  0.00     0.049 A 
ATOM     70  C   UNL A   1      46.900  33.063  26.810  1.00  0.00     0.074 A 
ATOM     71  C   UNL A   1      52.275  29.815  25.934  1.00  0.00     0.029 A 
ATOM     72  N   UNL A   1      50.153  30.407  26.247  1.00  0.00    -0.354 N 
ATOM     73  N   UNL A   1      47.960  32.311  26.632  1.00  0.00    -0.248 NA
ATOM     74  C   UNL A   1      47.199  34.493  26.974  1.00  0.00     0.031 C 
ATOM     75  C   UNL A   1      52.226  31.198  26.128  1.00  0.00     0.029 A 
ATOM     76  C   UNL A   1      50.901  31.571  26.288  1.00  0.00     0.049 A 
ATOM     77  H   UNL A   1      49.174  30.359  26.346  1.00  0.00     0.167 HD
ATOM     78  C   UNL A   1      49.044  33.179  26.623  1.00  0.00     0.074 A 
ATOM     79  C   UNL A   1      48.515  34.514  26.812  1.00  0.00     0.031 C 
ATOM     80  C   UNL A   1      50.360  32.894  26.464  1.00  0.00     0.031 A 
BRANCH  67  81
ATOM     81  C   UNL A   1      51.586  26.866  25.864  1.00  0.00    -0.014 A 
ATOM     82  C   UNL A   1      52.023  26.404  24.613  1.00  0.00     0.009 A 
ATOM     83  C   UNL A   1      52.152  26.316  27.024  1.00  0.00     0.009 A 
ATOM     84  C   UNL A   1      52.967  25.378  24.526  1.00  0.00     0.001 A 
ATOM     85  C   UNL A   1      53.123  25.316  26.935  1.00  0.00     0.001 A 
ATOM     86  C   UNL A   1      53.519  24.839  25.687  1.00  0.00     0.000 A 
ENDBRANCH  67  81
BRANCH  68  87
ATOM     87  C   UNL A   1      44.388  33.674  27.089  1.00  0.00    -0.014 A 
ATOM     88  C   UNL A   1      43.822  34.367  26.008  1.00  0.00     0.009 A 
ATOM     89  C   UNL A   1      43.924  33.947  28.385  1.00  0.00     0.009 A 
ATOM     90  C   UNL A   1      42.831  35.328  26.221  1.00  0.00     0.001 A 
ATOM     91  C   UNL A   1      42.911  34.885  28.593  1.00  0.00     0.001 A 
ATOM     92  C   UNL A   1      42.372  35.582  27.513  1.00  0.00     0.000 A 
ENDBRANCH  68  87
BRANCH  80  93
ATOM     93  C   UNL A   1      51.324  34.047  26.422  1.00  0.00    -0.014 A 
ATOM     94  C   UNL A   1      51.987  34.496  27.574  1.00  0.00     0.009 A 
ATOM     95  C   UNL A   1      51.633  34.638  25.185  1.00  0.00     0.009 A 
ATOM     96  C   UNL A   1      52.925  35.528  27.489  1.00  0.00     0.001 A 
ATOM     97  C   UNL A   1      52.592  35.647  25.100  1.00  0.00     0.001 A 
ATOM     98  C   UNL A   1      53.232  36.096  26.253  1.00  0.00     0.000 A 
ENDBRANCH  80  93
ENDBRANCH  54  55
ENDBRANCH  46  49
ENDBRANCH  44  45
ENDBRANCH  43  44
ENDBRANCH  42  43
ENDBRANCH   1  42
TORSDOF 19
ENDMDL
MODEL 2
REMARK VINA RESULT:     -10.8      5.530      8.480
REMARK SMILES CC1CC[NH+]([C@H](c2ccc(F)cc2)c2ccc([C@@H](C)C(=O)NCCCCCCNC(=O)c3ccc(-c4c5nc(c(-c6ccccc6)c6ccc([nH]6)c(-c6ccccc6)c6nc(c(-c7ccccc7)c7ccc4[nH]7)C=C6)C=C5)cc3)cc2-c2ccc(C(F)(F)F)cc2)CC1
REMARK SMILES IDX 25 1 24 2 23 3 22 4 20 5 21 6 18 8 19 9 17 10 14 11 15 12
REMARK SMILES IDX 81 13 16 14 80 15 6 16 5 17 1 18 2 19 3 20 93 21 4 22 92 23
REMARK SMILES IDX 7 25 8 26 13 27 9 28 12 29 10 30 11 31 82 32 83 33 91 34
REMARK SMILES IDX 84 35 90 36 85 37 86 38 87 39 88 40 89 41 26 42 27 43 28 44
REMARK SMILES IDX 29 45 30 46 31 48 32 49 33 50 79 51 34 52 78 53 35 54 36 55
REMARK SMILES IDX 37 56 72 57 38 58 77 59 71 60 73 61 39 62 76 63 70 64 69 65
REMARK SMILES IDX 40 67 62 68 47 69 61 70 48 71 51 72 60 73 74 74 49 75 50 76
REMARK SMILES IDX 59 78 75 79 52 80 41 81 42 82 46 83 43 84 45 85 44 86 63 87
REMARK SMILES IDX 64 88 68 89 65 90 67 91 66 92 53 93 54 94 58 95 55 96 57 97
REMARK SMILES IDX 56 98
REMARK H PARENT 22 7 5 24 29 47 73 66 51 77
REMARK Flexibility Score: inf
ROOT
ATOM      1  C   UNL A   1      44.642  24.667  37.701  1.00  0.00     0.002 C 
ENDROOT
BRANCH   1   2
ATOM      2  C   UNL A   1      43.558  25.748  37.694  1.00  0.00     0.021 C 
BRANCH   2   3
ATOM      3  C   UNL A   1      42.688  25.749  36.430  1.00  0.00     0.116 C 
BRANCH   3   4
ATOM      4  N   UNL A   1      41.611  26.715  36.521  1.00  0.00    -0.356 N 
ATOM      5  C   UNL A   1      41.534  28.046  36.251  1.00  0.00     0.227 C 
ATOM      6  O   UNL A   1      40.453  28.587  36.517  1.00  0.00    -0.274 OA
ATOM      7  H   UNL A   1      40.765  26.330  36.844  1.00  0.00     0.163 HD
BRANCH   5   8
ATOM      8  C   UNL A   1      42.676  28.886  35.646  1.00  0.00     0.105 C 
ATOM      9  C   UNL A   1      43.403  29.766  36.660  1.00  0.00     0.023 C 
BRANCH   8  10
ATOM     10  C   UNL A   1      42.290  29.573  34.348  1.00  0.00    -0.035 A 
ATOM     11  C   UNL A   1      41.181  30.922  32.075  1.00  0.00     0.022 A 
ATOM     12  C   UNL A   1      41.829  31.596  33.119  1.00  0.00     0.011 A 
ATOM     13  C   UNL A   1      41.231  29.501  32.116  1.00  0.00    -0.009 A 
ATOM     14  C   UNL A   1      42.456  30.933  34.167  1.00  0.00     0.005 A 
ATOM     15  C   UNL A   1      41.709  28.861  33.292  1.00  0.00     0.013 A 
BRANCH  11  16
ATOM     16  C   UNL A   1      40.517  31.712  30.909  1.00  0.00     0.247 C 
BRANCH  16  17
ATOM     17  N   UNL A   1      41.072  33.066  30.566  1.00  0.00    -0.325 N 
ATOM     18  C   UNL A   1      42.661  36.232  27.988  1.00  0.00     0.008 C 
ATOM     19  C   UNL A   1      42.088  34.950  28.568  1.00  0.00    -0.003 C 
ATOM     20  C   UNL A   1      40.714  35.188  29.189  1.00  0.00     0.065 C 
ATOM     21  C   UNL A   1      43.001  34.404  29.652  1.00  0.00     0.065 C 
ATOM     22  C   UNL A   1      40.131  33.934  29.852  1.00  0.00     0.263 C 
ATOM     23  C   UNL A   1      42.475  33.068  30.155  1.00  0.00     0.263 C 
ATOM     24  H   UNL A   1      41.157  33.568  31.450  1.00  0.00     0.348 HD
ENDBRANCH  16  17
BRANCH  16  25
ATOM     25  C   UNL A   1      38.978  31.779  31.009  1.00  0.00     0.014 A 
ATOM     26  C   UNL A   1      38.325  32.246  32.168  1.00  0.00     0.013 A 
ATOM     27  C   UNL A   1      38.190  31.366  29.919  1.00  0.00     0.013 A 
ATOM     28  C   UNL A   1      36.932  32.318  32.223  1.00  0.00     0.040 A 
ATOM     29  C   UNL A   1      36.796  31.400  29.992  1.00  0.00     0.040 A 
ATOM     30  C   UNL A   1      36.181  31.885  31.139  1.00  0.00     0.123 A 
ATOM     31  F   UNL A   1      34.844  31.937  31.199  1.00  0.00    -0.207 F 
ENDBRANCH  16  25
ENDBRANCH  11  16
BRANCH  13  32
ATOM     32  C   UNL A   1      40.870  28.636  30.975  1.00  0.00    -0.018 A 
ATOM     33  C   UNL A   1      39.581  28.101  30.835  1.00  0.00     0.009 A 
ATOM     34  C   UNL A   1      41.838  28.284  30.019  1.00  0.00     0.009 A 
ATOM     35  C   UNL A   1      39.261  27.272  29.754  1.00  0.00     0.014 A 
ATOM     36  C   UNL A   1      41.519  27.468  28.931  1.00  0.00     0.014 A 
ATOM     37  C   UNL A   1      40.223  26.960  28.783  1.00  0.00     0.056 A 
BRANCH  37  38
ATOM     38  C   UNL A   1      39.865  26.074  27.615  1.00  0.00     0.416 C 
ATOM     39  F   UNL A   1      38.533  26.101  27.332  1.00  0.00    -0.166 F 
ATOM     40  F   UNL A   1      40.501  26.436  26.467  1.00  0.00    -0.166 F 
ATOM     41  F   UNL A   1      40.178  24.763  27.815  1.00  0.00    -0.166 F 
ENDBRANCH  37  38
ENDBRANCH  13  32
ENDBRANCH   8  10
ENDBRANCH   5   8
ENDBRANCH   3   4
ENDBRANCH   2   3
ENDBRANCH   1   2
BRANCH   1  42
ATOM     42  C   UNL A   1      45.171  24.301  39.093  1.00  0.00     0.002 C 
BRANCH  42  43
ATOM     43  C   UNL A   1      45.715  22.875  39.228  1.00  0.00     0.021 C 
BRANCH  43  44
ATOM     44  C   UNL A   1      46.681  22.470  38.119  1.00  0.00     0.116 C 
BRANCH  44  45
ATOM     45  N   UNL A   1      46.365  21.145  37.598  1.00  0.00    -0.352 N 
ATOM     46  C   UNL A   1      45.696  20.803  36.445  1.00  0.00     0.251 C 
ATOM     47  H   UNL A   1      46.675  20.389  38.147  1.00  0.00     0.163 HD
ATOM     48  O   UNL A   1      45.276  19.668  36.273  1.00  0.00    -0.269 OA
BRANCH  46  49
ATOM     49  C   UNL A   1      45.503  21.832  35.406  1.00  0.00     0.039 A 
ATOM     50  C   UNL A   1      44.221  22.267  35.066  1.00  0.00     0.014 A 
ATOM     51  C   UNL A   1      46.622  22.378  34.780  1.00  0.00     0.014 A 
ATOM     52  C   UNL A   1      44.072  23.315  34.151  1.00  0.00     0.010 A 
ATOM     53  C   UNL A   1      46.476  23.472  33.941  1.00  0.00     0.010 A 
ATOM     54  C   UNL A   1      45.202  23.958  33.617  1.00  0.00    -0.014 A 
BRANCH  54  55
ATOM     55  C   UNL A   1      45.109  25.140  32.722  1.00  0.00     0.031 A 
ATOM     56  C   UNL A   1      44.846  24.948  31.252  1.00  0.00     0.074 A 
ATOM     57  C   UNL A   1      45.396  26.368  33.199  1.00  0.00     0.049 A 
ATOM     58  N   UNL A   1      44.900  25.822  30.280  1.00  0.00    -0.248 NA
ATOM     59  C   UNL A   1      44.523  23.580  30.813  1.00  0.00     0.031 C 
ATOM     60  C   UNL A   1      45.715  26.688  34.591  1.00  0.00     0.029 A 
ATOM     61  N   UNL A   1      45.491  27.576  32.551  1.00  0.00    -0.354 N 
ATOM     62  C   UNL A   1      44.652  25.105  29.116  1.00  0.00     0.074 A 
ATOM     63  C   UNL A   1      44.503  23.718  29.497  1.00  0.00     0.031 C 
ATOM     64  C   UNL A   1      45.951  28.005  34.697  1.00  0.00     0.029 A 
ATOM     65  C   UNL A   1      45.855  28.615  33.374  1.00  0.00     0.049 A 
ATOM     66  H   UNL A   1      45.316  27.686  31.589  1.00  0.00     0.167 HD
ATOM     67  C   UNL A   1      44.538  25.560  27.845  1.00  0.00     0.031 A 
ATOM     68  C   UNL A   1      46.102  29.909  33.095  1.00  0.00     0.031 A 
ATOM     69  C   UNL A   1      44.671  26.943  27.472  1.00  0.00     0.049 A 
ATOM     70  C   UNL A   1      45.982  30.394  31.678  1.00  0.00     0.074 A 
ATOM     71  C   UNL A   1      44.507  27.517  26.223  1.00  0.00     0.029 A 
ATOM     72  N   UNL A   1      45.007  27.967  28.344  1.00  0.00    -0.354 N 
ATOM     73  N   UNL A   1      45.678  29.715  30.596  1.00  0.00    -0.248 NA
ATOM     74  C   UNL A   1      46.229  31.823  31.440  1.00  0.00     0.031 C 
ATOM     75  C   UNL A   1      44.803  28.877  26.328  1.00  0.00     0.029 A 
ATOM     76  C   UNL A   1      45.080  29.165  27.655  1.00  0.00     0.049 A 
ATOM     77  H   UNL A   1      45.169  27.858  29.309  1.00  0.00     0.167 HD
ATOM     78  C   UNL A   1      45.658  30.640  29.561  1.00  0.00     0.074 A 
ATOM     79  C   UNL A   1      45.979  31.928  30.142  1.00  0.00     0.031 C 
ATOM     80  C   UNL A   1      45.389  30.441  28.247  1.00  0.00     0.031 A 
BRANCH  67  81
ATOM     81  C   UNL A   1      44.271  24.546  26.766  1.00  0.00    -0.014 A 
ATOM     82  C   UNL A   1      42.963  24.182  26.410  1.00  0.00     0.009 A 
ATOM     83  C   UNL A   1      45.346  23.962  26.077  1.00  0.00     0.009 A 
ATOM     84  C   UNL A   1      42.738  23.219  25.424  1.00  0.00     0.001 A 
ATOM     85  C   UNL A   1      45.118  23.027  25.066  1.00  0.00     0.001 A 
ATOM     86  C   UNL A   1      43.815  22.646  24.750  1.00  0.00     0.000 A 
ENDBRANCH  67  81
BRANCH  68  87
ATOM     87  C   UNL A   1      46.477  30.844  34.191  1.00  0.00    -0.014 A 
ATOM     88  C   UNL A   1      47.803  30.911  34.644  1.00  0.00     0.009 A 
ATOM     89  C   UNL A   1      45.516  31.679  34.781  1.00  0.00     0.009 A 
ATOM     90  C   UNL A   1      48.155  31.779  35.681  1.00  0.00     0.001 A 
ATOM     91  C   UNL A   1      45.876  32.568  35.796  1.00  0.00     0.001 A 
ATOM     92  C   UNL A   1      47.193  32.611  36.251  1.00  0.00     0.000 A 
ENDBRANCH  68  87
BRANCH  80  93
ATOM     93  C   UNL A   1      45.364  31.645  27.348  1.00  0.00    -0.014 A 
ATOM     94  C   UNL A   1      44.160  32.189  26.877  1.00  0.00     0.009 A 
ATOM     95  C   UNL A   1      46.572  32.294  27.038  1.00  0.00     0.009 A 
ATOM     96  C   UNL A   1      44.170  33.347  26.095  1.00  0.00     0.001 A 
ATOM     97  C   UNL A   1      46.575  33.467  26.284  1.00  0.00     0.001 A 
ATOM     98  C   UNL A   1      45.374  33.989  25.807  1.00  0.00     0.000 A 
ENDBRANCH  80  93
ENDBRANCH  54  55
ENDBRANCH  46  49
ENDBRANCH  44  45
ENDBRANCH  43  44
ENDBRANCH  42  43
ENDBRANCH   1  42
TORSDOF 19
ENDMDL
MODEL 3
REMARK VINA RESULT:     -10.7      6.885     13.857
REMARK SMILES CC1CC[NH+]([C@H](c2ccc(F)cc2)c2ccc([C@@H](C)C(=O)NCCCCCCNC(=O)c3ccc(-c4c5nc(c(-c6ccccc6)c6ccc([nH]6)c(-c6ccccc6)c6nc(c(-c7ccccc7)c7ccc4[nH]7)C=C6)C=C5)cc3)cc2-c2ccc(C(F)(F)F)cc2)CC1
REMARK SMILES IDX 25 1 24 2 23 3 22 4 20 5 21 6 18 8 19 9 17 10 14 11 15 12
REMARK SMILES IDX 81 13 16 14 80 15 6 16 5 17 1 18 2 19 3 20 93 21 4 22 92 23
REMARK SMILES IDX 7 25 8 26 13 27 9 28 12 29 10 30 11 31 82 32 83 33 91 34
REMARK SMILES IDX 84 35 90 36 85 37 86 38 87 39 88 40 89 41 26 42 27 43 28 44
REMARK SMILES IDX 29 45 30 46 31 48 32 49 33 50 79 51 34 52 78 53 35 54 36 55
REMARK SMILES IDX 37 56 72 57 38 58 77 59 71 60 73 61 39 62 76 63 70 64 69 65
REMARK SMILES IDX 40 67 62 68 47 69 61 70 48 71 51 72 60 73 74 74 49 75 50 76
REMARK SMILES IDX 59 78 75 79 52 80 41 81 42 82 46 83 43 84 45 85 44 86 63 87
REMARK SMILES IDX 64 88 68 89 65 90 67 91 66 92 53 93 54 94 58 95 55 96 57 97
REMARK SMILES IDX 56 98
REMARK H PARENT 22 7 5 24 29 47 73 66 51 77
REMARK Flexibility Score: inf
ROOT
ATOM      1  C   UNL A   1      47.407  35.595  28.484  1.00  0.00     0.002 C 
ENDROOT
BRANCH   1   2
ATOM      2  C   UNL A   1      48.251  36.273  29.565  1.00  0.00     0.021 C 
BRANCH   2   3
ATOM      3  C   UNL A   1      49.733  36.422  29.196  1.00  0.00     0.116 C 
BRANCH   3   4
ATOM      4  N   UNL A   1      49.912  36.637  27.774  1.00  0.00    -0.356 N 
ATOM      5  C   UNL A   1      49.875  37.751  26.993  1.00  0.00     0.227 C 
ATOM      6  O   UNL A   1      50.003  37.560  25.777  1.00  0.00    -0.274 OA
ATOM      7  H   UNL A   1      50.098  35.812  27.272  1.00  0.00     0.163 HD
BRANCH   5   8
ATOM      8  C   UNL A   1      49.699  39.188  27.522  1.00  0.00     0.105 C 
ATOM      9  C   UNL A   1      50.538  39.500  28.760  1.00  0.00     0.023 C 
BRANCH   8  10
ATOM     10  C   UNL A   1      48.247  39.625  27.595  1.00  0.00    -0.035 A 
ATOM     11  C   UNL A   1      45.657  40.839  27.789  1.00  0.00     0.022 A 
ATOM     12  C   UNL A   1      46.335  40.681  26.572  1.00  0.00     0.011 A 
ATOM     13  C   UNL A   1      46.252  40.224  28.925  1.00  0.00    -0.009 A 
ATOM     14  C   UNL A   1      47.542  40.000  26.467  1.00  0.00     0.005 A 
ATOM     15  C   UNL A   1      47.571  39.706  28.818  1.00  0.00     0.013 A 
BRANCH  11  16
ATOM     16  C   UNL A   1      44.293  41.588  27.848  1.00  0.00     0.247 C 
BRANCH  16  17
ATOM     17  N   UNL A   1      43.838  42.326  26.620  1.00  0.00    -0.325 N 
ATOM     18  C   UNL A   1      43.783  43.447  22.384  1.00  0.00     0.008 C 
ATOM     19  C   UNL A   1      44.066  42.830  23.745  1.00  0.00    -0.003 C 
ATOM     20  C   UNL A   1      42.847  42.080  24.278  1.00  0.00     0.065 C 
ATOM     21  C   UNL A   1      44.425  43.910  24.751  1.00  0.00     0.065 C 
ATOM     22  C   UNL A   1      43.067  41.504  25.682  1.00  0.00     0.263 C 
ATOM     23  C   UNL A   1      44.808  43.278  26.081  1.00  0.00     0.263 C 
ATOM     24  H   UNL A   1      43.121  42.979  26.933  1.00  0.00     0.348 HD
ENDBRANCH  16  17
BRANCH  16  25
ATOM     25  C   UNL A   1      44.137  42.484  29.094  1.00  0.00     0.014 A 
ATOM     26  C   UNL A   1      45.047  43.520  29.389  1.00  0.00     0.013 A 
ATOM     27  C   UNL A   1      43.058  42.274  29.973  1.00  0.00     0.013 A 
ATOM     28  C   UNL A   1      44.869  44.331  30.510  1.00  0.00     0.040 A 
ATOM     29  C   UNL A   1      42.905  43.060  31.117  1.00  0.00     0.040 A 
ATOM     30  C   UNL A   1      43.806  44.087  31.369  1.00  0.00     0.123 A 
ATOM     31  F   UNL A   1      43.646  44.853  32.455  1.00  0.00    -0.207 F 
ENDBRANCH  16  25
ENDBRANCH  11  16
BRANCH  13  32
ATOM     32  C   UNL A   1      45.552  40.032  30.212  1.00  0.00    -0.018 A 
ATOM     33  C   UNL A   1      45.955  40.701  31.376  1.00  0.00     0.009 A 
ATOM     34  C   UNL A   1      44.485  39.123  30.307  1.00  0.00     0.009 A 
ATOM     35  C   UNL A   1      45.288  40.495  32.589  1.00  0.00     0.014 A 
ATOM     36  C   UNL A   1      43.808  38.925  31.513  1.00  0.00     0.014 A 
ATOM     37  C   UNL A   1      44.198  39.617  32.666  1.00  0.00     0.056 A 
BRANCH  37  38
ATOM     38  C   UNL A   1      43.479  39.411  33.976  1.00  0.00     0.416 C 
ATOM     39  F   UNL A   1      44.337  39.224  35.017  1.00  0.00    -0.166 F 
ATOM     40  F   UNL A   1      42.697  40.472  34.320  1.00  0.00    -0.166 F 
ATOM     41  F   UNL A   1      42.652  38.327  33.975  1.00  0.00    -0.166 F 
ENDBRANCH  37  38
ENDBRANCH  13  32
ENDBRANCH   8  10
ENDBRANCH   5   8
ENDBRANCH   3   4
ENDBRANCH   2   3
ENDBRANCH   1   2
BRANCH   1  42
ATOM     42  C   UNL A   1      46.382  36.513  27.804  1.00  0.00     0.002 C 
BRANCH  42  43
ATOM     43  C   UNL A   1      46.408  36.495  26.272  1.00  0.00     0.021 C 
BRANCH  43  44
ATOM     44  C   UNL A   1      46.816  35.152  25.672  1.00  0.00     0.116 C 
BRANCH  44  45
ATOM     45  N   UNL A   1      45.845  34.693  24.687  1.00  0.00    -0.352 N 
ATOM     46  C   UNL A   1      44.618  34.103  24.889  1.00  0.00     0.251 C 
ATOM     47  H   UNL A   1      46.101  34.824  23.746  1.00  0.00     0.163 HD
ATOM     48  O   UNL A   1      44.036  33.533  23.977  1.00  0.00    -0.269 OA
BRANCH  46  49
ATOM     49  C   UNL A   1      44.007  34.179  26.229  1.00  0.00     0.039 A 
ATOM     50  C   UNL A   1      44.287  33.211  27.194  1.00  0.00     0.014 A 
ATOM     51  C   UNL A   1      43.157  35.243  26.525  1.00  0.00     0.014 A 
ATOM     52  C   UNL A   1      43.775  33.362  28.487  1.00  0.00     0.010 A 
ATOM     53  C   UNL A   1      42.723  35.437  27.827  1.00  0.00     0.010 A 
ATOM     54  C   UNL A   1      43.027  34.502  28.826  1.00  0.00    -0.014 A 
BRANCH  54  55
ATOM     55  C   UNL A   1      42.545  34.769  30.206  1.00  0.00     0.031 A 
ATOM     56  C   UNL A   1      43.522  35.188  31.272  1.00  0.00     0.074 A 
ATOM     57  C   UNL A   1      41.264  34.503  30.534  1.00  0.00     0.049 A 
ATOM     58  N   UNL A   1      43.341  35.300  32.564  1.00  0.00    -0.248 NA
ATOM     59  C   UNL A   1      44.896  35.477  30.831  1.00  0.00     0.031 C 
ATOM     60  C   UNL A   1      40.226  34.045  29.609  1.00  0.00     0.029 A 
ATOM     61  N   UNL A   1      40.626  34.556  31.749  1.00  0.00    -0.354 N 
ATOM     62  C   UNL A   1      44.582  35.638  33.089  1.00  0.00     0.074 A 
ATOM     63  C   UNL A   1      45.518  35.657  31.986  1.00  0.00     0.031 C 
ATOM     64  C   UNL A   1      39.078  33.878  30.285  1.00  0.00     0.029 A 
ATOM     65  C   UNL A   1      39.311  34.163  31.698  1.00  0.00     0.049 A 
ATOM     66  H   UNL A   1      41.070  34.848  32.578  1.00  0.00     0.167 HD
ATOM     67  C   UNL A   1      44.913  35.924  34.370  1.00  0.00     0.031 A 
ATOM     68  C   UNL A   1      38.397  34.028  32.678  1.00  0.00     0.031 A 
ATOM     69  C   UNL A   1      43.977  35.919  35.463  1.00  0.00     0.049 A 
ATOM     70  C   UNL A   1      38.785  34.340  34.096  1.00  0.00     0.074 A 
ATOM     71  C   UNL A   1      44.197  36.261  36.786  1.00  0.00     0.029 A 
ATOM     72  N   UNL A   1      42.646  35.547  35.359  1.00  0.00    -0.354 N 
ATOM     73  N   UNL A   1      39.947  34.726  34.568  1.00  0.00    -0.248 NA
ATOM     74  C   UNL A   1      37.736  34.209  35.117  1.00  0.00     0.031 C 
ATOM     75  C   UNL A   1      43.014  36.037  37.494  1.00  0.00     0.029 A 
ATOM     76  C   UNL A   1      42.038  35.626  36.600  1.00  0.00     0.049 A 
ATOM     77  H   UNL A   1      42.199  35.268  34.527  1.00  0.00     0.167 HD
ATOM     78  C   UNL A   1      39.759  34.922  35.930  1.00  0.00     0.074 A 
ATOM     79  C   UNL A   1      38.371  34.614  36.209  1.00  0.00     0.031 C 
ATOM     80  C   UNL A   1      40.654  35.329  36.863  1.00  0.00     0.031 A 
BRANCH  67  81
ATOM     81  C   UNL A   1      46.353  36.254  34.659  1.00  0.00    -0.014 A 
ATOM     82  C   UNL A   1      46.827  37.574  34.611  1.00  0.00     0.009 A 
ATOM     83  C   UNL A   1      47.245  35.227  35.007  1.00  0.00     0.009 A 
ATOM     84  C   UNL A   1      48.174  37.854  34.856  1.00  0.00     0.001 A 
ATOM     85  C   UNL A   1      48.583  35.513  35.287  1.00  0.00     0.001 A 
ATOM     86  C   UNL A   1      49.049  36.824  35.198  1.00  0.00     0.000 A 
ENDBRANCH  67  81
BRANCH  68  87
ATOM     87  C   UNL A   1      37.015  33.586  32.347  1.00  0.00    -0.014 A 
ATOM     88  C   UNL A   1      36.018  34.530  32.059  1.00  0.00     0.009 A 
ATOM     89  C   UNL A   1      36.689  32.222  32.305  1.00  0.00     0.009 A 
ATOM     90  C   UNL A   1      34.717  34.119  31.760  1.00  0.00     0.001 A 
ATOM     91  C   UNL A   1      35.395  31.812  31.975  1.00  0.00     0.001 A 
ATOM     92  C   UNL A   1      34.409  32.760  31.712  1.00  0.00     0.000 A 
ENDBRANCH  68  87
BRANCH  80  93
ATOM     93  C   UNL A   1      40.157  35.530  38.267  1.00  0.00    -0.014 A 
ATOM     94  C   UNL A   1      39.627  36.757  38.693  1.00  0.00     0.009 A 
ATOM     95  C   UNL A   1      40.146  34.439  39.153  1.00  0.00     0.009 A 
ATOM     96  C   UNL A   1      39.115  36.891  39.986  1.00  0.00     0.001 A 
ATOM     97  C   UNL A   1      39.606  34.568  40.432  1.00  0.00     0.001 A 
ATOM     98  C   UNL A   1      39.097  35.796  40.851  1.00  0.00     0.000 A 
ENDBRANCH  80  93
ENDBRANCH  54  55
ENDBRANCH  46  49
ENDBRANCH  44  45
ENDBRANCH  43  44
ENDBRANCH  42  43
ENDBRANCH   1  42
TORSDOF 19
ENDMDL
