MODEL 1
REMARK VINA RESULT:     -10.9      0.000      0.000
REMARK SMILES O=C(NCCCCCCNC(=O)C1CC[NH+]([C@@H]2CCO[C@]3(CCOC3)C2)CC1)c1ccc(-c2c3nc(c(-c4ccccc4)c4ccc([nH]4)c(-c4ccccc4)c4nc(c(-c5ccccc5)c5ccc2[nH]5)C=C4)C=C3)cc1
REMARK SMILES IDX 6 1 5 2 4 3 3 4 1 5 2 6 29 8 30 9 76 10 31 11 75 12 32 13
REMARK SMILES IDX 33 14 34 15 69 16 35 17 74 18 68 19 70 20 36 21 73 22 67 23
REMARK SMILES IDX 66 24 37 26 59 27 44 28 58 29 45 30 48 31 57 32 71 33 46 34
REMARK SMILES IDX 47 35 56 37 72 38 49 39 38 40 39 41 43 42 40 43 42 44 41 45
REMARK SMILES IDX 60 46 61 47 65 48 62 49 64 50 63 51 50 52 51 53 55 54 52 55
REMARK SMILES IDX 54 56 53 57 7 58 8 59 9 60 10 61 11 62 12 64 13 65 14 66
REMARK SMILES IDX 28 67 15 68 27 69 16 70 17 72 18 73 26 74 19 75 21 76 20 77
REMARK SMILES IDX 22 78 25 79 23 80 24 81
REMARK H PARENT 3 7 70 25 48 36 10 63 16 71
REMARK Flexibility Score: inf
ROOT
ATOM      1  C   UNL A   1      36.533  20.395  24.986  1.00  0.00     0.002 C 
ENDROOT
BRANCH   1   2
ATOM      2  C   UNL A   1      37.911  19.754  24.805  1.00  0.00     0.021 C 
BRANCH   2   3
ATOM      3  C   UNL A   1      39.000  20.174  25.795  1.00  0.00     0.116 C 
BRANCH   3   4
ATOM      4  N   UNL A   1      40.112  19.246  25.852  1.00  0.00    -0.352 N 
ATOM      5  O   UNL A   1      42.221  18.500  25.954  1.00  0.00    -0.269 OA
ATOM      6  C   UNL A   1      41.447  19.445  26.100  1.00  0.00     0.251 C 
ATOM      7  H   UNL A   1      39.866  18.308  25.682  1.00  0.00     0.163 HD
BRANCH   6   8
ATOM      8  C   UNL A   1      41.993  20.757  26.523  1.00  0.00     0.039 A 
ATOM      9  C   UNL A   1      42.403  21.736  25.613  1.00  0.00     0.014 A 
ATOM     10  C   UNL A   1      41.973  21.060  27.891  1.00  0.00     0.014 A 
ATOM     11  C   UNL A   1      42.854  22.981  26.071  1.00  0.00     0.010 A 
ATOM     12  C   UNL A   1      42.381  22.318  28.346  1.00  0.00     0.010 A 
ATOM     13  C   UNL A   1      42.834  23.289  27.441  1.00  0.00    -0.014 A 
BRANCH  13  14
ATOM     14  C   UNL A   1      43.208  24.642  27.934  1.00  0.00     0.031 A 
ATOM     15  C   UNL A   1      42.157  25.679  28.218  1.00  0.00     0.074 A 
ATOM     16  C   UNL A   1      44.509  24.966  28.058  1.00  0.00     0.049 A 
ATOM     17  N   UNL A   1      42.308  26.931  28.574  1.00  0.00    -0.248 NA
ATOM     18  C   UNL A   1      40.756  25.258  28.073  1.00  0.00     0.031 C 
ATOM     19  C   UNL A   1      45.632  24.068  27.788  1.00  0.00     0.029 A 
ATOM     20  N   UNL A   1      45.107  26.149  28.420  1.00  0.00    -0.354 N 
ATOM     21  C   UNL A   1      41.025  27.454  28.676  1.00  0.00     0.074 A 
ATOM     22  C   UNL A   1      40.110  26.387  28.326  1.00  0.00     0.031 C 
ATOM     23  C   UNL A   1      46.781  24.730  27.992  1.00  0.00     0.029 A 
ATOM     24  C   UNL A   1      46.478  26.108  28.365  1.00  0.00     0.049 A 
ATOM     25  H   UNL A   1      44.600  26.948  28.692  1.00  0.00     0.167 HD
ATOM     26  C   UNL A   1      40.644  28.705  29.029  1.00  0.00     0.031 A 
ATOM     27  C   UNL A   1      47.396  27.074  28.561  1.00  0.00     0.031 A 
ATOM     28  C   UNL A   1      41.549  29.770  29.372  1.00  0.00     0.049 A 
ATOM     29  C   UNL A   1      46.951  28.461  28.925  1.00  0.00     0.074 A 
ATOM     30  C   UNL A   1      41.248  31.053  29.801  1.00  0.00     0.029 A 
ATOM     31  N   UNL A   1      42.930  29.685  29.310  1.00  0.00    -0.354 N 
ATOM     32  N   UNL A   1      45.734  28.921  29.081  1.00  0.00    -0.248 NA
ATOM     33  C   UNL A   1      48.007  29.462  29.142  1.00  0.00     0.031 C 
ATOM     34  C   UNL A   1      42.447  31.757  29.953  1.00  0.00     0.029 A 
ATOM     35  C   UNL A   1      43.495  30.899  29.664  1.00  0.00     0.049 A 
ATOM     36  H   UNL A   1      43.436  28.879  29.054  1.00  0.00     0.167 HD
ATOM     37  C   UNL A   1      45.876  30.256  29.431  1.00  0.00     0.074 A 
ATOM     38  C   UNL A   1      47.297  30.533  29.473  1.00  0.00     0.031 C 
ATOM     39  C   UNL A   1      44.910  31.168  29.696  1.00  0.00     0.031 A 
BRANCH  26  40
ATOM     40  C   UNL A   1      39.170  29.000  29.033  1.00  0.00    -0.014 A 
ATOM     41  C   UNL A   1      38.397  28.836  30.194  1.00  0.00     0.009 A 
ATOM     42  C   UNL A   1      38.553  29.479  27.867  1.00  0.00     0.009 A 
ATOM     43  C   UNL A   1      37.027  29.111  30.174  1.00  0.00     0.001 A 
ATOM     44  C   UNL A   1      37.189  29.775  27.857  1.00  0.00     0.001 A 
ATOM     45  C   UNL A   1      36.426  29.581  29.007  1.00  0.00     0.000 A 
ENDBRANCH  26  40
BRANCH  27  46
ATOM     46  C   UNL A   1      48.834  26.752  28.396  1.00  0.00    -0.014 A 
ATOM     47  C   UNL A   1      49.582  26.250  29.471  1.00  0.00     0.009 A 
ATOM     48  C   UNL A   1      49.454  26.903  27.145  1.00  0.00     0.009 A 
ATOM     49  C   UNL A   1      50.925  25.909  29.298  1.00  0.00     0.001 A 
ATOM     50  C   UNL A   1      50.791  26.541  26.969  1.00  0.00     0.001 A 
ATOM     51  C   UNL A   1      51.526  26.048  28.046  1.00  0.00     0.000 A 
ENDBRANCH  27  46
BRANCH  39  52
ATOM     52  C   UNL A   1      45.353  32.551  30.079  1.00  0.00    -0.014 A 
ATOM     53  C   UNL A   1      45.628  32.881  31.414  1.00  0.00     0.009 A 
ATOM     54  C   UNL A   1      45.550  33.520  29.082  1.00  0.00     0.009 A 
ATOM     55  C   UNL A   1      46.076  34.162  31.746  1.00  0.00     0.001 A 
ATOM     56  C   UNL A   1      46.017  34.792  29.414  1.00  0.00     0.001 A 
ATOM     57  C   UNL A   1      46.275  35.114  30.746  1.00  0.00     0.000 A 
ENDBRANCH  39  52
ENDBRANCH  13  14
ENDBRANCH   6   8
ENDBRANCH   3   4
ENDBRANCH   2   3
ENDBRANCH   1   2
BRANCH   1  58
ATOM     58  C   UNL A   1      36.303  21.760  24.331  1.00  0.00     0.002 C 
BRANCH  58  59
ATOM     59  C   UNL A   1      37.071  22.969  24.886  1.00  0.00     0.021 C 
BRANCH  59  60
ATOM     60  C   UNL A   1      36.342  23.825  25.937  1.00  0.00     0.116 C 
BRANCH  60  61
ATOM     61  N   UNL A   1      35.481  23.031  26.804  1.00  0.00    -0.356 N 
ATOM     62  C   UNL A   1      34.178  22.681  26.855  1.00  0.00     0.223 C 
ATOM     63  H   UNL A   1      35.987  22.647  27.557  1.00  0.00     0.163 HD
ATOM     64  O   UNL A   1      33.916  21.811  27.699  1.00  0.00    -0.275 OA
BRANCH  62  65
ATOM     65  C   UNL A   1      33.016  23.292  26.065  1.00  0.00     0.089 C 
ATOM     66  C   UNL A   1      33.010  23.171  24.541  1.00  0.00     0.075 C 
ATOM     67  C   UNL A   1      32.640  24.676  26.564  1.00  0.00     0.075 C 
ATOM     68  C   UNL A   1      33.335  24.445  23.745  1.00  0.00     0.263 C 
ATOM     69  C   UNL A   1      33.306  25.757  25.742  1.00  0.00     0.263 C 
ATOM     70  N   UNL A   1      32.865  25.710  24.354  1.00  0.00    -0.332 N 
ATOM     71  H   UNL A   1      31.847  25.753  24.383  1.00  0.00     0.348 HD
BRANCH  70  72
ATOM     72  C   UNL A   1      33.233  26.885  23.508  1.00  0.00     0.189 C 
ATOM     73  C   UNL A   1      33.959  28.031  24.218  1.00  0.00     0.093 C 
ATOM     74  C   UNL A   1      32.111  27.488  22.620  1.00  0.00     0.103 C 
ATOM     75  C   UNL A   1      32.999  28.978  24.906  1.00  0.00     0.167 C 
ATOM     76  C   UNL A   1      31.288  28.655  23.220  1.00  0.00     0.099 C 
ATOM     77  O   UNL A   1      32.079  29.551  24.002  1.00  0.00    -0.372 OA
ATOM     78  C   UNL A   1      30.009  28.166  23.906  1.00  0.00     0.066 C 
ATOM     79  C   UNL A   1      30.689  29.553  22.125  1.00  0.00     0.195 C 
ATOM     80  C   UNL A   1      28.863  28.500  22.964  1.00  0.00     0.163 C 
ATOM     81  O   UNL A   1      29.444  28.971  21.750  1.00  0.00    -0.378 OA
ENDBRANCH  70  72
ENDBRANCH  62  65
ENDBRANCH  60  61
ENDBRANCH  59  60
ENDBRANCH  58  59
ENDBRANCH   1  58
TORSDOF 14
ENDMDL
MODEL 2
REMARK VINA RESULT:     -10.9      5.668     10.540
REMARK SMILES O=C(NCCCCCCNC(=O)C1CC[NH+]([C@@H]2CCO[C@]3(CCOC3)C2)CC1)c1ccc(-c2c3nc(c(-c4ccccc4)c4ccc([nH]4)c(-c4ccccc4)c4nc(c(-c5ccccc5)c5ccc2[nH]5)C=C4)C=C3)cc1
REMARK SMILES IDX 6 1 5 2 4 3 3 4 1 5 2 6 29 8 30 9 76 10 31 11 75 12 32 13
REMARK SMILES IDX 33 14 34 15 69 16 35 17 74 18 68 19 70 20 36 21 73 22 67 23
REMARK SMILES IDX 66 24 37 26 59 27 44 28 58 29 45 30 48 31 57 32 71 33 46 34
REMARK SMILES IDX 47 35 56 37 72 38 49 39 38 40 39 41 43 42 40 43 42 44 41 45
REMARK SMILES IDX 60 46 61 47 65 48 62 49 64 50 63 51 50 52 51 53 55 54 52 55
REMARK SMILES IDX 54 56 53 57 7 58 8 59 9 60 10 61 11 62 12 64 13 65 14 66
REMARK SMILES IDX 28 67 15 68 27 69 16 70 17 72 18 73 26 74 19 75 21 76 20 77
REMARK SMILES IDX 22 78 25 79 23 80 24 81
REMARK H PARENT 3 7 70 25 48 36 10 63 16 71
REMARK Flexibility Score: inf
ROOT
ATOM      1  C   UNL A   1      34.897  34.914  28.106  1.00  0.00     0.002 C 
ENDROOT
BRANCH   1   2
ATOM      2  C   UNL A   1      33.872  35.853  28.747  1.00  0.00     0.021 C 
BRANCH   2   3
ATOM      3  C   UNL A   1      32.800  35.204  29.626  1.00  0.00     0.116 C 
BRANCH   3   4
ATOM      4  N   UNL A   1      32.405  36.028  30.752  1.00  0.00    -0.352 N 
ATOM      5  O   UNL A   1      32.219  36.748  32.864  1.00  0.00    -0.269 OA
ATOM      6  C   UNL A   1      32.814  36.031  32.061  1.00  0.00     0.251 C 
ATOM      7  H   UNL A   1      31.722  36.704  30.538  1.00  0.00     0.163 HD
BRANCH   6   8
ATOM      8  C   UNL A   1      33.937  35.193  32.548  1.00  0.00     0.039 A 
ATOM      9  C   UNL A   1      33.780  33.850  32.904  1.00  0.00     0.014 A 
ATOM     10  C   UNL A   1      35.223  35.749  32.524  1.00  0.00     0.014 A 
ATOM     11  C   UNL A   1      34.890  33.090  33.298  1.00  0.00     0.010 A 
ATOM     12  C   UNL A   1      36.337  34.979  32.875  1.00  0.00     0.010 A 
ATOM     13  C   UNL A   1      36.180  33.644  33.275  1.00  0.00    -0.014 A 
BRANCH  13  14
ATOM     14  C   UNL A   1      37.380  32.821  33.587  1.00  0.00     0.031 A 
ATOM     15  C   UNL A   1      38.171  33.054  34.844  1.00  0.00     0.074 A 
ATOM     16  C   UNL A   1      37.805  31.905  32.697  1.00  0.00     0.049 A 
ATOM     17  N   UNL A   1      39.287  32.487  35.234  1.00  0.00    -0.248 NA
ATOM     18  C   UNL A   1      37.648  34.061  35.778  1.00  0.00     0.031 C 
ATOM     19  C   UNL A   1      37.150  31.596  31.425  1.00  0.00     0.029 A 
ATOM     20  N   UNL A   1      38.904  31.080  32.716  1.00  0.00    -0.354 N 
ATOM     21  C   UNL A   1      39.610  33.081  36.446  1.00  0.00     0.074 A 
ATOM     22  C   UNL A   1      38.583  34.065  36.718  1.00  0.00     0.031 C 
ATOM     23  C   UNL A   1      37.859  30.653  30.785  1.00  0.00     0.029 A 
ATOM     24  C   UNL A   1      39.038  30.321  31.580  1.00  0.00     0.049 A 
ATOM     25  H   UNL A   1      39.534  31.038  33.471  1.00  0.00     0.167 HD
ATOM     26  C   UNL A   1      40.665  32.831  37.261  1.00  0.00     0.031 A 
ATOM     27  C   UNL A   1      40.012  29.473  31.197  1.00  0.00     0.031 A 
ATOM     28  C   UNL A   1      41.692  31.858  36.994  1.00  0.00     0.049 A 
ATOM     29  C   UNL A   1      41.185  29.230  32.101  1.00  0.00     0.074 A 
ATOM     30  C   UNL A   1      42.764  31.496  37.792  1.00  0.00     0.029 A 
ATOM     31  N   UNL A   1      41.786  31.106  35.834  1.00  0.00    -0.354 N 
ATOM     32  N   UNL A   1      41.441  29.753  33.276  1.00  0.00    -0.248 NA
ATOM     33  C   UNL A   1      42.202  28.279  31.629  1.00  0.00     0.031 C 
ATOM     34  C   UNL A   1      43.533  30.558  37.095  1.00  0.00     0.029 A 
ATOM     35  C   UNL A   1      42.914  30.303  35.883  1.00  0.00     0.049 A 
ATOM     36  H   UNL A   1      41.145  31.136  35.087  1.00  0.00     0.167 HD
ATOM     37  C   UNL A   1      42.637  29.183  33.690  1.00  0.00     0.074 A 
ATOM     38  C   UNL A   1      43.052  28.268  32.647  1.00  0.00     0.031 C 
ATOM     39  C   UNL A   1      43.324  29.400  34.838  1.00  0.00     0.031 A 
BRANCH  26  40
ATOM     40  C   UNL A   1      40.776  33.651  38.515  1.00  0.00    -0.014 A 
ATOM     41  C   UNL A   1      41.475  34.869  38.531  1.00  0.00     0.009 A 
ATOM     42  C   UNL A   1      40.145  33.214  39.690  1.00  0.00     0.009 A 
ATOM     43  C   UNL A   1      41.570  35.613  39.709  1.00  0.00     0.001 A 
ATOM     44  C   UNL A   1      40.222  33.971  40.860  1.00  0.00     0.001 A 
ATOM     45  C   UNL A   1      40.943  35.165  40.871  1.00  0.00     0.000 A 
ENDBRANCH  26  40
BRANCH  27  46
ATOM     46  C   UNL A   1      39.914  28.805  29.876  1.00  0.00    -0.014 A 
ATOM     47  C   UNL A   1      40.441  29.413  28.728  1.00  0.00     0.009 A 
ATOM     48  C   UNL A   1      39.332  27.532  29.768  1.00  0.00     0.009 A 
ATOM     49  C   UNL A   1      40.382  28.760  27.494  1.00  0.00     0.001 A 
ATOM     50  C   UNL A   1      39.295  26.872  28.538  1.00  0.00     0.001 A 
ATOM     51  C   UNL A   1      39.817  27.488  27.403  1.00  0.00     0.000 A 
ENDBRANCH  27  46
BRANCH  39  52
ATOM     52  C   UNL A   1      44.590  28.620  35.041  1.00  0.00    -0.014 A 
ATOM     53  C   UNL A   1      45.837  29.157  34.690  1.00  0.00     0.009 A 
ATOM     54  C   UNL A   1      44.538  27.352  35.644  1.00  0.00     0.009 A 
ATOM     55  C   UNL A   1      47.008  28.430  34.922  1.00  0.00     0.001 A 
ATOM     56  C   UNL A   1      45.710  26.638  35.892  1.00  0.00     0.001 A 
ATOM     57  C   UNL A   1      46.944  27.175  35.527  1.00  0.00     0.000 A 
ENDBRANCH  39  52
ENDBRANCH  13  14
ENDBRANCH   6   8
ENDBRANCH   3   4
ENDBRANCH   2   3
ENDBRANCH   1   2
BRANCH   1  58
ATOM     58  C   UNL A   1      35.563  33.878  29.016  1.00  0.00     0.002 C 
BRANCH  58  59
ATOM     59  C   UNL A   1      34.799  32.579  29.316  1.00  0.00     0.021 C 
BRANCH  59  60
ATOM     60  C   UNL A   1      34.860  31.480  28.242  1.00  0.00     0.116 C 
BRANCH  60  61
ATOM     61  N   UNL A   1      33.606  31.345  27.511  1.00  0.00    -0.356 N 
ATOM     62  C   UNL A   1      32.739  30.356  27.205  1.00  0.00     0.223 C 
ATOM     63  H   UNL A   1      33.314  32.208  27.138  1.00  0.00     0.163 HD
ATOM     64  O   UNL A   1      31.676  30.748  26.700  1.00  0.00    -0.275 OA
BRANCH  62  65
ATOM     65  C   UNL A   1      32.963  28.846  27.332  1.00  0.00     0.089 C 
ATOM     66  C   UNL A   1      34.011  28.173  26.447  1.00  0.00     0.075 C 
ATOM     67  C   UNL A   1      31.659  28.072  27.423  1.00  0.00     0.075 C 
ATOM     68  C   UNL A   1      33.487  27.316  25.284  1.00  0.00     0.263 C 
ATOM     69  C   UNL A   1      31.241  27.540  26.069  1.00  0.00     0.263 C 
ATOM     70  N   UNL A   1      32.220  26.596  25.549  1.00  0.00    -0.332 N 
ATOM     71  H   UNL A   1      32.339  25.889  26.275  1.00  0.00     0.348 HD
BRANCH  70  72
ATOM     72  C   UNL A   1      31.795  25.798  24.360  1.00  0.00     0.189 C 
ATOM     73  C   UNL A   1      30.716  24.739  24.604  1.00  0.00     0.093 C 
ATOM     74  C   UNL A   1      32.923  25.161  23.504  1.00  0.00     0.103 C 
ATOM     75  C   UNL A   1      31.295  23.439  25.122  1.00  0.00     0.167 C 
ATOM     76  C   UNL A   1      33.343  23.712  23.856  1.00  0.00     0.099 C 
ATOM     77  O   UNL A   1      32.239  22.887  24.232  1.00  0.00    -0.372 OA
ATOM     78  C   UNL A   1      34.527  23.674  24.826  1.00  0.00     0.066 C 
ATOM     79  C   UNL A   1      33.952  22.984  22.646  1.00  0.00     0.195 C 
ATOM     80  C   UNL A   1      35.746  23.295  23.998  1.00  0.00     0.163 C 
ATOM     81  O   UNL A   1      35.340  23.299  22.631  1.00  0.00    -0.378 OA
ENDBRANCH  70  72
ENDBRANCH  62  65
ENDBRANCH  60  61
ENDBRANCH  59  60
ENDBRANCH  58  59
ENDBRANCH   1  58
TORSDOF 14
ENDMDL
MODEL 3
REMARK VINA RESULT:     -10.8      2.825      7.049
REMARK SMILES O=C(NCCCCCCNC(=O)C1CC[NH+]([C@@H]2CCO[C@]3(CCOC3)C2)CC1)c1ccc(-c2c3nc(c(-c4ccccc4)c4ccc([nH]4)c(-c4ccccc4)c4nc(c(-c5ccccc5)c5ccc2[nH]5)C=C4)C=C3)cc1
REMARK SMILES IDX 6 1 5 2 4 3 3 4 1 5 2 6 29 8 30 9 76 10 31 11 75 12 32 13
REMARK SMILES IDX 33 14 34 15 69 16 35 17 74 18 68 19 70 20 36 21 73 22 67 23
REMARK SMILES IDX 66 24 37 26 59 27 44 28 58 29 45 30 48 31 57 32 71 33 46 34
REMARK SMILES IDX 47 35 56 37 72 38 49 39 38 40 39 41 43 42 40 43 42 44 41 45
REMARK SMILES IDX 60 46 61 47 65 48 62 49 64 50 63 51 50 52 51 53 55 54 52 55
REMARK SMILES IDX 54 56 53 57 7 58 8 59 9 60 10 61 11 62 12 64 13 65 14 66
REMARK SMILES IDX 28 67 15 68 27 69 16 70 17 72 18 73 26 74 19 75 21 76 20 77
REMARK SMILES IDX 22 78 25 79 23 80 24 81
REMARK H PARENT 3 7 70 25 48 36 10 63 16 71
REMARK Flexibility Score: inf
ROOT
ATOM      1  C   UNL A   1      35.827  21.286  25.614  1.00  0.00     0.002 C 
ENDROOT
BRANCH   1   2
ATOM      2  C   UNL A   1      35.806  22.686  24.996  1.00  0.00     0.021 C 
BRANCH   2   3
ATOM      3  C   UNL A   1      37.131  23.452  24.984  1.00  0.00     0.116 C 
BRANCH   3   4
ATOM      4  N   UNL A   1      38.265  22.643  25.385  1.00  0.00    -0.352 N 
ATOM      5  O   UNL A   1      40.277  22.111  26.211  1.00  0.00    -0.269 OA
ATOM      6  C   UNL A   1      39.381  22.948  26.123  1.00  0.00     0.251 C 
ATOM      7  H   UNL A   1      38.228  21.710  25.072  1.00  0.00     0.163 HD
BRANCH   6   8
ATOM      8  C   UNL A   1      39.552  24.252  26.808  1.00  0.00     0.039 A 
ATOM      9  C   UNL A   1      39.082  24.496  28.102  1.00  0.00     0.014 A 
ATOM     10  C   UNL A   1      40.329  25.227  26.166  1.00  0.00     0.014 A 
ATOM     11  C   UNL A   1      39.327  25.728  28.721  1.00  0.00     0.010 A 
ATOM     12  C   UNL A   1      40.612  26.441  26.803  1.00  0.00     0.010 A 
ATOM     13  C   UNL A   1      40.106  26.707  28.083  1.00  0.00    -0.014 A 
BRANCH  13  14
ATOM     14  C   UNL A   1      40.465  27.977  28.769  1.00  0.00     0.031 A 
ATOM     15  C   UNL A   1      41.781  28.127  29.480  1.00  0.00     0.074 A 
ATOM     16  C   UNL A   1      39.568  28.981  28.816  1.00  0.00     0.049 A 
ATOM     17  N   UNL A   1      42.222  29.131  30.198  1.00  0.00    -0.248 NA
ATOM     18  C   UNL A   1      42.718  26.999  29.381  1.00  0.00     0.031 C 
ATOM     19  C   UNL A   1      38.243  28.960  28.196  1.00  0.00     0.029 A 
ATOM     20  N   UNL A   1      39.628  30.207  29.435  1.00  0.00    -0.354 N 
ATOM     21  C   UNL A   1      43.477  28.749  30.653  1.00  0.00     0.074 A 
ATOM     22  C   UNL A   1      43.719  27.414  30.145  1.00  0.00     0.031 C 
ATOM     23  C   UNL A   1      37.615  30.115  28.466  1.00  0.00     0.029 A 
ATOM     24  C   UNL A   1      38.474  30.939  29.311  1.00  0.00     0.049 A 
ATOM     25  H   UNL A   1      40.422  30.528  29.921  1.00  0.00     0.167 HD
ATOM     26  C   UNL A   1      44.351  29.446  31.421  1.00  0.00     0.031 A 
ATOM     27  C   UNL A   1      38.124  32.128  29.839  1.00  0.00     0.031 A 
ATOM     28  C   UNL A   1      44.114  30.770  31.933  1.00  0.00     0.049 A 
ATOM     29  C   UNL A   1      39.095  32.870  30.710  1.00  0.00     0.074 A 
ATOM     30  C   UNL A   1      44.968  31.575  32.670  1.00  0.00     0.029 A 
ATOM     31  N   UNL A   1      42.934  31.479  31.777  1.00  0.00    -0.354 N 
ATOM     32  N   UNL A   1      40.304  32.523  31.076  1.00  0.00    -0.248 NA
ATOM     33  C   UNL A   1      38.654  34.170  31.239  1.00  0.00     0.031 C 
ATOM     34  C   UNL A   1      44.286  32.751  32.999  1.00  0.00     0.029 A 
ATOM     35  C   UNL A   1      43.026  32.698  32.429  1.00  0.00     0.049 A 
ATOM     36  H   UNL A   1      42.146  31.163  31.277  1.00  0.00     0.167 HD
ATOM     37  C   UNL A   1      40.775  33.565  31.862  1.00  0.00     0.074 A 
ATOM     38  C   UNL A   1      39.726  34.562  31.914  1.00  0.00     0.031 C 
ATOM     39  C   UNL A   1      41.975  33.681  32.482  1.00  0.00     0.031 A 
BRANCH  26  40
ATOM     40  C   UNL A   1      45.643  28.767  31.782  1.00  0.00    -0.014 A 
ATOM     41  C   UNL A   1      46.784  28.898  30.976  1.00  0.00     0.009 A 
ATOM     42  C   UNL A   1      45.726  28.013  32.963  1.00  0.00     0.009 A 
ATOM     43  C   UNL A   1      47.974  28.255  31.328  1.00  0.00     0.001 A 
ATOM     44  C   UNL A   1      46.922  27.390  33.323  1.00  0.00     0.001 A 
ATOM     45  C   UNL A   1      48.041  27.504  32.500  1.00  0.00     0.000 A 
ENDBRANCH  26  40
BRANCH  27  46
ATOM     46  C   UNL A   1      36.773  32.674  29.563  1.00  0.00    -0.014 A 
ATOM     47  C   UNL A   1      36.515  33.376  28.377  1.00  0.00     0.009 A 
ATOM     48  C   UNL A   1      35.721  32.454  30.467  1.00  0.00     0.009 A 
ATOM     49  C   UNL A   1      35.231  33.853  28.104  1.00  0.00     0.001 A 
ATOM     50  C   UNL A   1      34.434  32.911  30.182  1.00  0.00     0.001 A 
ATOM     51  C   UNL A   1      34.190  33.613  29.002  1.00  0.00     0.000 A 
ENDBRANCH  27  46
BRANCH  39  52
ATOM     52  C   UNL A   1      42.232  34.942  33.255  1.00  0.00    -0.014 A 
ATOM     53  C   UNL A   1      41.703  35.125  34.541  1.00  0.00     0.009 A 
ATOM     54  C   UNL A   1      43.059  35.937  32.709  1.00  0.00     0.009 A 
ATOM     55  C   UNL A   1      41.985  36.290  35.260  1.00  0.00     0.001 A 
ATOM     56  C   UNL A   1      43.354  37.090  33.437  1.00  0.00     0.001 A 
ATOM     57  C   UNL A   1      42.813  37.268  34.710  1.00  0.00     0.000 A 
ENDBRANCH  39  52
ENDBRANCH  13  14
ENDBRANCH   6   8
ENDBRANCH   3   4
ENDBRANCH   2   3
ENDBRANCH   1   2
BRANCH   1  58
ATOM     58  C   UNL A   1      34.935  20.222  24.968  1.00  0.00     0.002 C 
BRANCH  58  59
ATOM     59  C   UNL A   1      33.598  20.670  24.358  1.00  0.00     0.021 C 
BRANCH  59  60
ATOM     60  C   UNL A   1      32.360  20.577  25.267  1.00  0.00     0.116 C 
BRANCH  60  61
ATOM     61  N   UNL A   1      32.317  21.641  26.262  1.00  0.00    -0.356 N 
ATOM     62  C   UNL A   1      31.611  22.772  26.474  1.00  0.00     0.223 C 
ATOM     63  H   UNL A   1      32.986  21.496  26.971  1.00  0.00     0.163 HD
ATOM     64  O   UNL A   1      31.797  23.290  27.586  1.00  0.00    -0.275 OA
BRANCH  62  65
ATOM     65  C   UNL A   1      30.702  23.504  25.482  1.00  0.00     0.089 C 
ATOM     66  C   UNL A   1      31.067  23.499  23.997  1.00  0.00     0.075 C 
ATOM     67  C   UNL A   1      30.263  24.865  25.993  1.00  0.00     0.075 C 
ATOM     68  C   UNL A   1      31.623  24.809  23.418  1.00  0.00     0.263 C 
ATOM     69  C   UNL A   1      31.148  25.967  25.454  1.00  0.00     0.263 C 
ATOM     70  N   UNL A   1      31.062  26.049  24.002  1.00  0.00    -0.332 N 
ATOM     71  H   UNL A   1      30.070  26.146  23.787  1.00  0.00     0.348 HD
BRANCH  70  72
ATOM     72  C   UNL A   1      31.668  27.262  23.375  1.00  0.00     0.189 C 
ATOM     73  C   UNL A   1      32.340  28.255  24.329  1.00  0.00     0.093 C 
ATOM     74  C   UNL A   1      30.777  28.059  22.384  1.00  0.00     0.103 C 
ATOM     75  C   UNL A   1      31.347  29.215  24.948  1.00  0.00     0.167 C 
ATOM     76  C   UNL A   1      29.952  29.234  22.967  1.00  0.00     0.099 C 
ATOM     77  O   UNL A   1      30.655  29.964  23.974  1.00  0.00    -0.372 OA
ATOM     78  C   UNL A   1      28.536  28.804  23.361  1.00  0.00     0.066 C 
ATOM     79  C   UNL A   1      29.634  30.292  21.899  1.00  0.00     0.195 C 
ATOM     80  C   UNL A   1      27.610  29.343  22.281  1.00  0.00     0.163 C 
ATOM     81  O   UNL A   1      28.437  29.877  21.249  1.00  0.00    -0.378 OA
ENDBRANCH  70  72
ENDBRANCH  62  65
ENDBRANCH  60  61
ENDBRANCH  59  60
ENDBRANCH  58  59
ENDBRANCH   1  58
TORSDOF 14
ENDMDL
