MODEL 1
REMARK VINA RESULT:     -11.4      0.000      0.000
REMARK SMILES CC1=C(CC(=O)NCCCCCCNC(=O)c2ccc(-c3c4nc(c(-c5ccccc5)c5ccc([nH]5)c(-c5ccccc5)c5nc(c(-c6ccccc6)c6ccc3[nH]6)C=C5)C=C4)cc2)c2cc(F)ccc2/C1=C\c1ccc([S@@+](C)[O-])cc1
REMARK SMILES IDX 10 1 9 2 8 3 7 4 5 5 6 6 4 8 3 9 1 10 2 11 72 12 65 13 71 14
REMARK SMILES IDX 73 15 66 16 70 17 67 18 69 19 68 20 74 21 75 22 82 23 76 24
REMARK SMILES IDX 81 25 77 26 78 27 79 28 80 29 11 30 12 31 13 32 14 33 15 34
REMARK SMILES IDX 16 36 17 37 18 38 64 39 19 40 63 41 20 42 21 43 22 44 57 45
REMARK SMILES IDX 23 46 62 47 56 48 58 49 24 50 61 51 55 52 54 53 25 55 47 56
REMARK SMILES IDX 32 57 46 58 33 59 36 60 45 61 59 62 34 63 35 64 44 66 60 67
REMARK SMILES IDX 37 68 26 69 27 70 31 71 28 72 30 73 29 74 48 75 49 76 53 77
REMARK SMILES IDX 50 78 52 79 51 80 38 81 39 82 43 83 40 84 42 85 41 86
REMARK H PARENT 7 7 14 35 58 54 36 65
REMARK Flexibility Score: inf
ROOT
ATOM      1  C   UNL A   1      32.858  27.685  25.312  1.00  0.00     0.002 C 
ENDROOT
BRANCH   1   2
ATOM      2  C   UNL A   1      31.732  27.289  26.277  1.00  0.00     0.021 C 
BRANCH   2   3
ATOM      3  C   UNL A   1      30.444  26.845  25.581  1.00  0.00     0.116 C 
BRANCH   3   4
ATOM      4  N   UNL A   1      30.411  27.286  24.203  1.00  0.00    -0.356 N 
ATOM      5  C   UNL A   1      30.597  26.559  23.066  1.00  0.00     0.224 C 
ATOM      6  O   UNL A   1      30.622  27.157  21.988  1.00  0.00    -0.275 OA
ATOM      7  H   UNL A   1      30.229  28.245  24.069  1.00  0.00     0.163 HD
BRANCH   5   8
ATOM      8  C   UNL A   1      30.715  25.038  23.129  1.00  0.00     0.136 C 
BRANCH   8   9
ATOM      9  C   UNL A   1      32.014  24.538  23.679  1.00  0.00    -0.027 C 
ATOM     10  C   UNL A   1      33.686  25.432  21.959  1.00  0.00     0.045 C 
ATOM     11  C   UNL A   1      33.266  24.687  23.184  1.00  0.00    -0.039 C 
ATOM     12  C   UNL A   1      34.233  24.009  24.066  1.00  0.00    -0.014 C 
ATOM     13  C   UNL A   1      32.121  23.815  24.957  1.00  0.00    -0.011 A 
ATOM     14  C   UNL A   1      33.472  23.532  25.235  1.00  0.00    -0.010 A 
ATOM     15  C   UNL A   1      35.540  23.856  23.772  1.00  0.00     0.017 C 
ATOM     16  C   UNL A   1      31.122  23.451  25.852  1.00  0.00     0.048 A 
ATOM     17  C   UNL A   1      33.834  22.940  26.439  1.00  0.00     0.012 A 
ATOM     18  C   UNL A   1      31.493  22.809  27.028  1.00  0.00     0.123 A 
ATOM     19  C   UNL A   1      32.832  22.561  27.333  1.00  0.00     0.040 A 
ATOM     20  F   UNL A   1      30.547  22.434  27.900  1.00  0.00    -0.207 F 
BRANCH  15  21
ATOM     21  C   UNL A   1      36.548  23.185  24.596  1.00  0.00    -0.025 A 
ATOM     22  C   UNL A   1      37.364  23.895  25.483  1.00  0.00     0.013 A 
ATOM     23  C   UNL A   1      36.732  21.808  24.449  1.00  0.00     0.013 A 
ATOM     24  C   UNL A   1      38.433  23.256  26.122  1.00  0.00     0.061 A 
ATOM     25  C   UNL A   1      37.783  21.166  25.108  1.00  0.00     0.061 A 
ATOM     26  C   UNL A   1      38.661  21.890  25.923  1.00  0.00     0.152 A 
BRANCH  26  27
ATOM     27  S   UNL A   1      40.150  21.083  26.567  1.00  0.00    -0.018 S 
ATOM     28  C   UNL A   1      40.022  19.496  25.721  1.00  0.00     0.346 C 
ATOM     29  O   UNL A   1      41.382  21.849  25.965  1.00  0.00    -0.612 OA
ENDBRANCH  26  27
ENDBRANCH  15  21
ENDBRANCH   8   9
ENDBRANCH   5   8
ENDBRANCH   3   4
ENDBRANCH   2   3
ENDBRANCH   1   2
BRANCH   1  30
ATOM     30  C   UNL A   1      33.287  29.156  25.369  1.00  0.00     0.002 C 
BRANCH  30  31
ATOM     31  C   UNL A   1      32.143  30.166  25.460  1.00  0.00     0.021 C 
BRANCH  31  32
ATOM     32  C   UNL A   1      31.854  30.674  26.868  1.00  0.00     0.116 C 
BRANCH  32  33
ATOM     33  N   UNL A   1      31.844  32.129  26.945  1.00  0.00    -0.352 N 
ATOM     34  C   UNL A   1      32.790  32.978  27.471  1.00  0.00     0.251 C 
ATOM     35  H   UNL A   1      31.046  32.567  26.568  1.00  0.00     0.163 HD
ATOM     36  O   UNL A   1      32.551  34.175  27.599  1.00  0.00    -0.269 OA
BRANCH  34  37
ATOM     37  C   UNL A   1      34.089  32.432  27.916  1.00  0.00     0.039 A 
ATOM     38  C   UNL A   1      34.218  31.079  28.235  1.00  0.00     0.014 A 
ATOM     39  C   UNL A   1      35.181  33.295  28.049  1.00  0.00     0.014 A 
ATOM     40  C   UNL A   1      35.381  30.625  28.847  1.00  0.00     0.010 A 
ATOM     41  C   UNL A   1      36.378  32.818  28.592  1.00  0.00     0.010 A 
ATOM     42  C   UNL A   1      36.469  31.493  29.046  1.00  0.00    -0.014 A 
BRANCH  42  43
ATOM     43  C   UNL A   1      37.681  30.997  29.747  1.00  0.00     0.031 A 
ATOM     44  C   UNL A   1      37.910  31.312  31.202  1.00  0.00     0.074 A 
ATOM     45  C   UNL A   1      38.550  30.207  29.087  1.00  0.00     0.049 A 
ATOM     46  N   UNL A   1      38.891  30.931  31.981  1.00  0.00    -0.248 NA
ATOM     47  C   UNL A   1      36.909  32.157  31.875  1.00  0.00     0.031 C 
ATOM     48  C   UNL A   1      38.423  29.803  27.684  1.00  0.00     0.029 A 
ATOM     49  N   UNL A   1      39.690  29.574  29.512  1.00  0.00    -0.354 N 
ATOM     50  C   UNL A   1      38.641  31.506  33.221  1.00  0.00     0.074 A 
ATOM     51  C   UNL A   1      37.425  32.278  33.091  1.00  0.00     0.031 C 
ATOM     52  C   UNL A   1      39.407  28.943  27.385  1.00  0.00     0.029 A 
ATOM     53  C   UNL A   1      40.273  28.785  28.549  1.00  0.00     0.049 A 
ATOM     54  H   UNL A   1      40.057  29.674  30.421  1.00  0.00     0.167 HD
ATOM     55  C   UNL A   1      39.354  31.391  34.365  1.00  0.00     0.031 A 
ATOM     56  C   UNL A   1      41.383  28.025  28.592  1.00  0.00     0.031 A 
ATOM     57  C   UNL A   1      40.551  30.606  34.502  1.00  0.00     0.049 A 
ATOM     58  C   UNL A   1      42.186  27.963  29.860  1.00  0.00     0.074 A 
ATOM     59  C   UNL A   1      41.322  30.409  35.634  1.00  0.00     0.029 A 
ATOM     60  N   UNL A   1      41.149  29.888  33.479  1.00  0.00    -0.354 N 
ATOM     61  N   UNL A   1      41.926  28.506  31.024  1.00  0.00    -0.248 NA
ATOM     62  C   UNL A   1      43.436  27.193  29.818  1.00  0.00     0.031 C 
ATOM     63  C   UNL A   1      42.417  29.616  35.284  1.00  0.00     0.029 A 
ATOM     64  C   UNL A   1      42.295  29.270  33.949  1.00  0.00     0.049 A 
ATOM     65  H   UNL A   1      40.809  29.827  32.556  1.00  0.00     0.167 HD
ATOM     66  C   UNL A   1      42.970  28.128  31.858  1.00  0.00     0.074 A 
ATOM     67  C   UNL A   1      43.858  27.298  31.071  1.00  0.00     0.031 C 
ATOM     68  C   UNL A   1      43.170  28.445  33.159  1.00  0.00     0.031 A 
BRANCH  55  69
ATOM     69  C   UNL A   1      38.879  32.140  35.579  1.00  0.00    -0.014 A 
ATOM     70  C   UNL A   1      39.301  33.463  35.787  1.00  0.00     0.009 A 
ATOM     71  C   UNL A   1      38.118  31.506  36.572  1.00  0.00     0.009 A 
ATOM     72  C   UNL A   1      38.986  34.131  36.971  1.00  0.00     0.001 A 
ATOM     73  C   UNL A   1      37.784  32.184  37.746  1.00  0.00     0.001 A 
ATOM     74  C   UNL A   1      38.227  33.491  37.949  1.00  0.00     0.000 A 
ENDBRANCH  55  69
BRANCH  56  75
ATOM     75  C   UNL A   1      41.791  27.253  27.390  1.00  0.00    -0.014 A 
ATOM     76  C   UNL A   1      41.331  25.941  27.190  1.00  0.00     0.009 A 
ATOM     77  C   UNL A   1      42.671  27.812  26.451  1.00  0.00     0.009 A 
ATOM     78  C   UNL A   1      41.761  25.197  26.090  1.00  0.00     0.001 A 
ATOM     79  C   UNL A   1      43.075  27.076  25.334  1.00  0.00     0.001 A 
ATOM     80  C   UNL A   1      42.628  25.767  25.159  1.00  0.00     0.000 A 
ENDBRANCH  56  75
BRANCH  68  81
ATOM     81  C   UNL A   1      44.387  27.884  33.839  1.00  0.00    -0.014 A 
ATOM     82  C   UNL A   1      44.302  26.655  34.514  1.00  0.00     0.009 A 
ATOM     83  C   UNL A   1      45.582  28.615  33.901  1.00  0.00     0.009 A 
ATOM     84  C   UNL A   1      45.384  26.177  35.252  1.00  0.00     0.001 A 
ATOM     85  C   UNL A   1      46.674  28.121  34.617  1.00  0.00     0.001 A 
ATOM     86  C   UNL A   1      46.570  26.908  35.301  1.00  0.00     0.000 A 
ENDBRANCH  68  81
ENDBRANCH  42  43
ENDBRANCH  34  37
ENDBRANCH  32  33
ENDBRANCH  31  32
ENDBRANCH  30  31
ENDBRANCH   1  30
TORSDOF 16
ENDMDL
MODEL 2
REMARK VINA RESULT:     -11.1      7.139     11.307
REMARK SMILES CC1=C(CC(=O)NCCCCCCNC(=O)c2ccc(-c3c4nc(c(-c5ccccc5)c5ccc([nH]5)c(-c5ccccc5)c5nc(c(-c6ccccc6)c6ccc3[nH]6)C=C5)C=C4)cc2)c2cc(F)ccc2/C1=C\c1ccc([S@@+](C)[O-])cc1
REMARK SMILES IDX 10 1 9 2 8 3 7 4 5 5 6 6 4 8 3 9 1 10 2 11 72 12 65 13 71 14
REMARK SMILES IDX 73 15 66 16 70 17 67 18 69 19 68 20 74 21 75 22 82 23 76 24
REMARK SMILES IDX 81 25 77 26 78 27 79 28 80 29 11 30 12 31 13 32 14 33 15 34
REMARK SMILES IDX 16 36 17 37 18 38 64 39 19 40 63 41 20 42 21 43 22 44 57 45
REMARK SMILES IDX 23 46 62 47 56 48 58 49 24 50 61 51 55 52 54 53 25 55 47 56
REMARK SMILES IDX 32 57 46 58 33 59 36 60 45 61 59 62 34 63 35 64 44 66 60 67
REMARK SMILES IDX 37 68 26 69 27 70 31 71 28 72 30 73 29 74 48 75 49 76 53 77
REMARK SMILES IDX 50 78 52 79 51 80 38 81 39 82 43 83 40 84 42 85 41 86
REMARK H PARENT 7 7 14 35 58 54 36 65
REMARK Flexibility Score: inf
ROOT
ATOM      1  C   UNL A   1      35.668  31.700  32.078  1.00  0.00     0.002 C 
ENDROOT
BRANCH   1   2
ATOM      2  C   UNL A   1      34.850  32.922  32.519  1.00  0.00     0.021 C 
BRANCH   2   3
ATOM      3  C   UNL A   1      34.955  34.117  31.569  1.00  0.00     0.116 C 
BRANCH   3   4
ATOM      4  N   UNL A   1      33.799  34.205  30.704  1.00  0.00    -0.356 N 
ATOM      5  C   UNL A   1      33.749  34.421  29.359  1.00  0.00     0.224 C 
ATOM      6  O   UNL A   1      32.643  34.556  28.831  1.00  0.00    -0.275 OA
ATOM      7  H   UNL A   1      32.927  34.093  31.148  1.00  0.00     0.163 HD
BRANCH   5   8
ATOM      8  C   UNL A   1      35.029  34.438  28.528  1.00  0.00     0.136 C 
BRANCH   8   9
ATOM      9  C   UNL A   1      35.768  33.138  28.499  1.00  0.00    -0.027 C 
ATOM     10  C   UNL A   1      38.023  33.797  29.517  1.00  0.00     0.045 C 
ATOM     11  C   UNL A   1      37.033  32.863  28.898  1.00  0.00    -0.039 C 
ATOM     12  C   UNL A   1      37.330  31.439  28.665  1.00  0.00    -0.014 C 
ATOM     13  C   UNL A   1      35.156  31.874  28.054  1.00  0.00    -0.011 A 
ATOM     14  C   UNL A   1      36.076  30.819  28.199  1.00  0.00    -0.010 A 
ATOM     15  C   UNL A   1      38.551  30.889  28.827  1.00  0.00     0.017 C 
ATOM     16  C   UNL A   1      33.869  31.634  27.585  1.00  0.00     0.048 A 
ATOM     17  C   UNL A   1      35.694  29.509  27.936  1.00  0.00     0.012 A 
ATOM     18  C   UNL A   1      33.516  30.326  27.272  1.00  0.00     0.123 A 
ATOM     19  C   UNL A   1      34.407  29.267  27.452  1.00  0.00     0.040 A 
ATOM     20  F   UNL A   1      32.288  30.070  26.803  1.00  0.00    -0.207 F 
BRANCH  15  21
ATOM     21  C   UNL A   1      38.915  29.488  28.601  1.00  0.00    -0.025 A 
ATOM     22  C   UNL A   1      38.700  28.507  29.574  1.00  0.00     0.013 A 
ATOM     23  C   UNL A   1      39.543  29.139  27.404  1.00  0.00     0.013 A 
ATOM     24  C   UNL A   1      39.218  27.218  29.401  1.00  0.00     0.061 A 
ATOM     25  C   UNL A   1      40.036  27.845  27.220  1.00  0.00     0.061 A 
ATOM     26  C   UNL A   1      39.907  26.884  28.230  1.00  0.00     0.152 A 
BRANCH  26  27
ATOM     27  S   UNL A   1      40.765  25.297  28.066  1.00  0.00    -0.018 S 
ATOM     28  C   UNL A   1      40.018  24.708  26.534  1.00  0.00     0.346 C 
ATOM     29  O   UNL A   1      42.273  25.620  27.770  1.00  0.00    -0.612 OA
ENDBRANCH  26  27
ENDBRANCH  15  21
ENDBRANCH   8   9
ENDBRANCH   5   8
ENDBRANCH   3   4
ENDBRANCH   2   3
ENDBRANCH   1   2
BRANCH   1  30
ATOM     30  C   UNL A   1      37.155  31.734  32.449  1.00  0.00     0.002 C 
BRANCH  30  31
ATOM     31  C   UNL A   1      37.906  30.416  32.254  1.00  0.00     0.021 C 
BRANCH  31  32
ATOM     32  C   UNL A   1      39.144  30.255  33.128  1.00  0.00     0.116 C 
BRANCH  32  33
ATOM     33  N   UNL A   1      38.848  30.393  34.547  1.00  0.00    -0.352 N 
ATOM     34  C   UNL A   1      39.337  31.307  35.453  1.00  0.00     0.251 C 
ATOM     35  H   UNL A   1      38.207  29.740  34.911  1.00  0.00     0.163 HD
ATOM     36  O   UNL A   1      39.104  31.184  36.651  1.00  0.00    -0.269 OA
BRANCH  34  37
ATOM     37  C   UNL A   1      40.180  32.423  34.975  1.00  0.00     0.039 A 
ATOM     38  C   UNL A   1      39.596  33.592  34.483  1.00  0.00     0.014 A 
ATOM     39  C   UNL A   1      41.571  32.281  34.987  1.00  0.00     0.014 A 
ATOM     40  C   UNL A   1      40.389  34.541  33.847  1.00  0.00     0.010 A 
ATOM     41  C   UNL A   1      42.373  33.275  34.419  1.00  0.00     0.010 A 
ATOM     42  C   UNL A   1      41.785  34.387  33.796  1.00  0.00    -0.014 A 
BRANCH  42  43
ATOM     43  C   UNL A   1      42.605  35.390  33.068  1.00  0.00     0.031 A 
ATOM     44  C   UNL A   1      42.890  35.228  31.598  1.00  0.00     0.074 A 
ATOM     45  C   UNL A   1      43.044  36.483  33.721  1.00  0.00     0.049 A 
ATOM     46  N   UNL A   1      43.555  36.023  30.798  1.00  0.00    -0.248 NA
ATOM     47  C   UNL A   1      42.358  34.025  30.935  1.00  0.00     0.031 C 
ATOM     48  C   UNL A   1      42.808  36.770  35.138  1.00  0.00     0.029 A 
ATOM     49  N   UNL A   1      43.750  37.572  33.275  1.00  0.00    -0.354 N 
ATOM     50  C   UNL A   1      43.542  35.409  29.552  1.00  0.00     0.074 A 
ATOM     51  C   UNL A   1      42.820  34.165  29.700  1.00  0.00     0.031 C 
ATOM     52  C   UNL A   1      43.302  37.982  35.428  1.00  0.00     0.029 A 
ATOM     53  C   UNL A   1      43.949  38.530  34.240  1.00  0.00     0.049 A 
ATOM     54  H   UNL A   1      44.083  37.659  32.352  1.00  0.00     0.167 HD
ATOM     55  C   UNL A   1      44.074  35.849  28.387  1.00  0.00     0.031 A 
ATOM     56  C   UNL A   1      44.586  39.715  34.181  1.00  0.00     0.031 A 
ATOM     57  C   UNL A   1      44.773  37.096  28.233  1.00  0.00     0.049 A 
ATOM     58  C   UNL A   1      45.216  40.149  32.890  1.00  0.00     0.074 A 
ATOM     59  C   UNL A   1      45.319  37.635  27.081  1.00  0.00     0.029 A 
ATOM     60  N   UNL A   1      45.020  37.999  29.254  1.00  0.00    -0.354 N 
ATOM     61  N   UNL A   1      45.184  39.559  31.720  1.00  0.00    -0.248 NA
ATOM     62  C   UNL A   1      45.977  41.406  32.910  1.00  0.00     0.031 C 
ATOM     63  C   UNL A   1      45.945  38.838  27.416  1.00  0.00     0.029 A 
ATOM     64  C   UNL A   1      45.735  39.077  28.764  1.00  0.00     0.049 A 
ATOM     65  H   UNL A   1      44.729  37.889  30.189  1.00  0.00     0.167 HD
ATOM     66  C   UNL A   1      45.902  40.381  30.862  1.00  0.00     0.074 A 
ATOM     67  C   UNL A   1      46.346  41.518  31.642  1.00  0.00     0.031 C 
ATOM     68  C   UNL A   1      46.170  40.203  29.547  1.00  0.00     0.031 A 
BRANCH  55  69
ATOM     69  C   UNL A   1      43.942  34.977  27.169  1.00  0.00    -0.014 A 
ATOM     70  C   UNL A   1      44.803  33.880  27.006  1.00  0.00     0.009 A 
ATOM     71  C   UNL A   1      43.056  35.306  26.133  1.00  0.00     0.009 A 
ATOM     72  C   UNL A   1      44.792  33.140  25.822  1.00  0.00     0.001 A 
ATOM     73  C   UNL A   1      43.030  34.550  24.959  1.00  0.00     0.001 A 
ATOM     74  C   UNL A   1      43.904  33.475  24.801  1.00  0.00     0.000 A 
ENDBRANCH  55  69
BRANCH  56  75
ATOM     75  C   UNL A   1      44.647  40.576  35.391  1.00  0.00    -0.014 A 
ATOM     76  C   UNL A   1      45.586  40.323  36.404  1.00  0.00     0.009 A 
ATOM     77  C   UNL A   1      43.744  41.637  35.554  1.00  0.00     0.009 A 
ATOM     78  C   UNL A   1      45.604  41.097  37.566  1.00  0.00     0.001 A 
ATOM     79  C   UNL A   1      43.784  42.430  36.704  1.00  0.00     0.001 A 
ATOM     80  C   UNL A   1      44.707  42.154  37.712  1.00  0.00     0.000 A 
ENDBRANCH  56  75
BRANCH  68  81
ATOM     81  C   UNL A   1      46.965  41.266  28.842  1.00  0.00    -0.014 A 
ATOM     82  C   UNL A   1      46.298  42.284  28.141  1.00  0.00     0.009 A 
ATOM     83  C   UNL A   1      48.365  41.202  28.784  1.00  0.00     0.009 A 
ATOM     84  C   UNL A   1      47.016  43.207  27.382  1.00  0.00     0.001 A 
ATOM     85  C   UNL A   1      49.083  42.144  28.046  1.00  0.00     0.001 A 
ATOM     86  C   UNL A   1      48.408  43.139  27.337  1.00  0.00     0.000 A 
ENDBRANCH  68  81
ENDBRANCH  42  43
ENDBRANCH  34  37
ENDBRANCH  32  33
ENDBRANCH  31  32
ENDBRANCH  30  31
ENDBRANCH   1  30
TORSDOF 16
ENDMDL
MODEL 3
REMARK VINA RESULT:     -11.1      5.225     10.275
REMARK SMILES CC1=C(CC(=O)NCCCCCCNC(=O)c2ccc(-c3c4nc(c(-c5ccccc5)c5ccc([nH]5)c(-c5ccccc5)c5nc(c(-c6ccccc6)c6ccc3[nH]6)C=C5)C=C4)cc2)c2cc(F)ccc2/C1=C\c1ccc([S@@+](C)[O-])cc1
REMARK SMILES IDX 10 1 9 2 8 3 7 4 5 5 6 6 4 8 3 9 1 10 2 11 72 12 65 13 71 14
REMARK SMILES IDX 73 15 66 16 70 17 67 18 69 19 68 20 74 21 75 22 82 23 76 24
REMARK SMILES IDX 81 25 77 26 78 27 79 28 80 29 11 30 12 31 13 32 14 33 15 34
REMARK SMILES IDX 16 36 17 37 18 38 64 39 19 40 63 41 20 42 21 43 22 44 57 45
REMARK SMILES IDX 23 46 62 47 56 48 58 49 24 50 61 51 55 52 54 53 25 55 47 56
REMARK SMILES IDX 32 57 46 58 33 59 36 60 45 61 59 62 34 63 35 64 44 66 60 67
REMARK SMILES IDX 37 68 26 69 27 70 31 71 28 72 30 73 29 74 48 75 49 76 53 77
REMARK SMILES IDX 50 78 52 79 51 80 38 81 39 82 43 83 40 84 42 85 41 86
REMARK H PARENT 7 7 14 35 58 54 36 65
REMARK Flexibility Score: inf
ROOT
ATOM      1  C   UNL A   1      34.425  35.068  27.936  1.00  0.00     0.002 C 
ENDROOT
BRANCH   1   2
ATOM      2  C   UNL A   1      33.180  35.209  28.822  1.00  0.00     0.021 C 
BRANCH   2   3
ATOM      3  C   UNL A   1      33.487  35.609  30.266  1.00  0.00     0.116 C 
BRANCH   3   4
ATOM      4  N   UNL A   1      33.396  34.473  31.158  1.00  0.00    -0.356 N 
ATOM      5  C   UNL A   1      34.258  34.083  32.139  1.00  0.00     0.224 C 
ATOM      6  O   UNL A   1      34.037  33.019  32.721  1.00  0.00    -0.275 OA
ATOM      7  H   UNL A   1      32.603  33.903  31.039  1.00  0.00     0.163 HD
BRANCH   5   8
ATOM      8  C   UNL A   1      35.434  34.973  32.538  1.00  0.00     0.136 C 
BRANCH   8   9
ATOM      9  C   UNL A   1      36.707  34.235  32.809  1.00  0.00    -0.027 C 
ATOM     10  C   UNL A   1      37.825  34.265  30.505  1.00  0.00     0.045 C 
ATOM     11  C   UNL A   1      37.710  33.920  31.955  1.00  0.00    -0.039 C 
ATOM     12  C   UNL A   1      38.758  33.174  32.674  1.00  0.00    -0.014 C 
ATOM     13  C   UNL A   1      37.098  33.770  34.150  1.00  0.00    -0.011 A 
ATOM     14  C   UNL A   1      38.369  33.168  34.096  1.00  0.00    -0.010 A 
ATOM     15  C   UNL A   1      39.819  32.598  32.073  1.00  0.00     0.017 C 
ATOM     16  C   UNL A   1      36.418  33.886  35.357  1.00  0.00     0.048 A 
ATOM     17  C   UNL A   1      38.995  32.737  35.260  1.00  0.00     0.012 A 
ATOM     18  C   UNL A   1      37.032  33.401  36.507  1.00  0.00     0.123 A 
ATOM     19  C   UNL A   1      38.310  32.841  36.472  1.00  0.00     0.040 A 
ATOM     20  F   UNL A   1      36.392  33.487  37.681  1.00  0.00    -0.207 F 
BRANCH  15  21
ATOM     21  C   UNL A   1      40.886  31.836  32.725  1.00  0.00    -0.025 A 
ATOM     22  C   UNL A   1      42.114  32.420  33.051  1.00  0.00     0.013 A 
ATOM     23  C   UNL A   1      40.687  30.475  32.974  1.00  0.00     0.013 A 
ATOM     24  C   UNL A   1      43.172  31.627  33.508  1.00  0.00     0.061 A 
ATOM     25  C   UNL A   1      41.736  29.689  33.457  1.00  0.00     0.061 A 
ATOM     26  C   UNL A   1      42.996  30.252  33.696  1.00  0.00     0.152 A 
BRANCH  26  27
ATOM     27  S   UNL A   1      44.396  29.170  34.085  1.00  0.00    -0.018 S 
ATOM     28  C   UNL A   1      43.515  27.617  34.338  1.00  0.00     0.346 C 
ATOM     29  O   UNL A   1      45.245  29.030  32.771  1.00  0.00    -0.612 OA
ENDBRANCH  26  27
ENDBRANCH  15  21
ENDBRANCH   8   9
ENDBRANCH   5   8
ENDBRANCH   3   4
ENDBRANCH   2   3
ENDBRANCH   1   2
BRANCH   1  30
ATOM     30  C   UNL A   1      35.260  33.804  28.168  1.00  0.00     0.002 C 
BRANCH  30  31
ATOM     31  C   UNL A   1      34.474  32.492  28.154  1.00  0.00     0.021 C 
BRANCH  31  32
ATOM     32  C   UNL A   1      35.221  31.296  28.735  1.00  0.00     0.116 C 
BRANCH  32  33
ATOM     33  N   UNL A   1      35.274  31.324  30.190  1.00  0.00    -0.352 N 
ATOM     34  C   UNL A   1      36.199  30.760  31.037  1.00  0.00     0.251 C 
ATOM     35  H   UNL A   1      34.543  31.816  30.630  1.00  0.00     0.163 HD
ATOM     36  O   UNL A   1      36.008  30.744  32.249  1.00  0.00    -0.269 OA
BRANCH  34  37
ATOM     37  C   UNL A   1      37.415  30.138  30.474  1.00  0.00     0.039 A 
ATOM     38  C   UNL A   1      37.940  28.970  31.033  1.00  0.00     0.014 A 
ATOM     39  C   UNL A   1      38.058  30.751  29.394  1.00  0.00     0.014 A 
ATOM     40  C   UNL A   1      39.191  28.517  30.630  1.00  0.00     0.010 A 
ATOM     41  C   UNL A   1      39.278  30.246  28.937  1.00  0.00     0.010 A 
ATOM     42  C   UNL A   1      39.881  29.158  29.586  1.00  0.00    -0.014 A 
BRANCH  42  43
ATOM     43  C   UNL A   1      41.237  28.685  29.208  1.00  0.00     0.031 A 
ATOM     44  C   UNL A   1      41.450  27.278  28.713  1.00  0.00     0.074 A 
ATOM     45  C   UNL A   1      42.273  29.545  29.251  1.00  0.00     0.049 A 
ATOM     46  N   UNL A   1      42.557  26.709  28.306  1.00  0.00    -0.248 NA
ATOM     47  C   UNL A   1      40.273  26.395  28.663  1.00  0.00     0.031 C 
ATOM     48  C   UNL A   1      42.190  30.942  29.682  1.00  0.00     0.029 A 
ATOM     49  N   UNL A   1      43.589  29.385  28.898  1.00  0.00    -0.354 N 
ATOM     50  C   UNL A   1      42.216  25.404  27.975  1.00  0.00     0.074 A 
ATOM     51  C   UNL A   1      40.803  25.253  28.245  1.00  0.00     0.031 C 
ATOM     52  C   UNL A   1      43.384  31.527  29.508  1.00  0.00     0.029 A 
ATOM     53  C   UNL A   1      44.334  30.533  29.018  1.00  0.00     0.049 A 
ATOM     54  H   UNL A   1      43.964  28.528  28.587  1.00  0.00     0.167 HD
ATOM     55  C   UNL A   1      43.007  24.423  27.480  1.00  0.00     0.031 A 
ATOM     56  C   UNL A   1      45.638  30.763  28.771  1.00  0.00     0.031 A 
ATOM     57  C   UNL A   1      44.407  24.577  27.190  1.00  0.00     0.049 A 
ATOM     58  C   UNL A   1      46.503  29.640  28.277  1.00  0.00     0.074 A 
ATOM     59  C   UNL A   1      45.280  23.643  26.658  1.00  0.00     0.029 A 
ATOM     60  N   UNL A   1      45.138  25.734  27.402  1.00  0.00    -0.354 N 
ATOM     61  N   UNL A   1      46.159  28.415  27.962  1.00  0.00    -0.248 NA
ATOM     62  C   UNL A   1      47.935  29.925  28.114  1.00  0.00     0.031 C 
ATOM     63  C   UNL A   1      46.551  24.218  26.599  1.00  0.00     0.029 A 
ATOM     64  C   UNL A   1      46.458  25.528  27.038  1.00  0.00     0.049 A 
ATOM     65  H   UNL A   1      44.773  26.577  27.759  1.00  0.00     0.167 HD
ATOM     66  C   UNL A   1      47.327  27.790  27.544  1.00  0.00     0.074 A 
ATOM     67  C   UNL A   1      48.386  28.774  27.634  1.00  0.00     0.031 C 
ATOM     68  C   UNL A   1      47.502  26.514  27.128  1.00  0.00     0.031 A 
BRANCH  55  69
ATOM     69  C   UNL A   1      42.395  23.074  27.225  1.00  0.00    -0.014 A 
ATOM     70  C   UNL A   1      42.452  22.086  28.222  1.00  0.00     0.009 A 
ATOM     71  C   UNL A   1      41.872  22.740  25.967  1.00  0.00     0.009 A 
ATOM     72  C   UNL A   1      42.014  20.788  27.959  1.00  0.00     0.001 A 
ATOM     73  C   UNL A   1      41.413  21.446  25.714  1.00  0.00     0.001 A 
ATOM     74  C   UNL A   1      41.493  20.469  26.706  1.00  0.00     0.000 A 
ENDBRANCH  55  69
BRANCH  56  75
ATOM     75  C   UNL A   1      46.196  32.124  28.981  1.00  0.00    -0.014 A 
ATOM     76  C   UNL A   1      46.636  32.530  30.251  1.00  0.00     0.009 A 
ATOM     77  C   UNL A   1      46.261  33.037  27.918  1.00  0.00     0.009 A 
ATOM     78  C   UNL A   1      47.106  33.828  30.459  1.00  0.00     0.001 A 
ATOM     79  C   UNL A   1      46.760  34.326  28.122  1.00  0.00     0.001 A 
ATOM     80  C   UNL A   1      47.174  34.723  29.392  1.00  0.00     0.000 A 
ENDBRANCH  56  75
BRANCH  68  81
ATOM     81  C   UNL A   1      48.883  26.093  26.713  1.00  0.00    -0.014 A 
ATOM     82  C   UNL A   1      49.736  25.487  27.650  1.00  0.00     0.009 A 
ATOM     83  C   UNL A   1      49.376  26.389  25.434  1.00  0.00     0.009 A 
ATOM     84  C   UNL A   1      51.060  25.200  27.320  1.00  0.00     0.001 A 
ATOM     85  C   UNL A   1      50.693  26.075  25.097  1.00  0.00     0.001 A 
ATOM     86  C   UNL A   1      51.537  25.491  26.043  1.00  0.00     0.000 A 
ENDBRANCH  68  81
ENDBRANCH  42  43
ENDBRANCH  34  37
ENDBRANCH  32  33
ENDBRANCH  31  32
ENDBRANCH  30  31
ENDBRANCH   1  30
TORSDOF 16
ENDMDL
