MODEL 1
REMARK VINA RESULT:     -10.0      0.000      0.000
REMARK SMILES CCN(Cc1ccccn1)C(=O)NC(CC)(CC)C(=O)NCCCCCCNC(=O)c1ccc(-c2c3nc(c(-c4ccccc4)c4ccc([nH]4)c(-c4ccccc4)c4nc(c(-c5ccccc5)c5ccc2[nH]5)C=C4)C=C3)cc1
REMARK SMILES IDX 23 1 22 2 21 3 19 4 20 5 14 7 13 8 11 9 12 10 3 12 2 13 1 14
REMARK SMILES IDX 4 15 5 16 6 17 10 18 7 19 9 20 8 21 15 22 16 23 17 24 18 25
REMARK SMILES IDX 24 26 25 27 26 28 27 29 28 30 29 31 30 33 31 34 32 35 78 36
REMARK SMILES IDX 33 37 77 38 34 39 35 40 36 41 71 42 37 43 76 44 70 45 72 46
REMARK SMILES IDX 38 47 75 48 69 49 68 50 39 52 61 53 46 54 60 55 47 56 50 57
REMARK SMILES IDX 59 58 73 59 48 60 49 61 58 63 74 64 51 65 40 66 41 67 45 68
REMARK SMILES IDX 42 69 44 70 43 71 62 72 63 73 67 74 64 75 66 76 65 77 52 78
REMARK SMILES IDX 53 79 57 80 54 81 56 82 55 83
REMARK H PARENT 21 6 13 11 28 32 72 51 50 62
REMARK Flexibility Score: inf
ROOT
ATOM      1  C   UNL A   1      33.889  29.228  26.721  1.00  0.00     0.021 C 
ENDROOT
BRANCH   1   2
ATOM      2  C   UNL A   1      33.734  28.348  25.478  1.00  0.00     0.116 C 
BRANCH   2   3
ATOM      3  N   UNL A   1      33.111  27.096  25.841  1.00  0.00    -0.354 N 
ATOM      4  C   UNL A   1      31.787  26.807  25.696  1.00  0.00     0.245 C 
ATOM      5  O   UNL A   1      31.172  26.542  26.734  1.00  0.00    -0.272 OA
ATOM      6  H   UNL A   1      33.688  26.397  26.225  1.00  0.00     0.163 HD
BRANCH   4   7
ATOM      7  C   UNL A   1      31.119  26.832  24.299  1.00  0.00     0.120 C 
BRANCH   7   8
ATOM      8  N   UNL A   1      32.011  26.173  23.309  1.00  0.00    -0.323 N 
ATOM      9  C   UNL A   1      32.836  25.126  23.176  1.00  0.00     0.318 C 
ATOM     10  O   UNL A   1      33.635  25.280  22.237  1.00  0.00    -0.249 OA
ATOM     11  H   UNL A   1      31.990  26.678  22.464  1.00  0.00     0.166 HD
BRANCH   9  12
ATOM     12  N   UNL A   1      32.737  23.916  23.800  1.00  0.00    -0.319 N 
BRANCH  12  13
ATOM     13  C   UNL A   1      31.674  23.064  23.240  1.00  0.00     0.118 C 
ATOM     14  C   UNL A   1      32.227  21.769  22.643  1.00  0.00     0.027 C 
ENDBRANCH  12  13
BRANCH  12  15
ATOM     15  C   UNL A   1      33.347  23.374  25.024  1.00  0.00     0.177 C 
BRANCH  15  16
ATOM     16  C   UNL A   1      34.842  23.113  25.084  1.00  0.00     0.060 A 
ATOM     17  C   UNL A   1      35.321  21.901  24.569  1.00  0.00     0.026 A 
ATOM     18  N   UNL A   1      35.684  24.051  25.571  1.00  0.00    -0.259 NA
ATOM     19  C   UNL A   1      36.685  21.626  24.611  1.00  0.00     0.004 A 
ATOM     20  C   UNL A   1      37.003  23.753  25.614  1.00  0.00     0.111 A 
ATOM     21  C   UNL A   1      37.545  22.564  25.160  1.00  0.00     0.020 A 
ENDBRANCH  15  16
ENDBRANCH  12  15
ENDBRANCH   9  12
ENDBRANCH   7   8
BRANCH   7  22
ATOM     22  C   UNL A   1      30.768  28.242  23.729  1.00  0.00     0.035 C 
ATOM     23  C   UNL A   1      31.728  28.835  22.697  1.00  0.00     0.007 C 
ENDBRANCH   7  22
BRANCH   7  24
ATOM     24  C   UNL A   1      29.826  25.951  24.431  1.00  0.00     0.035 C 
ATOM     25  C   UNL A   1      28.525  26.570  23.921  1.00  0.00     0.007 C 
ENDBRANCH   7  24
ENDBRANCH   4   7
ENDBRANCH   2   3
ENDBRANCH   1   2
BRANCH   1  26
ATOM     26  C   UNL A   1      32.576  29.825  27.257  1.00  0.00     0.002 C 
BRANCH  26  27
ATOM     27  C   UNL A   1      31.747  30.623  26.245  1.00  0.00     0.002 C 
BRANCH  27  28
ATOM     28  C   UNL A   1      31.503  32.084  26.618  1.00  0.00     0.021 C 
BRANCH  28  29
ATOM     29  C   UNL A   1      32.684  32.774  27.288  1.00  0.00     0.116 C 
BRANCH  29  30
ATOM     30  N   UNL A   1      32.412  34.161  27.626  1.00  0.00    -0.352 N 
ATOM     31  C   UNL A   1      33.040  34.927  28.579  1.00  0.00     0.251 C 
ATOM     32  H   UNL A   1      31.696  34.602  27.114  1.00  0.00     0.163 HD
ATOM     33  O   UNL A   1      32.638  36.054  28.854  1.00  0.00    -0.269 OA
BRANCH  31  34
ATOM     34  C   UNL A   1      34.194  34.351  29.298  1.00  0.00     0.039 A 
ATOM     35  C   UNL A   1      33.970  33.622  30.468  1.00  0.00     0.014 A 
ATOM     36  C   UNL A   1      35.482  34.475  28.771  1.00  0.00     0.014 A 
ATOM     37  C   UNL A   1      35.035  32.955  31.077  1.00  0.00     0.010 A 
ATOM     38  C   UNL A   1      36.529  33.763  29.345  1.00  0.00     0.010 A 
ATOM     39  C   UNL A   1      36.315  32.992  30.500  1.00  0.00    -0.014 A 
BRANCH  39  40
ATOM     40  C   UNL A   1      37.459  32.244  31.080  1.00  0.00     0.031 A 
ATOM     41  C   UNL A   1      38.141  32.772  32.311  1.00  0.00     0.074 A 
ATOM     42  C   UNL A   1      37.950  31.162  30.445  1.00  0.00     0.049 A 
ATOM     43  N   UNL A   1      39.251  32.371  32.876  1.00  0.00    -0.248 NA
ATOM     44  C   UNL A   1      37.508  33.924  32.976  1.00  0.00     0.031 C 
ATOM     45  C   UNL A   1      37.400  30.566  29.226  1.00  0.00     0.029 A 
ATOM     46  N   UNL A   1      39.046  30.385  30.729  1.00  0.00    -0.354 N 
ATOM     47  C   UNL A   1      39.470  33.244  33.934  1.00  0.00     0.074 A 
ATOM     48  C   UNL A   1      38.392  34.209  33.920  1.00  0.00     0.031 C 
ATOM     49  C   UNL A   1      38.159  29.516  28.868  1.00  0.00     0.029 A 
ATOM     50  C   UNL A   1      39.271  29.392  29.805  1.00  0.00     0.049 A 
ATOM     51  H   UNL A   1      39.617  30.526  31.518  1.00  0.00     0.167 HD
ATOM     52  C   UNL A   1      40.476  33.239  34.838  1.00  0.00     0.031 A 
ATOM     53  C   UNL A   1      40.273  28.497  29.712  1.00  0.00     0.031 A 
ATOM     54  C   UNL A   1      41.522  32.254  34.880  1.00  0.00     0.049 A 
ATOM     55  C   UNL A   1      41.370  28.505  30.742  1.00  0.00     0.074 A 
ATOM     56  C   UNL A   1      42.537  32.119  35.812  1.00  0.00     0.029 A 
ATOM     57  N   UNL A   1      41.685  31.238  33.955  1.00  0.00    -0.354 N 
ATOM     58  N   UNL A   1      41.525  29.297  31.775  1.00  0.00    -0.248 NA
ATOM     59  C   UNL A   1      42.427  27.493  30.594  1.00  0.00     0.031 C 
ATOM     60  C   UNL A   1      43.339  31.040  35.427  1.00  0.00     0.029 A 
ATOM     61  C   UNL A   1      42.797  30.482  34.281  1.00  0.00     0.049 A 
ATOM     62  H   UNL A   1      41.098  31.077  33.180  1.00  0.00     0.167 HD
ATOM     63  C   UNL A   1      42.675  28.857  32.417  1.00  0.00     0.074 A 
ATOM     64  C   UNL A   1      43.176  27.727  31.663  1.00  0.00     0.031 C 
ATOM     65  C   UNL A   1      43.266  29.347  33.533  1.00  0.00     0.031 A 
BRANCH  52  66
ATOM     66  C   UNL A   1      40.502  34.336  35.861  1.00  0.00    -0.014 A 
ATOM     67  C   UNL A   1      41.178  35.542  35.620  1.00  0.00     0.009 A 
ATOM     68  C   UNL A   1      39.784  34.184  37.058  1.00  0.00     0.009 A 
ATOM     69  C   UNL A   1      41.154  36.566  36.569  1.00  0.00     0.001 A 
ATOM     70  C   UNL A   1      39.743  35.218  37.995  1.00  0.00     0.001 A 
ATOM     71  C   UNL A   1      40.432  36.405  37.751  1.00  0.00     0.000 A 
ENDBRANCH  52  66
BRANCH  53  72
ATOM     72  C   UNL A   1      40.303  27.516  28.595  1.00  0.00    -0.014 A 
ATOM     73  C   UNL A   1      40.953  27.828  27.391  1.00  0.00     0.009 A 
ATOM     74  C   UNL A   1      39.650  26.279  28.714  1.00  0.00     0.009 A 
ATOM     75  C   UNL A   1      40.919  26.935  26.316  1.00  0.00     0.001 A 
ATOM     76  C   UNL A   1      39.641  25.378  27.647  1.00  0.00     0.001 A 
ATOM     77  C   UNL A   1      40.265  25.711  26.446  1.00  0.00     0.000 A 
ENDBRANCH  53  72
BRANCH  65  78
ATOM     78  C   UNL A   1      44.485  28.635  34.041  1.00  0.00    -0.014 A 
ATOM     79  C   UNL A   1      45.775  29.090  33.729  1.00  0.00     0.009 A 
ATOM     80  C   UNL A   1      44.336  27.533  34.897  1.00  0.00     0.009 A 
ATOM     81  C   UNL A   1      46.894  28.441  34.252  1.00  0.00     0.001 A 
ATOM     82  C   UNL A   1      45.455  26.901  35.436  1.00  0.00     0.001 A 
ATOM     83  C   UNL A   1      46.734  27.352  35.109  1.00  0.00     0.000 A 
ENDBRANCH  65  78
ENDBRANCH  39  40
ENDBRANCH  31  34
ENDBRANCH  29  30
ENDBRANCH  28  29
ENDBRANCH  27  28
ENDBRANCH  26  27
ENDBRANCH   1  26
TORSDOF 20
ENDMDL
MODEL 2
REMARK VINA RESULT:      -9.7      2.091      4.352
REMARK SMILES CCN(Cc1ccccn1)C(=O)NC(CC)(CC)C(=O)NCCCCCCNC(=O)c1ccc(-c2c3nc(c(-c4ccccc4)c4ccc([nH]4)c(-c4ccccc4)c4nc(c(-c5ccccc5)c5ccc2[nH]5)C=C4)C=C3)cc1
REMARK SMILES IDX 23 1 22 2 21 3 19 4 20 5 14 7 13 8 11 9 12 10 3 12 2 13 1 14
REMARK SMILES IDX 4 15 5 16 6 17 10 18 7 19 9 20 8 21 15 22 16 23 17 24 18 25
REMARK SMILES IDX 24 26 25 27 26 28 27 29 28 30 29 31 30 33 31 34 32 35 78 36
REMARK SMILES IDX 33 37 77 38 34 39 35 40 36 41 71 42 37 43 76 44 70 45 72 46
REMARK SMILES IDX 38 47 75 48 69 49 68 50 39 52 61 53 46 54 60 55 47 56 50 57
REMARK SMILES IDX 59 58 73 59 48 60 49 61 58 63 74 64 51 65 40 66 41 67 45 68
REMARK SMILES IDX 42 69 44 70 43 71 62 72 63 73 67 74 64 75 66 76 65 77 52 78
REMARK SMILES IDX 53 79 57 80 54 81 56 82 55 83
REMARK H PARENT 21 6 13 11 28 32 72 51 50 62
REMARK Flexibility Score: inf
ROOT
ATOM      1  C   UNL A   1      33.650  31.619  27.460  1.00  0.00     0.021 C 
ENDROOT
BRANCH   1   2
ATOM      2  C   UNL A   1      33.861  30.198  26.931  1.00  0.00     0.116 C 
BRANCH   2   3
ATOM      3  N   UNL A   1      33.276  30.075  25.616  1.00  0.00    -0.354 N 
ATOM      4  C   UNL A   1      33.274  28.940  24.861  1.00  0.00     0.245 C 
ATOM      5  O   UNL A   1      33.847  29.014  23.769  1.00  0.00    -0.272 OA
ATOM      6  H   UNL A   1      32.846  30.874  25.234  1.00  0.00     0.163 HD
BRANCH   4   7
ATOM      7  C   UNL A   1      32.597  27.646  25.377  1.00  0.00     0.120 C 
BRANCH   7   8
ATOM      8  N   UNL A   1      32.153  26.823  24.221  1.00  0.00    -0.323 N 
ATOM      9  C   UNL A   1      31.122  26.664  23.382  1.00  0.00     0.318 C 
ATOM     10  O   UNL A   1      31.127  25.543  22.846  1.00  0.00    -0.249 OA
ATOM     11  H   UNL A   1      32.857  26.172  23.997  1.00  0.00     0.166 HD
BRANCH   9  12
ATOM     12  N   UNL A   1      30.261  27.628  22.946  1.00  0.00    -0.319 N 
BRANCH  12  13
ATOM     13  C   UNL A   1      28.846  27.261  23.123  1.00  0.00     0.118 C 
ATOM     14  C   UNL A   1      28.637  26.327  24.316  1.00  0.00     0.027 C 
ENDBRANCH  12  13
BRANCH  12  15
ATOM     15  C   UNL A   1      30.459  28.865  22.172  1.00  0.00     0.177 C 
BRANCH  15  16
ATOM     16  C   UNL A   1      29.603  30.088  22.453  1.00  0.00     0.060 A 
ATOM     17  C   UNL A   1      28.828  30.604  21.406  1.00  0.00     0.026 A 
ATOM     18  N   UNL A   1      29.556  30.624  23.692  1.00  0.00    -0.259 NA
ATOM     19  C   UNL A   1      28.035  31.728  21.625  1.00  0.00     0.004 A 
ATOM     20  C   UNL A   1      28.790  31.724  23.875  1.00  0.00     0.111 A 
ATOM     21  C   UNL A   1      28.027  32.312  22.882  1.00  0.00     0.020 A 
ENDBRANCH  15  16
ENDBRANCH  12  15
ENDBRANCH   9  12
ENDBRANCH   7   8
BRANCH   7  22
ATOM     22  C   UNL A   1      31.355  27.841  26.302  1.00  0.00     0.035 C 
ATOM     23  C   UNL A   1      31.602  27.829  27.811  1.00  0.00     0.007 C 
ENDBRANCH   7  22
BRANCH   7  24
ATOM     24  C   UNL A   1      33.724  26.847  26.122  1.00  0.00     0.035 C 
ATOM     25  C   UNL A   1      34.231  25.581  25.431  1.00  0.00     0.007 C 
ENDBRANCH   7  24
ENDBRANCH   4   7
ENDBRANCH   2   3
ENDBRANCH   1   2
BRANCH   1  26
ATOM     26  C   UNL A   1      34.413  31.944  28.757  1.00  0.00     0.002 C 
BRANCH  26  27
ATOM     27  C   UNL A   1      34.582  33.434  29.072  1.00  0.00     0.002 C 
BRANCH  27  28
ATOM     28  C   UNL A   1      33.290  34.248  29.063  1.00  0.00     0.021 C 
BRANCH  28  29
ATOM     29  C   UNL A   1      33.465  35.721  29.406  1.00  0.00     0.116 C 
BRANCH  29  30
ATOM     30  N   UNL A   1      32.533  36.180  30.422  1.00  0.00    -0.352 N 
ATOM     31  C   UNL A   1      32.559  35.901  31.768  1.00  0.00     0.251 C 
ATOM     32  H   UNL A   1      31.798  36.757  30.111  1.00  0.00     0.163 HD
ATOM     33  O   UNL A   1      31.644  36.250  32.507  1.00  0.00    -0.269 OA
BRANCH  31  34
ATOM     34  C   UNL A   1      33.699  35.132  32.306  1.00  0.00     0.039 A 
ATOM     35  C   UNL A   1      33.467  33.873  32.864  1.00  0.00     0.014 A 
ATOM     36  C   UNL A   1      34.999  35.631  32.188  1.00  0.00     0.014 A 
ATOM     37  C   UNL A   1      34.552  33.079  33.245  1.00  0.00     0.010 A 
ATOM     38  C   UNL A   1      36.078  34.817  32.514  1.00  0.00     0.010 A 
ATOM     39  C   UNL A   1      35.865  33.531  33.039  1.00  0.00    -0.014 A 
BRANCH  39  40
ATOM     40  C   UNL A   1      37.044  32.693  33.371  1.00  0.00     0.031 A 
ATOM     41  C   UNL A   1      37.790  32.936  34.654  1.00  0.00     0.074 A 
ATOM     42  C   UNL A   1      37.507  31.796  32.479  1.00  0.00     0.049 A 
ATOM     43  N   UNL A   1      38.932  32.438  35.053  1.00  0.00    -0.248 NA
ATOM     44  C   UNL A   1      37.185  33.890  35.599  1.00  0.00     0.031 C 
ATOM     45  C   UNL A   1      36.896  31.486  31.185  1.00  0.00     0.029 A 
ATOM     46  N   UNL A   1      38.623  30.996  32.518  1.00  0.00    -0.354 N 
ATOM     47  C   UNL A   1      39.202  33.047  36.271  1.00  0.00     0.074 A 
ATOM     48  C   UNL A   1      38.118  33.967  36.537  1.00  0.00     0.031 C 
ATOM     49  C   UNL A   1      37.642  30.562  30.555  1.00  0.00     0.029 A 
ATOM     50  C   UNL A   1      38.805  30.247  31.379  1.00  0.00     0.049 A 
ATOM     51  H   UNL A   1      39.235  30.962  33.288  1.00  0.00     0.167 HD
ATOM     52  C   UNL A   1      40.256  32.853  37.097  1.00  0.00     0.031 A 
ATOM     53  C   UNL A   1      39.806  29.418  31.030  1.00  0.00     0.031 A 
ATOM     54  C   UNL A   1      41.310  31.906  36.855  1.00  0.00     0.049 A 
ATOM     55  C   UNL A   1      40.957  29.210  31.976  1.00  0.00     0.074 A 
ATOM     56  C   UNL A   1      42.375  31.579  37.677  1.00  0.00     0.029 A 
ATOM     57  N   UNL A   1      41.429  31.134  35.713  1.00  0.00    -0.354 N 
ATOM     58  N   UNL A   1      41.164  29.745  33.155  1.00  0.00    -0.248 NA
ATOM     59  C   UNL A   1      42.012  28.280  31.543  1.00  0.00     0.031 C 
ATOM     60  C   UNL A   1      43.162  30.634  37.012  1.00  0.00     0.029 A 
ATOM     61  C   UNL A   1      42.562  30.344  35.798  1.00  0.00     0.049 A 
ATOM     62  H   UNL A   1      40.802  31.144  34.953  1.00  0.00     0.167 HD
ATOM     63  C   UNL A   1      42.350  29.191  33.617  1.00  0.00     0.074 A 
ATOM     64  C   UNL A   1      42.817  28.276  32.597  1.00  0.00     0.031 C 
ATOM     65  C   UNL A   1      42.997  29.422  34.784  1.00  0.00     0.031 A 
BRANCH  52  66
ATOM     66  C   UNL A   1      40.330  33.685  38.343  1.00  0.00    -0.014 A 
ATOM     67  C   UNL A   1      39.805  33.224  39.560  1.00  0.00     0.009 A 
ATOM     68  C   UNL A   1      40.991  34.922  38.311  1.00  0.00     0.009 A 
ATOM     69  C   UNL A   1      39.921  33.998  40.716  1.00  0.00     0.001 A 
ATOM     70  C   UNL A   1      41.127  35.683  39.473  1.00  0.00     0.001 A 
ATOM     71  C   UNL A   1      40.587  35.223  40.673  1.00  0.00     0.000 A 
ENDBRANCH  52  66
BRANCH  53  72
ATOM     72  C   UNL A   1      39.782  28.721  29.717  1.00  0.00    -0.014 A 
ATOM     73  C   UNL A   1      39.246  27.429  29.607  1.00  0.00     0.009 A 
ATOM     74  C   UNL A   1      40.330  29.328  28.576  1.00  0.00     0.009 A 
ATOM     75  C   UNL A   1      39.289  26.745  28.389  1.00  0.00     0.001 A 
ATOM     76  C   UNL A   1      40.347  28.653  27.354  1.00  0.00     0.001 A 
ATOM     77  C   UNL A   1      39.838  27.358  27.264  1.00  0.00     0.000 A 
ENDBRANCH  53  72
BRANCH  65  78
ATOM     78  C   UNL A   1      44.248  28.637  35.050  1.00  0.00    -0.014 A 
ATOM     79  C   UNL A   1      44.197  27.375  35.661  1.00  0.00     0.009 A 
ATOM     80  C   UNL A   1      45.486  29.142  34.623  1.00  0.00     0.009 A 
ATOM     81  C   UNL A   1      45.369  26.641  35.855  1.00  0.00     0.001 A 
ATOM     82  C   UNL A   1      46.651  28.397  34.797  1.00  0.00     0.001 A 
ATOM     83  C   UNL A   1      46.593  27.150  35.418  1.00  0.00     0.000 A 
ENDBRANCH  65  78
ENDBRANCH  39  40
ENDBRANCH  31  34
ENDBRANCH  29  30
ENDBRANCH  28  29
ENDBRANCH  27  28
ENDBRANCH  26  27
ENDBRANCH   1  26
TORSDOF 20
ENDMDL
MODEL 3
REMARK VINA RESULT:      -9.7      1.686      6.268
REMARK SMILES CCN(Cc1ccccn1)C(=O)NC(CC)(CC)C(=O)NCCCCCCNC(=O)c1ccc(-c2c3nc(c(-c4ccccc4)c4ccc([nH]4)c(-c4ccccc4)c4nc(c(-c5ccccc5)c5ccc2[nH]5)C=C4)C=C3)cc1
REMARK SMILES IDX 23 1 22 2 21 3 19 4 20 5 14 7 13 8 11 9 12 10 3 12 2 13 1 14
REMARK SMILES IDX 4 15 5 16 6 17 10 18 7 19 9 20 8 21 15 22 16 23 17 24 18 25
REMARK SMILES IDX 24 26 25 27 26 28 27 29 28 30 29 31 30 33 31 34 32 35 78 36
REMARK SMILES IDX 33 37 77 38 34 39 35 40 36 41 71 42 37 43 76 44 70 45 72 46
REMARK SMILES IDX 38 47 75 48 69 49 68 50 39 52 61 53 46 54 60 55 47 56 50 57
REMARK SMILES IDX 59 58 73 59 48 60 49 61 58 63 74 64 51 65 40 66 41 67 45 68
REMARK SMILES IDX 42 69 44 70 43 71 62 72 63 73 67 74 64 75 66 76 65 77 52 78
REMARK SMILES IDX 53 79 57 80 54 81 56 82 55 83
REMARK H PARENT 21 6 13 11 28 32 72 51 50 62
REMARK Flexibility Score: inf
ROOT
ATOM      1  C   UNL A   1      33.571  28.736  25.582  1.00  0.00     0.021 C 
ENDROOT
BRANCH   1   2
ATOM      2  C   UNL A   1      33.589  27.295  26.099  1.00  0.00     0.116 C 
BRANCH   2   3
ATOM      3  N   UNL A   1      32.236  26.803  26.221  1.00  0.00    -0.354 N 
ATOM      4  C   UNL A   1      31.620  25.974  25.331  1.00  0.00     0.245 C 
ATOM      5  O   UNL A   1      30.603  26.419  24.789  1.00  0.00    -0.272 OA
ATOM      6  H   UNL A   1      31.717  27.090  27.006  1.00  0.00     0.163 HD
BRANCH   4   7
ATOM      7  C   UNL A   1      32.195  24.569  25.028  1.00  0.00     0.120 C 
BRANCH   7   8
ATOM      8  N   UNL A   1      32.493  23.867  26.305  1.00  0.00    -0.323 N 
ATOM      9  C   UNL A   1      32.725  22.645  26.799  1.00  0.00     0.318 C 
ATOM     10  O   UNL A   1      32.523  22.593  28.024  1.00  0.00    -0.249 OA
ATOM     11  H   UNL A   1      32.530  24.526  27.036  1.00  0.00     0.166 HD
BRANCH   9  12
ATOM     12  N   UNL A   1      33.320  21.598  26.159  1.00  0.00    -0.319 N 
BRANCH  12  13
ATOM     13  C   UNL A   1      34.732  21.418  26.537  1.00  0.00     0.118 C 
ATOM     14  C   UNL A   1      35.687  22.039  25.517  1.00  0.00     0.027 C 
ENDBRANCH  12  13
BRANCH  12  15
ATOM     15  C   UNL A   1      32.893  20.741  25.041  1.00  0.00     0.177 C 
BRANCH  15  16
ATOM     16  C   UNL A   1      33.182  19.250  25.067  1.00  0.00     0.060 A 
ATOM     17  C   UNL A   1      34.299  18.783  24.362  1.00  0.00     0.026 A 
ATOM     18  N   UNL A   1      32.411  18.413  25.795  1.00  0.00    -0.259 NA
ATOM     19  C   UNL A   1      34.593  17.421  24.358  1.00  0.00     0.004 A 
ATOM     20  C   UNL A   1      32.708  17.093  25.764  1.00  0.00     0.111 A 
ATOM     21  C   UNL A   1      33.771  16.554  25.061  1.00  0.00     0.020 A 
ENDBRANCH  15  16
ENDBRANCH  12  15
ENDBRANCH   9  12
ENDBRANCH   7   8
BRANCH   7  22
ATOM     22  C   UNL A   1      33.499  24.529  24.171  1.00  0.00     0.035 C 
ATOM     23  C   UNL A   1      33.625  25.558  23.047  1.00  0.00     0.007 C 
ENDBRANCH   7  22
BRANCH   7  24
ATOM     24  C   UNL A   1      31.039  23.782  24.315  1.00  0.00     0.035 C 
ATOM     25  C   UNL A   1      31.425  22.985  23.068  1.00  0.00     0.007 C 
ENDBRANCH   7  24
ENDBRANCH   4   7
ENDBRANCH   2   3
ENDBRANCH   1   2
BRANCH   1  26
ATOM     26  C   UNL A   1      32.203  29.435  25.668  1.00  0.00     0.002 C 
BRANCH  26  27
ATOM     27  C   UNL A   1      31.942  30.230  26.952  1.00  0.00     0.002 C 
BRANCH  27  28
ATOM     28  C   UNL A   1      31.767  31.735  26.757  1.00  0.00     0.021 C 
BRANCH  28  29
ATOM     29  C   UNL A   1      32.878  32.587  27.355  1.00  0.00     0.116 C 
BRANCH  29  30
ATOM     30  N   UNL A   1      32.458  33.948  27.639  1.00  0.00    -0.352 N 
ATOM     31  C   UNL A   1      33.022  34.827  28.532  1.00  0.00     0.251 C 
ATOM     32  H   UNL A   1      31.680  34.278  27.135  1.00  0.00     0.163 HD
ATOM     33  O   UNL A   1      32.502  35.912  28.770  1.00  0.00    -0.269 OA
BRANCH  31  34
ATOM     34  C   UNL A   1      34.258  34.424  29.234  1.00  0.00     0.039 A 
ATOM     35  C   UNL A   1      34.158  33.741  30.448  1.00  0.00     0.014 A 
ATOM     36  C   UNL A   1      35.505  34.659  28.648  1.00  0.00     0.014 A 
ATOM     37  C   UNL A   1      35.312  33.231  31.047  1.00  0.00     0.010 A 
ATOM     38  C   UNL A   1      36.644  34.101  29.216  1.00  0.00     0.010 A 
ATOM     39  C   UNL A   1      36.559  33.376  30.418  1.00  0.00    -0.014 A 
BRANCH  39  40
ATOM     40  C   UNL A   1      37.799  32.793  30.989  1.00  0.00     0.031 A 
ATOM     41  C   UNL A   1      38.410  31.578  30.348  1.00  0.00     0.074 A 
ATOM     42  C   UNL A   1      38.309  33.283  32.135  1.00  0.00     0.049 A 
ATOM     43  N   UNL A   1      39.383  30.819  30.780  1.00  0.00    -0.248 NA
ATOM     44  C   UNL A   1      37.827  31.142  29.067  1.00  0.00     0.031 C 
ATOM     45  C   UNL A   1      37.793  34.437  32.874  1.00  0.00     0.029 A 
ATOM     46  N   UNL A   1      39.367  32.849  32.896  1.00  0.00    -0.354 N 
ATOM     47  C   UNL A   1      39.501  29.795  29.849  1.00  0.00     0.074 A 
ATOM     48  C   UNL A   1      38.488  30.016  28.841  1.00  0.00     0.031 C 
ATOM     49  C   UNL A   1      38.536  34.622  33.979  1.00  0.00     0.029 A 
ATOM     50  C   UNL A   1      39.551  33.575  34.049  1.00  0.00     0.049 A 
ATOM     51  H   UNL A   1      39.938  32.090  32.640  1.00  0.00     0.167 HD
ATOM     52  C   UNL A   1      40.379  28.766  29.833  1.00  0.00     0.031 A 
ATOM     53  C   UNL A   1      40.425  33.402  35.059  1.00  0.00     0.031 A 
ATOM     54  C   UNL A   1      41.416  28.570  30.809  1.00  0.00     0.049 A 
ATOM     55  C   UNL A   1      41.400  32.258  35.005  1.00  0.00     0.074 A 
ATOM     56  C   UNL A   1      42.406  27.603  30.828  1.00  0.00     0.029 A 
ATOM     57  N   UNL A   1      41.597  29.356  31.934  1.00  0.00    -0.354 N 
ATOM     58  N   UNL A   1      41.541  31.337  34.083  1.00  0.00    -0.248 NA
ATOM     59  C   UNL A   1      42.338  32.132  36.131  1.00  0.00     0.031 C 
ATOM     60  C   UNL A   1      43.166  27.782  31.988  1.00  0.00     0.029 A 
ATOM     61  C   UNL A   1      42.672  28.884  32.667  1.00  0.00     0.049 A 
ATOM     62  H   UNL A   1      41.044  30.134  32.177  1.00  0.00     0.167 HD
ATOM     63  C   UNL A   1      42.604  30.546  34.500  1.00  0.00     0.074 A 
ATOM     64  C   UNL A   1      43.074  31.095  35.754  1.00  0.00     0.031 C 
ATOM     65  C   UNL A   1      43.141  29.458  33.898  1.00  0.00     0.031 A 
BRANCH  52  66
ATOM     66  C   UNL A   1      40.258  27.762  28.725  1.00  0.00    -0.014 A 
ATOM     67  C   UNL A   1      40.896  27.957  27.490  1.00  0.00     0.009 A 
ATOM     68  C   UNL A   1      39.547  26.572  28.944  1.00  0.00     0.009 A 
ATOM     69  C   UNL A   1      40.804  26.990  26.488  1.00  0.00     0.001 A 
ATOM     70  C   UNL A   1      39.475  25.596  27.948  1.00  0.00     0.001 A 
ATOM     71  C   UNL A   1      40.099  25.809  26.720  1.00  0.00     0.000 A 
ENDBRANCH  52  66
BRANCH  53  72
ATOM     72  C   UNL A   1      40.420  34.326  36.223  1.00  0.00    -0.014 A 
ATOM     73  C   UNL A   1      39.632  34.047  37.351  1.00  0.00     0.009 A 
ATOM     74  C   UNL A   1      41.172  35.511  36.197  1.00  0.00     0.009 A 
ATOM     75  C   UNL A   1      39.571  34.951  38.414  1.00  0.00     0.001 A 
ATOM     76  C   UNL A   1      41.130  36.400  37.274  1.00  0.00     0.001 A 
ATOM     77  C   UNL A   1      40.321  36.125  38.375  1.00  0.00     0.000 A 
ENDBRANCH  53  72
BRANCH  65  78
ATOM     78  C   UNL A   1      44.332  28.822  34.552  1.00  0.00    -0.014 A 
ATOM     79  C   UNL A   1      44.184  27.754  35.450  1.00  0.00     0.009 A 
ATOM     80  C   UNL A   1      45.622  29.257  34.213  1.00  0.00     0.009 A 
ATOM     81  C   UNL A   1      45.308  27.145  36.009  1.00  0.00     0.001 A 
ATOM     82  C   UNL A   1      46.744  28.633  34.756  1.00  0.00     0.001 A 
ATOM     83  C   UNL A   1      46.587  27.581  35.658  1.00  0.00     0.000 A 
ENDBRANCH  65  78
ENDBRANCH  39  40
ENDBRANCH  31  34
ENDBRANCH  29  30
ENDBRANCH  28  29
ENDBRANCH  27  28
ENDBRANCH  26  27
ENDBRANCH   1  26
TORSDOF 20
ENDMDL
