MODEL 1
REMARK VINA RESULT:      -8.8      0.000      0.000
REMARK SMILES COc1cc(/C=C2/SC(=O)N(c3ccc(C)c(C)c3)C2=O)ccc1OCCC(=O)NCCCCCCNC(=O)c1ccc(-c2c3nc(c(-c4ccccc4)c4ccc([nH]4)c(-c4ccccc4)c4nc(c(-c5ccccc5)c5ccc2[nH]5)C=C4)C=C3)cc1
REMARK SMILES IDX 32 1 31 2 30 3 28 4 29 5 27 7 26 8 25 9 24 10 3 11 4 12 5 13
REMARK SMILES IDX 23 14 22 15 2 16 1 17 6 18 7 19 8 20 20 21 9 22 11 23 21 24
REMARK SMILES IDX 10 25 12 26 13 27 19 28 14 29 17 30 15 31 18 32 16 33 33 34
REMARK SMILES IDX 34 35 35 36 36 37 37 38 38 39 39 41 40 42 41 43 87 44 42 45
REMARK SMILES IDX 86 46 43 47 44 48 45 49 80 50 46 51 85 52 79 53 81 54 47 55
REMARK SMILES IDX 84 56 78 57 77 58 48 60 70 61 55 62 69 63 56 64 59 65 68 66
REMARK SMILES IDX 82 67 57 68 58 69 67 71 83 72 60 73 49 74 50 75 54 76 51 77
REMARK SMILES IDX 53 78 52 79 71 80 72 81 76 82 73 83 75 84 74 85 61 86 62 87
REMARK SMILES IDX 66 88 63 89 65 90 64 91
REMARK H PARENT 30 6 37 40 81 59 59 70
REMARK Flexibility Score: inf
ROOT
ATOM      1  C   UNL A   1      36.545  32.777  32.675  1.00  0.00     0.021 C 
ENDROOT
BRANCH   1   2
ATOM      2  C   UNL A   1      37.321  31.783  33.532  1.00  0.00     0.116 C 
BRANCH   2   3
ATOM      3  N   UNL A   1      37.042  30.396  33.208  1.00  0.00    -0.356 N 
ATOM      4  C   UNL A   1      37.894  29.329  33.191  1.00  0.00     0.223 C 
ATOM      5  O   UNL A   1      37.422  28.193  33.162  1.00  0.00    -0.275 OA
ATOM      6  H   UNL A   1      36.108  30.197  32.965  1.00  0.00     0.163 HD
BRANCH   4   7
ATOM      7  C   UNL A   1      39.382  29.560  33.296  1.00  0.00     0.141 C 
BRANCH   7   8
ATOM      8  C   UNL A   1      40.258  28.348  33.003  1.00  0.00     0.239 C 
BRANCH   8   9
ATOM      9  O   UNL A   1      40.665  27.562  34.111  1.00  0.00    -0.489 OA
BRANCH   9  10
ATOM     10  C   UNL A   1      41.657  27.871  34.990  1.00  0.00     0.161 A 
ATOM     11  C   UNL A   1      42.092  27.257  36.168  1.00  0.00     0.161 A 
ATOM     12  C   UNL A   1      43.340  27.615  36.731  1.00  0.00     0.058 A 
ATOM     13  C   UNL A   1      44.127  28.625  36.175  1.00  0.00    -0.020 A 
ATOM     14  C   UNL A   1      42.398  28.963  34.510  1.00  0.00     0.051 A 
ATOM     15  C   UNL A   1      43.618  29.331  35.079  1.00  0.00     0.012 A 
BRANCH  11  16
ATOM     16  O   UNL A   1      41.506  26.192  36.784  1.00  0.00    -0.493 OA
ATOM     17  C   UNL A   1      41.638  24.942  36.119  1.00  0.00     0.278 C 
ENDBRANCH  11  16
BRANCH  13  18
ATOM     18  C   UNL A   1      45.522  28.850  36.605  1.00  0.00     0.029 C 
ATOM     19  C   UNL A   1      46.528  28.018  36.304  1.00  0.00     0.083 C 
ATOM     20  S   UNL A   1      47.989  27.847  37.179  1.00  0.00    -0.022 SA
ATOM     21  C   UNL A   1      46.402  26.878  35.370  1.00  0.00     0.272 C 
ATOM     22  C   UNL A   1      48.033  26.108  36.806  1.00  0.00     0.298 C 
ATOM     23  N   UNL A   1      46.999  25.778  35.954  1.00  0.00    -0.236 N 
ATOM     24  O   UNL A   1      45.877  27.000  34.277  1.00  0.00    -0.268 OA
ATOM     25  O   UNL A   1      48.921  25.398  37.262  1.00  0.00    -0.260 OA
BRANCH  23  26
ATOM     26  C   UNL A   1      46.574  24.440  35.662  1.00  0.00     0.053 A 
ATOM     27  C   UNL A   1      45.304  23.978  36.040  1.00  0.00     0.027 A 
ATOM     28  C   UNL A   1      47.451  23.491  35.113  1.00  0.00     0.030 A 
ATOM     29  C   UNL A   1      44.916  22.652  35.844  1.00  0.00     0.006 A 
ATOM     30  C   UNL A   1      47.087  22.137  34.942  1.00  0.00    -0.046 A 
ATOM     31  C   UNL A   1      45.791  21.721  35.283  1.00  0.00    -0.048 A 
ATOM     32  C   UNL A   1      48.108  21.175  34.396  1.00  0.00     0.044 C 
ATOM     33  C   UNL A   1      45.284  20.319  35.093  1.00  0.00     0.044 C 
ENDBRANCH  23  26
ENDBRANCH  13  18
ENDBRANCH   9  10
ENDBRANCH   8   9
ENDBRANCH   7   8
ENDBRANCH   4   7
ENDBRANCH   2   3
ENDBRANCH   1   2
BRANCH   1  34
ATOM     34  C   UNL A   1      36.662  32.502  31.175  1.00  0.00     0.002 C 
BRANCH  34  35
ATOM     35  C   UNL A   1      36.051  33.559  30.258  1.00  0.00     0.002 C 
BRANCH  35  36
ATOM     36  C   UNL A   1      34.698  33.164  29.658  1.00  0.00     0.021 C 
BRANCH  36  37
ATOM     37  C   UNL A   1      34.731  32.795  28.174  1.00  0.00     0.116 C 
BRANCH  37  38
ATOM     38  N   UNL A   1      34.014  31.562  27.889  1.00  0.00    -0.352 N 
ATOM     39  C   UNL A   1      34.513  30.283  27.803  1.00  0.00     0.251 C 
ATOM     40  H   UNL A   1      33.045  31.655  27.740  1.00  0.00     0.163 HD
ATOM     41  O   UNL A   1      33.816  29.365  27.386  1.00  0.00    -0.269 OA
BRANCH  39  42
ATOM     42  C   UNL A   1      35.917  30.032  28.187  1.00  0.00     0.039 A 
ATOM     43  C   UNL A   1      36.192  29.524  29.459  1.00  0.00     0.014 A 
ATOM     44  C   UNL A   1      36.952  30.244  27.271  1.00  0.00     0.014 A 
ATOM     45  C   UNL A   1      37.499  29.155  29.785  1.00  0.00     0.010 A 
ATOM     46  C   UNL A   1      38.242  29.816  27.576  1.00  0.00     0.010 A 
ATOM     47  C   UNL A   1      38.528  29.258  28.833  1.00  0.00    -0.014 A 
BRANCH  47  48
ATOM     48  C   UNL A   1      39.900  28.768  29.128  1.00  0.00     0.031 A 
ATOM     49  C   UNL A   1      40.898  29.664  29.810  1.00  0.00     0.074 A 
ATOM     50  C   UNL A   1      40.269  27.531  28.737  1.00  0.00     0.049 A 
ATOM     51  N   UNL A   1      42.154  29.432  30.098  1.00  0.00    -0.248 NA
ATOM     52  C   UNL A   1      40.428  31.003  30.203  1.00  0.00     0.031 C 
ATOM     53  C   UNL A   1      39.413  26.570  28.037  1.00  0.00     0.029 A 
ATOM     54  N   UNL A   1      41.468  26.871  28.866  1.00  0.00    -0.354 N 
ATOM     55  C   UNL A   1      42.623  30.591  30.703  1.00  0.00     0.074 A 
ATOM     56  C   UNL A   1      41.535  31.544  30.691  1.00  0.00     0.031 C 
ATOM     57  C   UNL A   1      40.106  25.440  27.818  1.00  0.00     0.029 A 
ATOM     58  C   UNL A   1      41.465  25.608  28.324  1.00  0.00     0.049 A 
ATOM     59  H   UNL A   1      42.255  27.266  29.306  1.00  0.00     0.167 HD
ATOM     60  C   UNL A   1      43.841  30.834  31.242  1.00  0.00     0.031 A 
ATOM     61  C   UNL A   1      42.447  24.691  28.233  1.00  0.00     0.031 A 
ATOM     62  C   UNL A   1      44.927  29.890  31.260  1.00  0.00     0.049 A 
ATOM     63  C   UNL A   1      43.803  25.003  28.809  1.00  0.00     0.074 A 
ATOM     64  C   UNL A   1      46.189  30.041  31.809  1.00  0.00     0.029 A 
ATOM     65  N   UNL A   1      44.881  28.623  30.705  1.00  0.00    -0.354 N 
ATOM     66  N   UNL A   1      44.210  26.084  29.428  1.00  0.00    -0.248 NA
ATOM     67  C   UNL A   1      44.831  23.959  28.684  1.00  0.00     0.031 C 
ATOM     68  C   UNL A   1      46.922  28.879  31.545  1.00  0.00     0.029 A 
ATOM     69  C   UNL A   1      46.096  27.984  30.884  1.00  0.00     0.049 A 
ATOM     70  H   UNL A   1      44.099  28.232  30.251  1.00  0.00     0.167 HD
ATOM     71  C   UNL A   1      45.527  25.837  29.795  1.00  0.00     0.074 A 
ATOM     72  C   UNL A   1      45.845  24.498  29.346  1.00  0.00     0.031 C 
ATOM     73  C   UNL A   1      46.397  26.649  30.443  1.00  0.00     0.031 A 
BRANCH  60  74
ATOM     74  C   UNL A   1      44.065  32.180  31.874  1.00  0.00    -0.014 A 
ATOM     75  C   UNL A   1      43.938  32.356  33.261  1.00  0.00     0.009 A 
ATOM     76  C   UNL A   1      44.469  33.269  31.085  1.00  0.00     0.009 A 
ATOM     77  C   UNL A   1      44.184  33.602  33.842  1.00  0.00     0.001 A 
ATOM     78  C   UNL A   1      44.742  34.506  31.673  1.00  0.00     0.001 A 
ATOM     79  C   UNL A   1      44.592  34.673  33.049  1.00  0.00     0.000 A 
ENDBRANCH  60  74
BRANCH  61  80
ATOM     80  C   UNL A   1      42.202  23.384  27.566  1.00  0.00    -0.014 A 
ATOM     81  C   UNL A   1      41.591  22.327  28.262  1.00  0.00     0.009 A 
ATOM     82  C   UNL A   1      42.622  23.169  26.245  1.00  0.00     0.009 A 
ATOM     83  C   UNL A   1      41.448  21.073  27.663  1.00  0.00     0.001 A 
ATOM     84  C   UNL A   1      42.446  21.923  25.637  1.00  0.00     0.001 A 
ATOM     85  C   UNL A   1      41.873  20.873  26.351  1.00  0.00     0.000 A 
ENDBRANCH  61  80
BRANCH  73  86
ATOM     86  C   UNL A   1      47.760  26.095  30.750  1.00  0.00    -0.014 A 
ATOM     87  C   UNL A   1      48.754  26.010  29.763  1.00  0.00     0.009 A 
ATOM     88  C   UNL A   1      48.064  25.686  32.057  1.00  0.00     0.009 A 
ATOM     89  C   UNL A   1      50.015  25.493  30.074  1.00  0.00     0.001 A 
ATOM     90  C   UNL A   1      49.333  25.199  32.372  1.00  0.00     0.001 A 
ATOM     91  C   UNL A   1      50.304  25.095  31.378  1.00  0.00     0.000 A 
ENDBRANCH  73  86
ENDBRANCH  47  48
ENDBRANCH  39  42
ENDBRANCH  37  38
ENDBRANCH  36  37
ENDBRANCH  35  36
ENDBRANCH  34  35
ENDBRANCH   1  34
TORSDOF 19
ENDMDL
MODEL 2
REMARK VINA RESULT:      -8.7      0.349      5.532
REMARK SMILES COc1cc(/C=C2/SC(=O)N(c3ccc(C)c(C)c3)C2=O)ccc1OCCC(=O)NCCCCCCNC(=O)c1ccc(-c2c3nc(c(-c4ccccc4)c4ccc([nH]4)c(-c4ccccc4)c4nc(c(-c5ccccc5)c5ccc2[nH]5)C=C4)C=C3)cc1
REMARK SMILES IDX 32 1 31 2 30 3 28 4 29 5 27 7 26 8 25 9 24 10 3 11 4 12 5 13
REMARK SMILES IDX 23 14 22 15 2 16 1 17 6 18 7 19 8 20 20 21 9 22 11 23 21 24
REMARK SMILES IDX 10 25 12 26 13 27 19 28 14 29 17 30 15 31 18 32 16 33 33 34
REMARK SMILES IDX 34 35 35 36 36 37 37 38 38 39 39 41 40 42 41 43 87 44 42 45
REMARK SMILES IDX 86 46 43 47 44 48 45 49 80 50 46 51 85 52 79 53 81 54 47 55
REMARK SMILES IDX 84 56 78 57 77 58 48 60 70 61 55 62 69 63 56 64 59 65 68 66
REMARK SMILES IDX 82 67 57 68 58 69 67 71 83 72 60 73 49 74 50 75 54 76 51 77
REMARK SMILES IDX 53 78 52 79 71 80 72 81 76 82 73 83 75 84 74 85 61 86 62 87
REMARK SMILES IDX 66 88 63 89 65 90 64 91
REMARK H PARENT 30 6 37 40 81 59 59 70
REMARK Flexibility Score: inf
ROOT
ATOM      1  C   UNL A   1      36.726  32.757  32.742  1.00  0.00     0.021 C 
ENDROOT
BRANCH   1   2
ATOM      2  C   UNL A   1      37.347  31.717  33.669  1.00  0.00     0.116 C 
BRANCH   2   3
ATOM      3  N   UNL A   1      37.099  30.349  33.252  1.00  0.00    -0.356 N 
ATOM      4  C   UNL A   1      37.972  29.301  33.185  1.00  0.00     0.223 C 
ATOM      5  O   UNL A   1      37.522  28.160  33.074  1.00  0.00    -0.275 OA
ATOM      6  H   UNL A   1      36.174  30.149  32.979  1.00  0.00     0.163 HD
BRANCH   4   7
ATOM      7  C   UNL A   1      39.453  29.550  33.333  1.00  0.00     0.141 C 
BRANCH   7   8
ATOM      8  C   UNL A   1      40.356  28.364  33.015  1.00  0.00     0.239 C 
BRANCH   8   9
ATOM      9  O   UNL A   1      40.755  27.547  34.103  1.00  0.00    -0.489 OA
BRANCH   9  10
ATOM     10  C   UNL A   1      41.746  27.828  34.993  1.00  0.00     0.161 A 
ATOM     11  C   UNL A   1      42.132  27.219  36.190  1.00  0.00     0.161 A 
ATOM     12  C   UNL A   1      43.386  27.531  36.768  1.00  0.00     0.058 A 
ATOM     13  C   UNL A   1      44.228  28.493  36.206  1.00  0.00    -0.020 A 
ATOM     14  C   UNL A   1      42.544  28.875  34.505  1.00  0.00     0.051 A 
ATOM     15  C   UNL A   1      43.770  29.199  35.088  1.00  0.00     0.012 A 
BRANCH  11  16
ATOM     16  O   UNL A   1      41.488  26.195  36.816  1.00  0.00    -0.493 OA
ATOM     17  C   UNL A   1      41.577  24.925  36.180  1.00  0.00     0.278 C 
ENDBRANCH  11  16
BRANCH  13  18
ATOM     18  C   UNL A   1      45.624  28.662  36.656  1.00  0.00     0.029 C 
ATOM     19  C   UNL A   1      46.604  27.799  36.356  1.00  0.00     0.083 C 
ATOM     20  S   UNL A   1      48.047  27.565  37.246  1.00  0.00    -0.022 SA
ATOM     21  C   UNL A   1      46.449  26.677  35.406  1.00  0.00     0.272 C 
ATOM     22  C   UNL A   1      48.034  25.831  36.852  1.00  0.00     0.298 C 
ATOM     23  N   UNL A   1      47.000  25.548  35.982  1.00  0.00    -0.236 N 
ATOM     24  O   UNL A   1      45.943  26.830  34.308  1.00  0.00    -0.268 OA
ATOM     25  O   UNL A   1      48.891  25.084  37.308  1.00  0.00    -0.260 OA
BRANCH  23  26
ATOM     26  C   UNL A   1      46.531  24.230  35.668  1.00  0.00     0.053 A 
ATOM     27  C   UNL A   1      45.231  23.819  35.996  1.00  0.00     0.027 A 
ATOM     28  C   UNL A   1      47.389  23.249  35.146  1.00  0.00     0.030 A 
ATOM     29  C   UNL A   1      44.796  22.510  35.780  1.00  0.00     0.006 A 
ATOM     30  C   UNL A   1      46.977  21.911  34.954  1.00  0.00    -0.046 A 
ATOM     31  C   UNL A   1      45.653  21.547  35.245  1.00  0.00    -0.048 A 
ATOM     32  C   UNL A   1      47.976  20.910  34.440  1.00  0.00     0.044 C 
ATOM     33  C   UNL A   1      45.096  20.168  35.029  1.00  0.00     0.044 C 
ENDBRANCH  23  26
ENDBRANCH  13  18
ENDBRANCH   9  10
ENDBRANCH   8   9
ENDBRANCH   7   8
ENDBRANCH   4   7
ENDBRANCH   2   3
ENDBRANCH   1   2
BRANCH   1  34
ATOM     34  C   UNL A   1      37.033  32.509  31.264  1.00  0.00     0.002 C 
BRANCH  34  35
ATOM     35  C   UNL A   1      36.832  33.705  30.336  1.00  0.00     0.002 C 
BRANCH  35  36
ATOM     36  C   UNL A   1      35.470  33.735  29.636  1.00  0.00     0.021 C 
BRANCH  36  37
ATOM     37  C   UNL A   1      35.459  33.165  28.217  1.00  0.00     0.116 C 
BRANCH  37  38
ATOM     38  N   UNL A   1      34.409  32.177  28.020  1.00  0.00    -0.352 N 
ATOM     39  C   UNL A   1      34.532  30.812  27.899  1.00  0.00     0.251 C 
ATOM     40  H   UNL A   1      33.491  32.531  27.969  1.00  0.00     0.163 HD
ATOM     41  O   UNL A   1      33.574  30.124  27.565  1.00  0.00    -0.269 OA
BRANCH  39  42
ATOM     42  C   UNL A   1      35.847  30.184  28.142  1.00  0.00     0.039 A 
ATOM     43  C   UNL A   1      36.810  30.212  27.131  1.00  0.00     0.014 A 
ATOM     44  C   UNL A   1      36.143  29.620  29.387  1.00  0.00     0.014 A 
ATOM     45  C   UNL A   1      38.099  29.744  27.395  1.00  0.00     0.010 A 
ATOM     46  C   UNL A   1      37.446  29.214  29.667  1.00  0.00     0.010 A 
ATOM     47  C   UNL A   1      38.441  29.280  28.677  1.00  0.00    -0.014 A 
BRANCH  47  48
ATOM     48  C   UNL A   1      39.835  28.881  29.004  1.00  0.00     0.031 A 
ATOM     49  C   UNL A   1      40.341  27.513  28.635  1.00  0.00     0.074 A 
ATOM     50  C   UNL A   1      40.635  29.732  29.679  1.00  0.00     0.049 A 
ATOM     51  N   UNL A   1      41.506  26.969  28.887  1.00  0.00    -0.248 NA
ATOM     52  C   UNL A   1      39.413  26.636  27.905  1.00  0.00     0.031 C 
ATOM     53  C   UNL A   1      40.261  31.076  30.128  1.00  0.00     0.029 A 
ATOM     54  N   UNL A   1      41.930  29.588  30.116  1.00  0.00    -0.354 N 
ATOM     55  C   UNL A   1      41.448  25.690  28.350  1.00  0.00     0.074 A 
ATOM     56  C   UNL A   1      40.118  25.518  27.807  1.00  0.00     0.031 C 
ATOM     57  C   UNL A   1      41.308  31.638  30.755  1.00  0.00     0.029 A 
ATOM     58  C   UNL A   1      42.412  30.685  30.789  1.00  0.00     0.049 A 
ATOM     59  H   UNL A   1      42.463  28.775  29.959  1.00  0.00     0.167 HD
ATOM     60  C   UNL A   1      42.421  24.750  28.289  1.00  0.00     0.031 A 
ATOM     61  C   UNL A   1      43.604  30.897  31.380  1.00  0.00     0.031 A 
ATOM     62  C   UNL A   1      43.746  24.913  28.825  1.00  0.00     0.049 A 
ATOM     63  C   UNL A   1      44.654  29.819  31.329  1.00  0.00     0.074 A 
ATOM     64  C   UNL A   1      44.806  24.024  28.786  1.00  0.00     0.029 A 
ATOM     65  N   UNL A   1      44.194  26.040  29.495  1.00  0.00    -0.354 N 
ATOM     66  N   UNL A   1      44.600  28.637  30.766  1.00  0.00    -0.248 NA
ATOM     67  C   UNL A   1      45.936  30.112  31.987  1.00  0.00     0.031 C 
ATOM     68  C   UNL A   1      45.882  24.595  29.473  1.00  0.00     0.029 A 
ATOM     69  C   UNL A   1      45.509  25.863  29.889  1.00  0.00     0.049 A 
ATOM     70  H   UNL A   1      43.656  26.847  29.665  1.00  0.00     0.167 HD
ATOM     71  C   UNL A   1      45.848  28.062  30.971  1.00  0.00     0.074 A 
ATOM     72  C   UNL A   1      46.644  29.030  31.694  1.00  0.00     0.031 C 
ATOM     73  C   UNL A   1      46.294  26.838  30.597  1.00  0.00     0.031 A 
BRANCH  60  74
ATOM     74  C   UNL A   1      42.091  23.451  27.606  1.00  0.00    -0.014 A 
ATOM     75  C   UNL A   1      42.480  23.216  26.278  1.00  0.00     0.009 A 
ATOM     76  C   UNL A   1      41.441  22.428  28.315  1.00  0.00     0.009 A 
ATOM     77  C   UNL A   1      42.201  21.993  25.664  1.00  0.00     0.001 A 
ATOM     78  C   UNL A   1      41.189  21.197  27.708  1.00  0.00     0.001 A 
ATOM     79  C   UNL A   1      41.562  20.983  26.382  1.00  0.00     0.000 A 
ENDBRANCH  60  74
BRANCH  61  80
ATOM     80  C   UNL A   1      43.882  32.179  32.082  1.00  0.00    -0.014 A 
ATOM     81  C   UNL A   1      43.578  32.330  33.445  1.00  0.00     0.009 A 
ATOM     82  C   UNL A   1      44.407  33.275  31.381  1.00  0.00     0.009 A 
ATOM     83  C   UNL A   1      43.753  33.564  34.077  1.00  0.00     0.001 A 
ATOM     84  C   UNL A   1      44.613  34.497  32.024  1.00  0.00     0.001 A 
ATOM     85  C   UNL A   1      44.273  34.645  33.367  1.00  0.00     0.000 A 
ENDBRANCH  61  80
BRANCH  73  86
ATOM     86  C   UNL A   1      47.721  26.496  30.919  1.00  0.00    -0.014 A 
ATOM     87  C   UNL A   1      48.055  25.740  32.054  1.00  0.00     0.009 A 
ATOM     88  C   UNL A   1      48.745  26.907  30.051  1.00  0.00     0.009 A 
ATOM     89  C   UNL A   1      49.390  25.433  32.330  1.00  0.00     0.001 A 
ATOM     90  C   UNL A   1      50.074  26.572  30.313  1.00  0.00     0.001 A 
ATOM     91  C   UNL A   1      50.396  25.844  31.456  1.00  0.00     0.000 A 
ENDBRANCH  73  86
ENDBRANCH  47  48
ENDBRANCH  39  42
ENDBRANCH  37  38
ENDBRANCH  36  37
ENDBRANCH  35  36
ENDBRANCH  34  35
ENDBRANCH   1  34
TORSDOF 19
ENDMDL
MODEL 3
REMARK VINA RESULT:      -8.6      4.974     10.005
REMARK SMILES COc1cc(/C=C2/SC(=O)N(c3ccc(C)c(C)c3)C2=O)ccc1OCCC(=O)NCCCCCCNC(=O)c1ccc(-c2c3nc(c(-c4ccccc4)c4ccc([nH]4)c(-c4ccccc4)c4nc(c(-c5ccccc5)c5ccc2[nH]5)C=C4)C=C3)cc1
REMARK SMILES IDX 32 1 31 2 30 3 28 4 29 5 27 7 26 8 25 9 24 10 3 11 4 12 5 13
REMARK SMILES IDX 23 14 22 15 2 16 1 17 6 18 7 19 8 20 20 21 9 22 11 23 21 24
REMARK SMILES IDX 10 25 12 26 13 27 19 28 14 29 17 30 15 31 18 32 16 33 33 34
REMARK SMILES IDX 34 35 35 36 36 37 37 38 38 39 39 41 40 42 41 43 87 44 42 45
REMARK SMILES IDX 86 46 43 47 44 48 45 49 80 50 46 51 85 52 79 53 81 54 47 55
REMARK SMILES IDX 84 56 78 57 77 58 48 60 70 61 55 62 69 63 56 64 59 65 68 66
REMARK SMILES IDX 82 67 57 68 58 69 67 71 83 72 60 73 49 74 50 75 54 76 51 77
REMARK SMILES IDX 53 78 52 79 71 80 72 81 76 82 73 83 75 84 74 85 61 86 62 87
REMARK SMILES IDX 66 88 63 89 65 90 64 91
REMARK H PARENT 30 6 37 40 81 59 59 70
REMARK Flexibility Score: inf
ROOT
ATOM      1  C   UNL A   1      41.163  30.093  30.381  1.00  0.00     0.021 C 
ENDROOT
BRANCH   1   2
ATOM      2  C   UNL A   1      41.311  29.329  31.693  1.00  0.00     0.116 C 
BRANCH   2   3
ATOM      3  N   UNL A   1      40.067  28.752  32.170  1.00  0.00    -0.356 N 
ATOM      4  C   UNL A   1      39.201  29.235  33.109  1.00  0.00     0.223 C 
ATOM      5  O   UNL A   1      38.072  28.750  33.180  1.00  0.00    -0.275 OA
ATOM      6  H   UNL A   1      39.813  27.893  31.761  1.00  0.00     0.163 HD
BRANCH   4   7
ATOM      7  C   UNL A   1      39.612  30.402  33.975  1.00  0.00     0.141 C 
BRANCH   7   8
ATOM      8  C   UNL A   1      38.516  30.981  34.862  1.00  0.00     0.239 C 
BRANCH   8   9
ATOM      9  O   UNL A   1      38.599  32.362  35.171  1.00  0.00    -0.489 OA
BRANCH   9  10
ATOM     10  C   UNL A   1      37.879  33.358  34.583  1.00  0.00     0.161 A 
ATOM     11  C   UNL A   1      38.148  34.193  33.496  1.00  0.00     0.161 A 
ATOM     12  C   UNL A   1      37.102  34.943  32.907  1.00  0.00     0.058 A 
ATOM     13  C   UNL A   1      35.808  34.925  33.431  1.00  0.00    -0.020 A 
ATOM     14  C   UNL A   1      36.607  33.441  35.173  1.00  0.00     0.051 A 
ATOM     15  C   UNL A   1      35.582  34.198  34.605  1.00  0.00     0.012 A 
BRANCH  11  16
ATOM     16  O   UNL A   1      39.317  34.256  32.799  1.00  0.00    -0.493 OA
ATOM     17  C   UNL A   1      39.213  34.063  31.394  1.00  0.00     0.278 C 
ENDBRANCH  11  16
BRANCH  13  18
ATOM     18  C   UNL A   1      34.665  35.509  32.702  1.00  0.00     0.029 C 
ATOM     19  C   UNL A   1      34.020  34.873  31.714  1.00  0.00     0.083 C 
ATOM     20  S   UNL A   1      33.120  35.612  30.460  1.00  0.00    -0.022 SA
ATOM     21  C   UNL A   1      34.256  33.459  31.354  1.00  0.00     0.272 C 
ATOM     22  C   UNL A   1      33.628  34.345  29.320  1.00  0.00     0.298 C 
ATOM     23  N   UNL A   1      34.361  33.378  29.979  1.00  0.00    -0.236 N 
ATOM     24  O   UNL A   1      34.297  32.580  32.198  1.00  0.00    -0.268 OA
ATOM     25  O   UNL A   1      33.290  34.395  28.144  1.00  0.00    -0.260 OA
BRANCH  23  26
ATOM     26  C   UNL A   1      35.146  32.365  29.336  1.00  0.00     0.053 A 
ATOM     27  C   UNL A   1      36.547  32.429  29.316  1.00  0.00     0.027 A 
ATOM     28  C   UNL A   1      34.551  31.341  28.581  1.00  0.00     0.030 A 
ATOM     29  C   UNL A   1      37.316  31.499  28.614  1.00  0.00     0.006 A 
ATOM     30  C   UNL A   1      35.313  30.414  27.835  1.00  0.00    -0.046 A 
ATOM     31  C   UNL A   1      36.714  30.476  27.879  1.00  0.00    -0.048 A 
ATOM     32  C   UNL A   1      34.593  29.382  27.010  1.00  0.00     0.044 C 
ATOM     33  C   UNL A   1      37.618  29.509  27.168  1.00  0.00     0.044 C 
ENDBRANCH  23  26
ENDBRANCH  13  18
ENDBRANCH   9  10
ENDBRANCH   8   9
ENDBRANCH   7   8
ENDBRANCH   4   7
ENDBRANCH   2   3
ENDBRANCH   1   2
BRANCH   1  34
ATOM     34  C   UNL A   1      40.228  29.407  29.384  1.00  0.00     0.002 C 
BRANCH  34  35
ATOM     35  C   UNL A   1      40.762  28.125  28.750  1.00  0.00     0.002 C 
BRANCH  35  36
ATOM     36  C   UNL A   1      39.766  26.962  28.750  1.00  0.00     0.021 C 
BRANCH  36  37
ATOM     37  C   UNL A   1      39.864  26.024  27.546  1.00  0.00     0.116 C 
BRANCH  37  38
ATOM     38  N   UNL A   1      40.232  24.668  27.922  1.00  0.00    -0.352 N 
ATOM     39  C   UNL A   1      41.486  24.104  27.969  1.00  0.00     0.251 C 
ATOM     40  H   UNL A   1      39.486  24.077  28.178  1.00  0.00     0.163 HD
ATOM     41  O   UNL A   1      41.624  22.898  28.141  1.00  0.00    -0.269 OA
BRANCH  39  42
ATOM     42  C   UNL A   1      42.670  24.965  27.775  1.00  0.00     0.039 A 
ATOM     43  C   UNL A   1      43.062  25.297  26.477  1.00  0.00     0.014 A 
ATOM     44  C   UNL A   1      43.353  25.488  28.877  1.00  0.00     0.014 A 
ATOM     45  C   UNL A   1      44.094  26.218  26.283  1.00  0.00     0.010 A 
ATOM     46  C   UNL A   1      44.338  26.454  28.682  1.00  0.00     0.010 A 
ATOM     47  C   UNL A   1      44.713  26.837  27.383  1.00  0.00    -0.014 A 
BRANCH  47  48
ATOM     48  C   UNL A   1      45.736  27.899  27.192  1.00  0.00     0.031 A 
ATOM     49  C   UNL A   1      45.328  29.345  27.126  1.00  0.00     0.074 A 
ATOM     50  C   UNL A   1      47.031  27.560  27.026  1.00  0.00     0.049 A 
ATOM     51  N   UNL A   1      46.069  30.403  26.910  1.00  0.00    -0.248 NA
ATOM     52  C   UNL A   1      43.898  29.641  27.309  1.00  0.00     0.031 C 
ATOM     53  C   UNL A   1      47.561  26.194  27.034  1.00  0.00     0.029 A 
ATOM     54  N   UNL A   1      48.140  28.342  26.809  1.00  0.00    -0.354 N 
ATOM     55  C   UNL A   1      45.198  31.484  26.929  1.00  0.00     0.074 A 
ATOM     56  C   UNL A   1      43.867  30.952  27.123  1.00  0.00     0.031 C 
ATOM     57  C   UNL A   1      48.891  26.236  26.853  1.00  0.00     0.029 A 
ATOM     58  C   UNL A   1      49.305  27.624  26.676  1.00  0.00     0.049 A 
ATOM     59  H   UNL A   1      48.104  29.324  26.755  1.00  0.00     0.167 HD
ATOM     60  C   UNL A   1      45.481  32.804  26.820  1.00  0.00     0.031 A 
ATOM     61  C   UNL A   1      50.564  28.034  26.428  1.00  0.00     0.031 A 
ATOM     62  C   UNL A   1      46.803  33.341  26.630  1.00  0.00     0.049 A 
ATOM     63  C   UNL A   1      50.843  29.506  26.275  1.00  0.00     0.074 A 
ATOM     64  C   UNL A   1      47.187  34.667  26.536  1.00  0.00     0.029 A 
ATOM     65  N   UNL A   1      47.953  32.581  26.505  1.00  0.00    -0.354 N 
ATOM     66  N   UNL A   1      50.014  30.518  26.354  1.00  0.00    -0.248 NA
ATOM     67  C   UNL A   1      52.237  29.891  26.011  1.00  0.00     0.031 C 
ATOM     68  C   UNL A   1      48.567  34.708  26.307  1.00  0.00     0.029 A 
ATOM     69  C   UNL A   1      49.047  33.408  26.318  1.00  0.00     0.049 A 
ATOM     70  H   UNL A   1      47.988  31.597  26.543  1.00  0.00     0.167 HD
ATOM     71  C   UNL A   1      50.790  31.657  26.183  1.00  0.00     0.074 A 
ATOM     72  C   UNL A   1      52.158  31.214  26.016  1.00  0.00     0.031 C 
ATOM     73  C   UNL A   1      50.404  32.956  26.165  1.00  0.00     0.031 A 
BRANCH  60  74
ATOM     74  C   UNL A   1      44.333  33.771  26.916  1.00  0.00    -0.014 A 
ATOM     75  C   UNL A   1      43.872  34.220  28.164  1.00  0.00     0.009 A 
ATOM     76  C   UNL A   1      43.749  34.288  25.750  1.00  0.00     0.009 A 
ATOM     77  C   UNL A   1      42.829  35.146  28.241  1.00  0.00     0.001 A 
ATOM     78  C   UNL A   1      42.726  35.234  25.830  1.00  0.00     0.001 A 
ATOM     79  C   UNL A   1      42.262  35.657  27.075  1.00  0.00     0.000 A 
ENDBRANCH  60  74
BRANCH  61  80
ATOM     80  C   UNL A   1      51.669  27.047  26.300  1.00  0.00    -0.014 A 
ATOM     81  C   UNL A   1      51.908  26.393  25.079  1.00  0.00     0.009 A 
ATOM     82  C   UNL A   1      52.460  26.715  27.410  1.00  0.00     0.009 A 
ATOM     83  C   UNL A   1      52.885  25.399  24.988  1.00  0.00     0.001 A 
ATOM     84  C   UNL A   1      53.459  25.744  27.306  1.00  0.00     0.001 A 
ATOM     85  C   UNL A   1      53.661  25.077  26.100  1.00  0.00     0.000 A 
ENDBRANCH  61  80
BRANCH  73  86
ATOM     86  C   UNL A   1      51.480  33.993  26.004  1.00  0.00    -0.014 A 
ATOM     87  C   UNL A   1      51.992  34.328  24.741  1.00  0.00     0.009 A 
ATOM     88  C   UNL A   1      51.960  34.673  27.134  1.00  0.00     0.009 A 
ATOM     89  C   UNL A   1      52.990  35.298  24.618  1.00  0.00     0.001 A 
ATOM     90  C   UNL A   1      52.935  35.664  27.006  1.00  0.00     0.001 A 
ATOM     91  C   UNL A   1      53.455  35.968  25.749  1.00  0.00     0.000 A 
ENDBRANCH  73  86
ENDBRANCH  47  48
ENDBRANCH  39  42
ENDBRANCH  37  38
ENDBRANCH  36  37
ENDBRANCH  35  36
ENDBRANCH  34  35
ENDBRANCH   1  34
TORSDOF 19
ENDMDL
