MODEL 1
REMARK VINA RESULT:     -12.4      0.000      0.000
REMARK SMILES O=C(Cn1c2ccccc2c(=O)c2ccccc21)N[C@@H](Cc1ccccc1)C(=O)NCCCCCCNC(=O)c1ccc(-c2c3nc(c(-c4ccccc4)c4ccc([nH]4)c(-c4ccccc4)c4nc(c(-c5ccccc5)c5ccc2[nH]5)C=C4)C=C3)cc1
REMARK SMILES IDX 33 1 32 2 31 3 30 4 28 5 29 6 20 8 19 9 1 10 2 11 3 13 4 14
REMARK SMILES IDX 5 15 18 16 6 17 10 18 13 19 17 20 7 21 9 22 11 23 14 24
REMARK SMILES IDX 16 25 8 26 12 27 15 28 21 29 22 30 23 31 27 32 24 33 26 34
REMARK SMILES IDX 25 35 34 36 35 37 36 38 37 39 38 40 39 42 40 43 41 44 87 45
REMARK SMILES IDX 42 46 86 47 43 48 44 49 45 50 80 51 46 52 85 53 79 54 81 55
REMARK SMILES IDX 47 56 84 57 78 58 77 59 48 61 70 62 55 63 69 64 56 65 59 66
REMARK SMILES IDX 68 67 82 68 57 69 58 70 67 72 83 73 60 74 49 75 50 76 54 77
REMARK SMILES IDX 51 78 53 79 52 80 71 81 72 82 76 83 73 84 75 85 74 86 61 87
REMARK SMILES IDX 62 88 66 89 63 90 65 91 64 92
REMARK H PARENT 30 7 19 12 37 41 81 60 59 71
REMARK Flexibility Score: inf
ROOT
ATOM      1  C   UNL A   1      37.005  22.224  24.225  1.00  0.00     0.002 C 
ENDROOT
BRANCH   1   2
ATOM      2  C   UNL A   1      36.434  23.513  24.821  1.00  0.00     0.021 C 
BRANCH   2   3
ATOM      3  C   UNL A   1      34.949  23.728  24.568  1.00  0.00     0.116 C 
BRANCH   3   4
ATOM      4  N   UNL A   1      34.611  23.824  23.164  1.00  0.00    -0.354 N 
ATOM      5  C   UNL A   1      33.405  23.658  22.544  1.00  0.00     0.242 C 
ATOM      6  O   UNL A   1      33.236  24.259  21.478  1.00  0.00    -0.273 OA
ATOM      7  H   UNL A   1      35.363  24.042  22.567  1.00  0.00     0.163 HD
BRANCH   5   8
ATOM      8  C   UNL A   1      32.260  22.832  23.168  1.00  0.00     0.175 C 
BRANCH   8   9
ATOM      9  N   UNL A   1      31.134  23.673  23.590  1.00  0.00    -0.342 N 
ATOM     10  O   UNL A   1      31.592  23.545  25.827  1.00  0.00    -0.273 OA
ATOM     11  C   UNL A   1      31.006  24.092  24.893  1.00  0.00     0.240 C 
ATOM     12  H   UNL A   1      30.457  23.943  22.927  1.00  0.00     0.164 HD
BRANCH  11  13
ATOM     13  C   UNL A   1      30.051  25.265  25.132  1.00  0.00     0.222 C 
BRANCH  13  14
ATOM     14  N   UNL A   1      30.232  26.490  24.292  1.00  0.00    -0.331 N 
ATOM     15  C   UNL A   1      29.034  27.151  23.877  1.00  0.00     0.053 A 
ATOM     16  C   UNL A   1      31.498  27.097  24.100  1.00  0.00     0.053 A 
ATOM     17  C   UNL A   1      27.741  26.781  24.296  1.00  0.00     0.027 A 
ATOM     18  C   UNL A   1      29.109  28.269  23.024  1.00  0.00     0.046 A 
ATOM     19  C   UNL A   1      31.631  28.162  23.184  1.00  0.00     0.046 A 
ATOM     20  C   UNL A   1      32.677  26.709  24.753  1.00  0.00     0.027 A 
ATOM     21  C   UNL A   1      26.597  27.480  23.879  1.00  0.00     0.002 A 
ATOM     22  C   UNL A   1      27.968  28.978  22.609  1.00  0.00     0.014 A 
ATOM     23  C   UNL A   1      30.425  28.732  22.555  1.00  0.00     0.197 A 
ATOM     24  C   UNL A   1      32.878  28.716  22.844  1.00  0.00     0.014 A 
ATOM     25  C   UNL A   1      33.928  27.243  24.408  1.00  0.00     0.002 A 
ATOM     26  C   UNL A   1      26.710  28.581  23.040  1.00  0.00     0.001 A 
ATOM     27  O   UNL A   1      30.514  29.585  21.678  1.00  0.00    -0.288 OA
ATOM     28  C   UNL A   1      34.033  28.232  23.439  1.00  0.00     0.001 A 
ENDBRANCH  13  14
ENDBRANCH  11  13
ENDBRANCH   8   9
BRANCH   8  29
ATOM     29  C   UNL A   1      31.898  21.555  22.387  1.00  0.00     0.070 C 
BRANCH  29  30
ATOM     30  C   UNL A   1      32.352  20.236  22.963  1.00  0.00    -0.045 A 
ATOM     31  C   UNL A   1      32.961  20.178  24.223  1.00  0.00     0.004 A 
ATOM     32  C   UNL A   1      32.159  19.044  22.246  1.00  0.00     0.004 A 
ATOM     33  C   UNL A   1      33.331  18.949  24.774  1.00  0.00     0.000 A 
ATOM     34  C   UNL A   1      32.527  17.816  22.800  1.00  0.00     0.000 A 
ATOM     35  C   UNL A   1      33.105  17.769  24.068  1.00  0.00     0.000 A 
ENDBRANCH  29  30
ENDBRANCH   8  29
ENDBRANCH   5   8
ENDBRANCH   3   4
ENDBRANCH   2   3
ENDBRANCH   1   2
BRANCH   1  36
ATOM     36  C   UNL A   1      36.713  20.936  25.007  1.00  0.00     0.002 C 
BRANCH  36  37
ATOM     37  C   UNL A   1      37.810  19.870  24.979  1.00  0.00     0.021 C 
BRANCH  37  38
ATOM     38  C   UNL A   1      39.077  20.214  25.751  1.00  0.00     0.116 C 
BRANCH  38  39
ATOM     39  N   UNL A   1      40.048  19.136  25.762  1.00  0.00    -0.352 N 
ATOM     40  C   UNL A   1      41.402  19.186  26.010  1.00  0.00     0.251 C 
ATOM     41  H   UNL A   1      39.688  18.241  25.564  1.00  0.00     0.163 HD
ATOM     42  O   UNL A   1      42.095  18.192  25.869  1.00  0.00    -0.269 OA
BRANCH  40  43
ATOM     43  C   UNL A   1      42.023  20.474  26.400  1.00  0.00     0.039 A 
ATOM     44  C   UNL A   1      42.130  20.849  27.741  1.00  0.00     0.014 A 
ATOM     45  C   UNL A   1      42.473  21.332  25.393  1.00  0.00     0.014 A 
ATOM     46  C   UNL A   1      42.525  22.145  28.065  1.00  0.00     0.010 A 
ATOM     47  C   UNL A   1      42.943  22.605  25.726  1.00  0.00     0.010 A 
ATOM     48  C   UNL A   1      42.920  23.042  27.059  1.00  0.00    -0.014 A 
BRANCH  48  49
ATOM     49  C   UNL A   1      43.273  24.442  27.407  1.00  0.00     0.031 A 
ATOM     50  C   UNL A   1      44.703  24.907  27.324  1.00  0.00     0.074 A 
ATOM     51  C   UNL A   1      42.304  25.308  27.762  1.00  0.00     0.049 A 
ATOM     52  N   UNL A   1      45.205  26.080  27.619  1.00  0.00    -0.248 NA
ATOM     53  C   UNL A   1      45.700  23.933  26.849  1.00  0.00     0.031 C 
ATOM     54  C   UNL A   1      40.878  24.991  27.843  1.00  0.00     0.029 A 
ATOM     55  N   UNL A   1      42.371  26.636  28.102  1.00  0.00    -0.354 N 
ATOM     56  C   UNL A   1      46.572  25.978  27.388  1.00  0.00     0.074 A 
ATOM     57  C   UNL A   1      46.828  24.625  26.949  1.00  0.00     0.031 C 
ATOM     58  C   UNL A   1      40.200  26.101  28.169  1.00  0.00     0.029 A 
ATOM     59  C   UNL A   1      41.147  27.191  28.386  1.00  0.00     0.049 A 
ATOM     60  H   UNL A   1      43.214  27.143  28.140  1.00  0.00     0.167 HD
ATOM     61  C   UNL A   1      47.525  26.930  27.522  1.00  0.00     0.031 A 
ATOM     62  C   UNL A   1      40.818  28.432  28.795  1.00  0.00     0.031 A 
ATOM     63  C   UNL A   1      47.267  28.281  27.941  1.00  0.00     0.049 A 
ATOM     64  C   UNL A   1      41.902  29.453  28.994  1.00  0.00     0.074 A 
ATOM     65  C   UNL A   1      48.171  29.318  28.090  1.00  0.00     0.029 A 
ATOM     66  N   UNL A   1      46.019  28.784  28.271  1.00  0.00    -0.354 N 
ATOM     67  N   UNL A   1      43.190  29.337  28.773  1.00  0.00    -0.248 NA
ATOM     68  C   UNL A   1      41.494  30.772  29.499  1.00  0.00     0.031 C 
ATOM     69  C   UNL A   1      47.478  30.436  28.560  1.00  0.00     0.029 A 
ATOM     70  C   UNL A   1      46.133  30.111  28.645  1.00  0.00     0.049 A 
ATOM     71  H   UNL A   1      45.178  28.273  28.244  1.00  0.00     0.167 HD
ATOM     72  C   UNL A   1      43.741  30.570  29.096  1.00  0.00     0.074 A 
ATOM     73  C   UNL A   1      42.649  31.424  29.515  1.00  0.00     0.031 C 
ATOM     74  C   UNL A   1      45.038  30.954  29.050  1.00  0.00     0.031 A 
BRANCH  61  75
ATOM     75  C   UNL A   1      48.949  26.555  27.224  1.00  0.00    -0.014 A 
ATOM     76  C   UNL A   1      49.423  26.622  25.903  1.00  0.00     0.009 A 
ATOM     77  C   UNL A   1      49.788  26.035  28.220  1.00  0.00     0.009 A 
ATOM     78  C   UNL A   1      50.703  26.163  25.584  1.00  0.00     0.001 A 
ATOM     79  C   UNL A   1      51.077  25.600  27.903  1.00  0.00     0.001 A 
ATOM     80  C   UNL A   1      51.528  25.655  26.585  1.00  0.00     0.000 A 
ENDBRANCH  61  75
BRANCH  62  81
ATOM     81  C   UNL A   1      39.391  28.764  29.047  1.00  0.00    -0.014 A 
ATOM     82  C   UNL A   1      38.595  29.307  28.024  1.00  0.00     0.009 A 
ATOM     83  C   UNL A   1      38.832  28.588  30.320  1.00  0.00     0.009 A 
ATOM     84  C   UNL A   1      37.278  29.692  28.279  1.00  0.00     0.001 A 
ATOM     85  C   UNL A   1      37.503  28.947  30.564  1.00  0.00     0.001 A 
ATOM     86  C   UNL A   1      36.731  29.507  29.547  1.00  0.00     0.000 A 
ENDBRANCH  62  81
BRANCH  74  87
ATOM     87  C   UNL A   1      45.374  32.366  29.434  1.00  0.00    -0.014 A 
ATOM     88  C   UNL A   1      45.628  33.316  28.430  1.00  0.00     0.009 A 
ATOM     89  C   UNL A   1      45.569  32.722  30.776  1.00  0.00     0.009 A 
ATOM     90  C   UNL A   1      46.094  34.588  28.762  1.00  0.00     0.001 A 
ATOM     91  C   UNL A   1      46.012  34.005  31.106  1.00  0.00     0.001 A 
ATOM     92  C   UNL A   1      46.285  34.931  30.100  1.00  0.00     0.000 A 
ENDBRANCH  74  87
ENDBRANCH  48  49
ENDBRANCH  40  43
ENDBRANCH  38  39
ENDBRANCH  37  38
ENDBRANCH  36  37
ENDBRANCH   1  36
TORSDOF 18
ENDMDL
MODEL 2
REMARK VINA RESULT:     -12.2      0.318      5.459
REMARK SMILES O=C(Cn1c2ccccc2c(=O)c2ccccc21)N[C@@H](Cc1ccccc1)C(=O)NCCCCCCNC(=O)c1ccc(-c2c3nc(c(-c4ccccc4)c4ccc([nH]4)c(-c4ccccc4)c4nc(c(-c5ccccc5)c5ccc2[nH]5)C=C4)C=C3)cc1
REMARK SMILES IDX 33 1 32 2 31 3 30 4 28 5 29 6 20 8 19 9 1 10 2 11 3 13 4 14
REMARK SMILES IDX 5 15 18 16 6 17 10 18 13 19 17 20 7 21 9 22 11 23 14 24
REMARK SMILES IDX 16 25 8 26 12 27 15 28 21 29 22 30 23 31 27 32 24 33 26 34
REMARK SMILES IDX 25 35 34 36 35 37 36 38 37 39 38 40 39 42 40 43 41 44 87 45
REMARK SMILES IDX 42 46 86 47 43 48 44 49 45 50 80 51 46 52 85 53 79 54 81 55
REMARK SMILES IDX 47 56 84 57 78 58 77 59 48 61 70 62 55 63 69 64 56 65 59 66
REMARK SMILES IDX 68 67 82 68 57 69 58 70 67 72 83 73 60 74 49 75 50 76 54 77
REMARK SMILES IDX 51 78 53 79 52 80 71 81 72 82 76 83 73 84 75 85 74 86 61 87
REMARK SMILES IDX 62 88 66 89 63 90 65 91 64 92
REMARK H PARENT 30 7 19 12 37 41 81 60 59 71
REMARK Flexibility Score: inf
ROOT
ATOM      1  C   UNL A   1      37.105  22.441  25.678  1.00  0.00     0.002 C 
ENDROOT
BRANCH   1   2
ATOM      2  C   UNL A   1      36.465  23.707  25.103  1.00  0.00     0.021 C 
BRANCH   2   3
ATOM      3  C   UNL A   1      34.982  23.584  24.788  1.00  0.00     0.116 C 
BRANCH   3   4
ATOM      4  N   UNL A   1      34.682  23.700  23.376  1.00  0.00    -0.354 N 
ATOM      5  C   UNL A   1      33.485  23.587  22.728  1.00  0.00     0.242 C 
ATOM      6  O   UNL A   1      33.366  24.198  21.661  1.00  0.00    -0.273 OA
ATOM      7  H   UNL A   1      35.456  23.888  22.798  1.00  0.00     0.163 HD
BRANCH   5   8
ATOM      8  C   UNL A   1      32.292  22.806  23.321  1.00  0.00     0.175 C 
BRANCH   8   9
ATOM      9  N   UNL A   1      31.187  23.691  23.708  1.00  0.00    -0.342 N 
ATOM     10  O   UNL A   1      31.387  23.318  25.956  1.00  0.00    -0.273 OA
ATOM     11  C   UNL A   1      30.946  23.995  25.028  1.00  0.00     0.240 C 
ATOM     12  H   UNL A   1      30.607  24.075  23.011  1.00  0.00     0.164 HD
BRANCH  11  13
ATOM     13  C   UNL A   1      30.054  25.213  25.286  1.00  0.00     0.222 C 
BRANCH  13  14
ATOM     14  N   UNL A   1      30.290  26.435  24.455  1.00  0.00    -0.331 N 
ATOM     15  C   UNL A   1      29.122  27.113  23.986  1.00  0.00     0.053 A 
ATOM     16  C   UNL A   1      31.572  27.024  24.322  1.00  0.00     0.053 A 
ATOM     17  C   UNL A   1      27.807  26.761  24.346  1.00  0.00     0.027 A 
ATOM     18  C   UNL A   1      29.251  28.230  23.138  1.00  0.00     0.046 A 
ATOM     19  C   UNL A   1      31.762  28.087  23.414  1.00  0.00     0.046 A 
ATOM     20  C   UNL A   1      32.715  26.619  25.028  1.00  0.00     0.027 A 
ATOM     21  C   UNL A   1      26.692  27.476  23.877  1.00  0.00     0.002 A 
ATOM     22  C   UNL A   1      28.141  28.955  22.673  1.00  0.00     0.014 A 
ATOM     23  C   UNL A   1      30.595  28.674  22.731  1.00  0.00     0.197 A 
ATOM     24  C   UNL A   1      33.031  28.623  23.132  1.00  0.00     0.014 A 
ATOM     25  C   UNL A   1      33.988  27.136  24.741  1.00  0.00     0.002 A 
ATOM     26  C   UNL A   1      26.859  28.575  23.045  1.00  0.00     0.001 A 
ATOM     27  O   UNL A   1      30.736  29.526  21.859  1.00  0.00    -0.288 OA
ATOM     28  C   UNL A   1      34.151  28.123  23.779  1.00  0.00     0.001 A 
ENDBRANCH  13  14
ENDBRANCH  11  13
ENDBRANCH   8   9
BRANCH   8  29
ATOM     29  C   UNL A   1      31.904  21.541  22.533  1.00  0.00     0.070 C 
BRANCH  29  30
ATOM     30  C   UNL A   1      32.437  20.221  23.033  1.00  0.00    -0.045 A 
ATOM     31  C   UNL A   1      33.161  20.150  24.229  1.00  0.00     0.004 A 
ATOM     32  C   UNL A   1      32.203  19.041  22.309  1.00  0.00     0.004 A 
ATOM     33  C   UNL A   1      33.606  18.917  24.714  1.00  0.00     0.000 A 
ATOM     34  C   UNL A   1      32.646  17.810  22.797  1.00  0.00     0.000 A 
ATOM     35  C   UNL A   1      33.340  17.749  24.004  1.00  0.00     0.000 A 
ENDBRANCH  29  30
ENDBRANCH   8  29
ENDBRANCH   5   8
ENDBRANCH   3   4
ENDBRANCH   2   3
ENDBRANCH   1   2
BRANCH   1  36
ATOM     36  C   UNL A   1      36.693  21.120  25.015  1.00  0.00     0.002 C 
BRANCH  36  37
ATOM     37  C   UNL A   1      37.756  20.021  24.987  1.00  0.00     0.021 C 
BRANCH  37  38
ATOM     38  C   UNL A   1      39.038  20.331  25.748  1.00  0.00     0.116 C 
BRANCH  38  39
ATOM     39  N   UNL A   1      39.951  19.205  25.809  1.00  0.00    -0.352 N 
ATOM     40  C   UNL A   1      41.305  19.194  26.066  1.00  0.00     0.251 C 
ATOM     41  H   UNL A   1      39.546  18.323  25.642  1.00  0.00     0.163 HD
ATOM     42  O   UNL A   1      41.946  18.161  25.969  1.00  0.00    -0.269 OA
BRANCH  40  43
ATOM     43  C   UNL A   1      41.990  20.462  26.413  1.00  0.00     0.039 A 
ATOM     44  C   UNL A   1      42.197  20.833  27.743  1.00  0.00     0.014 A 
ATOM     45  C   UNL A   1      42.397  21.307  25.376  1.00  0.00     0.014 A 
ATOM     46  C   UNL A   1      42.653  22.116  28.039  1.00  0.00     0.010 A 
ATOM     47  C   UNL A   1      42.927  22.564  25.676  1.00  0.00     0.010 A 
ATOM     48  C   UNL A   1      43.006  23.000  27.007  1.00  0.00    -0.014 A 
BRANCH  48  49
ATOM     49  C   UNL A   1      43.425  24.389  27.329  1.00  0.00     0.031 A 
ATOM     50  C   UNL A   1      42.412  25.393  27.816  1.00  0.00     0.074 A 
ATOM     51  C   UNL A   1      44.720  24.740  27.220  1.00  0.00     0.049 A 
ATOM     52  N   UNL A   1      42.585  26.656  28.116  1.00  0.00    -0.248 NA
ATOM     53  C   UNL A   1      41.029  24.920  27.993  1.00  0.00     0.031 C 
ATOM     54  C   UNL A   1      45.802  23.850  26.796  1.00  0.00     0.029 A 
ATOM     55  N   UNL A   1      45.350  25.933  27.475  1.00  0.00    -0.354 N 
ATOM     56  C   UNL A   1      41.334  27.132  28.491  1.00  0.00     0.074 A 
ATOM     57  C   UNL A   1      40.406  26.031  28.364  1.00  0.00     0.031 C 
ATOM     58  C   UNL A   1      46.966  24.515  26.859  1.00  0.00     0.029 A 
ATOM     59  C   UNL A   1      46.706  25.894  27.262  1.00  0.00     0.049 A 
ATOM     60  H   UNL A   1      44.875  26.740  27.781  1.00  0.00     0.167 HD
ATOM     61  C   UNL A   1      40.994  28.373  28.912  1.00  0.00     0.031 A 
ATOM     62  C   UNL A   1      47.639  26.861  27.359  1.00  0.00     0.031 A 
ATOM     63  C   UNL A   1      41.922  29.462  29.056  1.00  0.00     0.049 A 
ATOM     64  C   UNL A   1      47.225  28.245  27.771  1.00  0.00     0.074 A 
ATOM     65  C   UNL A   1      41.667  30.751  29.491  1.00  0.00     0.029 A 
ATOM     66  N   UNL A   1      43.276  29.391  28.776  1.00  0.00    -0.354 N 
ATOM     67  N   UNL A   1      46.037  28.677  28.119  1.00  0.00    -0.248 NA
ATOM     68  C   UNL A   1      48.273  29.275  27.800  1.00  0.00     0.031 C 
ATOM     69  C   UNL A   1      42.859  31.476  29.425  1.00  0.00     0.029 A 
ATOM     70  C   UNL A   1      43.866  30.621  29.008  1.00  0.00     0.049 A 
ATOM     71  H   UNL A   1      43.748  28.587  28.459  1.00  0.00     0.167 HD
ATOM     72  C   UNL A   1      46.199  30.022  28.425  1.00  0.00     0.074 A 
ATOM     73  C   UNL A   1      47.600  30.333  28.235  1.00  0.00     0.031 C 
ATOM     74  C   UNL A   1      45.264  30.916  28.825  1.00  0.00     0.031 A 
BRANCH  61  75
ATOM     75  C   UNL A   1      39.553  28.639  29.244  1.00  0.00    -0.014 A 
ATOM     76  C   UNL A   1      38.694  29.144  28.254  1.00  0.00     0.009 A 
ATOM     77  C   UNL A   1      39.070  28.497  30.553  1.00  0.00     0.009 A 
ATOM     78  C   UNL A   1      37.386  29.515  28.571  1.00  0.00     0.001 A 
ATOM     79  C   UNL A   1      37.753  28.844  30.862  1.00  0.00     0.001 A 
ATOM     80  C   UNL A   1      36.916  29.361  29.873  1.00  0.00     0.000 A 
ENDBRANCH  61  75
BRANCH  62  81
ATOM     81  C   UNL A   1      49.058  26.540  27.050  1.00  0.00    -0.014 A 
ATOM     82  C   UNL A   1      49.532  26.605  25.730  1.00  0.00     0.009 A 
ATOM     83  C   UNL A   1      49.930  26.119  28.064  1.00  0.00     0.009 A 
ATOM     84  C   UNL A   1      50.841  26.229  25.426  1.00  0.00     0.001 A 
ATOM     85  C   UNL A   1      51.249  25.772  27.761  1.00  0.00     0.001 A 
ATOM     86  C   UNL A   1      51.701  25.818  26.443  1.00  0.00     0.000 A 
ENDBRANCH  62  81
BRANCH  74  87
ATOM     87  C   UNL A   1      45.706  32.321  29.117  1.00  0.00    -0.014 A 
ATOM     88  C   UNL A   1      45.773  33.258  28.072  1.00  0.00     0.009 A 
ATOM     89  C   UNL A   1      46.179  32.680  30.387  1.00  0.00     0.009 A 
ATOM     90  C   UNL A   1      46.329  34.519  28.287  1.00  0.00     0.001 A 
ATOM     91  C   UNL A   1      46.711  33.952  30.605  1.00  0.00     0.001 A 
ATOM     92  C   UNL A   1      46.796  34.865  29.553  1.00  0.00     0.000 A 
ENDBRANCH  74  87
ENDBRANCH  48  49
ENDBRANCH  40  43
ENDBRANCH  38  39
ENDBRANCH  37  38
ENDBRANCH  36  37
ENDBRANCH   1  36
TORSDOF 18
ENDMDL
MODEL 3
REMARK VINA RESULT:     -11.9      1.309      5.999
REMARK SMILES O=C(Cn1c2ccccc2c(=O)c2ccccc21)N[C@@H](Cc1ccccc1)C(=O)NCCCCCCNC(=O)c1ccc(-c2c3nc(c(-c4ccccc4)c4ccc([nH]4)c(-c4ccccc4)c4nc(c(-c5ccccc5)c5ccc2[nH]5)C=C4)C=C3)cc1
REMARK SMILES IDX 33 1 32 2 31 3 30 4 28 5 29 6 20 8 19 9 1 10 2 11 3 13 4 14
REMARK SMILES IDX 5 15 18 16 6 17 10 18 13 19 17 20 7 21 9 22 11 23 14 24
REMARK SMILES IDX 16 25 8 26 12 27 15 28 21 29 22 30 23 31 27 32 24 33 26 34
REMARK SMILES IDX 25 35 34 36 35 37 36 38 37 39 38 40 39 42 40 43 41 44 87 45
REMARK SMILES IDX 42 46 86 47 43 48 44 49 45 50 80 51 46 52 85 53 79 54 81 55
REMARK SMILES IDX 47 56 84 57 78 58 77 59 48 61 70 62 55 63 69 64 56 65 59 66
REMARK SMILES IDX 68 67 82 68 57 69 58 70 67 72 83 73 60 74 49 75 50 76 54 77
REMARK SMILES IDX 51 78 53 79 52 80 71 81 72 82 76 83 73 84 75 85 74 86 61 87
REMARK SMILES IDX 62 88 66 89 63 90 65 91 64 92
REMARK H PARENT 30 7 19 12 37 41 81 60 59 71
REMARK Flexibility Score: inf
ROOT
ATOM      1  C   UNL A   1      37.166  22.565  25.598  1.00  0.00     0.002 C 
ENDROOT
BRANCH   1   2
ATOM      2  C   UNL A   1      36.561  23.799  24.924  1.00  0.00     0.021 C 
BRANCH   2   3
ATOM      3  C   UNL A   1      35.076  23.690  24.613  1.00  0.00     0.116 C 
BRANCH   3   4
ATOM      4  N   UNL A   1      34.801  23.229  23.269  1.00  0.00    -0.354 N 
ATOM      5  C   UNL A   1      33.684  23.400  22.500  1.00  0.00     0.242 C 
ATOM      6  O   UNL A   1      33.840  23.383  21.275  1.00  0.00    -0.273 OA
ATOM      7  H   UNL A   1      35.527  22.716  22.846  1.00  0.00     0.163 HD
BRANCH   5   8
ATOM      8  C   UNL A   1      32.295  23.686  23.109  1.00  0.00     0.175 C 
BRANCH   8   9
ATOM      9  N   UNL A   1      31.629  24.823  22.463  1.00  0.00    -0.342 N 
ATOM     10  O   UNL A   1      30.481  25.491  24.324  1.00  0.00    -0.273 OA
ATOM     11  C   UNL A   1      30.900  25.732  23.194  1.00  0.00     0.240 C 
ATOM     12  H   UNL A   1      31.705  24.938  21.488  1.00  0.00     0.164 HD
BRANCH  11  13
ATOM     13  C   UNL A   1      30.598  27.065  22.501  1.00  0.00     0.222 C 
BRANCH  13  14
ATOM     14  N   UNL A   1      30.696  28.312  23.322  1.00  0.00    -0.331 N 
ATOM     15  C   UNL A   1      31.861  28.437  24.140  1.00  0.00     0.053 A 
ATOM     16  C   UNL A   1      29.816  29.408  23.143  1.00  0.00     0.053 A 
ATOM     17  C   UNL A   1      32.936  27.527  24.129  1.00  0.00     0.027 A 
ATOM     18  C   UNL A   1      32.000  29.544  25.000  1.00  0.00     0.046 A 
ATOM     19  C   UNL A   1      29.862  30.496  24.040  1.00  0.00     0.046 A 
ATOM     20  C   UNL A   1      28.856  29.503  22.124  1.00  0.00     0.027 A 
ATOM     21  C   UNL A   1      34.072  27.709  24.935  1.00  0.00     0.002 A 
ATOM     22  C   UNL A   1      33.138  29.737  25.803  1.00  0.00     0.014 A 
ATOM     23  C   UNL A   1      30.928  30.552  25.057  1.00  0.00     0.197 A 
ATOM     24  C   UNL A   1      28.929  31.547  24.003  1.00  0.00     0.014 A 
ATOM     25  C   UNL A   1      27.909  30.539  22.090  1.00  0.00     0.002 A 
ATOM     26  C   UNL A   1      34.176  28.815  25.768  1.00  0.00     0.001 A 
ATOM     27  O   UNL A   1      30.936  31.427  25.917  1.00  0.00    -0.288 OA
ATOM     28  C   UNL A   1      27.931  31.550  23.040  1.00  0.00     0.001 A 
ENDBRANCH  13  14
ENDBRANCH  11  13
ENDBRANCH   8   9
BRANCH   8  29
ATOM     29  C   UNL A   1      31.429  22.433  23.338  1.00  0.00     0.070 C 
BRANCH  29  30
ATOM     30  C   UNL A   1      32.089  21.244  23.993  1.00  0.00    -0.045 A 
ATOM     31  C   UNL A   1      32.265  20.047  23.288  1.00  0.00     0.004 A 
ATOM     32  C   UNL A   1      32.547  21.327  25.317  1.00  0.00     0.004 A 
ATOM     33  C   UNL A   1      32.924  18.967  23.882  1.00  0.00     0.000 A 
ATOM     34  C   UNL A   1      33.209  20.247  25.907  1.00  0.00     0.000 A 
ATOM     35  C   UNL A   1      33.404  19.071  25.185  1.00  0.00     0.000 A 
ENDBRANCH  29  30
ENDBRANCH   8  29
ENDBRANCH   5   8
ENDBRANCH   3   4
ENDBRANCH   2   3
ENDBRANCH   1   2
BRANCH   1  36
ATOM     36  C   UNL A   1      36.759  21.208  25.007  1.00  0.00     0.002 C 
BRANCH  36  37
ATOM     37  C   UNL A   1      37.851  20.138  24.965  1.00  0.00     0.021 C 
BRANCH  37  38
ATOM     38  C   UNL A   1      39.102  20.448  25.774  1.00  0.00     0.116 C 
BRANCH  38  39
ATOM     39  N   UNL A   1      40.069  19.366  25.765  1.00  0.00    -0.352 N 
ATOM     40  C   UNL A   1      41.411  19.394  26.076  1.00  0.00     0.251 C 
ATOM     41  H   UNL A   1      39.717  18.487  25.497  1.00  0.00     0.163 HD
ATOM     42  O   UNL A   1      42.108  18.408  25.906  1.00  0.00    -0.269 OA
BRANCH  40  43
ATOM     43  C   UNL A   1      42.017  20.653  26.572  1.00  0.00     0.039 A 
ATOM     44  C   UNL A   1      41.970  20.995  27.925  1.00  0.00     0.014 A 
ATOM     45  C   UNL A   1      42.609  21.518  25.648  1.00  0.00     0.014 A 
ATOM     46  C   UNL A   1      42.360  22.271  28.328  1.00  0.00     0.010 A 
ATOM     47  C   UNL A   1      43.072  22.768  26.068  1.00  0.00     0.010 A 
ATOM     48  C   UNL A   1      42.899  23.176  27.400  1.00  0.00    -0.014 A 
BRANCH  48  49
ATOM     49  C   UNL A   1      43.247  24.557  27.824  1.00  0.00     0.031 A 
ATOM     50  C   UNL A   1      42.160  25.559  28.110  1.00  0.00     0.074 A 
ATOM     51  C   UNL A   1      44.539  24.901  27.988  1.00  0.00     0.049 A 
ATOM     52  N   UNL A   1      42.272  26.817  28.459  1.00  0.00    -0.248 NA
ATOM     53  C   UNL A   1      40.768  25.094  27.992  1.00  0.00     0.031 C 
ATOM     54  C   UNL A   1      45.682  24.011  27.779  1.00  0.00     0.029 A 
ATOM     55  N   UNL A   1      45.107  26.086  28.386  1.00  0.00    -0.354 N 
ATOM     56  C   UNL A   1      40.973  27.295  28.578  1.00  0.00     0.074 A 
ATOM     57  C   UNL A   1      40.086  26.203  28.245  1.00  0.00     0.031 C 
ATOM     58  C   UNL A   1      46.810  24.667  28.091  1.00  0.00     0.029 A 
ATOM     59  C   UNL A   1      46.478  26.041  28.455  1.00  0.00     0.049 A 
ATOM     60  H   UNL A   1      44.583  26.891  28.602  1.00  0.00     0.167 HD
ATOM     61  C   UNL A   1      40.557  28.531  28.942  1.00  0.00     0.031 A 
ATOM     62  C   UNL A   1      47.375  27.000  28.756  1.00  0.00     0.031 A 
ATOM     63  C   UNL A   1      41.440  29.612  29.291  1.00  0.00     0.049 A 
ATOM     64  C   UNL A   1      46.890  28.380  29.098  1.00  0.00     0.074 A 
ATOM     65  C   UNL A   1      41.106  30.896  29.686  1.00  0.00     0.029 A 
ATOM     66  N   UNL A   1      42.822  29.537  29.292  1.00  0.00    -0.354 N 
ATOM     67  N   UNL A   1      45.657  28.815  29.202  1.00  0.00    -0.248 NA
ATOM     68  C   UNL A   1      47.913  29.403  29.358  1.00  0.00     0.031 C 
ATOM     69  C   UNL A   1      42.288  31.614  29.877  1.00  0.00     0.029 A 
ATOM     70  C   UNL A   1      43.357  30.758  29.661  1.00  0.00     0.049 A 
ATOM     71  H   UNL A   1      43.346  28.735  29.065  1.00  0.00     0.167 HD
ATOM     72  C   UNL A   1      45.757  30.154  29.557  1.00  0.00     0.074 A 
ATOM     73  C   UNL A   1      47.168  30.458  29.663  1.00  0.00     0.031 C 
ATOM     74  C   UNL A   1      44.763  31.047  29.773  1.00  0.00     0.031 A 
BRANCH  61  75
ATOM     75  C   UNL A   1      39.079  28.802  28.976  1.00  0.00    -0.014 A 
ATOM     76  C   UNL A   1      38.437  29.296  27.829  1.00  0.00     0.009 A 
ATOM     77  C   UNL A   1      38.345  28.675  30.164  1.00  0.00     0.009 A 
ATOM     78  C   UNL A   1      37.093  29.671  27.874  1.00  0.00     0.001 A 
ATOM     79  C   UNL A   1      36.993  29.025  30.199  1.00  0.00     0.001 A 
ATOM     80  C   UNL A   1      36.372  29.532  29.058  1.00  0.00     0.000 A 
ENDBRANCH  61  75
BRANCH  62  81
ATOM     81  C   UNL A   1      48.825  26.675  28.739  1.00  0.00    -0.014 A 
ATOM     82  C   UNL A   1      49.483  26.294  29.921  1.00  0.00     0.009 A 
ATOM     83  C   UNL A   1      49.569  26.792  27.557  1.00  0.00     0.009 A 
ATOM     84  C   UNL A   1      50.860  26.064  29.924  1.00  0.00     0.001 A 
ATOM     85  C   UNL A   1      50.942  26.531  27.557  1.00  0.00     0.001 A 
ATOM     86  C   UNL A   1      51.587  26.177  28.741  1.00  0.00     0.000 A 
ENDBRANCH  62  81
BRANCH  74  87
ATOM     87  C   UNL A   1      45.140  32.445  30.172  1.00  0.00    -0.014 A 
ATOM     88  C   UNL A   1      45.230  32.776  31.535  1.00  0.00     0.009 A 
ATOM     89  C   UNL A   1      45.275  33.458  29.214  1.00  0.00     0.009 A 
ATOM     90  C   UNL A   1      45.423  34.100  31.930  1.00  0.00     0.001 A 
ATOM     91  C   UNL A   1      45.494  34.779  29.611  1.00  0.00     0.001 A 
ATOM     92  C   UNL A   1      45.556  35.099  30.968  1.00  0.00     0.000 A 
ENDBRANCH  74  87
ENDBRANCH  48  49
ENDBRANCH  40  43
ENDBRANCH  38  39
ENDBRANCH  37  38
ENDBRANCH  36  37
ENDBRANCH   1  36
TORSDOF 18
ENDMDL
