MODEL 1
REMARK VINA RESULT:     -12.4      0.000      0.000
REMARK SMILES O=C(NCCCCCCNC(=O)[C@@H]1CC=CC[C@H]1C(=O)N1CC[NH+](Cc2ccc3c(c2)OCO3)CC1)c1ccc(-c2c3nc(c(-c4ccccc4)c4ccc([nH]4)c(-c4ccccc4)c4nc(c(-c5ccccc5)c5ccc2[nH]5)C=C4)C=C3)cc1
REMARK SMILES IDX 7 1 6 2 5 3 4 4 3 5 1 6 2 7 37 9 38 10 84 11 39 12 83 13
REMARK SMILES IDX 40 14 41 15 42 16 77 17 43 18 82 19 76 20 78 21 44 22 81 23
REMARK SMILES IDX 75 24 74 25 45 27 67 28 52 29 66 30 53 31 56 32 65 33 79 34
REMARK SMILES IDX 54 35 55 36 64 38 80 39 57 40 46 41 47 42 51 43 48 44 50 45
REMARK SMILES IDX 49 46 68 47 69 48 73 49 70 50 72 51 71 52 58 53 59 54 63 55
REMARK SMILES IDX 60 56 62 57 61 58 8 59 9 60 10 61 11 62 12 64 13 65 14 66
REMARK SMILES IDX 18 67 15 68 17 69 16 70 19 71 20 72 21 73 22 74 36 75 23 76
REMARK SMILES IDX 35 77 24 78 25 80 26 81 27 82 31 83 28 84 30 85 29 86 32 87
REMARK SMILES IDX 34 88 33 89
REMARK H PARENT 3 8 78 26 56 37 10 63 24 79
REMARK Flexibility Score: inf
ROOT
ATOM      1  C   UNL A   1      36.996  22.198  24.324  1.00  0.00     0.002 C 
ENDROOT
BRANCH   1   2
ATOM      2  C   UNL A   1      36.701  20.862  25.015  1.00  0.00     0.002 C 
BRANCH   2   3
ATOM      3  C   UNL A   1      37.828  19.829  24.983  1.00  0.00     0.021 C 
BRANCH   3   4
ATOM      4  C   UNL A   1      39.070  20.194  25.783  1.00  0.00     0.116 C 
BRANCH   4   5
ATOM      5  N   UNL A   1      40.074  19.144  25.784  1.00  0.00    -0.352 N 
ATOM      6  O   UNL A   1      42.152  18.262  25.857  1.00  0.00    -0.269 OA
ATOM      7  C   UNL A   1      41.424  19.237  26.020  1.00  0.00     0.251 C 
ATOM      8  H   UNL A   1      39.739  18.239  25.589  1.00  0.00     0.163 HD
BRANCH   7   9
ATOM      9  C   UNL A   1      42.008  20.533  26.433  1.00  0.00     0.039 A 
ATOM     10  C   UNL A   1      42.174  20.843  27.784  1.00  0.00     0.014 A 
ATOM     11  C   UNL A   1      42.367  21.459  25.450  1.00  0.00     0.014 A 
ATOM     12  C   UNL A   1      42.536  22.134  28.154  1.00  0.00     0.010 A 
ATOM     13  C   UNL A   1      42.822  22.727  25.826  1.00  0.00     0.010 A 
ATOM     14  C   UNL A   1      42.866  23.091  27.180  1.00  0.00    -0.014 A 
BRANCH  14  15
ATOM     15  C   UNL A   1      43.276  24.452  27.609  1.00  0.00     0.031 A 
ATOM     16  C   UNL A   1      44.709  24.904  27.505  1.00  0.00     0.074 A 
ATOM     17  C   UNL A   1      42.335  25.305  28.058  1.00  0.00     0.049 A 
ATOM     18  N   UNL A   1      45.224  26.076  27.782  1.00  0.00    -0.248 NA
ATOM     19  C   UNL A   1      45.692  23.915  27.036  1.00  0.00     0.031 C 
ATOM     20  C   UNL A   1      40.913  24.987  28.212  1.00  0.00     0.029 A 
ATOM     21  N   UNL A   1      42.424  26.618  28.440  1.00  0.00    -0.354 N 
ATOM     22  C   UNL A   1      46.589  25.958  27.550  1.00  0.00     0.074 A 
ATOM     23  C   UNL A   1      46.827  24.594  27.130  1.00  0.00     0.031 C 
ATOM     24  C   UNL A   1      40.254  26.091  28.593  1.00  0.00     0.029 A 
ATOM     25  C   UNL A   1      41.213  27.175  28.772  1.00  0.00     0.049 A 
ATOM     26  H   UNL A   1      43.274  27.115  28.473  1.00  0.00     0.167 HD
ATOM     27  C   UNL A   1      47.557  26.900  27.674  1.00  0.00     0.031 A 
ATOM     28  C   UNL A   1      40.904  28.419  29.179  1.00  0.00     0.031 A 
ATOM     29  C   UNL A   1      47.320  28.261  28.082  1.00  0.00     0.049 A 
ATOM     30  C   UNL A   1      41.996  29.437  29.318  1.00  0.00     0.074 A 
ATOM     31  C   UNL A   1      48.230  29.298  28.198  1.00  0.00     0.029 A 
ATOM     32  N   UNL A   1      46.083  28.774  28.443  1.00  0.00    -0.354 N 
ATOM     33  N   UNL A   1      43.274  29.316  29.058  1.00  0.00    -0.248 NA
ATOM     34  C   UNL A   1      41.599  30.765  29.803  1.00  0.00     0.031 C 
ATOM     35  C   UNL A   1      47.553  30.424  28.676  1.00  0.00     0.029 A 
ATOM     36  C   UNL A   1      46.210  30.105  28.802  1.00  0.00     0.049 A 
ATOM     37  H   UNL A   1      45.239  28.266  28.443  1.00  0.00     0.167 HD
ATOM     38  C   UNL A   1      43.831  30.561  29.323  1.00  0.00     0.074 A 
ATOM     39  C   UNL A   1      42.747  31.424  29.747  1.00  0.00     0.031 C 
ATOM     40  C   UNL A   1      45.125  30.952  29.222  1.00  0.00     0.031 A 
BRANCH  27  41
ATOM     41  C   UNL A   1      48.974  26.483  27.391  1.00  0.00    -0.014 A 
ATOM     42  C   UNL A   1      49.810  25.985  28.403  1.00  0.00     0.009 A 
ATOM     43  C   UNL A   1      49.467  26.550  26.078  1.00  0.00     0.009 A 
ATOM     44  C   UNL A   1      51.120  25.596  28.112  1.00  0.00     0.001 A 
ATOM     45  C   UNL A   1      50.767  26.136  25.784  1.00  0.00     0.001 A 
ATOM     46  C   UNL A   1      51.595  25.668  26.803  1.00  0.00     0.000 A 
ENDBRANCH  27  41
BRANCH  28  47
ATOM     47  C   UNL A   1      39.491  28.769  29.478  1.00  0.00    -0.014 A 
ATOM     48  C   UNL A   1      38.642  29.230  28.462  1.00  0.00     0.009 A 
ATOM     49  C   UNL A   1      38.984  28.636  30.780  1.00  0.00     0.009 A 
ATOM     50  C   UNL A   1      37.318  29.572  28.748  1.00  0.00     0.001 A 
ATOM     51  C   UNL A   1      37.653  28.950  31.057  1.00  0.00     0.001 A 
ATOM     52  C   UNL A   1      36.824  29.426  30.044  1.00  0.00     0.000 A 
ENDBRANCH  28  47
BRANCH  40  53
ATOM     53  C   UNL A   1      45.426  32.390  29.537  1.00  0.00    -0.014 A 
ATOM     54  C   UNL A   1      45.797  32.794  30.828  1.00  0.00     0.009 A 
ATOM     55  C   UNL A   1      45.350  33.351  28.517  1.00  0.00     0.009 A 
ATOM     56  C   UNL A   1      46.047  34.140  31.100  1.00  0.00     0.001 A 
ATOM     57  C   UNL A   1      45.628  34.691  28.785  1.00  0.00     0.001 A 
ATOM     58  C   UNL A   1      45.965  35.087  30.078  1.00  0.00     0.000 A 
ENDBRANCH  40  53
ENDBRANCH  14  15
ENDBRANCH   7   9
ENDBRANCH   4   5
ENDBRANCH   3   4
ENDBRANCH   2   3
ENDBRANCH   1   2
BRANCH   1  59
ATOM     59  C   UNL A   1      37.015  23.435  25.226  1.00  0.00     0.021 C 
BRANCH  59  60
ATOM     60  C   UNL A   1      35.681  24.159  25.366  1.00  0.00     0.116 C 
BRANCH  60  61
ATOM     61  N   UNL A   1      34.903  24.138  24.143  1.00  0.00    -0.356 N 
ATOM     62  C   UNL A   1      33.644  24.585  23.891  1.00  0.00     0.224 C 
ATOM     63  H   UNL A   1      35.360  23.735  23.371  1.00  0.00     0.163 HD
ATOM     64  O   UNL A   1      33.279  24.609  22.713  1.00  0.00    -0.275 OA
BRANCH  62  65
ATOM     65  C   UNL A   1      32.704  25.032  25.006  1.00  0.00     0.095 C 
ATOM     66  C   UNL A   1      31.927  23.838  25.587  1.00  0.00     0.041 C 
ATOM     67  C   UNL A   1      31.854  26.233  24.567  1.00  0.00     0.095 C 
ATOM     68  C   UNL A   1      30.636  24.198  26.253  1.00  0.00    -0.030 C 
ATOM     69  C   UNL A   1      30.766  26.603  25.592  1.00  0.00     0.041 C 
ATOM     70  C   UNL A   1      30.118  25.431  26.258  1.00  0.00    -0.030 C 
BRANCH  67  71
ATOM     71  C   UNL A   1      32.629  27.514  24.237  1.00  0.00     0.227 C 
ATOM     72  O   UNL A   1      32.783  27.859  23.064  1.00  0.00    -0.275 OA
ATOM     73  N   UNL A   1      32.875  28.375  25.293  1.00  0.00    -0.331 N 
ATOM     74  C   UNL A   1      32.534  29.780  25.104  1.00  0.00     0.181 C 
ATOM     75  C   UNL A   1      34.032  28.186  26.161  1.00  0.00     0.181 C 
ATOM     76  C   UNL A   1      32.388  30.522  26.451  1.00  0.00     0.284 C 
ATOM     77  C   UNL A   1      33.815  28.859  27.527  1.00  0.00     0.284 C 
ATOM     78  N   UNL A   1      33.424  30.278  27.469  1.00  0.00    -0.328 N 
ATOM     79  H   UNL A   1      32.974  30.483  28.360  1.00  0.00     0.348 HD
BRANCH  78  80
ATOM     80  C   UNL A   1      34.536  31.236  27.498  1.00  0.00     0.299 C 
BRANCH  80  81
ATOM     81  C   UNL A   1      34.413  32.388  28.470  1.00  0.00     0.010 A 
ATOM     82  C   UNL A   1      34.935  32.279  29.778  1.00  0.00     0.013 A 
ATOM     83  C   UNL A   1      33.699  33.544  28.105  1.00  0.00     0.060 A 
ATOM     84  C   UNL A   1      34.669  33.253  30.744  1.00  0.00     0.051 A 
ATOM     85  C   UNL A   1      33.446  34.483  29.081  1.00  0.00     0.166 A 
ATOM     86  C   UNL A   1      33.902  34.333  30.368  1.00  0.00     0.165 A 
ATOM     87  O   UNL A   1      32.694  35.606  28.924  1.00  0.00    -0.454 OA
ATOM     88  O   UNL A   1      33.490  35.339  31.185  1.00  0.00    -0.454 OA
ATOM     89  C   UNL A   1      32.665  36.100  30.279  1.00  0.00     0.468 C 
ENDBRANCH  80  81
ENDBRANCH  78  80
ENDBRANCH  67  71
ENDBRANCH  62  65
ENDBRANCH  60  61
ENDBRANCH  59  60
ENDBRANCH   1  59
TORSDOF 16
ENDMDL
MODEL 2
REMARK VINA RESULT:     -12.4      3.673      9.065
REMARK SMILES O=C(NCCCCCCNC(=O)[C@@H]1CC=CC[C@H]1C(=O)N1CC[NH+](Cc2ccc3c(c2)OCO3)CC1)c1ccc(-c2c3nc(c(-c4ccccc4)c4ccc([nH]4)c(-c4ccccc4)c4nc(c(-c5ccccc5)c5ccc2[nH]5)C=C4)C=C3)cc1
REMARK SMILES IDX 7 1 6 2 5 3 4 4 3 5 1 6 2 7 37 9 38 10 84 11 39 12 83 13
REMARK SMILES IDX 40 14 41 15 42 16 77 17 43 18 82 19 76 20 78 21 44 22 81 23
REMARK SMILES IDX 75 24 74 25 45 27 67 28 52 29 66 30 53 31 56 32 65 33 79 34
REMARK SMILES IDX 54 35 55 36 64 38 80 39 57 40 46 41 47 42 51 43 48 44 50 45
REMARK SMILES IDX 49 46 68 47 69 48 73 49 70 50 72 51 71 52 58 53 59 54 63 55
REMARK SMILES IDX 60 56 62 57 61 58 8 59 9 60 10 61 11 62 12 64 13 65 14 66
REMARK SMILES IDX 18 67 15 68 17 69 16 70 19 71 20 72 21 73 22 74 36 75 23 76
REMARK SMILES IDX 35 77 24 78 25 80 26 81 27 82 31 83 28 84 30 85 29 86 32 87
REMARK SMILES IDX 34 88 33 89
REMARK H PARENT 3 8 78 26 56 37 10 63 24 79
REMARK Flexibility Score: inf
ROOT
ATOM      1  C   UNL A   1      32.763  28.600  27.151  1.00  0.00     0.002 C 
ENDROOT
BRANCH   1   2
ATOM      2  C   UNL A   1      31.792  29.433  26.308  1.00  0.00     0.002 C 
BRANCH   2   3
ATOM      3  C   UNL A   1      31.490  30.838  26.829  1.00  0.00     0.021 C 
BRANCH   3   4
ATOM      4  C   UNL A   1      32.687  31.771  26.922  1.00  0.00     0.116 C 
BRANCH   4   5
ATOM      5  N   UNL A   1      32.338  33.101  27.392  1.00  0.00    -0.352 N 
ATOM      6  O   UNL A   1      32.523  34.976  28.637  1.00  0.00    -0.269 OA
ATOM      7  C   UNL A   1      33.028  33.928  28.245  1.00  0.00     0.251 C 
ATOM      8  H   UNL A   1      31.487  33.459  27.050  1.00  0.00     0.163 HD
BRANCH   7   9
ATOM      9  C   UNL A   1      34.370  33.530  28.723  1.00  0.00     0.039 A 
ATOM     10  C   UNL A   1      35.514  33.843  27.985  1.00  0.00     0.014 A 
ATOM     11  C   UNL A   1      34.480  32.811  29.916  1.00  0.00     0.014 A 
ATOM     12  C   UNL A   1      36.738  33.292  28.348  1.00  0.00     0.010 A 
ATOM     13  C   UNL A   1      35.729  32.338  30.329  1.00  0.00     0.010 A 
ATOM     14  C   UNL A   1      36.861  32.534  29.524  1.00  0.00    -0.014 A 
BRANCH  14  15
ATOM     15  C   UNL A   1      38.189  31.984  29.897  1.00  0.00     0.031 A 
ATOM     16  C   UNL A   1      39.082  32.699  30.877  1.00  0.00     0.074 A 
ATOM     17  C   UNL A   1      38.574  30.802  29.378  1.00  0.00     0.049 A 
ATOM     18  N   UNL A   1      40.244  32.328  31.353  1.00  0.00    -0.248 NA
ATOM     19  C   UNL A   1      38.617  34.000  31.383  1.00  0.00     0.031 C 
ATOM     20  C   UNL A   1      37.802  30.013  28.415  1.00  0.00     0.029 A 
ATOM     21  N   UNL A   1      39.693  30.045  29.607  1.00  0.00    -0.354 N 
ATOM     22  C   UNL A   1      40.661  33.357  32.189  1.00  0.00     0.074 A 
ATOM     23  C   UNL A   1      39.638  34.379  32.139  1.00  0.00     0.031 C 
ATOM     24  C   UNL A   1      38.439  28.855  28.184  1.00  0.00     0.029 A 
ATOM     25  C   UNL A   1      39.691  28.848  28.932  1.00  0.00     0.049 A 
ATOM     26  H   UNL A   1      40.428  30.331  30.197  1.00  0.00     0.167 HD
ATOM     27  C   UNL A   1      41.792  33.442  32.932  1.00  0.00     0.031 A 
ATOM     28  C   UNL A   1      40.596  27.853  28.912  1.00  0.00     0.031 A 
ATOM     29  C   UNL A   1      42.806  32.421  32.991  1.00  0.00     0.049 A 
ATOM     30  C   UNL A   1      41.843  27.980  29.735  1.00  0.00     0.074 A 
ATOM     31  C   UNL A   1      43.967  32.400  33.745  1.00  0.00     0.029 A 
ATOM     32  N   UNL A   1      42.782  31.240  32.265  1.00  0.00    -0.354 N 
ATOM     33  N   UNL A   1      42.200  28.944  30.548  1.00  0.00    -0.248 NA
ATOM     34  C   UNL A   1      42.809  26.877  29.640  1.00  0.00     0.031 C 
ATOM     35  C   UNL A   1      44.669  31.230  33.439  1.00  0.00     0.029 A 
ATOM     36  C   UNL A   1      43.917  30.494  32.537  1.00  0.00     0.049 A 
ATOM     37  H   UNL A   1      42.063  30.972  31.647  1.00  0.00     0.167 HD
ATOM     38  C   UNL A   1      43.422  28.552  31.081  1.00  0.00     0.074 A 
ATOM     39  C   UNL A   1      43.731  27.256  30.512  1.00  0.00     0.031 C 
ATOM     40  C   UNL A   1      44.213  29.208  31.964  1.00  0.00     0.031 A 
BRANCH  27  41
ATOM     41  C   UNL A   1      42.010  34.702  33.725  1.00  0.00    -0.014 A 
ATOM     42  C   UNL A   1      41.562  34.823  35.050  1.00  0.00     0.009 A 
ATOM     43  C   UNL A   1      42.712  35.772  33.148  1.00  0.00     0.009 A 
ATOM     44  C   UNL A   1      41.784  36.000  35.768  1.00  0.00     0.001 A 
ATOM     45  C   UNL A   1      42.957  36.938  33.877  1.00  0.00     0.001 A 
ATOM     46  C   UNL A   1      42.484  37.054  35.182  1.00  0.00     0.000 A 
ENDBRANCH  27  41
BRANCH  28  47
ATOM     47  C   UNL A   1      40.347  26.644  28.085  1.00  0.00    -0.014 A 
ATOM     48  C   UNL A   1      39.568  25.590  28.582  1.00  0.00     0.009 A 
ATOM     49  C   UNL A   1      40.881  26.545  26.790  1.00  0.00     0.009 A 
ATOM     50  C   UNL A   1      39.347  24.448  27.808  1.00  0.00     0.001 A 
ATOM     51  C   UNL A   1      40.634  25.416  26.007  1.00  0.00     0.001 A 
ATOM     52  C   UNL A   1      39.875  24.365  26.519  1.00  0.00     0.000 A 
ENDBRANCH  28  47
BRANCH  40  53
ATOM     53  C   UNL A   1      45.470  28.509  32.399  1.00  0.00    -0.014 A 
ATOM     54  C   UNL A   1      46.700  28.757  31.772  1.00  0.00     0.009 A 
ATOM     55  C   UNL A   1      45.420  27.597  33.466  1.00  0.00     0.009 A 
ATOM     56  C   UNL A   1      47.848  28.075  32.178  1.00  0.00     0.001 A 
ATOM     57  C   UNL A   1      46.575  26.939  33.888  1.00  0.00     0.001 A 
ATOM     58  C   UNL A   1      47.785  27.170  33.237  1.00  0.00     0.000 A 
ENDBRANCH  40  53
ENDBRANCH  14  15
ENDBRANCH   7   9
ENDBRANCH   4   5
ENDBRANCH   3   4
ENDBRANCH   2   3
ENDBRANCH   1   2
BRANCH   1  59
ATOM     59  C   UNL A   1      34.069  28.186  26.467  1.00  0.00     0.021 C 
BRANCH  59  60
ATOM     60  C   UNL A   1      34.046  26.820  25.792  1.00  0.00     0.116 C 
BRANCH  60  61
ATOM     61  N   UNL A   1      33.030  25.943  26.340  1.00  0.00    -0.356 N 
ATOM     62  C   UNL A   1      32.915  24.589  26.296  1.00  0.00     0.224 C 
ATOM     63  H   UNL A   1      32.306  26.403  26.822  1.00  0.00     0.163 HD
ATOM     64  O   UNL A   1      32.043  24.073  26.999  1.00  0.00    -0.275 OA
BRANCH  62  65
ATOM     65  C   UNL A   1      33.811  23.729  25.411  1.00  0.00     0.095 C 
ATOM     66  C   UNL A   1      35.175  23.481  26.078  1.00  0.00     0.041 C 
ATOM     67  C   UNL A   1      33.858  24.270  23.975  1.00  0.00     0.095 C 
ATOM     68  C   UNL A   1      36.284  23.152  25.128  1.00  0.00    -0.030 C 
ATOM     69  C   UNL A   1      34.888  23.541  23.094  1.00  0.00     0.041 C 
ATOM     70  C   UNL A   1      36.156  23.176  23.797  1.00  0.00    -0.030 C 
BRANCH  67  71
ATOM     71  C   UNL A   1      32.524  24.269  23.219  1.00  0.00     0.227 C 
ATOM     72  O   UNL A   1      32.105  23.229  22.706  1.00  0.00    -0.275 OA
ATOM     73  N   UNL A   1      31.714  25.378  23.394  1.00  0.00    -0.331 N 
ATOM     74  C   UNL A   1      30.319  25.140  23.742  1.00  0.00     0.181 C 
ATOM     75  C   UNL A   1      31.897  26.575  22.581  1.00  0.00     0.181 C 
ATOM     76  C   UNL A   1      29.663  26.387  24.376  1.00  0.00     0.284 C 
ATOM     77  C   UNL A   1      31.314  27.814  23.282  1.00  0.00     0.284 C 
ATOM     78  N   UNL A   1      29.915  27.684  23.723  1.00  0.00    -0.328 N 
ATOM     79  H   UNL A   1      29.784  28.379  24.455  1.00  0.00     0.348 HD
BRANCH  78  80
ATOM     80  C   UNL A   1      28.908  28.120  22.748  1.00  0.00     0.299 C 
BRANCH  80  81
ATOM     81  C   UNL A   1      28.807  29.608  22.498  1.00  0.00     0.010 A 
ATOM     82  C   UNL A   1      29.003  30.525  23.554  1.00  0.00     0.013 A 
ATOM     83  C   UNL A   1      28.431  30.086  21.229  1.00  0.00     0.060 A 
ATOM     84  C   UNL A   1      28.731  31.886  23.388  1.00  0.00     0.051 A 
ATOM     85  C   UNL A   1      28.163  31.431  21.097  1.00  0.00     0.166 A 
ATOM     86  C   UNL A   1      28.291  32.303  22.151  1.00  0.00     0.165 A 
ATOM     87  O   UNL A   1      27.698  32.039  19.972  1.00  0.00    -0.454 OA
ATOM     88  O   UNL A   1      27.919  33.569  21.825  1.00  0.00    -0.454 OA
ATOM     89  C   UNL A   1      27.475  33.377  20.466  1.00  0.00     0.468 C 
ENDBRANCH  80  81
ENDBRANCH  78  80
ENDBRANCH  67  71
ENDBRANCH  62  65
ENDBRANCH  60  61
ENDBRANCH  59  60
ENDBRANCH   1  59
TORSDOF 16
ENDMDL
MODEL 3
REMARK VINA RESULT:     -12.4      2.778      6.821
REMARK SMILES O=C(NCCCCCCNC(=O)[C@@H]1CC=CC[C@H]1C(=O)N1CC[NH+](Cc2ccc3c(c2)OCO3)CC1)c1ccc(-c2c3nc(c(-c4ccccc4)c4ccc([nH]4)c(-c4ccccc4)c4nc(c(-c5ccccc5)c5ccc2[nH]5)C=C4)C=C3)cc1
REMARK SMILES IDX 7 1 6 2 5 3 4 4 3 5 1 6 2 7 37 9 38 10 84 11 39 12 83 13
REMARK SMILES IDX 40 14 41 15 42 16 77 17 43 18 82 19 76 20 78 21 44 22 81 23
REMARK SMILES IDX 75 24 74 25 45 27 67 28 52 29 66 30 53 31 56 32 65 33 79 34
REMARK SMILES IDX 54 35 55 36 64 38 80 39 57 40 46 41 47 42 51 43 48 44 50 45
REMARK SMILES IDX 49 46 68 47 69 48 73 49 70 50 72 51 71 52 58 53 59 54 63 55
REMARK SMILES IDX 60 56 62 57 61 58 8 59 9 60 10 61 11 62 12 64 13 65 14 66
REMARK SMILES IDX 18 67 15 68 17 69 16 70 19 71 20 72 21 73 22 74 36 75 23 76
REMARK SMILES IDX 35 77 24 78 25 80 26 81 27 82 31 83 28 84 30 85 29 86 32 87
REMARK SMILES IDX 34 88 33 89
REMARK H PARENT 3 8 78 26 56 37 10 63 24 79
REMARK Flexibility Score: inf
ROOT
ATOM      1  C   UNL A   1      36.905  22.957  25.064  1.00  0.00     0.002 C 
ENDROOT
BRANCH   1   2
ATOM      2  C   UNL A   1      36.640  21.712  24.210  1.00  0.00     0.002 C 
BRANCH   2   3
ATOM      3  C   UNL A   1      37.414  20.454  24.603  1.00  0.00     0.021 C 
BRANCH   3   4
ATOM      4  C   UNL A   1      38.490  20.654  25.660  1.00  0.00     0.116 C 
BRANCH   4   5
ATOM      5  N   UNL A   1      39.525  19.636  25.618  1.00  0.00    -0.352 N 
ATOM      6  O   UNL A   1      41.620  18.801  25.748  1.00  0.00    -0.269 OA
ATOM      7  C   UNL A   1      40.851  19.733  25.965  1.00  0.00     0.251 C 
ATOM      8  H   UNL A   1      39.235  18.752  25.296  1.00  0.00     0.163 HD
BRANCH   7   9
ATOM      9  C   UNL A   1      41.360  20.985  26.567  1.00  0.00     0.039 A 
ATOM     10  C   UNL A   1      41.295  21.193  27.947  1.00  0.00     0.014 A 
ATOM     11  C   UNL A   1      41.886  21.975  25.732  1.00  0.00     0.014 A 
ATOM     12  C   UNL A   1      41.594  22.447  28.467  1.00  0.00     0.010 A 
ATOM     13  C   UNL A   1      42.275  23.204  26.273  1.00  0.00     0.010 A 
ATOM     14  C   UNL A   1      42.088  23.467  27.638  1.00  0.00    -0.014 A 
BRANCH  14  15
ATOM     15  C   UNL A   1      42.424  24.786  28.232  1.00  0.00     0.031 A 
ATOM     16  C   UNL A   1      43.842  25.137  28.599  1.00  0.00     0.074 A 
ATOM     17  C   UNL A   1      41.443  25.694  28.400  1.00  0.00     0.049 A 
ATOM     18  N   UNL A   1      44.314  26.264  29.072  1.00  0.00    -0.248 NA
ATOM     19  C   UNL A   1      44.861  24.092  28.419  1.00  0.00     0.031 C 
ATOM     20  C   UNL A   1      40.028  25.474  28.089  1.00  0.00     0.029 A 
ATOM     21  N   UNL A   1      41.488  26.989  28.846  1.00  0.00    -0.354 N 
ATOM     22  C   UNL A   1      45.673  26.054  29.274  1.00  0.00     0.074 A 
ATOM     23  C   UNL A   1      45.948  24.687  28.891  1.00  0.00     0.031 C 
ATOM     24  C   UNL A   1      39.351  26.614  28.292  1.00  0.00     0.029 A 
ATOM     25  C   UNL A   1      40.269  27.623  28.807  1.00  0.00     0.049 A 
ATOM     26  H   UNL A   1      42.312  27.423  29.164  1.00  0.00     0.167 HD
ATOM     27  C   UNL A   1      46.608  26.923  29.734  1.00  0.00     0.031 A 
ATOM     28  C   UNL A   1      39.923  28.877  29.150  1.00  0.00     0.031 A 
ATOM     29  C   UNL A   1      46.337  28.288  30.104  1.00  0.00     0.049 A 
ATOM     30  C   UNL A   1      40.976  29.812  29.666  1.00  0.00     0.074 A 
ATOM     31  C   UNL A   1      47.226  29.255  30.543  1.00  0.00     0.029 A 
ATOM     32  N   UNL A   1      45.084  28.879  30.082  1.00  0.00    -0.354 N 
ATOM     33  N   UNL A   1      42.262  29.606  29.812  1.00  0.00    -0.248 NA
ATOM     34  C   UNL A   1      40.528  31.154  30.059  1.00  0.00     0.031 C 
ATOM     35  C   UNL A   1      46.503  30.416  30.832  1.00  0.00     0.029 A 
ATOM     36  C   UNL A   1      45.172  30.190  30.520  1.00  0.00     0.049 A 
ATOM     37  H   UNL A   1      44.253  28.433  29.798  1.00  0.00     0.167 HD
ATOM     38  C   UNL A   1      42.781  30.802  30.291  1.00  0.00     0.074 A 
ATOM     39  C   UNL A   1      41.674  31.731  30.391  1.00  0.00     0.031 C 
ATOM     40  C   UNL A   1      44.062  31.103  30.616  1.00  0.00     0.031 A 
BRANCH  27  41
ATOM     41  C   UNL A   1      48.014  26.412  29.889  1.00  0.00    -0.014 A 
ATOM     42  C   UNL A   1      48.958  26.533  28.858  1.00  0.00     0.009 A 
ATOM     43  C   UNL A   1      48.412  25.838  31.107  1.00  0.00     0.009 A 
ATOM     44  C   UNL A   1      50.261  26.058  29.031  1.00  0.00     0.001 A 
ATOM     45  C   UNL A   1      49.722  25.389  31.287  1.00  0.00     0.001 A 
ATOM     46  C   UNL A   1      50.642  25.491  30.246  1.00  0.00     0.000 A 
ENDBRANCH  27  41
BRANCH  28  47
ATOM     47  C   UNL A   1      38.512  29.320  29.007  1.00  0.00    -0.014 A 
ATOM     48  C   UNL A   1      38.016  29.723  27.759  1.00  0.00     0.009 A 
ATOM     49  C   UNL A   1      37.654  29.333  30.118  1.00  0.00     0.009 A 
ATOM     50  C   UNL A   1      36.693  30.152  27.631  1.00  0.00     0.001 A 
ATOM     51  C   UNL A   1      36.325  29.734  29.981  1.00  0.00     0.001 A 
ATOM     52  C   UNL A   1      35.847  30.152  28.740  1.00  0.00     0.000 A 
ENDBRANCH  28  47
BRANCH  40  53
ATOM     53  C   UNL A   1      44.336  32.509  31.069  1.00  0.00    -0.014 A 
ATOM     54  C   UNL A   1      44.297  32.860  32.427  1.00  0.00     0.009 A 
ATOM     55  C   UNL A   1      44.653  33.493  30.119  1.00  0.00     0.009 A 
ATOM     56  C   UNL A   1      44.529  34.180  32.820  1.00  0.00     0.001 A 
ATOM     57  C   UNL A   1      44.913  34.803  30.517  1.00  0.00     0.001 A 
ATOM     58  C   UNL A   1      44.840  35.149  31.866  1.00  0.00     0.000 A 
ENDBRANCH  40  53
ENDBRANCH  14  15
ENDBRANCH   7   9
ENDBRANCH   4   5
ENDBRANCH   3   4
ENDBRANCH   2   3
ENDBRANCH   1   2
BRANCH   1  59
ATOM     59  C   UNL A   1      35.783  23.374  26.019  1.00  0.00     0.021 C 
BRANCH  59  60
ATOM     60  C   UNL A   1      35.185  24.751  25.760  1.00  0.00     0.116 C 
BRANCH  60  61
ATOM     61  N   UNL A   1      34.842  24.958  24.367  1.00  0.00    -0.356 N 
ATOM     62  C   UNL A   1      33.996  25.853  23.790  1.00  0.00     0.224 C 
ATOM     63  H   UNL A   1      35.294  24.353  23.737  1.00  0.00     0.163 HD
ATOM     64  O   UNL A   1      34.017  25.939  22.560  1.00  0.00    -0.275 OA
BRANCH  62  65
ATOM     65  C   UNL A   1      33.044  26.715  24.613  1.00  0.00     0.095 C 
ATOM     66  C   UNL A   1      33.778  27.922  25.224  1.00  0.00     0.041 C 
ATOM     67  C   UNL A   1      32.231  25.861  25.595  1.00  0.00     0.095 C 
ATOM     68  C   UNL A   1      33.128  28.495  26.444  1.00  0.00    -0.030 C 
ATOM     69  C   UNL A   1      31.390  26.707  26.570  1.00  0.00     0.041 C 
ATOM     70  C   UNL A   1      32.061  27.955  27.044  1.00  0.00    -0.030 C 
BRANCH  67  71
ATOM     71  C   UNL A   1      31.294  24.825  24.961  1.00  0.00     0.227 C 
ATOM     72  O   UNL A   1      30.194  25.171  24.528  1.00  0.00    -0.275 OA
ATOM     73  N   UNL A   1      31.854  23.598  24.648  1.00  0.00    -0.331 N 
ATOM     74  C   UNL A   1      31.628  23.083  23.303  1.00  0.00     0.181 C 
ATOM     75  C   UNL A   1      31.950  22.541  25.648  1.00  0.00     0.181 C 
ATOM     76  C   UNL A   1      32.663  22.002  22.919  1.00  0.00     0.284 C 
ATOM     77  C   UNL A   1      33.052  21.532  25.283  1.00  0.00     0.284 C 
ATOM     78  N   UNL A   1      32.958  20.968  23.926  1.00  0.00    -0.328 N 
ATOM     79  H   UNL A   1      33.892  20.633  23.695  1.00  0.00     0.348 HD
BRANCH  78  80
ATOM     80  C   UNL A   1      32.186  19.724  23.817  1.00  0.00     0.299 C 
BRANCH  80  81
ATOM     81  C   UNL A   1      32.841  18.471  24.352  1.00  0.00     0.010 A 
ATOM     82  C   UNL A   1      34.229  18.264  24.189  1.00  0.00     0.013 A 
ATOM     83  C   UNL A   1      32.057  17.461  24.939  1.00  0.00     0.060 A 
ATOM     84  C   UNL A   1      34.818  17.037  24.507  1.00  0.00     0.051 A 
ATOM     85  C   UNL A   1      32.663  16.259  25.235  1.00  0.00     0.166 A 
ATOM     86  C   UNL A   1      34.001  16.047  25.008  1.00  0.00     0.165 A 
ATOM     87  O   UNL A   1      32.035  15.152  25.714  1.00  0.00    -0.454 OA
ATOM     88  O   UNL A   1      34.385  14.778  25.311  1.00  0.00    -0.454 OA
ATOM     89  C   UNL A   1      33.118  14.199  25.686  1.00  0.00     0.468 C 
ENDBRANCH  80  81
ENDBRANCH  78  80
ENDBRANCH  67  71
ENDBRANCH  62  65
ENDBRANCH  60  61
ENDBRANCH  59  60
ENDBRANCH   1  59
TORSDOF 16
ENDMDL
