MODEL 1
REMARK VINA RESULT:     -11.4      0.000      0.000
REMARK SMILES O=C(NCCCCCCNC(=O)[C@H]1C[C@H]2CCCC[C@@H]2[N@@H+]1Cc1ccno1)c1ccc(-c2c3nc(c(-c4ccccc4)c4ccc([nH]4)c(-c4ccccc4)c4nc(c(-c5ccccc5)c5ccc2[nH]5)C=C4)C=C3)cc1
REMARK SMILES IDX 6 1 5 2 4 3 3 4 1 5 2 6 28 8 29 9 75 10 30 11 74 12 31 13
REMARK SMILES IDX 32 14 33 15 68 16 34 17 73 18 67 19 69 20 35 21 72 22 66 23
REMARK SMILES IDX 65 24 36 26 58 27 43 28 57 29 44 30 47 31 56 32 70 33 45 34
REMARK SMILES IDX 46 35 55 37 71 38 48 39 37 40 38 41 42 42 39 43 41 44 40 45
REMARK SMILES IDX 59 46 60 47 64 48 61 49 63 50 62 51 49 52 50 53 54 54 51 55
REMARK SMILES IDX 53 56 52 57 7 58 8 59 9 60 10 61 11 62 12 64 13 65 14 66
REMARK SMILES IDX 21 67 15 68 20 69 16 71 19 72 17 73 18 74 22 75 23 76 24 77
REMARK SMILES IDX 27 78 25 79 26 80
REMARK H PARENT 3 7 69 25 47 36 10 63 21 70
REMARK Flexibility Score: inf
ROOT
ATOM      1  C   UNL A   1      31.387  30.838  26.136  1.00  0.00     0.002 C 
ENDROOT
BRANCH   1   2
ATOM      2  C   UNL A   1      31.352  32.305  26.568  1.00  0.00     0.021 C 
BRANCH   2   3
ATOM      3  C   UNL A   1      32.626  32.786  27.249  1.00  0.00     0.116 C 
BRANCH   3   4
ATOM      4  N   UNL A   1      32.443  34.077  27.894  1.00  0.00    -0.352 N 
ATOM      5  O   UNL A   1      32.764  35.656  29.477  1.00  0.00    -0.269 OA
ATOM      6  C   UNL A   1      33.175  34.651  28.905  1.00  0.00     0.251 C 
ATOM      7  H   UNL A   1      31.690  34.615  27.560  1.00  0.00     0.163 HD
BRANCH   6   8
ATOM      8  C   UNL A   1      34.461  34.045  29.310  1.00  0.00     0.039 A 
ATOM      9  C   UNL A   1      35.629  34.336  28.603  1.00  0.00     0.014 A 
ATOM     10  C   UNL A   1      34.502  33.194  30.417  1.00  0.00     0.014 A 
ATOM     11  C   UNL A   1      36.808  33.674  28.918  1.00  0.00     0.010 A 
ATOM     12  C   UNL A   1      35.710  32.597  30.789  1.00  0.00     0.010 A 
ATOM     13  C   UNL A   1      36.868  32.815  30.029  1.00  0.00    -0.014 A 
BRANCH  13  14
ATOM     14  C   UNL A   1      38.178  32.230  30.407  1.00  0.00     0.031 A 
ATOM     15  C   UNL A   1      39.047  32.863  31.457  1.00  0.00     0.074 A 
ATOM     16  C   UNL A   1      38.553  31.075  29.823  1.00  0.00     0.049 A 
ATOM     17  N   UNL A   1      40.185  32.435  31.946  1.00  0.00    -0.248 NA
ATOM     18  C   UNL A   1      38.588  34.137  32.032  1.00  0.00     0.031 C 
ATOM     19  C   UNL A   1      37.796  30.374  28.780  1.00  0.00     0.029 A 
ATOM     20  N   UNL A   1      39.642  30.271  30.039  1.00  0.00    -0.354 N 
ATOM     21  C   UNL A   1      40.582  33.387  32.876  1.00  0.00     0.074 A 
ATOM     22  C   UNL A   1      39.579  34.432  32.863  1.00  0.00     0.031 C 
ATOM     23  C   UNL A   1      38.412  29.219  28.492  1.00  0.00     0.029 A 
ATOM     24  C   UNL A   1      39.636  29.127  29.278  1.00  0.00     0.049 A 
ATOM     25  H   UNL A   1      40.358  30.492  30.677  1.00  0.00     0.167 HD
ATOM     26  C   UNL A   1      41.678  33.387  33.672  1.00  0.00     0.031 A 
ATOM     27  C   UNL A   1      40.521  28.118  29.209  1.00  0.00     0.031 A 
ATOM     28  C   UNL A   1      42.681  32.353  33.674  1.00  0.00     0.049 A 
ATOM     29  C   UNL A   1      41.738  28.159  30.084  1.00  0.00     0.074 A 
ATOM     30  C   UNL A   1      43.827  32.262  34.446  1.00  0.00     0.029 A 
ATOM     31  N   UNL A   1      42.659  31.230  32.861  1.00  0.00    -0.354 N 
ATOM     32  N   UNL A   1      42.083  29.057  30.975  1.00  0.00    -0.248 NA
ATOM     33  C   UNL A   1      42.685  27.046  29.945  1.00  0.00     0.031 C 
ATOM     34  C   UNL A   1      44.519  31.106  34.069  1.00  0.00     0.029 A 
ATOM     35  C   UNL A   1      43.777  30.448  33.102  1.00  0.00     0.049 A 
ATOM     36  H   UNL A   1      41.952  31.018  32.209  1.00  0.00     0.167 HD
ATOM     37  C   UNL A   1      43.283  28.612  31.511  1.00  0.00     0.074 A 
ATOM     38  C   UNL A   1      43.587  27.349  30.868  1.00  0.00     0.031 C 
ATOM     39  C   UNL A   1      44.067  29.200  32.446  1.00  0.00     0.031 A 
BRANCH  26  40
ATOM     40  C   UNL A   1      41.861  34.552  34.604  1.00  0.00    -0.014 A 
ATOM     41  C   UNL A   1      42.532  35.714  34.189  1.00  0.00     0.009 A 
ATOM     42  C   UNL A   1      41.311  34.513  35.895  1.00  0.00     0.009 A 
ATOM     43  C   UNL A   1      42.670  36.801  35.057  1.00  0.00     0.001 A 
ATOM     44  C   UNL A   1      41.428  35.610  36.751  1.00  0.00     0.001 A 
ATOM     45  C   UNL A   1      42.113  36.750  36.334  1.00  0.00     0.000 A 
ENDBRANCH  26  40
BRANCH  27  46
ATOM     46  C   UNL A   1      40.296  26.998  28.260  1.00  0.00    -0.014 A 
ATOM     47  C   UNL A   1      40.830  27.034  26.963  1.00  0.00     0.009 A 
ATOM     48  C   UNL A   1      39.543  25.880  28.653  1.00  0.00     0.009 A 
ATOM     49  C   UNL A   1      40.592  25.985  26.072  1.00  0.00     0.001 A 
ATOM     50  C   UNL A   1      39.334  24.818  27.771  1.00  0.00     0.001 A 
ATOM     51  C   UNL A   1      39.850  24.877  26.478  1.00  0.00     0.000 A 
ENDBRANCH  27  46
BRANCH  39  52
ATOM     52  C   UNL A   1      45.316  28.464  32.839  1.00  0.00    -0.014 A 
ATOM     53  C   UNL A   1      45.304  27.517  33.877  1.00  0.00     0.009 A 
ATOM     54  C   UNL A   1      46.516  28.718  32.160  1.00  0.00     0.009 A 
ATOM     55  C   UNL A   1      46.481  26.869  34.251  1.00  0.00     0.001 A 
ATOM     56  C   UNL A   1      47.686  28.047  32.519  1.00  0.00     0.001 A 
ATOM     57  C   UNL A   1      47.671  27.132  33.572  1.00  0.00     0.000 A 
ENDBRANCH  39  52
ENDBRANCH  13  14
ENDBRANCH   6   8
ENDBRANCH   3   4
ENDBRANCH   2   3
ENDBRANCH   1   2
BRANCH   1  58
ATOM     58  C   UNL A   1      32.276  29.926  26.994  1.00  0.00     0.002 C 
BRANCH  58  59
ATOM     59  C   UNL A   1      31.635  28.601  27.425  1.00  0.00     0.021 C 
BRANCH  59  60
ATOM     60  C   UNL A   1      31.610  27.544  26.320  1.00  0.00     0.116 C 
BRANCH  60  61
ATOM     61  N   UNL A   1      31.363  26.222  26.855  1.00  0.00    -0.351 N 
ATOM     62  C   UNL A   1      31.863  24.995  26.554  1.00  0.00     0.278 C 
ATOM     63  H   UNL A   1      30.700  26.208  27.583  1.00  0.00     0.163 HD
ATOM     64  O   UNL A   1      31.406  24.056  27.222  1.00  0.00    -0.268 OA
BRANCH  62  65
ATOM     65  C   UNL A   1      32.855  24.687  25.415  1.00  0.00     0.275 C 
ATOM     66  C   UNL A   1      34.305  25.032  25.801  1.00  0.00     0.085 C 
ATOM     67  N   UNL A   1      32.868  23.266  24.965  1.00  0.00    -0.316 N 
ATOM     68  C   UNL A   1      35.116  23.956  25.094  1.00  0.00     0.054 C 
ATOM     69  C   UNL A   1      34.208  22.751  25.264  1.00  0.00     0.188 C 
ATOM     70  H   UNL A   1      32.204  22.686  25.478  1.00  0.00     0.349 HD
ATOM     71  C   UNL A   1      36.511  23.675  25.632  1.00  0.00     0.010 C 
ATOM     72  C   UNL A   1      34.740  21.481  24.612  1.00  0.00     0.065 C 
ATOM     73  C   UNL A   1      37.084  22.426  24.952  1.00  0.00     0.001 C 
ATOM     74  C   UNL A   1      36.167  21.206  25.102  1.00  0.00     0.006 C 
BRANCH  67  75
ATOM     75  C   UNL A   1      32.312  23.056  23.619  1.00  0.00     0.342 C 
BRANCH  75  76
ATOM     76  C   UNL A   1      32.318  24.221  22.689  1.00  0.00     0.190 A 
ATOM     77  C   UNL A   1      31.485  25.292  22.457  1.00  0.00     0.075 A 
ATOM     78  O   UNL A   1      33.401  24.327  21.864  1.00  0.00    -0.355 OA
ATOM     79  C   UNL A   1      32.104  25.994  21.411  1.00  0.00     0.158 A 
ATOM     80  N   UNL A   1      33.257  25.435  21.046  1.00  0.00    -0.088 NA
ENDBRANCH  75  76
ENDBRANCH  67  75
ENDBRANCH  62  65
ENDBRANCH  60  61
ENDBRANCH  59  60
ENDBRANCH  58  59
ENDBRANCH   1  58
TORSDOF 15
ENDMDL
MODEL 2
REMARK VINA RESULT:     -11.4      2.723      7.171
REMARK SMILES O=C(NCCCCCCNC(=O)[C@H]1C[C@H]2CCCC[C@@H]2[N@@H+]1Cc1ccno1)c1ccc(-c2c3nc(c(-c4ccccc4)c4ccc([nH]4)c(-c4ccccc4)c4nc(c(-c5ccccc5)c5ccc2[nH]5)C=C4)C=C3)cc1
REMARK SMILES IDX 6 1 5 2 4 3 3 4 1 5 2 6 28 8 29 9 75 10 30 11 74 12 31 13
REMARK SMILES IDX 32 14 33 15 68 16 34 17 73 18 67 19 69 20 35 21 72 22 66 23
REMARK SMILES IDX 65 24 36 26 58 27 43 28 57 29 44 30 47 31 56 32 70 33 45 34
REMARK SMILES IDX 46 35 55 37 71 38 48 39 37 40 38 41 42 42 39 43 41 44 40 45
REMARK SMILES IDX 59 46 60 47 64 48 61 49 63 50 62 51 49 52 50 53 54 54 51 55
REMARK SMILES IDX 53 56 52 57 7 58 8 59 9 60 10 61 11 62 12 64 13 65 14 66
REMARK SMILES IDX 21 67 15 68 20 69 16 71 19 72 17 73 18 74 22 75 23 76 24 77
REMARK SMILES IDX 27 78 25 79 26 80
REMARK H PARENT 3 7 69 25 47 36 10 63 21 70
REMARK Flexibility Score: inf
ROOT
ATOM      1  C   UNL A   1      31.781  28.822  25.657  1.00  0.00     0.002 C 
ENDROOT
BRANCH   1   2
ATOM      2  C   UNL A   1      32.438  28.007  26.773  1.00  0.00     0.021 C 
BRANCH   2   3
ATOM      3  C   UNL A   1      33.774  28.562  27.248  1.00  0.00     0.116 C 
BRANCH   3   4
ATOM      4  N   UNL A   1      33.678  29.965  27.620  1.00  0.00    -0.352 N 
ATOM      5  O   UNL A   1      34.267  31.857  28.704  1.00  0.00    -0.269 OA
ATOM      6  C   UNL A   1      34.588  30.748  28.287  1.00  0.00     0.251 C 
ATOM      7  H   UNL A   1      32.843  30.417  27.358  1.00  0.00     0.163 HD
BRANCH   6   8
ATOM      8  C   UNL A   1      35.960  30.244  28.510  1.00  0.00     0.039 A 
ATOM      9  C   UNL A   1      36.922  30.356  27.504  1.00  0.00     0.014 A 
ATOM     10  C   UNL A   1      36.291  29.672  29.741  1.00  0.00     0.014 A 
ATOM     11  C   UNL A   1      38.172  29.777  27.679  1.00  0.00     0.010 A 
ATOM     12  C   UNL A   1      37.579  29.170  29.948  1.00  0.00     0.010 A 
ATOM     13  C   UNL A   1      38.523  29.198  28.911  1.00  0.00    -0.014 A 
BRANCH  13  14
ATOM     14  C   UNL A   1      39.911  28.708  29.098  1.00  0.00     0.031 A 
ATOM     15  C   UNL A   1      40.314  27.318  28.694  1.00  0.00     0.074 A 
ATOM     16  C   UNL A   1      40.827  29.563  29.593  1.00  0.00     0.049 A 
ATOM     17  N   UNL A   1      41.502  26.766  28.731  1.00  0.00    -0.248 NA
ATOM     18  C   UNL A   1      39.256  26.431  28.188  1.00  0.00     0.031 C 
ATOM     19  C   UNL A   1      40.548  30.934  30.032  1.00  0.00     0.029 A 
ATOM     20  N   UNL A   1      42.177  29.422  29.783  1.00  0.00    -0.354 N 
ATOM     21  C   UNL A   1      41.335  25.470  28.263  1.00  0.00     0.074 A 
ATOM     22  C   UNL A   1      39.925  25.305  27.975  1.00  0.00     0.031 C 
ATOM     23  C   UNL A   1      41.699  31.525  30.383  1.00  0.00     0.029 A 
ATOM     24  C   UNL A   1      42.784  30.561  30.256  1.00  0.00     0.049 A 
ATOM     25  H   UNL A   1      42.664  28.587  29.598  1.00  0.00     0.167 HD
ATOM     26  C   UNL A   1      42.271  24.508  28.082  1.00  0.00     0.031 A 
ATOM     27  C   UNL A   1      44.070  30.803  30.565  1.00  0.00     0.031 A 
ATOM     28  C   UNL A   1      43.672  24.670  28.381  1.00  0.00     0.049 A 
ATOM     29  C   UNL A   1      45.079  29.709  30.380  1.00  0.00     0.074 A 
ATOM     30  C   UNL A   1      44.699  23.754  28.231  1.00  0.00     0.029 A 
ATOM     31  N   UNL A   1      44.240  25.826  28.895  1.00  0.00    -0.354 N 
ATOM     32  N   UNL A   1      44.904  28.497  29.911  1.00  0.00    -0.248 NA
ATOM     33  C   UNL A   1      46.462  30.019  30.761  1.00  0.00     0.031 C 
ATOM     34  C   UNL A   1      45.882  24.342  28.693  1.00  0.00     0.029 A 
ATOM     35  C   UNL A   1      45.601  25.642  29.080  1.00  0.00     0.049 A 
ATOM     36  H   UNL A   1      43.750  26.655  29.097  1.00  0.00     0.167 HD
ATOM     37  C   UNL A   1      46.157  27.902  29.934  1.00  0.00     0.074 A 
ATOM     38  C   UNL A   1      47.086  28.898  30.429  1.00  0.00     0.031 C 
ATOM     39  C   UNL A   1      46.507  26.641  29.583  1.00  0.00     0.031 A 
BRANCH  26  40
ATOM     40  C   UNL A   1      41.811  23.180  27.548  1.00  0.00    -0.014 A 
ATOM     41  C   UNL A   1      41.771  22.929  26.167  1.00  0.00     0.009 A 
ATOM     42  C   UNL A   1      41.465  22.148  28.434  1.00  0.00     0.009 A 
ATOM     43  C   UNL A   1      41.369  21.681  25.685  1.00  0.00     0.001 A 
ATOM     44  C   UNL A   1      41.089  20.893  27.950  1.00  0.00     0.001 A 
ATOM     45  C   UNL A   1      41.033  20.663  26.577  1.00  0.00     0.000 A 
ENDBRANCH  26  40
BRANCH  27  46
ATOM     46  C   UNL A   1      44.465  32.129  31.103  1.00  0.00    -0.014 A 
ATOM     47  C   UNL A   1      44.862  33.165  30.245  1.00  0.00     0.009 A 
ATOM     48  C   UNL A   1      44.443  32.365  32.488  1.00  0.00     0.009 A 
ATOM     49  C   UNL A   1      45.253  34.401  30.764  1.00  0.00     0.001 A 
ATOM     50  C   UNL A   1      44.803  33.612  33.001  1.00  0.00     0.001 A 
ATOM     51  C   UNL A   1      45.218  34.625  32.140  1.00  0.00     0.000 A 
ENDBRANCH  27  46
BRANCH  39  52
ATOM     52  C   UNL A   1      47.962  26.286  29.704  1.00  0.00    -0.014 A 
ATOM     53  C   UNL A   1      48.489  25.790  30.908  1.00  0.00     0.009 A 
ATOM     54  C   UNL A   1      48.811  26.445  28.600  1.00  0.00     0.009 A 
ATOM     55  C   UNL A   1      49.850  25.499  31.012  1.00  0.00     0.001 A 
ATOM     56  C   UNL A   1      50.166  26.126  28.700  1.00  0.00     0.001 A 
ATOM     57  C   UNL A   1      50.687  25.665  29.909  1.00  0.00     0.000 A 
ENDBRANCH  39  52
ENDBRANCH  13  14
ENDBRANCH   6   8
ENDBRANCH   3   4
ENDBRANCH   2   3
ENDBRANCH   1   2
BRANCH   1  58
ATOM     58  C   UNL A   1      31.494  28.046  24.364  1.00  0.00     0.002 C 
BRANCH  58  59
ATOM     59  C   UNL A   1      30.434  26.942  24.482  1.00  0.00     0.021 C 
BRANCH  59  60
ATOM     60  C   UNL A   1      30.727  25.716  23.617  1.00  0.00     0.116 C 
BRANCH  60  61
ATOM     61  N   UNL A   1      31.937  25.890  22.842  1.00  0.00    -0.351 N 
ATOM     62  C   UNL A   1      33.145  25.268  22.861  1.00  0.00     0.278 C 
ATOM     63  H   UNL A   1      31.872  26.600  22.163  1.00  0.00     0.163 HD
ATOM     64  O   UNL A   1      33.975  25.692  22.045  1.00  0.00    -0.268 OA
BRANCH  62  65
ATOM     65  C   UNL A   1      33.571  24.173  23.859  1.00  0.00     0.275 C 
ATOM     66  C   UNL A   1      34.428  23.082  23.191  1.00  0.00     0.085 C 
ATOM     67  N   UNL A   1      34.356  24.664  25.028  1.00  0.00    -0.316 N 
ATOM     68  C   UNL A   1      35.407  22.691  24.289  1.00  0.00     0.054 C 
ATOM     69  C   UNL A   1      35.679  24.041  24.928  1.00  0.00     0.188 C 
ATOM     70  H   UNL A   1      34.499  25.674  25.007  1.00  0.00     0.349 HD
ATOM     71  C   UNL A   1      36.699  22.016  23.855  1.00  0.00     0.010 C 
ATOM     72  C   UNL A   1      36.626  23.979  26.120  1.00  0.00     0.065 C 
ATOM     73  C   UNL A   1      37.648  21.901  25.054  1.00  0.00     0.001 C 
ATOM     74  C   UNL A   1      37.918  23.256  25.719  1.00  0.00     0.006 C 
BRANCH  67  75
ATOM     75  C   UNL A   1      33.635  24.596  26.309  1.00  0.00     0.342 C 
BRANCH  75  76
ATOM     76  C   UNL A   1      32.352  23.835  26.329  1.00  0.00     0.190 A 
ATOM     77  C   UNL A   1      31.851  22.743  25.658  1.00  0.00     0.075 A 
ATOM     78  O   UNL A   1      31.420  24.254  27.234  1.00  0.00    -0.355 OA
ATOM     79  C   UNL A   1      30.554  22.584  26.171  1.00  0.00     0.158 A 
ATOM     80  N   UNL A   1      30.280  23.476  27.122  1.00  0.00    -0.088 NA
ENDBRANCH  75  76
ENDBRANCH  67  75
ENDBRANCH  62  65
ENDBRANCH  60  61
ENDBRANCH  59  60
ENDBRANCH  58  59
ENDBRANCH   1  58
TORSDOF 15
ENDMDL
MODEL 3
REMARK VINA RESULT:     -11.3      2.599      7.086
REMARK SMILES O=C(NCCCCCCNC(=O)[C@H]1C[C@H]2CCCC[C@@H]2[N@@H+]1Cc1ccno1)c1ccc(-c2c3nc(c(-c4ccccc4)c4ccc([nH]4)c(-c4ccccc4)c4nc(c(-c5ccccc5)c5ccc2[nH]5)C=C4)C=C3)cc1
REMARK SMILES IDX 6 1 5 2 4 3 3 4 1 5 2 6 28 8 29 9 75 10 30 11 74 12 31 13
REMARK SMILES IDX 32 14 33 15 68 16 34 17 73 18 67 19 69 20 35 21 72 22 66 23
REMARK SMILES IDX 65 24 36 26 58 27 43 28 57 29 44 30 47 31 56 32 70 33 45 34
REMARK SMILES IDX 46 35 55 37 71 38 48 39 37 40 38 41 42 42 39 43 41 44 40 45
REMARK SMILES IDX 59 46 60 47 64 48 61 49 63 50 62 51 49 52 50 53 54 54 51 55
REMARK SMILES IDX 53 56 52 57 7 58 8 59 9 60 10 61 11 62 12 64 13 65 14 66
REMARK SMILES IDX 21 67 15 68 20 69 16 71 19 72 17 73 18 74 22 75 23 76 24 77
REMARK SMILES IDX 27 78 25 79 26 80
REMARK H PARENT 3 7 69 25 47 36 10 63 21 70
REMARK Flexibility Score: inf
ROOT
ATOM      1  C   UNL A   1      31.974  27.691  26.659  1.00  0.00     0.002 C 
ENDROOT
BRANCH   1   2
ATOM      2  C   UNL A   1      33.500  27.749  26.753  1.00  0.00     0.021 C 
BRANCH   2   3
ATOM      3  C   UNL A   1      34.130  28.898  25.977  1.00  0.00     0.116 C 
BRANCH   3   4
ATOM      4  N   UNL A   1      33.874  30.184  26.607  1.00  0.00    -0.352 N 
ATOM      5  O   UNL A   1      34.087  31.788  28.182  1.00  0.00    -0.269 OA
ATOM      6  C   UNL A   1      34.557  30.800  27.627  1.00  0.00     0.251 C 
ATOM      7  H   UNL A   1      33.102  30.683  26.253  1.00  0.00     0.163 HD
BRANCH   6   8
ATOM      8  C   UNL A   1      35.861  30.259  28.064  1.00  0.00     0.039 A 
ATOM      9  C   UNL A   1      35.980  29.625  29.302  1.00  0.00     0.014 A 
ATOM     10  C   UNL A   1      36.969  30.369  27.220  1.00  0.00     0.014 A 
ATOM     11  C   UNL A   1      37.230  29.224  29.754  1.00  0.00     0.010 A 
ATOM     12  C   UNL A   1      38.211  29.883  27.639  1.00  0.00     0.010 A 
ATOM     13  C   UNL A   1      38.356  29.326  28.919  1.00  0.00    -0.014 A 
BRANCH  13  14
ATOM     14  C   UNL A   1      39.647  28.767  29.390  1.00  0.00     0.031 A 
ATOM     15  C   UNL A   1      40.134  27.422  28.930  1.00  0.00     0.074 A 
ATOM     16  C   UNL A   1      40.409  29.521  30.206  1.00  0.00     0.049 A 
ATOM     17  N   UNL A   1      41.270  26.826  29.200  1.00  0.00    -0.248 NA
ATOM     18  C   UNL A   1      39.238  26.641  28.064  1.00  0.00     0.031 C 
ATOM     19  C   UNL A   1      40.033  30.839  30.729  1.00  0.00     0.029 A 
ATOM     20  N   UNL A   1      41.664  29.309  30.715  1.00  0.00    -0.354 N 
ATOM     21  C   UNL A   1      41.223  25.603  28.544  1.00  0.00     0.074 A 
ATOM     22  C   UNL A   1      39.934  25.526  27.889  1.00  0.00     0.031 C 
ATOM     23  C   UNL A   1      41.057  31.341  31.433  1.00  0.00     0.029 A 
ATOM     24  C   UNL A   1      42.133  30.359  31.466  1.00  0.00     0.049 A 
ATOM     25  H   UNL A   1      42.178  28.485  30.557  1.00  0.00     0.167 HD
ATOM     26  C   UNL A   1      42.170  24.636  28.489  1.00  0.00     0.031 A 
ATOM     27  C   UNL A   1      43.297  30.515  32.121  1.00  0.00     0.031 A 
ATOM     28  C   UNL A   1      43.447  24.709  29.153  1.00  0.00     0.049 A 
ATOM     29  C   UNL A   1      44.315  29.415  32.062  1.00  0.00     0.074 A 
ATOM     30  C   UNL A   1      44.474  23.780  29.155  1.00  0.00     0.029 A 
ATOM     31  N   UNL A   1      43.870  25.772  29.936  1.00  0.00    -0.354 N 
ATOM     32  N   UNL A   1      44.261  28.275  31.416  1.00  0.00    -0.248 NA
ATOM     33  C   UNL A   1      45.555  29.626  32.820  1.00  0.00     0.031 C 
ATOM     34  C   UNL A   1      45.501  24.264  29.973  1.00  0.00     0.029 A 
ATOM     35  C   UNL A   1      45.135  25.517  30.437  1.00  0.00     0.049 A 
ATOM     36  H   UNL A   1      43.348  26.589  30.109  1.00  0.00     0.167 HD
ATOM     37  C   UNL A   1      45.464  27.636  31.682  1.00  0.00     0.074 A 
ATOM     38  C   UNL A   1      46.238  28.530  32.519  1.00  0.00     0.031 C 
ATOM     39  C   UNL A   1      45.886  26.415  31.276  1.00  0.00     0.031 A 
BRANCH  26  40
ATOM     40  C   UNL A   1      41.857  23.400  27.692  1.00  0.00    -0.014 A 
ATOM     41  C   UNL A   1      42.280  23.270  26.359  1.00  0.00     0.009 A 
ATOM     42  C   UNL A   1      41.178  22.328  28.294  1.00  0.00     0.009 A 
ATOM     43  C   UNL A   1      42.007  22.104  25.639  1.00  0.00     0.001 A 
ATOM     44  C   UNL A   1      40.930  21.154  27.581  1.00  0.00     0.001 A 
ATOM     45  C   UNL A   1      41.337  21.046  26.252  1.00  0.00     0.000 A 
ENDBRANCH  26  40
BRANCH  27  46
ATOM     46  C   UNL A   1      43.547  31.751  32.904  1.00  0.00    -0.014 A 
ATOM     47  C   UNL A   1      44.167  32.863  32.317  1.00  0.00     0.009 A 
ATOM     48  C   UNL A   1      43.160  31.823  34.253  1.00  0.00     0.009 A 
ATOM     49  C   UNL A   1      44.417  34.013  33.069  1.00  0.00     0.001 A 
ATOM     50  C   UNL A   1      43.381  32.985  34.994  1.00  0.00     0.001 A 
ATOM     51  C   UNL A   1      44.019  34.074  34.405  1.00  0.00     0.000 A 
ENDBRANCH  27  46
BRANCH  39  52
ATOM     52  C   UNL A   1      47.259  25.994  31.718  1.00  0.00    -0.014 A 
ATOM     53  C   UNL A   1      48.376  26.171  30.885  1.00  0.00     0.009 A 
ATOM     54  C   UNL A   1      47.435  25.419  32.985  1.00  0.00     0.009 A 
ATOM     55  C   UNL A   1      49.637  25.742  31.299  1.00  0.00     0.001 A 
ATOM     56  C   UNL A   1      48.703  25.016  33.407  1.00  0.00     0.001 A 
ATOM     57  C   UNL A   1      49.801  25.167  32.559  1.00  0.00     0.000 A 
ENDBRANCH  39  52
ENDBRANCH  13  14
ENDBRANCH   6   8
ENDBRANCH   3   4
ENDBRANCH   2   3
ENDBRANCH   1   2
BRANCH   1  58
ATOM     58  C   UNL A   1      31.419  26.658  25.668  1.00  0.00     0.002 C 
BRANCH  58  59
ATOM     59  C   UNL A   1      30.167  25.905  26.137  1.00  0.00     0.021 C 
BRANCH  59  60
ATOM     60  C   UNL A   1      30.221  24.400  25.871  1.00  0.00     0.116 C 
BRANCH  60  61
ATOM     61  N   UNL A   1      30.949  23.704  26.911  1.00  0.00    -0.351 N 
ATOM     62  C   UNL A   1      32.204  23.186  26.972  1.00  0.00     0.278 C 
ATOM     63  H   UNL A   1      30.432  23.581  27.740  1.00  0.00     0.163 HD
ATOM     64  O   UNL A   1      32.499  22.632  28.041  1.00  0.00    -0.268 OA
BRANCH  62  65
ATOM     65  C   UNL A   1      33.217  23.155  25.810  1.00  0.00     0.275 C 
ATOM     66  C   UNL A   1      34.307  24.231  25.964  1.00  0.00     0.085 C 
ATOM     67  N   UNL A   1      33.931  21.857  25.638  1.00  0.00    -0.316 N 
ATOM     68  C   UNL A   1      35.544  23.555  25.389  1.00  0.00     0.054 C 
ATOM     69  C   UNL A   1      35.350  22.132  25.882  1.00  0.00     0.188 C 
ATOM     70  H   UNL A   1      33.641  21.157  26.320  1.00  0.00     0.349 HD
ATOM     71  C   UNL A   1      36.896  24.108  25.816  1.00  0.00     0.010 C 
ATOM     72  C   UNL A   1      36.440  21.169  25.428  1.00  0.00     0.065 C 
ATOM     73  C   UNL A   1      38.010  23.175  25.326  1.00  0.00     0.001 C 
ATOM     74  C   UNL A   1      37.817  21.731  25.803  1.00  0.00     0.006 C 
BRANCH  67  75
ATOM     75  C   UNL A   1      33.550  21.118  24.425  1.00  0.00     0.342 C 
BRANCH  75  76
ATOM     76  C   UNL A   1      33.351  19.645  24.558  1.00  0.00     0.190 A 
ATOM     77  C   UNL A   1      34.171  18.540  24.524  1.00  0.00     0.075 A 
ATOM     78  O   UNL A   1      32.074  19.232  24.807  1.00  0.00    -0.355 OA
ATOM     79  C   UNL A   1      33.299  17.455  24.703  1.00  0.00     0.158 A 
ATOM     80  N   UNL A   1      32.039  17.849  24.881  1.00  0.00    -0.088 NA
ENDBRANCH  75  76
ENDBRANCH  67  75
ENDBRANCH  62  65
ENDBRANCH  60  61
ENDBRANCH  59  60
ENDBRANCH  58  59
ENDBRANCH   1  58
TORSDOF 15
ENDMDL
