MODEL 1
REMARK VINA RESULT:     -10.8      0.000      0.000
REMARK SMILES O=C(NCCCCCCNC(=O)[C@H]1CC[C@@H](CNc2ccccc2C(F)(F)F)O1)c1ccc(-c2c3nc(c(-c4ccccc4)c4ccc([nH]4)c(-c4ccccc4)c4nc(c(-c5ccccc5)c5ccc2[nH]5)C=C4)C=C3)cc1
REMARK SMILES IDX 7 1 6 2 5 3 4 4 3 5 1 6 2 7 30 9 31 10 77 11 32 12 76 13
REMARK SMILES IDX 33 14 34 15 35 16 70 17 36 18 75 19 69 20 71 21 37 22 74 23
REMARK SMILES IDX 68 24 67 25 38 27 60 28 45 29 59 30 46 31 49 32 58 33 72 34
REMARK SMILES IDX 47 35 48 36 57 38 73 39 50 40 39 41 40 42 44 43 41 44 43 45
REMARK SMILES IDX 42 46 61 47 62 48 66 49 63 50 65 51 64 52 51 53 52 54 56 55
REMARK SMILES IDX 53 56 55 57 54 58 8 59 9 60 10 61 11 62 12 64 13 65 14 66
REMARK SMILES IDX 29 67 15 68 16 69 17 70 18 71 19 73 20 74 24 75 21 76 23 77
REMARK SMILES IDX 22 78 25 79 26 80 27 81 28 82
REMARK H PARENT 3 8 71 26 49 37 10 63 18 72
REMARK Flexibility Score: inf
ROOT
ATOM      1  C   UNL A   1      34.716  33.170  28.889  1.00  0.00     0.002 C 
ENDROOT
BRANCH   1   2
ATOM      2  C   UNL A   1      34.409  34.551  28.303  1.00  0.00     0.002 C 
BRANCH   2   3
ATOM      3  C   UNL A   1      33.118  35.213  28.786  1.00  0.00     0.021 C 
BRANCH   3   4
ATOM      4  C   UNL A   1      33.293  36.310  29.827  1.00  0.00     0.116 C 
BRANCH   4   5
ATOM      5  N   UNL A   1      32.322  36.236  30.905  1.00  0.00    -0.352 N 
ATOM      6  O   UNL A   1      31.439  35.528  32.859  1.00  0.00    -0.269 OA
ATOM      7  C   UNL A   1      32.413  35.588  32.114  1.00  0.00     0.251 C 
ATOM      8  H   UNL A   1      31.479  36.720  30.747  1.00  0.00     0.163 HD
BRANCH   7   9
ATOM      9  C   UNL A   1      33.680  34.930  32.506  1.00  0.00     0.039 A 
ATOM     10  C   UNL A   1      34.886  35.634  32.495  1.00  0.00     0.014 A 
ATOM     11  C   UNL A   1      33.658  33.584  32.886  1.00  0.00     0.014 A 
ATOM     12  C   UNL A   1      36.082  34.958  32.714  1.00  0.00     0.010 A 
ATOM     13  C   UNL A   1      34.855  32.928  33.192  1.00  0.00     0.010 A 
ATOM     14  C   UNL A   1      36.081  33.599  33.071  1.00  0.00    -0.014 A 
BRANCH  14  15
ATOM     15  C   UNL A   1      37.372  32.922  33.356  1.00  0.00     0.031 A 
ATOM     16  C   UNL A   1      38.107  33.153  34.648  1.00  0.00     0.074 A 
ATOM     17  C   UNL A   1      37.860  32.053  32.449  1.00  0.00     0.049 A 
ATOM     18  N   UNL A   1      39.210  32.590  35.077  1.00  0.00    -0.248 NA
ATOM     19  C   UNL A   1      37.542  34.146  35.574  1.00  0.00     0.031 C 
ATOM     20  C   UNL A   1      37.242  31.747  31.157  1.00  0.00     0.029 A 
ATOM     21  N   UNL A   1      38.968  31.247  32.488  1.00  0.00    -0.354 N 
ATOM     22  C   UNL A   1      39.483  33.176  36.307  1.00  0.00     0.074 A 
ATOM     23  C   UNL A   1      38.442  34.152  36.548  1.00  0.00     0.031 C 
ATOM     24  C   UNL A   1      37.942  30.774  30.556  1.00  0.00     0.029 A 
ATOM     25  C   UNL A   1      39.089  30.431  31.390  1.00  0.00     0.049 A 
ATOM     26  H   UNL A   1      39.615  31.252  33.230  1.00  0.00     0.167 HD
ATOM     27  C   UNL A   1      40.506  32.921  37.160  1.00  0.00     0.031 A 
ATOM     28  C   UNL A   1      40.019  29.511  31.081  1.00  0.00     0.031 A 
ATOM     29  C   UNL A   1      41.538  31.945  36.925  1.00  0.00     0.049 A 
ATOM     30  C   UNL A   1      41.150  29.265  32.034  1.00  0.00     0.074 A 
ATOM     31  C   UNL A   1      42.591  31.587  37.750  1.00  0.00     0.029 A 
ATOM     32  N   UNL A   1      41.652  31.176  35.777  1.00  0.00    -0.354 N 
ATOM     33  N   UNL A   1      41.369  29.799  33.211  1.00  0.00    -0.248 NA
ATOM     34  C   UNL A   1      42.164  28.289  31.612  1.00  0.00     0.031 C 
ATOM     35  C   UNL A   1      43.370  30.635  37.080  1.00  0.00     0.029 A 
ATOM     36  C   UNL A   1      42.771  30.364  35.860  1.00  0.00     0.049 A 
ATOM     37  H   UNL A   1      41.029  31.202  35.015  1.00  0.00     0.167 HD
ATOM     38  C   UNL A   1      42.536  29.211  33.679  1.00  0.00     0.074 A 
ATOM     39  C   UNL A   1      42.966  28.266  32.667  1.00  0.00     0.031 C 
ATOM     40  C   UNL A   1      43.192  29.436  34.843  1.00  0.00     0.031 A 
BRANCH  27  41
ATOM     41  C   UNL A   1      40.577  33.738  38.421  1.00  0.00    -0.014 A 
ATOM     42  C   UNL A   1      41.262  34.961  38.464  1.00  0.00     0.009 A 
ATOM     43  C   UNL A   1      39.912  33.292  39.575  1.00  0.00     0.009 A 
ATOM     44  C   UNL A   1      41.308  35.705  39.645  1.00  0.00     0.001 A 
ATOM     45  C   UNL A   1      39.939  34.050  40.747  1.00  0.00     0.001 A 
ATOM     46  C   UNL A   1      40.644  35.251  40.785  1.00  0.00     0.000 A 
ENDBRANCH  27  41
BRANCH  28  47
ATOM     47  C   UNL A   1      39.910  28.748  29.812  1.00  0.00    -0.014 A 
ATOM     48  C   UNL A   1      40.380  29.297  28.610  1.00  0.00     0.009 A 
ATOM     49  C   UNL A   1      39.349  27.460  29.799  1.00  0.00     0.009 A 
ATOM     50  C   UNL A   1      40.277  28.578  27.417  1.00  0.00     0.001 A 
ATOM     51  C   UNL A   1      39.273  26.733  28.611  1.00  0.00     0.001 A 
ATOM     52  C   UNL A   1      39.729  27.295  27.420  1.00  0.00     0.000 A 
ENDBRANCH  28  47
BRANCH  40  53
ATOM     53  C   UNL A   1      44.431  28.624  35.089  1.00  0.00    -0.014 A 
ATOM     54  C   UNL A   1      44.366  27.371  35.717  1.00  0.00     0.009 A 
ATOM     55  C   UNL A   1      45.678  29.118  34.676  1.00  0.00     0.009 A 
ATOM     56  C   UNL A   1      45.534  26.643  35.958  1.00  0.00     0.001 A 
ATOM     57  C   UNL A   1      46.840  28.376  34.894  1.00  0.00     0.001 A 
ATOM     58  C   UNL A   1      46.768  27.145  35.544  1.00  0.00     0.000 A 
ENDBRANCH  40  53
ENDBRANCH  14  15
ENDBRANCH   7   9
ENDBRANCH   4   5
ENDBRANCH   3   4
ENDBRANCH   2   3
ENDBRANCH   1   2
BRANCH   1  59
ATOM     59  C   UNL A   1      35.454  32.187  27.973  1.00  0.00     0.021 C 
BRANCH  59  60
ATOM     60  C   UNL A   1      35.033  30.725  28.079  1.00  0.00     0.116 C 
BRANCH  60  61
ATOM     61  N   UNL A   1      33.649  30.504  27.716  1.00  0.00    -0.354 N 
ATOM     62  C   UNL A   1      33.118  29.513  26.937  1.00  0.00     0.249 C 
ATOM     63  H   UNL A   1      33.004  31.154  28.076  1.00  0.00     0.163 HD
ATOM     64  O   UNL A   1      31.890  29.419  26.879  1.00  0.00    -0.272 OA
BRANCH  62  65
ATOM     65  C   UNL A   1      34.062  28.574  26.158  1.00  0.00     0.207 C 
ATOM     66  C   UNL A   1      33.612  27.124  26.194  1.00  0.00     0.045 C 
ATOM     67  O   UNL A   1      34.088  28.961  24.773  1.00  0.00    -0.363 OA
ATOM     68  C   UNL A   1      32.715  27.032  24.987  1.00  0.00     0.037 C 
ATOM     69  C   UNL A   1      33.407  27.949  23.990  1.00  0.00     0.138 C 
BRANCH  69  70
ATOM     70  C   UNL A   1      32.530  28.603  22.896  1.00  0.00     0.145 C 
BRANCH  70  71
ATOM     71  N   UNL A   1      31.294  27.876  22.592  1.00  0.00    -0.382 N 
ATOM     72  H   UNL A   1      31.327  26.916  22.373  1.00  0.00     0.160 HD
BRANCH  71  73
ATOM     73  C   UNL A   1      30.076  28.546  22.613  1.00  0.00     0.046 A 
ATOM     74  C   UNL A   1      30.017  29.811  21.996  1.00  0.00     0.026 A 
ATOM     75  C   UNL A   1      28.889  28.010  23.142  1.00  0.00     0.079 A 
ATOM     76  C   UNL A   1      28.825  30.527  21.887  1.00  0.00     0.002 A 
ATOM     77  C   UNL A   1      27.687  28.749  23.024  1.00  0.00     0.015 A 
ATOM     78  C   UNL A   1      27.653  29.993  22.401  1.00  0.00     0.001 A 
BRANCH  75  79
ATOM     79  C   UNL A   1      28.802  26.694  23.874  1.00  0.00     0.418 C 
ATOM     80  F   UNL A   1      29.562  26.693  25.012  1.00  0.00    -0.166 F 
ATOM     81  F   UNL A   1      27.531  26.429  24.298  1.00  0.00    -0.166 F 
ATOM     82  F   UNL A   1      29.197  25.585  23.190  1.00  0.00    -0.166 F 
ENDBRANCH  75  79
ENDBRANCH  71  73
ENDBRANCH  70  71
ENDBRANCH  69  70
ENDBRANCH  62  65
ENDBRANCH  60  61
ENDBRANCH  59  60
ENDBRANCH   1  59
TORSDOF 17
ENDMDL
MODEL 2
REMARK VINA RESULT:     -10.7      0.416      5.835
REMARK SMILES O=C(NCCCCCCNC(=O)[C@H]1CC[C@@H](CNc2ccccc2C(F)(F)F)O1)c1ccc(-c2c3nc(c(-c4ccccc4)c4ccc([nH]4)c(-c4ccccc4)c4nc(c(-c5ccccc5)c5ccc2[nH]5)C=C4)C=C3)cc1
REMARK SMILES IDX 7 1 6 2 5 3 4 4 3 5 1 6 2 7 30 9 31 10 77 11 32 12 76 13
REMARK SMILES IDX 33 14 34 15 35 16 70 17 36 18 75 19 69 20 71 21 37 22 74 23
REMARK SMILES IDX 68 24 67 25 38 27 60 28 45 29 59 30 46 31 49 32 58 33 72 34
REMARK SMILES IDX 47 35 48 36 57 38 73 39 50 40 39 41 40 42 44 43 41 44 43 45
REMARK SMILES IDX 42 46 61 47 62 48 66 49 63 50 65 51 64 52 51 53 52 54 56 55
REMARK SMILES IDX 53 56 55 57 54 58 8 59 9 60 10 61 11 62 12 64 13 65 14 66
REMARK SMILES IDX 29 67 15 68 16 69 17 70 18 71 19 73 20 74 24 75 21 76 23 77
REMARK SMILES IDX 22 78 25 79 26 80 27 81 28 82
REMARK H PARENT 3 8 71 26 49 37 10 63 18 72
REMARK Flexibility Score: inf
ROOT
ATOM      1  C   UNL A   1      34.416  32.469  28.901  1.00  0.00     0.002 C 
ENDROOT
BRANCH   1   2
ATOM      2  C   UNL A   1      34.077  33.744  28.123  1.00  0.00     0.002 C 
BRANCH   2   3
ATOM      3  C   UNL A   1      32.956  34.606  28.703  1.00  0.00     0.021 C 
BRANCH   3   4
ATOM      4  C   UNL A   1      33.408  35.835  29.480  1.00  0.00     0.116 C 
BRANCH   4   5
ATOM      5  N   UNL A   1      32.524  36.172  30.583  1.00  0.00    -0.352 N 
ATOM      6  O   UNL A   1      31.707  36.095  32.687  1.00  0.00    -0.269 OA
ATOM      7  C   UNL A   1      32.618  35.823  31.909  1.00  0.00     0.251 C 
ATOM      8  H   UNL A   1      31.748  36.730  30.346  1.00  0.00     0.163 HD
BRANCH   7   9
ATOM      9  C   UNL A   1      33.806  35.087  32.398  1.00  0.00     0.039 A 
ATOM     10  C   UNL A   1      35.067  35.686  32.403  1.00  0.00     0.014 A 
ATOM     11  C   UNL A   1      33.653  33.774  32.854  1.00  0.00     0.014 A 
ATOM     12  C   UNL A   1      36.190  34.928  32.717  1.00  0.00     0.010 A 
ATOM     13  C   UNL A   1      34.775  33.040  33.252  1.00  0.00     0.010 A 
ATOM     14  C   UNL A   1      36.058  33.599  33.151  1.00  0.00    -0.014 A 
BRANCH  14  15
ATOM     15  C   UNL A   1      37.273  32.836  33.535  1.00  0.00     0.031 A 
ATOM     16  C   UNL A   1      37.900  31.839  32.599  1.00  0.00     0.074 A 
ATOM     17  C   UNL A   1      37.839  33.083  34.733  1.00  0.00     0.049 A 
ATOM     18  N   UNL A   1      38.997  31.141  32.757  1.00  0.00    -0.248 NA
ATOM     19  C   UNL A   1      37.206  31.585  31.327  1.00  0.00     0.031 C 
ATOM     20  C   UNL A   1      37.325  34.023  35.731  1.00  0.00     0.029 A 
ATOM     21  N   UNL A   1      38.986  32.591  35.299  1.00  0.00    -0.354 N 
ATOM     22  C   UNL A   1      39.113  30.350  31.621  1.00  0.00     0.074 A 
ATOM     23  C   UNL A   1      37.964  30.639  30.789  1.00  0.00     0.031 C 
ATOM     24  C   UNL A   1      38.185  34.088  36.758  1.00  0.00     0.029 A 
ATOM     25  C   UNL A   1      39.278  33.153  36.519  1.00  0.00     0.049 A 
ATOM     26  H   UNL A   1      39.547  31.902  34.876  1.00  0.00     0.167 HD
ATOM     27  C   UNL A   1      40.089  29.466  31.298  1.00  0.00     0.031 A 
ATOM     28  C   UNL A   1      40.308  32.940  37.356  1.00  0.00     0.031 A 
ATOM     29  C   UNL A   1      41.236  29.183  32.121  1.00  0.00     0.049 A 
ATOM     30  C   UNL A   1      41.362  31.941  36.982  1.00  0.00     0.074 A 
ATOM     31  C   UNL A   1      42.298  28.334  31.858  1.00  0.00     0.029 A 
ATOM     32  N   UNL A   1      41.467  29.736  33.372  1.00  0.00    -0.354 N 
ATOM     33  N   UNL A   1      41.476  31.233  35.885  1.00  0.00    -0.248 NA
ATOM     34  C   UNL A   1      42.429  31.712  37.967  1.00  0.00     0.031 C 
ATOM     35  C   UNL A   1      43.148  28.338  32.971  1.00  0.00     0.029 A 
ATOM     36  C   UNL A   1      42.641  29.228  33.904  1.00  0.00     0.049 A 
ATOM     37  H   UNL A   1      40.884  30.393  33.815  1.00  0.00     0.167 HD
ATOM     38  C   UNL A   1      42.636  30.487  36.039  1.00  0.00     0.074 A 
ATOM     39  C   UNL A   1      43.199  30.845  37.325  1.00  0.00     0.031 C 
ATOM     40  C   UNL A   1      43.184  29.586  35.188  1.00  0.00     0.031 A 
BRANCH  27  41
ATOM     41  C   UNL A   1      39.942  28.712  30.005  1.00  0.00    -0.014 A 
ATOM     42  C   UNL A   1      40.420  29.235  28.794  1.00  0.00     0.009 A 
ATOM     43  C   UNL A   1      39.350  27.439  30.007  1.00  0.00     0.009 A 
ATOM     44  C   UNL A   1      40.278  28.513  27.606  1.00  0.00     0.001 A 
ATOM     45  C   UNL A   1      39.232  26.709  28.823  1.00  0.00     0.001 A 
ATOM     46  C   UNL A   1      39.687  27.250  27.622  1.00  0.00     0.000 A 
ENDBRANCH  27  41
BRANCH  28  47
ATOM     47  C   UNL A   1      40.391  33.698  38.630  1.00  0.00    -0.014 A 
ATOM     48  C   UNL A   1      41.078  34.920  38.687  1.00  0.00     0.009 A 
ATOM     49  C   UNL A   1      39.770  33.211  39.792  1.00  0.00     0.009 A 
ATOM     50  C   UNL A   1      41.155  35.631  39.887  1.00  0.00     0.001 A 
ATOM     51  C   UNL A   1      39.826  33.937  40.982  1.00  0.00     0.001 A 
ATOM     52  C   UNL A   1      40.524  35.143  41.031  1.00  0.00     0.000 A 
ENDBRANCH  28  47
BRANCH  40  53
ATOM     53  C   UNL A   1      44.472  28.945  35.619  1.00  0.00    -0.014 A 
ATOM     54  C   UNL A   1      45.712  29.527  35.312  1.00  0.00     0.009 A 
ATOM     55  C   UNL A   1      44.442  27.749  36.353  1.00  0.00     0.009 A 
ATOM     56  C   UNL A   1      46.899  28.902  35.702  1.00  0.00     0.001 A 
ATOM     57  C   UNL A   1      45.629  27.141  36.764  1.00  0.00     0.001 A 
ATOM     58  C   UNL A   1      46.856  27.712  36.429  1.00  0.00     0.000 A 
ENDBRANCH  40  53
ENDBRANCH  14  15
ENDBRANCH   7   9
ENDBRANCH   4   5
ENDBRANCH   3   4
ENDBRANCH   2   3
ENDBRANCH   1   2
BRANCH   1  59
ATOM     59  C   UNL A   1      35.383  31.492  28.223  1.00  0.00     0.021 C 
BRANCH  59  60
ATOM     60  C   UNL A   1      34.946  30.031  28.188  1.00  0.00     0.116 C 
BRANCH  60  61
ATOM     61  N   UNL A   1      33.566  29.861  27.784  1.00  0.00    -0.354 N 
ATOM     62  C   UNL A   1      33.040  28.964  26.896  1.00  0.00     0.249 C 
ATOM     63  H   UNL A   1      32.920  30.473  28.205  1.00  0.00     0.163 HD
ATOM     64  O   UNL A   1      31.813  28.886  26.812  1.00  0.00    -0.272 OA
BRANCH  62  65
ATOM     65  C   UNL A   1      33.989  28.108  26.032  1.00  0.00     0.207 C 
ATOM     66  C   UNL A   1      33.521  26.670  25.893  1.00  0.00     0.045 C 
ATOM     67  O   UNL A   1      34.048  28.651  24.702  1.00  0.00    -0.363 OA
ATOM     68  C   UNL A   1      32.649  26.729  24.666  1.00  0.00     0.037 C 
ATOM     69  C   UNL A   1      33.373  27.745  23.795  1.00  0.00     0.138 C 
BRANCH  69  70
ATOM     70  C   UNL A   1      32.526  28.533  22.766  1.00  0.00     0.145 C 
BRANCH  70  71
ATOM     71  N   UNL A   1      31.282  27.867  22.365  1.00  0.00    -0.382 N 
ATOM     72  H   UNL A   1      31.307  26.950  22.006  1.00  0.00     0.160 HD
BRANCH  71  73
ATOM     73  C   UNL A   1      30.070  28.536  22.492  1.00  0.00     0.046 A 
ATOM     74  C   UNL A   1      29.956  29.800  21.881  1.00  0.00     0.026 A 
ATOM     75  C   UNL A   1      28.935  28.000  23.123  1.00  0.00     0.079 A 
ATOM     76  C   UNL A   1      28.757  30.514  21.875  1.00  0.00     0.002 A 
ATOM     77  C   UNL A   1      27.726  28.737  23.111  1.00  0.00     0.015 A 
ATOM     78  C   UNL A   1      27.636  29.980  22.492  1.00  0.00     0.001 A 
BRANCH  75  79
ATOM     79  C   UNL A   1      28.915  26.685  23.863  1.00  0.00     0.418 C 
ATOM     80  F   UNL A   1      29.611  26.750  25.038  1.00  0.00    -0.166 F 
ATOM     81  F   UNL A   1      27.648  26.321  24.222  1.00  0.00    -0.166 F 
ATOM     82  F   UNL A   1      29.431  25.607  23.210  1.00  0.00    -0.166 F 
ENDBRANCH  75  79
ENDBRANCH  71  73
ENDBRANCH  70  71
ENDBRANCH  69  70
ENDBRANCH  62  65
ENDBRANCH  60  61
ENDBRANCH  59  60
ENDBRANCH   1  59
TORSDOF 17
ENDMDL
MODEL 3
REMARK VINA RESULT:     -10.6      4.004      8.777
REMARK SMILES O=C(NCCCCCCNC(=O)[C@H]1CC[C@@H](CNc2ccccc2C(F)(F)F)O1)c1ccc(-c2c3nc(c(-c4ccccc4)c4ccc([nH]4)c(-c4ccccc4)c4nc(c(-c5ccccc5)c5ccc2[nH]5)C=C4)C=C3)cc1
REMARK SMILES IDX 7 1 6 2 5 3 4 4 3 5 1 6 2 7 30 9 31 10 77 11 32 12 76 13
REMARK SMILES IDX 33 14 34 15 35 16 70 17 36 18 75 19 69 20 71 21 37 22 74 23
REMARK SMILES IDX 68 24 67 25 38 27 60 28 45 29 59 30 46 31 49 32 58 33 72 34
REMARK SMILES IDX 47 35 48 36 57 38 73 39 50 40 39 41 40 42 44 43 41 44 43 45
REMARK SMILES IDX 42 46 61 47 62 48 66 49 63 50 65 51 64 52 51 53 52 54 56 55
REMARK SMILES IDX 53 56 55 57 54 58 8 59 9 60 10 61 11 62 12 64 13 65 14 66
REMARK SMILES IDX 29 67 15 68 16 69 17 70 18 71 19 73 20 74 24 75 21 76 23 77
REMARK SMILES IDX 22 78 25 79 26 80 27 81 28 82
REMARK H PARENT 3 8 71 26 49 37 10 63 18 72
REMARK Flexibility Score: inf
ROOT
ATOM      1  C   UNL A   1      34.832  21.596  26.442  1.00  0.00     0.002 C 
ENDROOT
BRANCH   1   2
ATOM      2  C   UNL A   1      34.876  23.113  26.237  1.00  0.00     0.002 C 
BRANCH   2   3
ATOM      3  C   UNL A   1      36.258  23.761  26.326  1.00  0.00     0.021 C 
BRANCH   3   4
ATOM      4  C   UNL A   1      37.194  23.476  25.160  1.00  0.00     0.116 C 
BRANCH   4   5
ATOM      5  N   UNL A   1      38.268  22.559  25.499  1.00  0.00    -0.352 N 
ATOM      6  O   UNL A   1      40.298  21.931  26.264  1.00  0.00    -0.269 OA
ATOM      7  C   UNL A   1      39.440  22.805  26.174  1.00  0.00     0.251 C 
ATOM      8  H   UNL A   1      38.137  21.629  25.204  1.00  0.00     0.163 HD
BRANCH   7   9
ATOM      9  C   UNL A   1      39.686  24.139  26.767  1.00  0.00     0.039 A 
ATOM     10  C   UNL A   1      40.275  25.158  26.016  1.00  0.00     0.014 A 
ATOM     11  C   UNL A   1      39.321  24.371  28.097  1.00  0.00     0.014 A 
ATOM     12  C   UNL A   1      40.639  26.350  26.636  1.00  0.00     0.010 A 
ATOM     13  C   UNL A   1      39.609  25.602  28.694  1.00  0.00     0.010 A 
ATOM     14  C   UNL A   1      40.305  26.589  27.979  1.00  0.00    -0.014 A 
BRANCH  14  15
ATOM     15  C   UNL A   1      40.655  27.895  28.593  1.00  0.00     0.031 A 
ATOM     16  C   UNL A   1      39.624  28.974  28.779  1.00  0.00     0.074 A 
ATOM     17  C   UNL A   1      41.917  28.088  29.027  1.00  0.00     0.049 A 
ATOM     18  N   UNL A   1      39.752  30.143  29.357  1.00  0.00    -0.248 NA
ATOM     19  C   UNL A   1      38.278  28.715  28.244  1.00  0.00     0.031 C 
ATOM     20  C   UNL A   1      43.009  27.121  28.900  1.00  0.00     0.029 A 
ATOM     21  N   UNL A   1      42.484  29.146  29.688  1.00  0.00    -0.354 N 
ATOM     22  C   UNL A   1      38.517  30.767  29.233  1.00  0.00     0.074 A 
ATOM     23  C   UNL A   1      37.657  29.856  28.509  1.00  0.00     0.031 C 
ATOM     24  C   UNL A   1      44.096  27.601  29.522  1.00  0.00     0.029 A 
ATOM     25  C   UNL A   1      43.796  28.933  30.037  1.00  0.00     0.049 A 
ATOM     26  H   UNL A   1      42.000  29.978  29.893  1.00  0.00     0.167 HD
ATOM     27  C   UNL A   1      38.134  31.986  29.685  1.00  0.00     0.031 A 
ATOM     28  C   UNL A   1      44.665  29.718  30.695  1.00  0.00     0.031 A 
ATOM     29  C   UNL A   1      38.987  32.891  30.412  1.00  0.00     0.049 A 
ATOM     30  C   UNL A   1      44.219  31.071  31.165  1.00  0.00     0.074 A 
ATOM     31  C   UNL A   1      38.675  34.129  30.947  1.00  0.00     0.029 A 
ATOM     32  N   UNL A   1      40.323  32.657  30.700  1.00  0.00    -0.354 N 
ATOM     33  N   UNL A   1      43.036  31.627  31.076  1.00  0.00    -0.248 NA
ATOM     34  C   UNL A   1      45.233  31.904  31.826  1.00  0.00     0.031 C 
ATOM     35  C   UNL A   1      39.836  34.666  31.517  1.00  0.00     0.029 A 
ATOM     36  C   UNL A   1      40.856  33.739  31.382  1.00  0.00     0.049 A 
ATOM     37  H   UNL A   1      40.819  31.843  30.457  1.00  0.00     0.167 HD
ATOM     38  C   UNL A   1      43.157  32.868  31.684  1.00  0.00     0.074 A 
ATOM     39  C   UNL A   1      44.523  32.974  32.156  1.00  0.00     0.031 C 
ATOM     40  C   UNL A   1      42.219  33.834  31.837  1.00  0.00     0.031 A 
BRANCH  27  41
ATOM     41  C   UNL A   1      36.730  32.430  29.378  1.00  0.00    -0.014 A 
ATOM     42  C   UNL A   1      35.677  32.203  30.276  1.00  0.00     0.009 A 
ATOM     43  C   UNL A   1      36.467  33.123  28.185  1.00  0.00     0.009 A 
ATOM     44  C   UNL A   1      34.382  32.631  29.971  1.00  0.00     0.001 A 
ATOM     45  C   UNL A   1      35.178  33.572  27.895  1.00  0.00     0.001 A 
ATOM     46  C   UNL A   1      34.134  33.318  28.783  1.00  0.00     0.000 A 
ENDBRANCH  27  41
BRANCH  28  47
ATOM     47  C   UNL A   1      46.046  29.237  30.953  1.00  0.00    -0.014 A 
ATOM     48  C   UNL A   1      46.345  28.534  32.130  1.00  0.00     0.009 A 
ATOM     49  C   UNL A   1      47.067  29.464  30.016  1.00  0.00     0.009 A 
ATOM     50  C   UNL A   1      47.646  28.082  32.370  1.00  0.00     0.001 A 
ATOM     51  C   UNL A   1      48.358  28.987  30.246  1.00  0.00     0.001 A 
ATOM     52  C   UNL A   1      48.648  28.303  31.426  1.00  0.00     0.000 A 
ENDBRANCH  28  47
BRANCH  40  53
ATOM     53  C   UNL A   1      42.640  35.077  32.567  1.00  0.00    -0.014 A 
ATOM     54  C   UNL A   1      42.306  35.278  33.914  1.00  0.00     0.009 A 
ATOM     55  C   UNL A   1      43.393  36.055  31.897  1.00  0.00     0.009 A 
ATOM     56  C   UNL A   1      42.687  36.452  34.567  1.00  0.00     0.001 A 
ATOM     57  C   UNL A   1      43.794  37.215  32.560  1.00  0.00     0.001 A 
ATOM     58  C   UNL A   1      43.433  37.417  33.891  1.00  0.00     0.000 A 
ENDBRANCH  40  53
ENDBRANCH  14  15
ENDBRANCH   7   9
ENDBRANCH   4   5
ENDBRANCH   3   4
ENDBRANCH   2   3
ENDBRANCH   1   2
BRANCH   1  59
ATOM     59  C   UNL A   1      34.465  20.751  25.216  1.00  0.00     0.021 C 
BRANCH  59  60
ATOM     60  C   UNL A   1      32.978  20.477  25.011  1.00  0.00     0.116 C 
BRANCH  60  61
ATOM     61  N   UNL A   1      32.126  21.384  25.752  1.00  0.00    -0.354 N 
ATOM     62  C   UNL A   1      31.421  22.461  25.291  1.00  0.00     0.249 C 
ATOM     63  H   UNL A   1      32.044  21.201  26.716  1.00  0.00     0.163 HD
ATOM     64  O   UNL A   1      30.633  23.009  26.065  1.00  0.00    -0.272 OA
BRANCH  62  65
ATOM     65  C   UNL A   1      31.649  22.954  23.847  1.00  0.00     0.207 C 
ATOM     66  C   UNL A   1      30.551  23.886  23.364  1.00  0.00     0.045 C 
ATOM     67  O   UNL A   1      32.877  23.700  23.783  1.00  0.00    -0.363 OA
ATOM     68  C   UNL A   1      31.065  25.239  23.782  1.00  0.00     0.037 C 
ATOM     69  C   UNL A   1      32.566  25.100  23.577  1.00  0.00     0.138 C 
BRANCH  69  70
ATOM     70  C   UNL A   1      33.489  25.997  24.437  1.00  0.00     0.145 C 
BRANCH  70  71
ATOM     71  N   UNL A   1      33.397  27.429  24.136  1.00  0.00    -0.382 N 
ATOM     72  H   UNL A   1      33.471  27.744  23.205  1.00  0.00     0.160 HD
BRANCH  71  73
ATOM     73  C   UNL A   1      33.209  28.341  25.169  1.00  0.00     0.046 A 
ATOM     74  C   UNL A   1      34.186  28.389  26.182  1.00  0.00     0.026 A 
ATOM     75  C   UNL A   1      32.151  29.263  25.225  1.00  0.00     0.079 A 
ATOM     76  C   UNL A   1      34.137  29.325  27.215  1.00  0.00     0.002 A 
ATOM     77  C   UNL A   1      32.113  30.206  26.280  1.00  0.00     0.015 A 
ATOM     78  C   UNL A   1      33.096  30.240  27.264  1.00  0.00     0.001 A 
BRANCH  75  79
ATOM     79  C   UNL A   1      31.005  29.303  24.244  1.00  0.00     0.418 C 
ATOM     80  F   UNL A   1      31.442  29.296  22.948  1.00  0.00    -0.166 F 
ATOM     81  F   UNL A   1      30.203  28.202  24.352  1.00  0.00    -0.166 F 
ATOM     82  F   UNL A   1      30.167  30.373  24.323  1.00  0.00    -0.166 F 
ENDBRANCH  75  79
ENDBRANCH  71  73
ENDBRANCH  70  71
ENDBRANCH  69  70
ENDBRANCH  62  65
ENDBRANCH  60  61
ENDBRANCH  59  60
ENDBRANCH   1  59
TORSDOF 17
ENDMDL
