MODEL 1
REMARK VINA RESULT:      -9.9      0.000      0.000
REMARK SMILES CC[C@@H](C)CN(C)c1cccc(Cl)c1/C=C/C(=O)NCCCCCCNC(=O)c1ccc(-c2c3nc(c(-c4ccccc4)c4ccc([nH]4)c(-c4ccccc4)c4nc(c(-c5ccccc5)c5ccc2[nH]5)C=C4)C=C3)cc1
REMARK SMILES IDX 21 1 20 2 19 3 17 4 18 5 16 7 15 8 14 9 8 10 9 11 10 12
REMARK SMILES IDX 12 13 11 14 13 15 6 16 7 17 5 18 3 19 4 20 2 21 1 22 22 23
REMARK SMILES IDX 23 24 24 25 25 26 26 27 27 28 28 30 29 31 30 32 76 33 31 34
REMARK SMILES IDX 75 35 32 36 33 37 34 38 69 39 35 40 74 41 68 42 70 43 36 44
REMARK SMILES IDX 73 45 67 46 66 47 37 49 59 50 44 51 58 52 45 53 48 54 57 55
REMARK SMILES IDX 71 56 46 57 47 58 56 60 72 61 49 62 38 63 39 64 43 65 40 66
REMARK SMILES IDX 42 67 41 68 60 69 61 70 65 71 62 72 64 73 63 74 50 75 51 76
REMARK SMILES IDX 55 77 52 78 54 79 53 80
REMARK H PARENT 19 6 26 29 70 48 48 59
REMARK Flexibility Score: inf
ROOT
ATOM      1  C   UNL A   1      31.512  28.750  23.904  1.00  0.00     0.021 C 
ENDROOT
BRANCH   1   2
ATOM      2  C   UNL A   1      31.119  28.345  22.484  1.00  0.00     0.116 C 
BRANCH   2   3
ATOM      3  N   UNL A   1      32.198  27.651  21.804  1.00  0.00    -0.353 N 
ATOM      4  C   UNL A   1      32.477  26.319  21.762  1.00  0.00     0.244 C 
ATOM      5  O   UNL A   1      33.327  25.889  20.987  1.00  0.00    -0.270 OA
ATOM      6  H   UNL A   1      32.818  28.228  21.301  1.00  0.00     0.163 HD
BRANCH   4   7
ATOM      7  C   UNL A   1      31.730  25.380  22.627  1.00  0.00     0.072 C 
ATOM      8  C   UNL A   1      32.168  25.097  23.861  1.00  0.00     0.017 C 
BRANCH   8   9
ATOM      9  C   UNL A   1      31.602  24.089  24.777  1.00  0.00     0.017 A 
ATOM     10  C   UNL A   1      32.131  22.780  24.849  1.00  0.00     0.045 A 
ATOM     11  C   UNL A   1      31.774  21.980  25.947  1.00  0.00     0.026 A 
ATOM     12  C   UNL A   1      30.807  22.376  26.868  1.00  0.00     0.004 A 
ATOM     13  C   UNL A   1      30.607  24.475  25.704  1.00  0.00     0.050 A 
ATOM     14  C   UNL A   1      30.193  23.612  26.722  1.00  0.00     0.021 A 
ATOM     15  Cl  UNL A   1      29.830  26.025  25.635  1.00  0.00    -0.084 Cl
BRANCH  10  16
ATOM     16  N   UNL A   1      32.944  22.223  23.870  1.00  0.00    -0.374 N 
ATOM     17  C   UNL A   1      32.346  21.697  22.655  1.00  0.00     0.143 C 
BRANCH  16  18
ATOM     18  C   UNL A   1      34.375  22.028  24.150  1.00  0.00     0.119 C 
BRANCH  18  19
ATOM     19  C   UNL A   1      35.214  23.282  23.804  1.00  0.00     0.005 C 
ATOM     20  C   UNL A   1      36.507  22.876  23.087  1.00  0.00     0.009 C 
BRANCH  19  21
ATOM     21  C   UNL A   1      35.575  24.102  25.064  1.00  0.00     0.002 C 
ATOM     22  C   UNL A   1      35.296  23.335  26.353  1.00  0.00     0.004 C 
ENDBRANCH  19  21
ENDBRANCH  18  19
ENDBRANCH  16  18
ENDBRANCH  10  16
ENDBRANCH   8   9
ENDBRANCH   4   7
ENDBRANCH   2   3
ENDBRANCH   1   2
BRANCH   1  23
ATOM     23  C   UNL A   1      32.960  29.233  24.038  1.00  0.00     0.002 C 
BRANCH  23  24
ATOM     24  C   UNL A   1      33.834  28.413  24.995  1.00  0.00     0.002 C 
BRANCH  24  25
ATOM     25  C   UNL A   1      33.089  27.739  26.151  1.00  0.00     0.021 C 
BRANCH  25  26
ATOM     26  C   UNL A   1      33.348  28.352  27.525  1.00  0.00     0.116 C 
BRANCH  26  27
ATOM     27  N   UNL A   1      33.330  29.804  27.481  1.00  0.00    -0.352 N 
ATOM     28  C   UNL A   1      34.266  30.708  27.908  1.00  0.00     0.251 C 
ATOM     29  H   UNL A   1      32.519  30.198  27.085  1.00  0.00     0.163 HD
ATOM     30  O   UNL A   1      33.976  31.899  27.973  1.00  0.00    -0.269 OA
BRANCH  28  31
ATOM     31  C   UNL A   1      35.624  30.265  28.295  1.00  0.00     0.039 A 
ATOM     32  C   UNL A   1      36.628  30.281  27.322  1.00  0.00     0.014 A 
ATOM     33  C   UNL A   1      35.900  29.777  29.575  1.00  0.00     0.014 A 
ATOM     34  C   UNL A   1      37.912  29.834  27.641  1.00  0.00     0.010 A 
ATOM     35  C   UNL A   1      37.197  29.391  29.911  1.00  0.00     0.010 A 
ATOM     36  C   UNL A   1      38.210  29.399  28.943  1.00  0.00    -0.014 A 
BRANCH  36  37
ATOM     37  C   UNL A   1      39.581  28.942  29.281  1.00  0.00     0.031 A 
ATOM     38  C   UNL A   1      40.488  29.799  30.120  1.00  0.00     0.074 A 
ATOM     39  C   UNL A   1      40.014  27.754  28.821  1.00  0.00     0.049 A 
ATOM     40  N   UNL A   1      41.690  29.534  30.568  1.00  0.00    -0.248 NA
ATOM     41  C   UNL A   1      39.991  31.133  30.491  1.00  0.00     0.031 C 
ATOM     42  C   UNL A   1      39.251  26.853  27.954  1.00  0.00     0.029 A 
ATOM     43  N   UNL A   1      41.197  27.093  29.028  1.00  0.00    -0.354 N 
ATOM     44  C   UNL A   1      42.095  30.666  31.263  1.00  0.00     0.074 A 
ATOM     45  C   UNL A   1      41.032  31.641  31.136  1.00  0.00     0.031 C 
ATOM     46  C   UNL A   1      39.968  25.739  27.739  1.00  0.00     0.029 A 
ATOM     47  C   UNL A   1      41.247  25.856  28.434  1.00  0.00     0.049 A 
ATOM     48  H   UNL A   1      41.940  27.469  29.554  1.00  0.00     0.167 HD
ATOM     49  C   UNL A   1      43.236  30.873  31.962  1.00  0.00     0.031 A 
ATOM     50  C   UNL A   1      42.205  24.914  28.460  1.00  0.00     0.031 A 
ATOM     51  C   UNL A   1      44.291  29.904  32.096  1.00  0.00     0.049 A 
ATOM     52  C   UNL A   1      43.451  25.155  29.264  1.00  0.00     0.074 A 
ATOM     53  C   UNL A   1      45.464  29.997  32.825  1.00  0.00     0.029 A 
ATOM     54  N   UNL A   1      44.299  28.659  31.486  1.00  0.00    -0.354 N 
ATOM     55  N   UNL A   1      43.785  26.202  29.977  1.00  0.00    -0.248 NA
ATOM     56  C   UNL A   1      44.443  24.070  29.281  1.00  0.00     0.031 C 
ATOM     57  C   UNL A   1      46.201  28.824  32.624  1.00  0.00     0.029 A 
ATOM     58  C   UNL A   1      45.463  27.981  31.808  1.00  0.00     0.049 A 
ATOM     59  H   UNL A   1      43.582  28.308  30.909  1.00  0.00     0.167 HD
ATOM     60  C   UNL A   1      45.013  25.895  30.548  1.00  0.00     0.074 A 
ATOM     61  C   UNL A   1      45.353  24.555  30.115  1.00  0.00     0.031 C 
ATOM     62  C   UNL A   1      45.791  26.653  31.359  1.00  0.00     0.031 A 
BRANCH  49  63
ATOM     63  C   UNL A   1      43.400  32.207  32.634  1.00  0.00    -0.014 A 
ATOM     64  C   UNL A   1      42.951  32.417  33.949  1.00  0.00     0.009 A 
ATOM     65  C   UNL A   1      44.034  33.261  31.959  1.00  0.00     0.009 A 
ATOM     66  C   UNL A   1      43.099  33.665  34.557  1.00  0.00     0.001 A 
ATOM     67  C   UNL A   1      44.207  34.500  32.580  1.00  0.00     0.001 A 
ATOM     68  C   UNL A   1      43.730  34.704  33.874  1.00  0.00     0.000 A 
ENDBRANCH  49  63
BRANCH  50  69
ATOM     69  C   UNL A   1      42.006  23.631  27.738  1.00  0.00    -0.014 A 
ATOM     70  C   UNL A   1      42.443  23.487  26.412  1.00  0.00     0.009 A 
ATOM     71  C   UNL A   1      41.377  22.547  28.368  1.00  0.00     0.009 A 
ATOM     72  C   UNL A   1      42.231  22.291  25.723  1.00  0.00     0.001 A 
ATOM     73  C   UNL A   1      41.190  21.344  27.686  1.00  0.00     0.001 A 
ATOM     74  C   UNL A   1      41.609  21.219  26.362  1.00  0.00     0.000 A 
ENDBRANCH  50  69
BRANCH  62  75
ATOM     75  C   UNL A   1      47.072  26.036  31.841  1.00  0.00    -0.014 A 
ATOM     76  C   UNL A   1      47.140  25.378  33.080  1.00  0.00     0.009 A 
ATOM     77  C   UNL A   1      48.223  26.107  31.043  1.00  0.00     0.009 A 
ATOM     78  C   UNL A   1      48.350  24.843  33.528  1.00  0.00     0.001 A 
ATOM     79  C   UNL A   1      49.424  25.548  31.481  1.00  0.00     0.001 A 
ATOM     80  C   UNL A   1      49.489  24.928  32.729  1.00  0.00     0.000 A 
ENDBRANCH  62  75
ENDBRANCH  36  37
ENDBRANCH  28  31
ENDBRANCH  26  27
ENDBRANCH  25  26
ENDBRANCH  24  25
ENDBRANCH  23  24
ENDBRANCH   1  23
TORSDOF 18
ENDMDL
MODEL 2
REMARK VINA RESULT:      -9.6      2.354      3.985
REMARK SMILES CC[C@@H](C)CN(C)c1cccc(Cl)c1/C=C/C(=O)NCCCCCCNC(=O)c1ccc(-c2c3nc(c(-c4ccccc4)c4ccc([nH]4)c(-c4ccccc4)c4nc(c(-c5ccccc5)c5ccc2[nH]5)C=C4)C=C3)cc1
REMARK SMILES IDX 21 1 20 2 19 3 17 4 18 5 16 7 15 8 14 9 8 10 9 11 10 12
REMARK SMILES IDX 12 13 11 14 13 15 6 16 7 17 5 18 3 19 4 20 2 21 1 22 22 23
REMARK SMILES IDX 23 24 24 25 25 26 26 27 27 28 28 30 29 31 30 32 76 33 31 34
REMARK SMILES IDX 75 35 32 36 33 37 34 38 69 39 35 40 74 41 68 42 70 43 36 44
REMARK SMILES IDX 73 45 67 46 66 47 37 49 59 50 44 51 58 52 45 53 48 54 57 55
REMARK SMILES IDX 71 56 46 57 47 58 56 60 72 61 49 62 38 63 39 64 43 65 40 66
REMARK SMILES IDX 42 67 41 68 60 69 61 70 65 71 62 72 64 73 63 74 50 75 51 76
REMARK SMILES IDX 55 77 52 78 54 79 53 80
REMARK H PARENT 19 6 26 29 70 48 48 59
REMARK Flexibility Score: inf
ROOT
ATOM      1  C   UNL A   1      32.230  29.184  26.839  1.00  0.00     0.021 C 
ENDROOT
BRANCH   1   2
ATOM      2  C   UNL A   1      33.717  28.975  26.557  1.00  0.00     0.116 C 
BRANCH   2   3
ATOM      3  N   UNL A   1      33.998  28.958  25.133  1.00  0.00    -0.353 N 
ATOM      4  C   UNL A   1      33.982  27.911  24.262  1.00  0.00     0.244 C 
ATOM      5  O   UNL A   1      34.067  28.110  23.053  1.00  0.00    -0.270 OA
ATOM      6  H   UNL A   1      34.235  29.829  24.740  1.00  0.00     0.163 HD
BRANCH   4   7
ATOM      7  C   UNL A   1      33.823  26.531  24.768  1.00  0.00     0.072 C 
ATOM      8  C   UNL A   1      33.795  25.494  23.920  1.00  0.00     0.017 C 
BRANCH   8   9
ATOM      9  C   UNL A   1      33.515  24.089  24.269  1.00  0.00     0.017 A 
ATOM     10  C   UNL A   1      32.195  23.636  24.497  1.00  0.00     0.045 A 
ATOM     11  C   UNL A   1      31.961  22.251  24.503  1.00  0.00     0.026 A 
ATOM     12  C   UNL A   1      33.000  21.324  24.450  1.00  0.00     0.004 A 
ATOM     13  C   UNL A   1      34.565  23.143  24.236  1.00  0.00     0.050 A 
ATOM     14  C   UNL A   1      34.309  21.775  24.356  1.00  0.00     0.021 A 
ATOM     15  Cl  UNL A   1      36.226  23.611  24.059  1.00  0.00    -0.084 Cl
BRANCH  10  16
ATOM     16  N   UNL A   1      31.126  24.482  24.763  1.00  0.00    -0.374 N 
ATOM     17  C   UNL A   1      30.708  24.698  26.138  1.00  0.00     0.143 C 
BRANCH  16  18
ATOM     18  C   UNL A   1      30.334  25.016  23.644  1.00  0.00     0.119 C 
BRANCH  18  19
ATOM     19  C   UNL A   1      29.959  26.503  23.850  1.00  0.00     0.005 C 
ATOM     20  C   UNL A   1      28.436  26.674  23.839  1.00  0.00     0.009 C 
BRANCH  19  21
ATOM     21  C   UNL A   1      30.574  27.411  22.760  1.00  0.00     0.002 C 
ATOM     22  C   UNL A   1      29.754  28.675  22.529  1.00  0.00     0.004 C 
ENDBRANCH  19  21
ENDBRANCH  18  19
ENDBRANCH  16  18
ENDBRANCH  10  16
ENDBRANCH   8   9
ENDBRANCH   4   7
ENDBRANCH   2   3
ENDBRANCH   1   2
BRANCH   1  23
ATOM     23  C   UNL A   1      31.437  29.722  25.643  1.00  0.00     0.002 C 
BRANCH  23  24
ATOM     24  C   UNL A   1      31.090  31.214  25.709  1.00  0.00     0.002 C 
BRANCH  24  25
ATOM     25  C   UNL A   1      31.431  31.910  27.031  1.00  0.00     0.021 C 
BRANCH  25  26
ATOM     26  C   UNL A   1      32.661  32.813  26.981  1.00  0.00     0.116 C 
BRANCH  26  27
ATOM     27  N   UNL A   1      32.469  34.030  27.751  1.00  0.00    -0.352 N 
ATOM     28  C   UNL A   1      33.174  34.513  28.822  1.00  0.00     0.251 C 
ATOM     29  H   UNL A   1      31.718  34.594  27.457  1.00  0.00     0.163 HD
ATOM     30  O   UNL A   1      32.728  35.458  29.466  1.00  0.00    -0.269 OA
BRANCH  28  31
ATOM     31  C   UNL A   1      34.464  33.904  29.215  1.00  0.00     0.039 A 
ATOM     32  C   UNL A   1      35.589  34.171  28.428  1.00  0.00     0.014 A 
ATOM     33  C   UNL A   1      34.562  33.029  30.301  1.00  0.00     0.014 A 
ATOM     34  C   UNL A   1      36.815  33.584  28.748  1.00  0.00     0.010 A 
ATOM     35  C   UNL A   1      35.800  32.494  30.657  1.00  0.00     0.010 A 
ATOM     36  C   UNL A   1      36.933  32.752  29.873  1.00  0.00    -0.014 A 
BRANCH  36  37
ATOM     37  C   UNL A   1      38.243  32.145  30.217  1.00  0.00     0.031 A 
ATOM     38  C   UNL A   1      39.162  32.815  31.201  1.00  0.00     0.074 A 
ATOM     39  C   UNL A   1      38.609  30.989  29.633  1.00  0.00     0.049 A 
ATOM     40  N   UNL A   1      40.312  32.399  31.669  1.00  0.00    -0.248 NA
ATOM     41  C   UNL A   1      38.748  34.131  31.711  1.00  0.00     0.031 C 
ATOM     42  C   UNL A   1      37.832  30.267  28.624  1.00  0.00     0.029 A 
ATOM     43  N   UNL A   1      39.725  30.211  29.814  1.00  0.00    -0.354 N 
ATOM     44  C   UNL A   1      40.761  33.401  32.520  1.00  0.00     0.074 A 
ATOM     45  C   UNL A   1      39.785  34.469  32.465  1.00  0.00     0.031 C 
ATOM     46  C   UNL A   1      38.473  29.131  28.306  1.00  0.00     0.029 A 
ATOM     47  C   UNL A   1      39.714  29.056  29.071  1.00  0.00     0.049 A 
ATOM     48  H   UNL A   1      40.462  30.458  30.418  1.00  0.00     0.167 HD
ATOM     49  C   UNL A   1      41.872  33.425  33.294  1.00  0.00     0.031 A 
ATOM     50  C   UNL A   1      40.595  28.041  29.026  1.00  0.00     0.031 A 
ATOM     51  C   UNL A   1      42.839  32.363  33.357  1.00  0.00     0.049 A 
ATOM     52  C   UNL A   1      41.806  28.078  29.914  1.00  0.00     0.074 A 
ATOM     53  C   UNL A   1      43.972  32.269  34.148  1.00  0.00     0.029 A 
ATOM     54  N   UNL A   1      42.788  31.205  32.596  1.00  0.00    -0.354 N 
ATOM     55  N   UNL A   1      42.176  29.000  30.768  1.00  0.00    -0.248 NA
ATOM     56  C   UNL A   1      42.709  26.921  29.843  1.00  0.00     0.031 C 
ATOM     57  C   UNL A   1      44.627  31.072  33.837  1.00  0.00     0.029 A 
ATOM     58  C   UNL A   1      43.875  30.398  32.887  1.00  0.00     0.049 A 
ATOM     59  H   UNL A   1      42.082  30.987  31.946  1.00  0.00     0.167 HD
ATOM     60  C   UNL A   1      43.342  28.525  31.355  1.00  0.00     0.074 A 
ATOM     61  C   UNL A   1      43.604  27.224  30.774  1.00  0.00     0.031 C 
ATOM     62  C   UNL A   1      44.126  29.112  32.291  1.00  0.00     0.031 A 
BRANCH  49  63
ATOM     63  C   UNL A   1      42.098  34.650  34.136  1.00  0.00    -0.014 A 
ATOM     64  C   UNL A   1      42.777  35.767  33.622  1.00  0.00     0.009 A 
ATOM     65  C   UNL A   1      41.605  34.701  35.449  1.00  0.00     0.009 A 
ATOM     66  C   UNL A   1      42.991  36.894  34.419  1.00  0.00     0.001 A 
ATOM     67  C   UNL A   1      41.796  35.840  36.234  1.00  0.00     0.001 A 
ATOM     68  C   UNL A   1      42.497  36.931  35.722  1.00  0.00     0.000 A 
ENDBRANCH  49  63
BRANCH  50  69
ATOM     69  C   UNL A   1      40.340  26.877  28.140  1.00  0.00    -0.014 A 
ATOM     70  C   UNL A   1      39.567  25.796  28.594  1.00  0.00     0.009 A 
ATOM     71  C   UNL A   1      40.867  26.838  26.841  1.00  0.00     0.009 A 
ATOM     72  C   UNL A   1      39.350  24.688  27.771  1.00  0.00     0.001 A 
ATOM     73  C   UNL A   1      40.625  25.741  26.012  1.00  0.00     0.001 A 
ATOM     74  C   UNL A   1      39.876  24.664  26.481  1.00  0.00     0.000 A 
ENDBRANCH  50  69
BRANCH  62  75
ATOM     75  C   UNL A   1      45.326  28.336  32.754  1.00  0.00    -0.014 A 
ATOM     76  C   UNL A   1      45.240  27.437  33.829  1.00  0.00     0.009 A 
ATOM     77  C   UNL A   1      46.557  28.502  32.101  1.00  0.00     0.009 A 
ATOM     78  C   UNL A   1      46.375  26.754  34.270  1.00  0.00     0.001 A 
ATOM     79  C   UNL A   1      47.683  27.796  32.526  1.00  0.00     0.001 A 
ATOM     80  C   UNL A   1      47.594  26.933  33.617  1.00  0.00     0.000 A 
ENDBRANCH  62  75
ENDBRANCH  36  37
ENDBRANCH  28  31
ENDBRANCH  26  27
ENDBRANCH  25  26
ENDBRANCH  24  25
ENDBRANCH  23  24
ENDBRANCH   1  23
TORSDOF 18
ENDMDL
MODEL 3
REMARK VINA RESULT:      -9.5      2.439      7.113
REMARK SMILES CC[C@@H](C)CN(C)c1cccc(Cl)c1/C=C/C(=O)NCCCCCCNC(=O)c1ccc(-c2c3nc(c(-c4ccccc4)c4ccc([nH]4)c(-c4ccccc4)c4nc(c(-c5ccccc5)c5ccc2[nH]5)C=C4)C=C3)cc1
REMARK SMILES IDX 21 1 20 2 19 3 17 4 18 5 16 7 15 8 14 9 8 10 9 11 10 12
REMARK SMILES IDX 12 13 11 14 13 15 6 16 7 17 5 18 3 19 4 20 2 21 1 22 22 23
REMARK SMILES IDX 23 24 24 25 25 26 26 27 27 28 28 30 29 31 30 32 76 33 31 34
REMARK SMILES IDX 75 35 32 36 33 37 34 38 69 39 35 40 74 41 68 42 70 43 36 44
REMARK SMILES IDX 73 45 67 46 66 47 37 49 59 50 44 51 58 52 45 53 48 54 57 55
REMARK SMILES IDX 71 56 46 57 47 58 56 60 72 61 49 62 38 63 39 64 43 65 40 66
REMARK SMILES IDX 42 67 41 68 60 69 61 70 65 71 62 72 64 73 63 74 50 75 51 76
REMARK SMILES IDX 55 77 52 78 54 79 53 80
REMARK H PARENT 19 6 26 29 70 48 48 59
REMARK Flexibility Score: inf
ROOT
ATOM      1  C   UNL A   1      32.266  29.256  27.094  1.00  0.00     0.021 C 
ENDROOT
BRANCH   1   2
ATOM      2  C   UNL A   1      33.715  28.881  26.786  1.00  0.00     0.116 C 
BRANCH   2   3
ATOM      3  N   UNL A   1      33.987  28.905  25.361  1.00  0.00    -0.353 N 
ATOM      4  C   UNL A   1      33.971  27.882  24.461  1.00  0.00     0.244 C 
ATOM      5  O   UNL A   1      34.047  28.115  23.258  1.00  0.00    -0.270 OA
ATOM      6  H   UNL A   1      34.216  29.788  24.990  1.00  0.00     0.163 HD
BRANCH   4   7
ATOM      7  C   UNL A   1      33.823  26.488  24.930  1.00  0.00     0.072 C 
ATOM      8  C   UNL A   1      33.817  25.473  24.055  1.00  0.00     0.017 C 
BRANCH   8   9
ATOM      9  C   UNL A   1      33.551  24.056  24.365  1.00  0.00     0.017 A 
ATOM     10  C   UNL A   1      32.230  23.572  24.517  1.00  0.00     0.045 A 
ATOM     11  C   UNL A   1      32.028  22.182  24.488  1.00  0.00     0.026 A 
ATOM     12  C   UNL A   1      33.088  21.278  24.473  1.00  0.00     0.004 A 
ATOM     13  C   UNL A   1      34.621  23.133  24.371  1.00  0.00     0.050 A 
ATOM     14  C   UNL A   1      34.390  21.758  24.455  1.00  0.00     0.021 A 
ATOM     15  Cl  UNL A   1      36.279  23.640  24.289  1.00  0.00    -0.084 Cl
BRANCH  10  16
ATOM     16  N   UNL A   1      31.131  24.389  24.742  1.00  0.00    -0.374 N 
ATOM     17  C   UNL A   1      30.624  24.553  26.093  1.00  0.00     0.143 C 
BRANCH  16  18
ATOM     18  C   UNL A   1      30.401  24.946  23.592  1.00  0.00     0.119 C 
BRANCH  18  19
ATOM     19  C   UNL A   1      30.086  26.451  23.772  1.00  0.00     0.005 C 
ATOM     20  C   UNL A   1      28.570  26.676  23.811  1.00  0.00     0.009 C 
BRANCH  19  21
ATOM     21  C   UNL A   1      30.692  27.308  22.637  1.00  0.00     0.002 C 
ATOM     22  C   UNL A   1      30.049  28.688  22.548  1.00  0.00     0.004 C 
ENDBRANCH  19  21
ENDBRANCH  18  19
ENDBRANCH  16  18
ENDBRANCH  10  16
ENDBRANCH   8   9
ENDBRANCH   4   7
ENDBRANCH   2   3
ENDBRANCH   1   2
BRANCH   1  23
ATOM     23  C   UNL A   1      31.446  29.645  25.859  1.00  0.00     0.002 C 
BRANCH  23  24
ATOM     24  C   UNL A   1      31.171  31.146  25.706  1.00  0.00     0.002 C 
BRANCH  24  25
ATOM     25  C   UNL A   1      31.378  31.984  26.972  1.00  0.00     0.021 C 
BRANCH  25  26
ATOM     26  C   UNL A   1      32.673  32.792  27.000  1.00  0.00     0.116 C 
BRANCH  26  27
ATOM     27  N   UNL A   1      32.503  34.061  27.687  1.00  0.00    -0.352 N 
ATOM     28  C   UNL A   1      33.203  34.591  28.739  1.00  0.00     0.251 C 
ATOM     29  H   UNL A   1      31.774  34.625  27.344  1.00  0.00     0.163 HD
ATOM     30  O   UNL A   1      32.774  35.588  29.313  1.00  0.00    -0.269 OA
BRANCH  28  31
ATOM     31  C   UNL A   1      34.467  33.973  29.195  1.00  0.00     0.039 A 
ATOM     32  C   UNL A   1      34.421  33.092  30.280  1.00  0.00     0.014 A 
ATOM     33  C   UNL A   1      35.695  34.299  28.612  1.00  0.00     0.014 A 
ATOM     34  C   UNL A   1      35.601  32.519  30.760  1.00  0.00     0.010 A 
ATOM     35  C   UNL A   1      36.865  33.678  29.051  1.00  0.00     0.010 A 
ATOM     36  C   UNL A   1      36.830  32.797  30.140  1.00  0.00    -0.014 A 
BRANCH  36  37
ATOM     37  C   UNL A   1      38.078  32.171  30.644  1.00  0.00     0.031 A 
ATOM     38  C   UNL A   1      38.585  30.887  30.048  1.00  0.00     0.074 A 
ATOM     39  C   UNL A   1      38.751  32.758  31.651  1.00  0.00     0.049 A 
ATOM     40  N   UNL A   1      39.687  30.233  30.316  1.00  0.00    -0.248 NA
ATOM     41  C   UNL A   1      37.738  30.243  29.032  1.00  0.00     0.031 C 
ATOM     42  C   UNL A   1      38.336  33.976  32.350  1.00  0.00     0.029 A 
ATOM     43  N   UNL A   1      39.935  32.415  32.253  1.00  0.00    -0.354 N 
ATOM     44  C   UNL A   1      39.662  29.100  29.512  1.00  0.00     0.074 A 
ATOM     45  C   UNL A   1      38.412  29.129  28.783  1.00  0.00     0.031 C 
ATOM     46  C   UNL A   1      39.272  34.302  33.256  1.00  0.00     0.029 A 
ATOM     47  C   UNL A   1      40.339  33.306  33.216  1.00  0.00     0.049 A 
ATOM     48  H   UNL A   1      40.446  31.607  32.016  1.00  0.00     0.167 HD
ATOM     49  C   UNL A   1      40.601  28.134  29.375  1.00  0.00     0.031 A 
ATOM     50  C   UNL A   1      41.452  33.330  33.970  1.00  0.00     0.031 A 
ATOM     51  C   UNL A   1      41.847  28.106  30.093  1.00  0.00     0.049 A 
ATOM     52  C   UNL A   1      42.491  32.262  33.780  1.00  0.00     0.074 A 
ATOM     53  C   UNL A   1      42.887  27.198  29.987  1.00  0.00     0.029 A 
ATOM     54  N   UNL A   1      42.223  29.033  31.053  1.00  0.00    -0.354 N 
ATOM     55  N   UNL A   1      42.485  31.240  32.961  1.00  0.00    -0.248 NA
ATOM     56  C   UNL A   1      43.701  32.367  34.608  1.00  0.00     0.031 C 
ATOM     57  C   UNL A   1      43.875  27.553  30.912  1.00  0.00     0.029 A 
ATOM     58  C   UNL A   1      43.471  28.710  31.559  1.00  0.00     0.049 A 
ATOM     59  H   UNL A   1      41.683  29.806  31.334  1.00  0.00     0.167 HD
ATOM     60  C   UNL A   1      43.698  30.592  33.156  1.00  0.00     0.074 A 
ATOM     61  C   UNL A   1      44.422  31.351  34.156  1.00  0.00     0.031 C 
ATOM     62  C   UNL A   1      44.172  29.469  32.562  1.00  0.00     0.031 A 
BRANCH  49  63
ATOM     63  C   UNL A   1      40.307  27.021  28.407  1.00  0.00    -0.014 A 
ATOM     64  C   UNL A   1      39.546  25.906  28.795  1.00  0.00     0.009 A 
ATOM     65  C   UNL A   1      40.774  27.097  27.086  1.00  0.00     0.009 A 
ATOM     66  C   UNL A   1      39.290  24.874  27.890  1.00  0.00     0.001 A 
ATOM     67  C   UNL A   1      40.494  26.077  26.175  1.00  0.00     0.001 A 
ATOM     68  C   UNL A   1      39.761  24.962  26.580  1.00  0.00     0.000 A 
ENDBRANCH  49  63
BRANCH  50  69
ATOM     69  C   UNL A   1      41.666  34.432  34.942  1.00  0.00    -0.014 A 
ATOM     70  C   UNL A   1      41.221  34.306  36.267  1.00  0.00     0.009 A 
ATOM     71  C   UNL A   1      42.315  35.613  34.552  1.00  0.00     0.009 A 
ATOM     72  C   UNL A   1      41.397  35.353  37.175  1.00  0.00     0.001 A 
ATOM     73  C   UNL A   1      42.513  36.647  35.469  1.00  0.00     0.001 A 
ATOM     74  C   UNL A   1      42.047  36.520  36.776  1.00  0.00     0.000 A 
ENDBRANCH  50  69
BRANCH  62  75
ATOM     75  C   UNL A   1      45.544  29.015  32.968  1.00  0.00    -0.014 A 
ATOM     76  C   UNL A   1      45.728  28.116  34.031  1.00  0.00     0.009 A 
ATOM     77  C   UNL A   1      46.668  29.489  32.274  1.00  0.00     0.009 A 
ATOM     78  C   UNL A   1      47.014  27.735  34.418  1.00  0.00     0.001 A 
ATOM     79  C   UNL A   1      47.951  29.085  32.646  1.00  0.00     0.001 A 
ATOM     80  C   UNL A   1      48.123  28.219  33.726  1.00  0.00     0.000 A 
ENDBRANCH  62  75
ENDBRANCH  36  37
ENDBRANCH  28  31
ENDBRANCH  26  27
ENDBRANCH  25  26
ENDBRANCH  24  25
ENDBRANCH  23  24
ENDBRANCH   1  23
TORSDOF 18
ENDMDL
