MODEL 1
REMARK VINA RESULT:     -11.9      0.000      0.000
REMARK SMILES O=C(NCCCCCCNC(=O)[C@@H]1CC2(CCN(C(=O)C3(c4ccccc4F)CC3)CC2)C[NH2+]1)c1ccc(-c2c3nc(c(-c4ccccc4)c4ccc([nH]4)c(-c4ccccc4)c4nc(c(-c5ccccc5)c5ccc2[nH]5)C=C4)C=C3)cc1
REMARK SMILES IDX 6 1 5 2 4 3 3 4 1 5 2 6 35 8 36 9 82 10 37 11 81 12 38 13
REMARK SMILES IDX 39 14 40 15 75 16 41 17 80 18 74 19 76 20 42 21 79 22 73 23
REMARK SMILES IDX 72 24 43 26 65 27 50 28 64 29 51 30 54 31 63 32 77 33 52 34
REMARK SMILES IDX 53 35 62 37 78 38 55 39 44 40 45 41 49 42 46 43 48 44 47 45
REMARK SMILES IDX 66 46 67 47 71 48 68 49 70 50 69 51 56 52 57 53 61 54 58 55
REMARK SMILES IDX 60 56 59 57 7 58 8 59 9 60 10 61 11 62 12 64 13 65 14 66
REMARK SMILES IDX 34 67 15 68 33 69 16 72 32 73 17 74 31 75 18 76 19 77 20 78
REMARK SMILES IDX 21 79 29 80 30 81 22 82 23 83 27 84 24 85 26 86 28 87 25 88
REMARK H PARENT 3 7 76 25 54 36 10 63 34 70 34 71
REMARK Flexibility Score: inf
ROOT
ATOM      1  C   UNL A   1      34.062  32.196  28.041  1.00  0.00     0.002 C 
ENDROOT
BRANCH   1   2
ATOM      2  C   UNL A   1      33.112  33.394  27.961  1.00  0.00     0.021 C 
BRANCH   2   3
ATOM      3  C   UNL A   1      33.676  34.732  28.425  1.00  0.00     0.116 C 
BRANCH   3   4
ATOM      4  N   UNL A   1      33.264  35.062  29.779  1.00  0.00    -0.352 N 
ATOM      5  O   UNL A   1      33.068  34.829  32.006  1.00  0.00    -0.269 OA
ATOM      6  C   UNL A   1      33.709  34.585  30.989  1.00  0.00     0.251 C 
ATOM      7  H   UNL A   1      32.550  35.738  29.840  1.00  0.00     0.163 HD
BRANCH   6   8
ATOM      8  C   UNL A   1      34.953  33.783  31.087  1.00  0.00     0.039 A 
ATOM      9  C   UNL A   1      36.133  34.196  30.469  1.00  0.00     0.014 A 
ATOM     10  C   UNL A   1      34.961  32.638  31.892  1.00  0.00     0.014 A 
ATOM     11  C   UNL A   1      37.277  33.407  30.551  1.00  0.00     0.010 A 
ATOM     12  C   UNL A   1      36.140  31.899  32.057  1.00  0.00     0.010 A 
ATOM     13  C   UNL A   1      37.307  32.267  31.373  1.00  0.00    -0.014 A 
BRANCH  13  14
ATOM     14  C   UNL A   1      38.604  31.568  31.579  1.00  0.00     0.031 A 
ATOM     15  C   UNL A   1      39.554  31.948  32.678  1.00  0.00     0.074 A 
ATOM     16  C   UNL A   1      38.902  30.528  30.777  1.00  0.00     0.049 A 
ATOM     17  N   UNL A   1      40.610  31.304  33.114  1.00  0.00    -0.248 NA
ATOM     18  C   UNL A   1      39.294  33.209  33.383  1.00  0.00     0.031 C 
ATOM     19  C   UNL A   1      38.093  30.077  29.642  1.00  0.00     0.029 A 
ATOM     20  N   UNL A   1      39.955  29.649  30.805  1.00  0.00    -0.354 N 
ATOM     21  C   UNL A   1      41.090  32.043  34.189  1.00  0.00     0.074 A 
ATOM     22  C   UNL A   1      40.264  33.223  34.289  1.00  0.00     0.031 C 
ATOM     23  C   UNL A   1      38.656  28.983  29.108  1.00  0.00     0.029 A 
ATOM     24  C   UNL A   1      39.888  28.687  29.829  1.00  0.00     0.049 A 
ATOM     25  H   UNL A   1      40.687  29.703  31.460  1.00  0.00     0.167 HD
ATOM     26  C   UNL A   1      42.113  31.758  35.027  1.00  0.00     0.031 A 
ATOM     27  C   UNL A   1      40.732  27.682  29.532  1.00  0.00     0.031 A 
ATOM     28  C   UNL A   1      43.019  30.654  34.854  1.00  0.00     0.049 A 
ATOM     29  C   UNL A   1      41.952  27.480  30.381  1.00  0.00     0.074 A 
ATOM     30  C   UNL A   1      44.111  30.301  35.627  1.00  0.00     0.029 A 
ATOM     31  N   UNL A   1      42.963  29.753  33.803  1.00  0.00    -0.354 N 
ATOM     32  N   UNL A   1      42.320  28.119  31.465  1.00  0.00    -0.248 NA
ATOM     33  C   UNL A   1      42.871  26.414  29.965  1.00  0.00     0.031 C 
ATOM     34  C   UNL A   1      44.762  29.234  34.998  1.00  0.00     0.029 A 
ATOM     35  C   UNL A   1      44.034  28.880  33.873  1.00  0.00     0.049 A 
ATOM     36  H   UNL A   1      42.264  29.736  33.109  1.00  0.00     0.167 HD
ATOM     37  C   UNL A   1      43.505  27.522  31.869  1.00  0.00     0.074 A 
ATOM     38  C   UNL A   1      43.777  26.451  30.932  1.00  0.00     0.031 C 
ATOM     39  C   UNL A   1      44.301  27.833  32.922  1.00  0.00     0.031 A 
BRANCH  26  40
ATOM     40  C   UNL A   1      42.329  32.673  36.201  1.00  0.00    -0.014 A 
ATOM     41  C   UNL A   1      41.713  32.406  37.436  1.00  0.00     0.009 A 
ATOM     42  C   UNL A   1      43.205  33.763  36.100  1.00  0.00     0.009 A 
ATOM     43  C   UNL A   1      41.964  33.221  38.542  1.00  0.00     0.001 A 
ATOM     44  C   UNL A   1      43.466  34.566  37.213  1.00  0.00     0.001 A 
ATOM     45  C   UNL A   1      42.844  34.297  38.432  1.00  0.00     0.000 A 
ENDBRANCH  26  40
BRANCH  27  46
ATOM     46  C   UNL A   1      40.468  26.817  28.352  1.00  0.00    -0.014 A 
ATOM     47  C   UNL A   1      39.647  25.685  28.454  1.00  0.00     0.009 A 
ATOM     48  C   UNL A   1      41.055  27.121  27.113  1.00  0.00     0.009 A 
ATOM     49  C   UNL A   1      39.446  24.859  27.344  1.00  0.00     0.001 A 
ATOM     50  C   UNL A   1      40.824  26.315  26.000  1.00  0.00     0.001 A 
ATOM     51  C   UNL A   1      40.029  25.176  26.119  1.00  0.00     0.000 A 
ENDBRANCH  27  46
BRANCH  39  52
ATOM     52  C   UNL A   1      45.532  26.994  33.112  1.00  0.00    -0.014 A 
ATOM     53  C   UNL A   1      46.744  27.329  32.489  1.00  0.00     0.009 A 
ATOM     54  C   UNL A   1      45.480  25.857  33.934  1.00  0.00     0.009 A 
ATOM     55  C   UNL A   1      47.867  26.516  32.649  1.00  0.00     0.001 A 
ATOM     56  C   UNL A   1      46.612  25.065  34.117  1.00  0.00     0.001 A 
ATOM     57  C   UNL A   1      47.801  25.387  33.465  1.00  0.00     0.000 A 
ENDBRANCH  39  52
ENDBRANCH  13  14
ENDBRANCH   6   8
ENDBRANCH   3   4
ENDBRANCH   2   3
ENDBRANCH   1   2
BRANCH   1  58
ATOM     58  C   UNL A   1      33.567  30.887  27.413  1.00  0.00     0.002 C 
BRANCH  58  59
ATOM     59  C   UNL A   1      32.213  30.964  26.702  1.00  0.00     0.021 C 
BRANCH  59  60
ATOM     60  C   UNL A   1      31.993  29.924  25.584  1.00  0.00     0.116 C 
BRANCH  60  61
ATOM     61  N   UNL A   1      30.802  30.228  24.804  1.00  0.00    -0.351 N 
ATOM     62  C   UNL A   1      30.243  29.876  23.629  1.00  0.00     0.278 C 
ATOM     63  H   UNL A   1      30.239  30.884  25.274  1.00  0.00     0.163 HD
ATOM     64  O   UNL A   1      29.176  30.480  23.404  1.00  0.00    -0.268 OA
BRANCH  62  65
ATOM     65  C   UNL A   1      30.748  28.903  22.523  1.00  0.00     0.273 C 
ATOM     66  C   UNL A   1      30.787  27.391  22.600  1.00  0.00     0.088 C 
ATOM     67  N   UNL A   1      32.089  29.284  22.048  1.00  0.00    -0.336 N 
ATOM     68  C   UNL A   1      32.265  26.999  22.821  1.00  0.00     0.029 C 
ATOM     69  C   UNL A   1      33.053  28.253  22.402  1.00  0.00     0.268 C 
ATOM     70  H   UNL A   1      32.363  30.167  22.479  1.00  0.00     0.346 HD
ATOM     71  H   UNL A   1      32.068  29.390  21.032  1.00  0.00     0.346 HD
ATOM     72  C   UNL A   1      32.701  25.719  22.062  1.00  0.00     0.034 C 
ATOM     73  C   UNL A   1      32.559  26.721  24.286  1.00  0.00     0.034 C 
ATOM     74  C   UNL A   1      32.115  24.406  22.639  1.00  0.00     0.120 C 
ATOM     75  C   UNL A   1      31.756  25.536  24.777  1.00  0.00     0.120 C 
ATOM     76  N   UNL A   1      32.204  24.333  24.100  1.00  0.00    -0.342 N 
ATOM     77  C   UNL A   1      32.484  23.272  24.961  1.00  0.00     0.233 C 
ATOM     78  O   UNL A   1      32.277  23.445  26.167  1.00  0.00    -0.274 OA
BRANCH  77  79
ATOM     79  C   UNL A   1      33.067  21.918  24.582  1.00  0.00     0.077 C 
ATOM     80  C   UNL A   1      32.469  20.523  24.665  1.00  0.00     0.023 C 
ATOM     81  C   UNL A   1      32.345  21.275  23.387  1.00  0.00     0.023 C 
BRANCH  79  82
ATOM     82  C   UNL A   1      34.617  21.962  24.557  1.00  0.00     0.003 A 
ATOM     83  C   UNL A   1      35.387  21.554  25.661  1.00  0.00     0.008 A 
ATOM     84  C   UNL A   1      35.305  22.581  23.499  1.00  0.00     0.127 A 
ATOM     85  C   UNL A   1      36.763  21.801  25.721  1.00  0.00     0.001 A 
ATOM     86  C   UNL A   1      36.656  22.891  23.587  1.00  0.00     0.039 A 
ATOM     87  F   UNL A   1      34.639  22.963  22.397  1.00  0.00    -0.207 F 
ATOM     88  C   UNL A   1      37.395  22.495  24.694  1.00  0.00     0.003 A 
ENDBRANCH  79  82
ENDBRANCH  77  79
ENDBRANCH  62  65
ENDBRANCH  60  61
ENDBRANCH  59  60
ENDBRANCH  58  59
ENDBRANCH   1  58
TORSDOF 15
ENDMDL
MODEL 2
REMARK VINA RESULT:     -11.9      0.386      5.675
REMARK SMILES O=C(NCCCCCCNC(=O)[C@@H]1CC2(CCN(C(=O)C3(c4ccccc4F)CC3)CC2)C[NH2+]1)c1ccc(-c2c3nc(c(-c4ccccc4)c4ccc([nH]4)c(-c4ccccc4)c4nc(c(-c5ccccc5)c5ccc2[nH]5)C=C4)C=C3)cc1
REMARK SMILES IDX 6 1 5 2 4 3 3 4 1 5 2 6 35 8 36 9 82 10 37 11 81 12 38 13
REMARK SMILES IDX 39 14 40 15 75 16 41 17 80 18 74 19 76 20 42 21 79 22 73 23
REMARK SMILES IDX 72 24 43 26 65 27 50 28 64 29 51 30 54 31 63 32 77 33 52 34
REMARK SMILES IDX 53 35 62 37 78 38 55 39 44 40 45 41 49 42 46 43 48 44 47 45
REMARK SMILES IDX 66 46 67 47 71 48 68 49 70 50 69 51 56 52 57 53 61 54 58 55
REMARK SMILES IDX 60 56 59 57 7 58 8 59 9 60 10 61 11 62 12 64 13 65 14 66
REMARK SMILES IDX 34 67 15 68 33 69 16 72 32 73 17 74 31 75 18 76 19 77 20 78
REMARK SMILES IDX 21 79 29 80 30 81 22 82 23 83 27 84 24 85 26 86 28 87 25 88
REMARK H PARENT 3 7 76 25 54 36 10 63 34 70 34 71
REMARK Flexibility Score: inf
ROOT
ATOM      1  C   UNL A   1      34.057  32.070  28.328  1.00  0.00     0.002 C 
ENDROOT
BRANCH   1   2
ATOM      2  C   UNL A   1      33.257  33.314  27.935  1.00  0.00     0.021 C 
BRANCH   2   3
ATOM      3  C   UNL A   1      33.864  34.656  28.329  1.00  0.00     0.116 C 
BRANCH   3   4
ATOM      4  N   UNL A   1      33.422  35.095  29.642  1.00  0.00    -0.352 N 
ATOM      5  O   UNL A   1      33.121  35.010  31.868  1.00  0.00    -0.269 OA
ATOM      6  C   UNL A   1      33.784  34.662  30.896  1.00  0.00     0.251 C 
ATOM      7  H   UNL A   1      32.755  35.819  29.633  1.00  0.00     0.163 HD
BRANCH   6   8
ATOM      8  C   UNL A   1      34.964  33.786  31.095  1.00  0.00     0.039 A 
ATOM      9  C   UNL A   1      36.215  34.127  30.582  1.00  0.00     0.014 A 
ATOM     10  C   UNL A   1      34.833  32.642  31.891  1.00  0.00     0.014 A 
ATOM     11  C   UNL A   1      37.298  33.270  30.757  1.00  0.00     0.010 A 
ATOM     12  C   UNL A   1      35.947  31.832  32.151  1.00  0.00     0.010 A 
ATOM     13  C   UNL A   1      37.188  32.129  31.572  1.00  0.00    -0.014 A 
BRANCH  13  14
ATOM     14  C   UNL A   1      38.417  31.352  31.883  1.00  0.00     0.031 A 
ATOM     15  C   UNL A   1      38.845  30.166  31.067  1.00  0.00     0.074 A 
ATOM     16  C   UNL A   1      39.192  31.765  32.906  1.00  0.00     0.049 A 
ATOM     17  N   UNL A   1      39.989  29.524  31.082  1.00  0.00    -0.248 NA
ATOM     18  C   UNL A   1      37.873  29.625  30.110  1.00  0.00     0.031 C 
ATOM     19  C   UNL A   1      38.876  32.874  33.810  1.00  0.00     0.029 A 
ATOM     20  N   UNL A   1      40.411  31.315  33.344  1.00  0.00    -0.354 N 
ATOM     21  C   UNL A   1      39.897  28.559  30.087  1.00  0.00     0.074 A 
ATOM     22  C   UNL A   1      38.562  28.642  29.544  1.00  0.00     0.031 C 
ATOM     23  C   UNL A   1      39.892  33.044  34.668  1.00  0.00     0.029 A 
ATOM     24  C   UNL A   1      40.905  32.028  34.408  1.00  0.00     0.049 A 
ATOM     25  H   UNL A   1      40.885  30.556  32.936  1.00  0.00     0.167 HD
ATOM     26  C   UNL A   1      40.842  27.693  29.652  1.00  0.00     0.031 A 
ATOM     27  C   UNL A   1      42.041  31.875  35.110  1.00  0.00     0.031 A 
ATOM     28  C   UNL A   1      42.127  27.517  30.275  1.00  0.00     0.049 A 
ATOM     29  C   UNL A   1      43.007  30.799  34.710  1.00  0.00     0.074 A 
ATOM     30  C   UNL A   1      43.141  26.639  29.934  1.00  0.00     0.029 A 
ATOM     31  N   UNL A   1      42.552  28.203  31.401  1.00  0.00    -0.354 N 
ATOM     32  N   UNL A   1      42.952  29.977  33.690  1.00  0.00    -0.248 NA
ATOM     33  C   UNL A   1      44.194  30.635  35.558  1.00  0.00     0.031 C 
ATOM     34  C   UNL A   1      44.145  26.738  30.902  1.00  0.00     0.029 A 
ATOM     35  C   UNL A   1      43.787  27.726  31.804  1.00  0.00     0.049 A 
ATOM     36  H   UNL A   1      42.049  28.922  31.849  1.00  0.00     0.167 HD
ATOM     37  C   UNL A   1      44.105  29.208  33.765  1.00  0.00     0.074 A 
ATOM     38  C   UNL A   1      44.852  29.683  34.911  1.00  0.00     0.031 C 
ATOM     39  C   UNL A   1      44.508  28.195  32.958  1.00  0.00     0.031 A 
BRANCH  26  40
ATOM     40  C   UNL A   1      40.513  26.845  28.455  1.00  0.00    -0.014 A 
ATOM     41  C   UNL A   1      41.051  27.151  27.194  1.00  0.00     0.009 A 
ATOM     42  C   UNL A   1      39.724  25.694  28.595  1.00  0.00     0.009 A 
ATOM     43  C   UNL A   1      40.795  26.326  26.096  1.00  0.00     0.001 A 
ATOM     44  C   UNL A   1      39.483  24.862  27.499  1.00  0.00     0.001 A 
ATOM     45  C   UNL A   1      40.016  25.181  26.250  1.00  0.00     0.000 A 
ENDBRANCH  26  40
BRANCH  27  46
ATOM     46  C   UNL A   1      42.306  32.741  36.290  1.00  0.00    -0.014 A 
ATOM     47  C   UNL A   1      41.874  32.370  37.571  1.00  0.00     0.009 A 
ATOM     48  C   UNL A   1      42.988  33.958  36.128  1.00  0.00     0.009 A 
ATOM     49  C   UNL A   1      42.094  33.217  38.661  1.00  0.00     0.001 A 
ATOM     50  C   UNL A   1      43.236  34.784  37.224  1.00  0.00     0.001 A 
ATOM     51  C   UNL A   1      42.777  34.419  38.488  1.00  0.00     0.000 A 
ENDBRANCH  27  46
BRANCH  39  52
ATOM     52  C   UNL A   1      45.822  27.548  33.290  1.00  0.00    -0.014 A 
ATOM     53  C   UNL A   1      45.886  26.420  34.123  1.00  0.00     0.009 A 
ATOM     54  C   UNL A   1      47.010  28.068  32.753  1.00  0.00     0.009 A 
ATOM     55  C   UNL A   1      47.120  25.854  34.449  1.00  0.00     0.001 A 
ATOM     56  C   UNL A   1      48.238  27.480  33.055  1.00  0.00     0.001 A 
ATOM     57  C   UNL A   1      48.294  26.383  33.912  1.00  0.00     0.000 A 
ENDBRANCH  39  52
ENDBRANCH  13  14
ENDBRANCH   6   8
ENDBRANCH   3   4
ENDBRANCH   2   3
ENDBRANCH   1   2
BRANCH   1  58
ATOM     58  C   UNL A   1      33.923  30.851  27.407  1.00  0.00     0.002 C 
BRANCH  58  59
ATOM     59  C   UNL A   1      32.503  30.532  26.933  1.00  0.00     0.021 C 
BRANCH  59  60
ATOM     60  C   UNL A   1      32.393  29.974  25.499  1.00  0.00     0.116 C 
BRANCH  60  61
ATOM     61  N   UNL A   1      31.100  30.283  24.907  1.00  0.00    -0.351 N 
ATOM     62  C   UNL A   1      30.359  29.918  23.841  1.00  0.00     0.278 C 
ATOM     63  H   UNL A   1      30.627  30.959  25.443  1.00  0.00     0.163 HD
ATOM     64  O   UNL A   1      29.280  30.537  23.771  1.00  0.00    -0.268 OA
BRANCH  62  65
ATOM     65  C   UNL A   1      30.673  28.914  22.693  1.00  0.00     0.273 C 
ATOM     66  C   UNL A   1      30.686  27.404  22.793  1.00  0.00     0.088 C 
ATOM     67  N   UNL A   1      31.937  29.253  22.017  1.00  0.00    -0.336 N 
ATOM     68  C   UNL A   1      32.171  26.977  22.801  1.00  0.00     0.029 C 
ATOM     69  C   UNL A   1      32.918  28.202  22.245  1.00  0.00     0.268 C 
ATOM     70  H   UNL A   1      32.293  30.135  22.386  1.00  0.00     0.346 HD
ATOM     71  H   UNL A   1      31.768  29.342  21.014  1.00  0.00     0.346 HD
ATOM     72  C   UNL A   1      32.459  25.673  22.012  1.00  0.00     0.034 C 
ATOM     73  C   UNL A   1      32.672  26.714  24.212  1.00  0.00     0.034 C 
ATOM     74  C   UNL A   1      31.934  24.386  22.694  1.00  0.00     0.120 C 
ATOM     75  C   UNL A   1      31.923  25.559  24.839  1.00  0.00     0.120 C 
ATOM     76  N   UNL A   1      32.237  24.334  24.127  1.00  0.00    -0.342 N 
ATOM     77  C   UNL A   1      32.616  23.280  24.958  1.00  0.00     0.233 C 
ATOM     78  O   UNL A   1      32.594  23.478  26.178  1.00  0.00    -0.274 OA
BRANCH  77  79
ATOM     79  C   UNL A   1      33.104  21.905  24.524  1.00  0.00     0.077 C 
ATOM     80  C   UNL A   1      32.412  20.552  24.555  1.00  0.00     0.023 C 
ATOM     81  C   UNL A   1      32.338  21.360  23.308  1.00  0.00     0.023 C 
BRANCH  79  82
ATOM     82  C   UNL A   1      34.653  21.843  24.495  1.00  0.00     0.003 A 
ATOM     83  C   UNL A   1      35.387  21.180  25.495  1.00  0.00     0.008 A 
ATOM     84  C   UNL A   1      35.389  22.602  23.567  1.00  0.00     0.127 A 
ATOM     85  C   UNL A   1      36.777  21.314  25.589  1.00  0.00     0.001 A 
ATOM     86  C   UNL A   1      36.758  22.794  23.702  1.00  0.00     0.039 A 
ATOM     87  F   UNL A   1      34.757  23.233  22.564  1.00  0.00    -0.207 F 
ATOM     88  C   UNL A   1      37.461  22.145  24.706  1.00  0.00     0.003 A 
ENDBRANCH  79  82
ENDBRANCH  77  79
ENDBRANCH  62  65
ENDBRANCH  60  61
ENDBRANCH  59  60
ENDBRANCH  58  59
ENDBRANCH   1  58
TORSDOF 15
ENDMDL
MODEL 3
REMARK VINA RESULT:     -11.6      1.436      2.091
REMARK SMILES O=C(NCCCCCCNC(=O)[C@@H]1CC2(CCN(C(=O)C3(c4ccccc4F)CC3)CC2)C[NH2+]1)c1ccc(-c2c3nc(c(-c4ccccc4)c4ccc([nH]4)c(-c4ccccc4)c4nc(c(-c5ccccc5)c5ccc2[nH]5)C=C4)C=C3)cc1
REMARK SMILES IDX 6 1 5 2 4 3 3 4 1 5 2 6 35 8 36 9 82 10 37 11 81 12 38 13
REMARK SMILES IDX 39 14 40 15 75 16 41 17 80 18 74 19 76 20 42 21 79 22 73 23
REMARK SMILES IDX 72 24 43 26 65 27 50 28 64 29 51 30 54 31 63 32 77 33 52 34
REMARK SMILES IDX 53 35 62 37 78 38 55 39 44 40 45 41 49 42 46 43 48 44 47 45
REMARK SMILES IDX 66 46 67 47 71 48 68 49 70 50 69 51 56 52 57 53 61 54 58 55
REMARK SMILES IDX 60 56 59 57 7 58 8 59 9 60 10 61 11 62 12 64 13 65 14 66
REMARK SMILES IDX 34 67 15 68 33 69 16 72 32 73 17 74 31 75 18 76 19 77 20 78
REMARK SMILES IDX 21 79 29 80 30 81 22 82 23 83 27 84 24 85 26 86 28 87 25 88
REMARK H PARENT 3 7 76 25 54 36 10 63 34 70 34 71
REMARK Flexibility Score: inf
ROOT
ATOM      1  C   UNL A   1      34.305  31.201  28.317  1.00  0.00     0.002 C 
ENDROOT
BRANCH   1   2
ATOM      2  C   UNL A   1      33.943  32.439  27.493  1.00  0.00     0.021 C 
BRANCH   2   3
ATOM      3  C   UNL A   1      32.516  32.953  27.641  1.00  0.00     0.116 C 
BRANCH   3   4
ATOM      4  N   UNL A   1      32.470  34.380  27.910  1.00  0.00    -0.352 N 
ATOM      5  O   UNL A   1      32.842  36.297  29.022  1.00  0.00    -0.269 OA
ATOM      6  C   UNL A   1      33.197  35.146  28.789  1.00  0.00     0.251 C 
ATOM      7  H   UNL A   1      31.812  34.880  27.375  1.00  0.00     0.163 HD
BRANCH   6   8
ATOM      8  C   UNL A   1      34.406  34.608  29.459  1.00  0.00     0.039 A 
ATOM      9  C   UNL A   1      34.320  33.932  30.676  1.00  0.00     0.014 A 
ATOM     10  C   UNL A   1      35.642  34.703  28.809  1.00  0.00     0.014 A 
ATOM     11  C   UNL A   1      35.475  33.464  31.297  1.00  0.00     0.010 A 
ATOM     12  C   UNL A   1      36.789  34.143  29.387  1.00  0.00     0.010 A 
ATOM     13  C   UNL A   1      36.720  33.533  30.647  1.00  0.00    -0.014 A 
BRANCH  13  14
ATOM     14  C   UNL A   1      37.888  32.850  31.265  1.00  0.00     0.031 A 
ATOM     15  C   UNL A   1      38.497  33.314  32.557  1.00  0.00     0.074 A 
ATOM     16  C   UNL A   1      38.377  31.750  30.661  1.00  0.00     0.049 A 
ATOM     17  N   UNL A   1      39.370  32.705  33.323  1.00  0.00    -0.248 NA
ATOM     18  C   UNL A   1      38.077  34.626  33.063  1.00  0.00     0.031 C 
ATOM     19  C   UNL A   1      37.913  31.213  29.379  1.00  0.00     0.029 A 
ATOM     20  N   UNL A   1      39.359  30.876  31.052  1.00  0.00    -0.354 N 
ATOM     21  C   UNL A   1      39.542  33.525  34.432  1.00  0.00     0.074 A 
ATOM     22  C   UNL A   1      38.750  34.710  34.204  1.00  0.00     0.031 C 
ATOM     23  C   UNL A   1      38.579  30.081  29.110  1.00  0.00     0.029 A 
ATOM     24  C   UNL A   1      39.549  29.840  30.172  1.00  0.00     0.049 A 
ATOM     25  H   UNL A   1      39.876  30.980  31.882  1.00  0.00     0.167 HD
ATOM     26  C   UNL A   1      40.279  33.305  35.545  1.00  0.00     0.031 A 
ATOM     27  C   UNL A   1      40.419  28.814  30.203  1.00  0.00     0.031 A 
ATOM     28  C   UNL A   1      41.171  32.189  35.720  1.00  0.00     0.049 A 
ATOM     29  C   UNL A   1      41.343  28.678  31.377  1.00  0.00     0.074 A 
ATOM     30  C   UNL A   1      41.990  31.897  36.796  1.00  0.00     0.029 A 
ATOM     31  N   UNL A   1      41.394  31.209  34.766  1.00  0.00    -0.354 N 
ATOM     32  N   UNL A   1      41.403  29.399  32.470  1.00  0.00    -0.248 NA
ATOM     33  C   UNL A   1      42.318  27.581  31.320  1.00  0.00     0.031 C 
ATOM     34  C   UNL A   1      42.768  30.783  36.459  1.00  0.00     0.029 A 
ATOM     35  C   UNL A   1      42.381  30.344  35.203  1.00  0.00     0.049 A 
ATOM     36  H   UNL A   1      40.920  31.139  33.906  1.00  0.00     0.167 HD
ATOM     37  C   UNL A   1      42.411  28.834  33.239  1.00  0.00     0.074 A 
ATOM     38  C   UNL A   1      42.912  27.693  32.499  1.00  0.00     0.031 C 
ATOM     39  C   UNL A   1      42.883  29.226  34.448  1.00  0.00     0.031 A 
BRANCH  26  40
ATOM     40  C   UNL A   1      40.174  34.308  36.660  1.00  0.00    -0.014 A 
ATOM     41  C   UNL A   1      40.993  35.450  36.674  1.00  0.00     0.009 A 
ATOM     42  C   UNL A   1      39.207  34.155  37.664  1.00  0.00     0.009 A 
ATOM     43  C   UNL A   1      40.850  36.412  37.677  1.00  0.00     0.001 A 
ATOM     44  C   UNL A   1      39.055  35.126  38.656  1.00  0.00     0.001 A 
ATOM     45  C   UNL A   1      39.879  36.251  38.664  1.00  0.00     0.000 A 
ENDBRANCH  26  40
BRANCH  27  46
ATOM     46  C   UNL A   1      40.480  27.860  29.065  1.00  0.00    -0.014 A 
ATOM     47  C   UNL A   1      39.712  26.687  29.061  1.00  0.00     0.009 A 
ATOM     48  C   UNL A   1      41.327  28.121  27.975  1.00  0.00     0.009 A 
ATOM     49  C   UNL A   1      39.816  25.780  28.003  1.00  0.00     0.001 A 
ATOM     50  C   UNL A   1      41.402  27.231  26.904  1.00  0.00     0.001 A 
ATOM     51  C   UNL A   1      40.656  26.055  26.925  1.00  0.00     0.000 A 
ENDBRANCH  27  46
BRANCH  39  52
ATOM     52  C   UNL A   1      43.989  28.402  35.042  1.00  0.00    -0.014 A 
ATOM     53  C   UNL A   1      43.712  27.289  35.851  1.00  0.00     0.009 A 
ATOM     54  C   UNL A   1      45.327  28.740  34.782  1.00  0.00     0.009 A 
ATOM     55  C   UNL A   1      44.754  26.558  36.424  1.00  0.00     0.001 A 
ATOM     56  C   UNL A   1      46.365  27.988  35.329  1.00  0.00     0.001 A 
ATOM     57  C   UNL A   1      46.079  26.906  36.160  1.00  0.00     0.000 A 
ENDBRANCH  39  52
ENDBRANCH  13  14
ENDBRANCH   6   8
ENDBRANCH   3   4
ENDBRANCH   2   3
ENDBRANCH   1   2
BRANCH   1  58
ATOM     58  C   UNL A   1      34.249  29.853  27.587  1.00  0.00     0.002 C 
BRANCH  58  59
ATOM     59  C   UNL A   1      32.916  29.519  26.914  1.00  0.00     0.021 C 
BRANCH  59  60
ATOM     60  C   UNL A   1      32.847  29.815  25.401  1.00  0.00     0.116 C 
BRANCH  60  61
ATOM     61  N   UNL A   1      31.505  30.212  24.999  1.00  0.00    -0.351 N 
ATOM     62  C   UNL A   1      30.595  29.898  24.055  1.00  0.00     0.278 C 
ATOM     63  H   UNL A   1      31.161  30.918  25.591  1.00  0.00     0.163 HD
ATOM     64  O   UNL A   1      29.561  30.588  24.136  1.00  0.00    -0.268 OA
BRANCH  62  65
ATOM     65  C   UNL A   1      30.670  28.875  22.884  1.00  0.00     0.273 C 
ATOM     66  C   UNL A   1      30.643  27.366  23.000  1.00  0.00     0.088 C 
ATOM     67  N   UNL A   1      31.812  29.159  21.998  1.00  0.00    -0.336 N 
ATOM     68  C   UNL A   1      32.091  26.880  22.762  1.00  0.00     0.029 C 
ATOM     69  C   UNL A   1      32.778  28.072  22.071  1.00  0.00     0.268 C 
ATOM     70  H   UNL A   1      32.258  30.029  22.289  1.00  0.00     0.346 HD
ATOM     71  H   UNL A   1      31.479  29.248  21.037  1.00  0.00     0.346 HD
ATOM     72  C   UNL A   1      32.191  25.561  21.952  1.00  0.00     0.034 C 
ATOM     73  C   UNL A   1      32.815  26.608  24.070  1.00  0.00     0.034 C 
ATOM     74  C   UNL A   1      31.742  24.300  22.731  1.00  0.00     0.120 C 
ATOM     75  C   UNL A   1      32.141  25.488  24.831  1.00  0.00     0.120 C 
ATOM     76  N   UNL A   1      32.283  24.247  24.092  1.00  0.00    -0.342 N 
ATOM     77  C   UNL A   1      32.758  23.184  24.861  1.00  0.00     0.233 C 
ATOM     78  O   UNL A   1      32.952  23.391  26.064  1.00  0.00    -0.274 OA
BRANCH  77  79
ATOM     79  C   UNL A   1      33.114  21.788  24.369  1.00  0.00     0.077 C 
ATOM     80  C   UNL A   1      32.304  20.501  24.368  1.00  0.00     0.023 C 
ATOM     81  C   UNL A   1      32.278  21.358  23.151  1.00  0.00     0.023 C 
BRANCH  79  82
ATOM     82  C   UNL A   1      34.650  21.591  24.302  1.00  0.00     0.003 A 
ATOM     83  C   UNL A   1      35.309  20.636  25.098  1.00  0.00     0.008 A 
ATOM     84  C   UNL A   1      35.462  22.482  23.578  1.00  0.00     0.127 A 
ATOM     85  C   UNL A   1      36.705  20.613  25.201  1.00  0.00     0.001 A 
ATOM     86  C   UNL A   1      36.842  22.506  23.736  1.00  0.00     0.039 A 
ATOM     87  F   UNL A   1      34.902  23.396  22.769  1.00  0.00    -0.207 F 
ATOM     88  C   UNL A   1      37.472  21.567  24.540  1.00  0.00     0.003 A 
ENDBRANCH  79  82
ENDBRANCH  77  79
ENDBRANCH  62  65
ENDBRANCH  60  61
ENDBRANCH  59  60
ENDBRANCH  58  59
ENDBRANCH   1  58
TORSDOF 15
ENDMDL
