MODEL 1
REMARK VINA RESULT:     -10.2      0.000      0.000
REMARK SMILES COc1cc(-c2nnc(S)n2-c2ccc(C(=O)NCCCCCCNC(=O)c3ccc(-c4c5nc(c(-c6ccccc6)c6ccc([nH]6)c(-c6ccccc6)c6nc(c(-c7ccccc7)c7ccc4[nH]7)C=C6)C=C5)cc3)cc2)cc(OC)c1OC
REMARK SMILES IDX 21 1 20 2 19 3 18 4 16 5 17 6 15 8 12 9 13 10 77 11 14 12
REMARK SMILES IDX 76 13 11 14 6 15 7 16 8 17 9 18 5 19 3 20 4 21 82 22 79 23
REMARK SMILES IDX 78 24 2 25 1 26 83 27 84 28 80 29 81 30 10 31 22 33 23 34
REMARK SMILES IDX 24 35 25 36 26 37 27 39 28 40 29 41 75 42 30 43 74 44 31 45
REMARK SMILES IDX 32 46 33 47 68 48 34 49 73 50 67 51 69 52 35 53 72 54 66 55
REMARK SMILES IDX 65 56 36 58 58 59 43 60 57 61 44 62 47 63 56 64 70 65 45 66
REMARK SMILES IDX 46 67 55 69 71 70 48 71 37 72 38 73 42 74 39 75 41 76 40 77
REMARK SMILES IDX 59 78 60 79 64 80 61 81 63 82 62 83 49 84 50 85 54 86 51 87
REMARK SMILES IDX 53 88 52 89
REMARK H PARENT 18 7 10 32 25 38 69 57 47 68
REMARK Flexibility Score: inf
ROOT
ATOM      1  C   UNL A   1      42.058  20.295  27.319  1.00  0.00     0.002 C 
ENDROOT
BRANCH   1   2
ATOM      2  C   UNL A   1      40.890  21.230  27.660  1.00  0.00     0.021 C 
BRANCH   2   3
ATOM      3  C   UNL A   1      40.016  21.566  26.448  1.00  0.00     0.116 C 
BRANCH   3   4
ATOM      4  N   UNL A   1      39.532  22.929  26.551  1.00  0.00    -0.352 N 
ATOM      5  C   UNL A   1      38.346  23.523  26.205  1.00  0.00     0.251 C 
ATOM      6  O   UNL A   1      38.229  24.732  26.406  1.00  0.00    -0.269 OA
ATOM      7  H   UNL A   1      40.184  23.551  26.948  1.00  0.00     0.163 HD
BRANCH   5   8
ATOM      8  C   UNL A   1      37.184  22.766  25.662  1.00  0.00     0.039 A 
ATOM      9  C   UNL A   1      35.031  21.193  24.830  1.00  0.00     0.050 A 
ATOM     10  C   UNL A   1      35.100  21.597  26.165  1.00  0.00     0.027 A 
ATOM     11  C   UNL A   1      35.982  21.615  23.899  1.00  0.00     0.027 A 
ATOM     12  C   UNL A   1      36.193  22.365  26.577  1.00  0.00     0.016 A 
ATOM     13  C   UNL A   1      37.019  22.449  24.312  1.00  0.00     0.016 A 
BRANCH   9  14
ATOM     14  N   UNL A   1      33.970  20.384  24.375  1.00  0.00    -0.270 N 
ATOM     15  C   UNL A   1      32.681  20.806  24.066  1.00  0.00     0.169 A 
ATOM     16  N   UNL A   1      31.917  19.742  23.897  1.00  0.00    -0.129 NA
ATOM     17  N   UNL A   1      32.699  18.617  24.051  1.00  0.00    -0.123 NA
ATOM     18  C   UNL A   1      33.920  19.009  24.336  1.00  0.00     0.193 A 
BRANCH  15  19
ATOM     19  C   UNL A   1      32.287  22.204  23.879  1.00  0.00     0.027 A 
ATOM     20  C   UNL A   1      31.284  24.266  24.693  1.00  0.00     0.165 A 
ATOM     21  C   UNL A   1      31.492  22.878  24.809  1.00  0.00     0.062 A 
ATOM     22  C   UNL A   1      31.853  25.002  23.633  1.00  0.00     0.203 A 
ATOM     23  C   UNL A   1      32.595  24.303  22.661  1.00  0.00     0.165 A 
ATOM     24  C   UNL A   1      32.791  22.920  22.789  1.00  0.00     0.062 A 
BRANCH  20  25
ATOM     25  O   UNL A   1      30.697  24.890  25.767  1.00  0.00    -0.493 OA
ATOM     26  C   UNL A   1      30.029  23.976  26.639  1.00  0.00     0.278 C 
ENDBRANCH  20  25
BRANCH  22  27
ATOM     27  O   UNL A   1      31.836  26.364  23.514  1.00  0.00    -0.490 OA
ATOM     28  C   UNL A   1      32.891  27.146  24.042  1.00  0.00     0.278 C 
ENDBRANCH  22  27
BRANCH  23  29
ATOM     29  O   UNL A   1      33.231  24.790  21.546  1.00  0.00    -0.493 OA
ATOM     30  C   UNL A   1      32.476  25.445  20.538  1.00  0.00     0.278 C 
ENDBRANCH  23  29
ENDBRANCH  15  19
BRANCH  18  31
ATOM     31  S   UNL A   1      35.222  17.949  24.771  1.00  0.00    -0.103 SA
ATOM     32  H   UNL A   1      34.747  16.682  24.914  1.00  0.00     0.111 HD
ENDBRANCH  18  31
ENDBRANCH   9  14
ENDBRANCH   5   8
ENDBRANCH   3   4
ENDBRANCH   2   3
ENDBRANCH   1   2
BRANCH   1  33
ATOM     33  C   UNL A   1      41.831  19.391  26.096  1.00  0.00     0.002 C 
BRANCH  33  34
ATOM     34  C   UNL A   1      43.017  18.499  25.701  1.00  0.00     0.021 C 
BRANCH  34  35
ATOM     35  C   UNL A   1      44.369  19.165  25.913  1.00  0.00     0.116 C 
BRANCH  35  36
ATOM     36  N   UNL A   1      44.886  19.727  24.670  1.00  0.00    -0.352 N 
ATOM     37  C   UNL A   1      44.728  20.997  24.160  1.00  0.00     0.251 C 
ATOM     38  H   UNL A   1      45.424  19.113  24.119  1.00  0.00     0.163 HD
ATOM     39  O   UNL A   1      44.883  21.209  22.968  1.00  0.00    -0.269 OA
BRANCH  37  40
ATOM     40  C   UNL A   1      44.363  22.100  25.068  1.00  0.00     0.039 A 
ATOM     41  C   UNL A   1      45.232  22.467  26.098  1.00  0.00     0.014 A 
ATOM     42  C   UNL A   1      43.142  22.754  24.900  1.00  0.00     0.014 A 
ATOM     43  C   UNL A   1      44.900  23.551  26.904  1.00  0.00     0.010 A 
ATOM     44  C   UNL A   1      42.860  23.887  25.631  1.00  0.00     0.010 A 
ATOM     45  C   UNL A   1      43.724  24.279  26.648  1.00  0.00    -0.014 A 
BRANCH  45  46
ATOM     46  C   UNL A   1      43.510  25.565  27.312  1.00  0.00     0.031 A 
ATOM     47  C   UNL A   1      44.493  26.602  26.903  1.00  0.00     0.074 A 
ATOM     48  C   UNL A   1      42.430  25.877  28.060  1.00  0.00     0.049 A 
ATOM     49  N   UNL A   1      45.451  27.089  27.618  1.00  0.00    -0.248 NA
ATOM     50  C   UNL A   1      44.525  27.031  25.494  1.00  0.00     0.031 C 
ATOM     51  C   UNL A   1      41.243  25.050  28.301  1.00  0.00     0.029 A 
ATOM     52  N   UNL A   1      42.112  27.050  28.687  1.00  0.00    -0.354 N 
ATOM     53  C   UNL A   1      46.054  28.063  26.829  1.00  0.00     0.074 A 
ATOM     54  C   UNL A   1      45.586  27.841  25.486  1.00  0.00     0.031 C 
ATOM     55  C   UNL A   1      40.253  25.813  28.817  1.00  0.00     0.029 A 
ATOM     56  C   UNL A   1      40.784  27.134  29.102  1.00  0.00     0.049 A 
ATOM     57  H   UNL A   1      42.764  27.773  28.832  1.00  0.00     0.167 HD
ATOM     58  C   UNL A   1      46.620  29.159  27.408  1.00  0.00     0.031 A 
ATOM     59  C   UNL A   1      40.162  28.205  29.653  1.00  0.00     0.031 A 
ATOM     60  C   UNL A   1      46.755  28.974  28.833  1.00  0.00     0.049 A 
ATOM     61  C   UNL A   1      41.204  29.076  30.225  1.00  0.00     0.074 A 
ATOM     62  C   UNL A   1      47.532  28.226  29.686  1.00  0.00     0.029 A 
ATOM     63  N   UNL A   1      45.651  29.381  29.535  1.00  0.00    -0.354 N 
ATOM     64  N   UNL A   1      41.896  28.752  31.277  1.00  0.00    -0.248 NA
ATOM     65  C   UNL A   1      41.721  30.201  29.455  1.00  0.00     0.031 C 
ATOM     66  C   UNL A   1      46.745  28.029  30.862  1.00  0.00     0.029 A 
ATOM     67  C   UNL A   1      45.536  28.706  30.717  1.00  0.00     0.049 A 
ATOM     68  H   UNL A   1      45.020  30.072  29.227  1.00  0.00     0.167 HD
ATOM     69  C   UNL A   1      43.143  29.288  31.031  1.00  0.00     0.074 A 
ATOM     70  C   UNL A   1      42.920  30.326  30.031  1.00  0.00     0.031 C 
ATOM     71  C   UNL A   1      44.268  28.615  31.406  1.00  0.00     0.031 A 
BRANCH  58  72
ATOM     72  C   UNL A   1      46.512  30.563  26.836  1.00  0.00    -0.014 A 
ATOM     73  C   UNL A   1      47.656  31.385  26.882  1.00  0.00     0.009 A 
ATOM     74  C   UNL A   1      45.292  31.207  26.561  1.00  0.00     0.009 A 
ATOM     75  C   UNL A   1      47.566  32.778  26.750  1.00  0.00     0.001 A 
ATOM     76  C   UNL A   1      45.203  32.594  26.395  1.00  0.00     0.001 A 
ATOM     77  C   UNL A   1      46.337  33.382  26.518  1.00  0.00     0.000 A 
ENDBRANCH  58  72
BRANCH  59  78
ATOM     78  C   UNL A   1      38.745  28.618  29.689  1.00  0.00    -0.014 A 
ATOM     79  C   UNL A   1      38.117  28.893  30.917  1.00  0.00     0.009 A 
ATOM     80  C   UNL A   1      38.108  29.047  28.514  1.00  0.00     0.009 A 
ATOM     81  C   UNL A   1      36.933  29.638  30.972  1.00  0.00     0.001 A 
ATOM     82  C   UNL A   1      36.922  29.790  28.569  1.00  0.00     0.001 A 
ATOM     83  C   UNL A   1      36.348  30.105  29.798  1.00  0.00     0.000 A 
ENDBRANCH  59  78
BRANCH  71  84
ATOM     84  C   UNL A   1      44.118  27.585  32.491  1.00  0.00    -0.014 A 
ATOM     85  C   UNL A   1      44.114  26.199  32.261  1.00  0.00     0.009 A 
ATOM     86  C   UNL A   1      44.018  28.045  33.811  1.00  0.00     0.009 A 
ATOM     87  C   UNL A   1      43.965  25.302  33.324  1.00  0.00     0.001 A 
ATOM     88  C   UNL A   1      43.895  27.149  34.874  1.00  0.00     0.001 A 
ATOM     89  C   UNL A   1      43.857  25.778  34.629  1.00  0.00     0.000 A 
ENDBRANCH  71  84
ENDBRANCH  45  46
ENDBRANCH  37  40
ENDBRANCH  35  36
ENDBRANCH  34  35
ENDBRANCH  33  34
ENDBRANCH   1  33
TORSDOF 19
ENDMDL
MODEL 2
REMARK VINA RESULT:     -10.0      3.726      6.144
REMARK SMILES COc1cc(-c2nnc(S)n2-c2ccc(C(=O)NCCCCCCNC(=O)c3ccc(-c4c5nc(c(-c6ccccc6)c6ccc([nH]6)c(-c6ccccc6)c6nc(c(-c7ccccc7)c7ccc4[nH]7)C=C6)C=C5)cc3)cc2)cc(OC)c1OC
REMARK SMILES IDX 21 1 20 2 19 3 18 4 16 5 17 6 15 8 12 9 13 10 77 11 14 12
REMARK SMILES IDX 76 13 11 14 6 15 7 16 8 17 9 18 5 19 3 20 4 21 82 22 79 23
REMARK SMILES IDX 78 24 2 25 1 26 83 27 84 28 80 29 81 30 10 31 22 33 23 34
REMARK SMILES IDX 24 35 25 36 26 37 27 39 28 40 29 41 75 42 30 43 74 44 31 45
REMARK SMILES IDX 32 46 33 47 68 48 34 49 73 50 67 51 69 52 35 53 72 54 66 55
REMARK SMILES IDX 65 56 36 58 58 59 43 60 57 61 44 62 47 63 56 64 70 65 45 66
REMARK SMILES IDX 46 67 55 69 71 70 48 71 37 72 38 73 42 74 39 75 41 76 40 77
REMARK SMILES IDX 59 78 60 79 64 80 61 81 63 82 62 83 49 84 50 85 54 86 51 87
REMARK SMILES IDX 53 88 52 89
REMARK H PARENT 18 7 10 32 25 38 69 57 47 68
REMARK Flexibility Score: inf
ROOT
ATOM      1  C   UNL A   1      34.484  21.739  24.397  1.00  0.00     0.002 C 
ENDROOT
BRANCH   1   2
ATOM      2  C   UNL A   1      33.231  22.457  23.877  1.00  0.00     0.021 C 
BRANCH   2   3
ATOM      3  C   UNL A   1      33.456  23.951  23.626  1.00  0.00     0.116 C 
BRANCH   3   4
ATOM      4  N   UNL A   1      33.411  24.226  22.203  1.00  0.00    -0.352 N 
ATOM      5  C   UNL A   1      32.937  25.286  21.475  1.00  0.00     0.251 C 
ATOM      6  O   UNL A   1      33.028  25.227  20.249  1.00  0.00    -0.269 OA
ATOM      7  H   UNL A   1      33.799  23.509  21.650  1.00  0.00     0.163 HD
BRANCH   5   8
ATOM      8  C   UNL A   1      32.381  26.518  22.100  1.00  0.00     0.039 A 
ATOM      9  C   UNL A   1      31.139  28.795  23.139  1.00  0.00     0.050 A 
ATOM     10  C   UNL A   1      30.431  27.592  23.104  1.00  0.00     0.027 A 
ATOM     11  C   UNL A   1      32.470  28.860  22.723  1.00  0.00     0.027 A 
ATOM     12  C   UNL A   1      31.053  26.463  22.563  1.00  0.00     0.016 A 
ATOM     13  C   UNL A   1      33.099  27.705  22.262  1.00  0.00     0.016 A 
BRANCH   9  14
ATOM     14  N   UNL A   1      30.541  29.969  23.638  1.00  0.00    -0.270 N 
ATOM     15  C   UNL A   1      30.718  30.513  24.907  1.00  0.00     0.169 A 
ATOM     16  N   UNL A   1      29.830  31.475  25.081  1.00  0.00    -0.129 NA
ATOM     17  N   UNL A   1      29.093  31.602  23.923  1.00  0.00    -0.123 NA
ATOM     18  C   UNL A   1      29.523  30.701  23.069  1.00  0.00     0.193 A 
BRANCH  15  19
ATOM     19  C   UNL A   1      31.779  30.121  25.838  1.00  0.00     0.027 A 
ATOM     20  C   UNL A   1      33.355  28.487  26.711  1.00  0.00     0.165 A 
ATOM     21  C   UNL A   1      32.216  28.799  25.944  1.00  0.00     0.062 A 
ATOM     22  C   UNL A   1      34.067  29.491  27.401  1.00  0.00     0.203 A 
ATOM     23  C   UNL A   1      33.577  30.810  27.345  1.00  0.00     0.165 A 
ATOM     24  C   UNL A   1      32.439  31.105  26.580  1.00  0.00     0.062 A 
BRANCH  20  25
ATOM     25  O   UNL A   1      33.859  27.216  26.573  1.00  0.00    -0.493 OA
ATOM     26  C   UNL A   1      32.865  26.269  26.175  1.00  0.00     0.278 C 
ENDBRANCH  20  25
BRANCH  22  27
ATOM     27  O   UNL A   1      35.260  29.317  28.044  1.00  0.00    -0.490 OA
ATOM     28  C   UNL A   1      36.462  29.803  27.476  1.00  0.00     0.278 C 
ENDBRANCH  22  27
BRANCH  23  29
ATOM     29  O   UNL A   1      34.084  31.944  27.932  1.00  0.00    -0.493 OA
ATOM     30  C   UNL A   1      33.326  33.144  27.908  1.00  0.00     0.278 C 
ENDBRANCH  23  29
ENDBRANCH  15  19
BRANCH  18  31
ATOM     31  S   UNL A   1      28.795  30.371  21.530  1.00  0.00    -0.103 SA
ATOM     32  H   UNL A   1      27.918  29.339  21.654  1.00  0.00     0.111 HD
ENDBRANCH  18  31
ENDBRANCH   9  14
ENDBRANCH   5   8
ENDBRANCH   3   4
ENDBRANCH   2   3
ENDBRANCH   1   2
BRANCH   1  33
ATOM     33  C   UNL A   1      35.779  22.565  24.335  1.00  0.00     0.002 C 
BRANCH  33  34
ATOM     34  C   UNL A   1      37.065  21.812  24.708  1.00  0.00     0.021 C 
BRANCH  34  35
ATOM     35  C   UNL A   1      38.060  22.667  25.481  1.00  0.00     0.116 C 
BRANCH  35  36
ATOM     36  N   UNL A   1      38.871  21.856  26.382  1.00  0.00    -0.352 N 
ATOM     37  C   UNL A   1      39.960  22.227  27.140  1.00  0.00     0.251 C 
ATOM     38  H   UNL A   1      38.603  20.912  26.459  1.00  0.00     0.163 HD
ATOM     39  O   UNL A   1      40.753  21.388  27.537  1.00  0.00    -0.269 OA
BRANCH  37  40
ATOM     40  C   UNL A   1      40.162  23.650  27.465  1.00  0.00     0.039 A 
ATOM     41  C   UNL A   1      39.118  24.560  27.283  1.00  0.00     0.014 A 
ATOM     42  C   UNL A   1      41.404  24.078  27.936  1.00  0.00     0.014 A 
ATOM     43  C   UNL A   1      39.307  25.887  27.656  1.00  0.00     0.010 A 
ATOM     44  C   UNL A   1      41.561  25.367  28.398  1.00  0.00     0.010 A 
ATOM     45  C   UNL A   1      40.523  26.281  28.242  1.00  0.00    -0.014 A 
BRANCH  45  46
ATOM     46  C   UNL A   1      40.629  27.596  28.876  1.00  0.00     0.031 A 
ATOM     47  C   UNL A   1      41.616  28.485  28.211  1.00  0.00     0.074 A 
ATOM     48  C   UNL A   1      39.793  28.062  29.829  1.00  0.00     0.049 A 
ATOM     49  N   UNL A   1      42.764  28.853  28.672  1.00  0.00    -0.248 NA
ATOM     50  C   UNL A   1      41.382  28.882  26.811  1.00  0.00     0.031 C 
ATOM     51  C   UNL A   1      38.597  27.404  30.366  1.00  0.00     0.029 A 
ATOM     52  N   UNL A   1      39.775  29.277  30.455  1.00  0.00    -0.354 N 
ATOM     53  C   UNL A   1      43.291  29.724  27.725  1.00  0.00     0.074 A 
ATOM     54  C   UNL A   1      42.508  29.543  26.531  1.00  0.00     0.031 C 
ATOM     55  C   UNL A   1      37.853  28.301  31.052  1.00  0.00     0.029 A 
ATOM     56  C   UNL A   1      38.597  29.544  31.150  1.00  0.00     0.049 A 
ATOM     57  H   UNL A   1      40.528  29.909  30.418  1.00  0.00     0.167 HD
ATOM     58  C   UNL A   1      44.107  30.745  28.112  1.00  0.00     0.031 A 
ATOM     59  C   UNL A   1      38.256  30.698  31.775  1.00  0.00     0.031 A 
ATOM     60  C   UNL A   1      44.535  30.568  29.478  1.00  0.00     0.049 A 
ATOM     61  C   UNL A   1      39.501  31.433  32.060  1.00  0.00     0.074 A 
ATOM     62  C   UNL A   1      45.385  29.738  30.172  1.00  0.00     0.029 A 
ATOM     63  N   UNL A   1      43.679  31.130  30.387  1.00  0.00    -0.354 N 
ATOM     64  N   UNL A   1      40.367  31.037  32.946  1.00  0.00    -0.248 NA
ATOM     65  C   UNL A   1      39.968  32.465  31.143  1.00  0.00     0.031 C 
ATOM     66  C   UNL A   1      44.865  29.667  31.501  1.00  0.00     0.029 A 
ATOM     67  C   UNL A   1      43.750  30.497  31.596  1.00  0.00     0.049 A 
ATOM     68  H   UNL A   1      43.087  31.894  30.195  1.00  0.00     0.167 HD
ATOM     69  C   UNL A   1      41.583  31.398  32.405  1.00  0.00     0.074 A 
ATOM     70  C   UNL A   1      41.272  32.439  31.432  1.00  0.00     0.031 C 
ATOM     71  C   UNL A   1      42.669  30.587  32.553  1.00  0.00     0.031 A 
BRANCH  58  72
ATOM     72  C   UNL A   1      44.050  32.140  27.513  1.00  0.00    -0.014 A 
ATOM     73  C   UNL A   1      44.224  32.270  26.120  1.00  0.00     0.009 A 
ATOM     74  C   UNL A   1      44.156  33.323  28.267  1.00  0.00     0.009 A 
ATOM     75  C   UNL A   1      44.573  33.494  25.534  1.00  0.00     0.001 A 
ATOM     76  C   UNL A   1      44.471  34.554  27.681  1.00  0.00     0.001 A 
ATOM     77  C   UNL A   1      44.708  34.634  26.317  1.00  0.00     0.000 A 
ENDBRANCH  58  72
BRANCH  59  78
ATOM     78  C   UNL A   1      36.947  31.297  32.105  1.00  0.00    -0.014 A 
ATOM     79  C   UNL A   1      36.752  31.938  33.341  1.00  0.00     0.009 A 
ATOM     80  C   UNL A   1      36.000  31.517  31.093  1.00  0.00     0.009 A 
ATOM     81  C   UNL A   1      35.688  32.829  33.533  1.00  0.00     0.001 A 
ATOM     82  C   UNL A   1      34.935  32.406  31.285  1.00  0.00     0.001 A 
ATOM     83  C   UNL A   1      34.793  33.079  32.496  1.00  0.00     0.000 A 
ENDBRANCH  59  78
BRANCH  71  84
ATOM     84  C   UNL A   1      42.640  29.606  33.690  1.00  0.00    -0.014 A 
ATOM     85  C   UNL A   1      43.113  29.890  34.983  1.00  0.00     0.009 A 
ATOM     86  C   UNL A   1      42.069  28.349  33.448  1.00  0.00     0.009 A 
ATOM     87  C   UNL A   1      43.055  28.920  35.990  1.00  0.00     0.001 A 
ATOM     88  C   UNL A   1      41.989  27.392  34.459  1.00  0.00     0.001 A 
ATOM     89  C   UNL A   1      42.493  27.673  35.727  1.00  0.00     0.000 A 
ENDBRANCH  71  84
ENDBRANCH  45  46
ENDBRANCH  37  40
ENDBRANCH  35  36
ENDBRANCH  34  35
ENDBRANCH  33  34
ENDBRANCH   1  33
TORSDOF 19
ENDMDL
MODEL 3
REMARK VINA RESULT:      -9.8      3.484      8.639
REMARK SMILES COc1cc(-c2nnc(S)n2-c2ccc(C(=O)NCCCCCCNC(=O)c3ccc(-c4c5nc(c(-c6ccccc6)c6ccc([nH]6)c(-c6ccccc6)c6nc(c(-c7ccccc7)c7ccc4[nH]7)C=C6)C=C5)cc3)cc2)cc(OC)c1OC
REMARK SMILES IDX 21 1 20 2 19 3 18 4 16 5 17 6 15 8 12 9 13 10 77 11 14 12
REMARK SMILES IDX 76 13 11 14 6 15 7 16 8 17 9 18 5 19 3 20 4 21 82 22 79 23
REMARK SMILES IDX 78 24 2 25 1 26 83 27 84 28 80 29 81 30 10 31 22 33 23 34
REMARK SMILES IDX 24 35 25 36 26 37 27 39 28 40 29 41 75 42 30 43 74 44 31 45
REMARK SMILES IDX 32 46 33 47 68 48 34 49 73 50 67 51 69 52 35 53 72 54 66 55
REMARK SMILES IDX 65 56 36 58 58 59 43 60 57 61 44 62 47 63 56 64 70 65 45 66
REMARK SMILES IDX 46 67 55 69 71 70 48 71 37 72 38 73 42 74 39 75 41 76 40 77
REMARK SMILES IDX 59 78 60 79 64 80 61 81 63 82 62 83 49 84 50 85 54 86 51 87
REMARK SMILES IDX 53 88 52 89
REMARK H PARENT 18 7 10 32 25 38 69 57 47 68
REMARK Flexibility Score: inf
ROOT
ATOM      1  C   UNL A   1      34.641  33.869  29.792  1.00  0.00     0.002 C 
ENDROOT
BRANCH   1   2
ATOM      2  C   UNL A   1      34.033  32.662  29.064  1.00  0.00     0.021 C 
BRANCH   2   3
ATOM      3  C   UNL A   1      34.795  32.283  27.790  1.00  0.00     0.116 C 
BRANCH   3   4
ATOM      4  N   UNL A   1      35.572  31.080  28.018  1.00  0.00    -0.352 N 
ATOM      5  C   UNL A   1      35.384  29.770  27.660  1.00  0.00     0.251 C 
ATOM      6  O   UNL A   1      36.230  28.950  28.018  1.00  0.00    -0.269 OA
ATOM      7  H   UNL A   1      36.398  31.235  28.532  1.00  0.00     0.163 HD
BRANCH   5   8
ATOM      8  C   UNL A   1      34.248  29.313  26.813  1.00  0.00     0.039 A 
ATOM      9  C   UNL A   1      32.067  28.293  25.397  1.00  0.00     0.050 A 
ATOM     10  C   UNL A   1      31.908  28.618  26.745  1.00  0.00     0.027 A 
ATOM     11  C   UNL A   1      33.274  28.528  24.736  1.00  0.00     0.027 A 
ATOM     12  C   UNL A   1      33.011  29.108  27.452  1.00  0.00     0.016 A 
ATOM     13  C   UNL A   1      34.338  29.093  25.437  1.00  0.00     0.016 A 
BRANCH   9  14
ATOM     14  N   UNL A   1      30.996  27.758  24.653  1.00  0.00    -0.270 N 
ATOM     15  C   UNL A   1      30.754  26.410  24.402  1.00  0.00     0.169 A 
ATOM     16  N   UNL A   1      29.802  26.314  23.492  1.00  0.00    -0.129 NA
ATOM     17  N   UNL A   1      29.382  27.586  23.167  1.00  0.00    -0.123 NA
ATOM     18  C   UNL A   1      30.099  28.439  23.862  1.00  0.00     0.193 A 
BRANCH  15  19
ATOM     19  C   UNL A   1      31.402  25.304  25.111  1.00  0.00     0.027 A 
ATOM     20  C   UNL A   1      31.369  23.516  26.760  1.00  0.00     0.165 A 
ATOM     21  C   UNL A   1      30.810  24.688  26.216  1.00  0.00     0.062 A 
ATOM     22  C   UNL A   1      32.542  22.949  26.220  1.00  0.00     0.203 A 
ATOM     23  C   UNL A   1      33.172  23.617  25.151  1.00  0.00     0.165 A 
ATOM     24  C   UNL A   1      32.604  24.785  24.622  1.00  0.00     0.062 A 
BRANCH  20  25
ATOM     25  O   UNL A   1      30.605  22.841  27.682  1.00  0.00    -0.493 OA
ATOM     26  C   UNL A   1      29.236  22.727  27.285  1.00  0.00     0.278 C 
ENDBRANCH  20  25
BRANCH  22  27
ATOM     27  O   UNL A   1      33.077  21.742  26.576  1.00  0.00    -0.490 OA
ATOM     28  C   UNL A   1      34.250  21.679  27.366  1.00  0.00     0.278 C 
ENDBRANCH  22  27
BRANCH  23  29
ATOM     29  O   UNL A   1      34.313  23.271  24.471  1.00  0.00    -0.493 OA
ATOM     30  C   UNL A   1      34.321  23.307  23.052  1.00  0.00     0.278 C 
ENDBRANCH  23  29
ENDBRANCH  15  19
BRANCH  18  31
ATOM     31  S   UNL A   1      30.041  30.163  23.675  1.00  0.00    -0.103 SA
ATOM     32  H   UNL A   1      29.877  30.471  22.361  1.00  0.00     0.111 HD
ENDBRANCH  18  31
ENDBRANCH   9  14
ENDBRANCH   5   8
ENDBRANCH   3   4
ENDBRANCH   2   3
ENDBRANCH   1   2
BRANCH   1  33
ATOM     33  C   UNL A   1      34.766  33.713  31.316  1.00  0.00     0.002 C 
BRANCH  33  34
ATOM     34  C   UNL A   1      35.901  34.512  31.974  1.00  0.00     0.021 C 
BRANCH  34  35
ATOM     35  C   UNL A   1      37.276  33.896  31.754  1.00  0.00     0.116 C 
BRANCH  35  36
ATOM     36  N   UNL A   1      37.956  34.507  30.617  1.00  0.00    -0.352 N 
ATOM     37  C   UNL A   1      39.161  34.166  30.043  1.00  0.00     0.251 C 
ATOM     38  H   UNL A   1      37.489  35.267  30.202  1.00  0.00     0.163 HD
ATOM     39  O   UNL A   1      39.774  34.975  29.365  1.00  0.00    -0.269 OA
BRANCH  37  40
ATOM     40  C   UNL A   1      39.708  32.814  30.258  1.00  0.00     0.039 A 
ATOM     41  C   UNL A   1      38.860  31.705  30.207  1.00  0.00     0.014 A 
ATOM     42  C   UNL A   1      41.068  32.657  30.529  1.00  0.00     0.014 A 
ATOM     43  C   UNL A   1      39.404  30.433  30.349  1.00  0.00     0.010 A 
ATOM     44  C   UNL A   1      41.622  31.396  30.570  1.00  0.00     0.010 A 
ATOM     45  C   UNL A   1      40.794  30.281  30.501  1.00  0.00    -0.014 A 
BRANCH  45  46
ATOM     46  C   UNL A   1      41.393  28.952  30.380  1.00  0.00     0.031 A 
ATOM     47  C   UNL A   1      41.952  28.447  31.660  1.00  0.00     0.074 A 
ATOM     48  C   UNL A   1      41.288  28.153  29.295  1.00  0.00     0.049 A 
ATOM     49  N   UNL A   1      43.200  28.308  31.962  1.00  0.00    -0.248 NA
ATOM     50  C   UNL A   1      41.038  28.224  32.794  1.00  0.00     0.031 C 
ATOM     51  C   UNL A   1      40.514  28.405  28.075  1.00  0.00     0.029 A 
ATOM     52  N   UNL A   1      41.769  26.890  29.092  1.00  0.00    -0.354 N 
ATOM     53  C   UNL A   1      43.222  27.750  33.236  1.00  0.00     0.074 A 
ATOM     54  C   UNL A   1      41.894  27.912  33.770  1.00  0.00     0.031 C 
ATOM     55  C   UNL A   1      40.391  27.257  27.369  1.00  0.00     0.029 A 
ATOM     56  C   UNL A   1      41.213  26.237  27.994  1.00  0.00     0.049 A 
ATOM     57  H   UNL A   1      42.449  26.477  29.672  1.00  0.00     0.167 HD
ATOM     58  C   UNL A   1      44.235  26.915  33.601  1.00  0.00     0.031 A 
ATOM     59  C   UNL A   1      41.419  24.953  27.611  1.00  0.00     0.031 A 
ATOM     60  C   UNL A   1      45.319  26.981  32.651  1.00  0.00     0.049 A 
ATOM     61  C   UNL A   1      42.696  24.514  28.203  1.00  0.00     0.074 A 
ATOM     62  C   UNL A   1      46.299  27.878  32.296  1.00  0.00     0.029 A 
ATOM     63  N   UNL A   1      45.184  26.091  31.618  1.00  0.00    -0.354 N 
ATOM     64  N   UNL A   1      43.849  24.970  27.812  1.00  0.00    -0.248 NA
ATOM     65  C   UNL A   1      42.705  23.781  29.463  1.00  0.00     0.031 C 
ATOM     66  C   UNL A   1      46.594  27.613  30.923  1.00  0.00     0.029 A 
ATOM     67  C   UNL A   1      45.829  26.529  30.497  1.00  0.00     0.049 A 
ATOM     68  H   UNL A   1      44.685  25.244  31.676  1.00  0.00     0.167 HD
ATOM     69  C   UNL A   1      44.600  25.008  28.969  1.00  0.00     0.074 A 
ATOM     70  C   UNL A   1      43.937  24.085  29.882  1.00  0.00     0.031 C 
ATOM     71  C   UNL A   1      45.476  26.029  29.187  1.00  0.00     0.031 A 
BRANCH  58  72
ATOM     72  C   UNL A   1      44.032  25.658  34.430  1.00  0.00    -0.014 A 
ATOM     73  C   UNL A   1      45.030  25.314  35.364  1.00  0.00     0.009 A 
ATOM     74  C   UNL A   1      43.098  24.653  34.117  1.00  0.00     0.009 A 
ATOM     75  C   UNL A   1      45.136  24.016  35.882  1.00  0.00     0.001 A 
ATOM     76  C   UNL A   1      43.181  23.365  34.658  1.00  0.00     0.001 A 
ATOM     77  C   UNL A   1      44.217  23.038  35.519  1.00  0.00     0.000 A 
ENDBRANCH  58  72
BRANCH  59  78
ATOM     78  C   UNL A   1      40.596  24.006  26.833  1.00  0.00    -0.014 A 
ATOM     79  C   UNL A   1      41.095  22.732  26.509  1.00  0.00     0.009 A 
ATOM     80  C   UNL A   1      39.218  24.230  26.686  1.00  0.00     0.009 A 
ATOM     81  C   UNL A   1      40.235  21.696  26.124  1.00  0.00     0.001 A 
ATOM     82  C   UNL A   1      38.359  23.194  26.298  1.00  0.00     0.001 A 
ATOM     83  C   UNL A   1      38.864  21.923  26.040  1.00  0.00     0.000 A 
ENDBRANCH  59  78
BRANCH  71  84
ATOM     84  C   UNL A   1      45.957  26.786  27.981  1.00  0.00    -0.014 A 
ATOM     85  C   UNL A   1      47.186  26.546  27.342  1.00  0.00     0.009 A 
ATOM     86  C   UNL A   1      45.104  27.761  27.445  1.00  0.00     0.009 A 
ATOM     87  C   UNL A   1      47.565  27.297  26.224  1.00  0.00     0.001 A 
ATOM     88  C   UNL A   1      45.472  28.492  26.315  1.00  0.00     0.001 A 
ATOM     89  C   UNL A   1      46.708  28.269  25.712  1.00  0.00     0.000 A 
ENDBRANCH  71  84
ENDBRANCH  45  46
ENDBRANCH  37  40
ENDBRANCH  35  36
ENDBRANCH  34  35
ENDBRANCH  33  34
ENDBRANCH   1  33
TORSDOF 19
ENDMDL
