MODEL 1
REMARK VINA RESULT:     -12.2      0.000      0.000
REMARK SMILES Cc1ccc(S(=O)(=O)n2cc(C(=O)C(=O)N[C@@H](Cc3c[nH]c4ccccc34)C(=O)NCC(=O)NCCCCCCNC(=O)c3ccc(-c4c5nc(c(-c6ccccc6)c6ccc([nH]6)c(-c6ccccc6)c6nc(c(-c7ccccc7)c7ccc4[nH]7)C=C6)C=C5)cc3)c3ccccc32)cc1
REMARK SMILES IDX 35 1 34 2 32 3 33 4 31 6 30 7 28 8 29 9 17 11 16 12 14 13
REMARK SMILES IDX 15 14 12 16 13 17 11 18 9 19 10 20 97 21 92 22 96 23 93 24
REMARK SMILES IDX 95 25 94 26 6 27 7 28 8 29 5 30 1 31 2 32 3 33 99 34 4 35
REMARK SMILES IDX 98 36 18 37 19 38 20 39 27 40 21 41 22 42 26 43 23 45 25 46
REMARK SMILES IDX 24 47 36 48 37 49 38 50 39 51 40 52 41 53 42 54 43 56 44 57
REMARK SMILES IDX 45 58 91 59 46 60 90 61 47 62 48 63 49 64 84 65 50 66 89 67
REMARK SMILES IDX 83 68 85 69 51 70 88 71 82 72 81 73 52 75 74 76 59 77 73 78
REMARK SMILES IDX 60 79 63 80 72 81 86 82 61 83 62 84 71 86 87 87 64 88 53 89
REMARK SMILES IDX 54 90 58 91 55 92 57 93 56 94 75 95 76 96 80 97 77 98 79 99
REMARK SMILES IDX 78 100 65 101 66 102 70 103 67 104 69 105 68 106
REMARK H PARENT 34 5 30 10 16 15 21 44 41 55 85 74 63 85
REMARK Flexibility Score: inf
ROOT
ATOM      1  C   UNL A   1      40.189  21.899  27.035  1.00  0.00     0.116 C 
ENDROOT
BRANCH   1   2
ATOM      2  N   UNL A   1      39.882  23.307  26.952  1.00  0.00    -0.355 N 
ATOM      3  C   UNL A   1      38.738  23.877  26.477  1.00  0.00     0.239 C 
ATOM      4  O   UNL A   1      38.601  25.098  26.566  1.00  0.00    -0.273 OA
ATOM      5  H   UNL A   1      40.577  23.926  27.275  1.00  0.00     0.163 HD
BRANCH   3   6
ATOM      6  C   UNL A   1      37.587  22.969  26.043  1.00  0.00     0.216 C 
BRANCH   6   7
ATOM      7  N   UNL A   1      37.398  22.667  24.636  1.00  0.00    -0.345 N 
ATOM      8  C   UNL A   1      36.485  23.150  23.744  1.00  0.00     0.243 C 
ATOM      9  O   UNL A   1      36.781  23.024  22.549  1.00  0.00    -0.273 OA
ATOM     10  H   UNL A   1      38.030  22.008  24.266  1.00  0.00     0.164 HD
BRANCH   8  11
ATOM     11  C   UNL A   1      35.181  23.924  24.129  1.00  0.00     0.176 C 
BRANCH  11  12
ATOM     12  N   UNL A   1      33.907  23.466  23.523  1.00  0.00    -0.337 N 
ATOM     13  C   UNL A   1      32.902  24.163  22.856  1.00  0.00     0.293 C 
ATOM     14  O   UNL A   1      31.823  23.621  22.636  1.00  0.00    -0.265 OA
ATOM     15  H   UNL A   1      33.744  22.499  23.605  1.00  0.00     0.164 HD
BRANCH  13  16
ATOM     16  C   UNL A   1      33.145  25.568  22.292  1.00  0.00     0.252 C 
ATOM     17  O   UNL A   1      33.565  25.597  21.135  1.00  0.00    -0.283 OA
BRANCH  16  18
ATOM     18  C   UNL A   1      32.959  26.811  23.076  1.00  0.00     0.054 A 
ATOM     19  N   UNL A   1      33.138  28.678  24.375  1.00  0.00    -0.240 N 
ATOM     20  C   UNL A   1      33.831  27.558  23.888  1.00  0.00     0.117 A 
ATOM     21  C   UNL A   1      31.904  28.718  23.698  1.00  0.00     0.065 A 
ATOM     22  C   UNL A   1      31.679  27.424  23.237  1.00  0.00     0.012 A 
ATOM     23  C   UNL A   1      30.875  29.680  23.712  1.00  0.00     0.028 A 
ATOM     24  C   UNL A   1      30.349  27.019  22.993  1.00  0.00     0.011 A 
ATOM     25  C   UNL A   1      29.565  29.240  23.534  1.00  0.00     0.002 A 
ATOM     26  C   UNL A   1      29.300  27.914  23.225  1.00  0.00     0.001 A 
BRANCH  19  27
ATOM     27  S   UNL A   1      32.950  29.135  26.068  1.00  0.00     0.268 S 
ATOM     28  O   UNL A   1      34.108  28.527  26.703  1.00  0.00    -0.201 OA
ATOM     29  O   UNL A   1      31.601  28.665  26.356  1.00  0.00    -0.201 OA
BRANCH  27  30
ATOM     30  C   UNL A   1      32.861  30.767  26.721  1.00  0.00     0.088 A 
ATOM     31  C   UNL A   1      33.464  34.489  28.854  1.00  0.00     0.044 C 
ATOM     32  C   UNL A   1      33.238  33.227  28.071  1.00  0.00    -0.051 A 
ATOM     33  C   UNL A   1      34.234  32.264  28.117  1.00  0.00     0.005 A 
ATOM     34  C   UNL A   1      32.062  32.953  27.335  1.00  0.00     0.005 A 
ATOM     35  C   UNL A   1      34.048  31.069  27.443  1.00  0.00     0.022 A 
ATOM     36  C   UNL A   1      31.860  31.720  26.657  1.00  0.00     0.022 A 
ENDBRANCH  27  30
ENDBRANCH  19  27
ENDBRANCH  16  18
ENDBRANCH  13  16
ENDBRANCH  11  12
BRANCH  11  37
ATOM     37  C   UNL A   1      35.067  24.194  25.668  1.00  0.00     0.072 C 
BRANCH  37  38
ATOM     38  C   UNL A   1      33.911  23.570  26.418  1.00  0.00    -0.020 A 
ATOM     39  C   UNL A   1      33.939  22.350  27.075  1.00  0.00     0.087 A 
ATOM     40  C   UNL A   1      32.563  24.061  26.551  1.00  0.00     0.003 A 
ATOM     41  N   UNL A   1      32.662  22.029  27.460  1.00  0.00    -0.361 N 
ATOM     42  C   UNL A   1      31.789  23.006  27.041  1.00  0.00     0.046 A 
ATOM     43  C   UNL A   1      31.898  25.244  26.166  1.00  0.00     0.010 A 
ATOM     44  H   UNL A   1      32.408  21.221  27.961  1.00  0.00     0.166 HD
ATOM     45  C   UNL A   1      30.389  23.019  27.027  1.00  0.00     0.026 A 
ATOM     46  C   UNL A   1      30.499  25.267  26.123  1.00  0.00     0.001 A 
ATOM     47  C   UNL A   1      29.759  24.158  26.520  1.00  0.00     0.002 A 
ENDBRANCH  37  38
ENDBRANCH  11  37
ENDBRANCH   8  11
ENDBRANCH   6   7
ENDBRANCH   3   6
ENDBRANCH   1   2
BRANCH   1  48
ATOM     48  C   UNL A   1      41.311  21.621  28.021  1.00  0.00     0.021 C 
BRANCH  48  49
ATOM     49  C   UNL A   1      42.612  22.362  27.709  1.00  0.00     0.002 C 
BRANCH  49  50
ATOM     50  C   UNL A   1      42.949  23.548  28.629  1.00  0.00     0.002 C 
BRANCH  50  51
ATOM     51  C   UNL A   1      43.423  24.827  27.936  1.00  0.00     0.021 C 
BRANCH  51  52
ATOM     52  C   UNL A   1      42.319  25.628  27.270  1.00  0.00     0.116 C 
BRANCH  52  53
ATOM     53  N   UNL A   1      42.716  26.287  26.038  1.00  0.00    -0.352 N 
ATOM     54  C   UNL A   1      42.411  27.560  25.570  1.00  0.00     0.251 C 
ATOM     55  H   UNL A   1      43.289  25.751  25.445  1.00  0.00     0.163 HD
ATOM     56  O   UNL A   1      42.783  27.906  24.475  1.00  0.00    -0.269 OA
BRANCH  54  57
ATOM     57  C   UNL A   1      41.755  28.537  26.486  1.00  0.00     0.039 A 
ATOM     58  C   UNL A   1      42.589  29.420  27.186  1.00  0.00     0.014 A 
ATOM     59  C   UNL A   1      40.409  28.445  26.819  1.00  0.00     0.014 A 
ATOM     60  C   UNL A   1      42.141  29.988  28.374  1.00  0.00     0.010 A 
ATOM     61  C   UNL A   1      39.998  28.907  28.051  1.00  0.00     0.010 A 
ATOM     62  C   UNL A   1      40.889  29.620  28.859  1.00  0.00    -0.014 A 
BRANCH  62  63
ATOM     63  C   UNL A   1      40.454  29.841  30.229  1.00  0.00     0.031 A 
ATOM     64  C   UNL A   1      39.603  30.995  30.561  1.00  0.00     0.074 A 
ATOM     65  C   UNL A   1      40.733  28.915  31.171  1.00  0.00     0.049 A 
ATOM     66  N   UNL A   1      39.440  31.448  31.756  1.00  0.00    -0.248 NA
ATOM     67  C   UNL A   1      38.901  31.774  29.549  1.00  0.00     0.031 C 
ATOM     68  C   UNL A   1      40.127  28.767  32.492  1.00  0.00     0.029 A 
ATOM     69  N   UNL A   1      41.812  28.032  31.188  1.00  0.00    -0.354 N 
ATOM     70  C   UNL A   1      38.411  32.356  31.717  1.00  0.00     0.074 A 
ATOM     71  C   UNL A   1      38.165  32.587  30.312  1.00  0.00     0.031 C 
ATOM     72  C   UNL A   1      40.959  28.061  33.273  1.00  0.00     0.029 A 
ATOM     73  C   UNL A   1      42.198  27.882  32.534  1.00  0.00     0.049 A 
ATOM     74  H   UNL A   1      42.226  27.597  30.406  1.00  0.00     0.167 HD
ATOM     75  C   UNL A   1      37.801  32.716  32.879  1.00  0.00     0.031 A 
ATOM     76  C   UNL A   1      43.426  28.312  32.951  1.00  0.00     0.031 A 
ATOM     77  C   UNL A   1      38.454  32.133  34.050  1.00  0.00     0.049 A 
ATOM     78  C   UNL A   1      43.389  29.429  33.979  1.00  0.00     0.074 A 
ATOM     79  C   UNL A   1      38.161  31.090  34.913  1.00  0.00     0.029 A 
ATOM     80  N   UNL A   1      39.774  32.469  34.295  1.00  0.00    -0.354 N 
ATOM     81  N   UNL A   1      42.301  30.018  34.394  1.00  0.00    -0.248 NA
ATOM     82  C   UNL A   1      44.594  30.041  34.545  1.00  0.00     0.031 C 
ATOM     83  C   UNL A   1      39.326  30.815  35.689  1.00  0.00     0.029 A 
ATOM     84  C   UNL A   1      40.314  31.700  35.305  1.00  0.00     0.049 A 
ATOM     85  H   UNL A   1      40.267  33.168  33.809  1.00  0.00     0.167 HD
ATOM     86  C   UNL A   1      42.629  31.080  35.194  1.00  0.00     0.074 A 
ATOM     87  C   UNL A   1      44.078  31.049  35.269  1.00  0.00     0.031 C 
ATOM     88  C   UNL A   1      41.694  31.938  35.693  1.00  0.00     0.031 A 
BRANCH  75  89
ATOM     89  C   UNL A   1      36.476  33.433  32.937  1.00  0.00    -0.014 A 
ATOM     90  C   UNL A   1      35.332  32.740  33.372  1.00  0.00     0.009 A 
ATOM     91  C   UNL A   1      36.275  34.767  32.546  1.00  0.00     0.009 A 
ATOM     92  C   UNL A   1      34.054  33.315  33.332  1.00  0.00     0.001 A 
ATOM     93  C   UNL A   1      34.997  35.338  32.466  1.00  0.00     0.001 A 
ATOM     94  C   UNL A   1      33.884  34.606  32.851  1.00  0.00     0.000 A 
ENDBRANCH  75  89
BRANCH  76  95
ATOM     95  C   UNL A   1      44.476  28.155  31.902  1.00  0.00    -0.014 A 
ATOM     96  C   UNL A   1      44.807  26.849  31.483  1.00  0.00     0.009 A 
ATOM     97  C   UNL A   1      44.833  29.233  31.079  1.00  0.00     0.009 A 
ATOM     98  C   UNL A   1      45.354  26.621  30.218  1.00  0.00     0.001 A 
ATOM     99  C   UNL A   1      45.402  28.999  29.821  1.00  0.00     0.001 A 
ATOM    100  C   UNL A   1      45.622  27.696  29.375  1.00  0.00     0.000 A 
ENDBRANCH  76  95
BRANCH  88 101
ATOM    101  C   UNL A   1      42.005  33.126  36.563  1.00  0.00    -0.014 A 
ATOM    102  C   UNL A   1      41.930  34.447  36.102  1.00  0.00     0.009 A 
ATOM    103  C   UNL A   1      42.515  32.931  37.865  1.00  0.00     0.009 A 
ATOM    104  C   UNL A   1      42.295  35.521  36.925  1.00  0.00     0.001 A 
ATOM    105  C   UNL A   1      42.900  33.997  38.680  1.00  0.00     0.001 A 
ATOM    106  C   UNL A   1      42.779  35.297  38.212  1.00  0.00     0.000 A 
ENDBRANCH  88 101
ENDBRANCH  62  63
ENDBRANCH  54  57
ENDBRANCH  52  53
ENDBRANCH  51  52
ENDBRANCH  50  51
ENDBRANCH  49  50
ENDBRANCH  48  49
ENDBRANCH   1  48
TORSDOF 22
ENDMDL
MODEL 2
REMARK VINA RESULT:     -11.9      4.096      8.484
REMARK SMILES Cc1ccc(S(=O)(=O)n2cc(C(=O)C(=O)N[C@@H](Cc3c[nH]c4ccccc34)C(=O)NCC(=O)NCCCCCCNC(=O)c3ccc(-c4c5nc(c(-c6ccccc6)c6ccc([nH]6)c(-c6ccccc6)c6nc(c(-c7ccccc7)c7ccc4[nH]7)C=C6)C=C5)cc3)c3ccccc32)cc1
REMARK SMILES IDX 35 1 34 2 32 3 33 4 31 6 30 7 28 8 29 9 17 11 16 12 14 13
REMARK SMILES IDX 15 14 12 16 13 17 11 18 9 19 10 20 97 21 92 22 96 23 93 24
REMARK SMILES IDX 95 25 94 26 6 27 7 28 8 29 5 30 1 31 2 32 3 33 99 34 4 35
REMARK SMILES IDX 98 36 18 37 19 38 20 39 27 40 21 41 22 42 26 43 23 45 25 46
REMARK SMILES IDX 24 47 36 48 37 49 38 50 39 51 40 52 41 53 42 54 43 56 44 57
REMARK SMILES IDX 45 58 91 59 46 60 90 61 47 62 48 63 49 64 84 65 50 66 89 67
REMARK SMILES IDX 83 68 85 69 51 70 88 71 82 72 81 73 52 75 74 76 59 77 73 78
REMARK SMILES IDX 60 79 63 80 72 81 86 82 61 83 62 84 71 86 87 87 64 88 53 89
REMARK SMILES IDX 54 90 58 91 55 92 57 93 56 94 75 95 76 96 80 97 77 98 79 99
REMARK SMILES IDX 78 100 65 101 66 102 70 103 67 104 69 105 68 106
REMARK H PARENT 34 5 30 10 16 15 21 44 41 55 85 74 63 85
REMARK Flexibility Score: inf
ROOT
ATOM      1  C   UNL A   1      39.952  21.111  26.462  1.00  0.00     0.116 C 
ENDROOT
BRANCH   1   2
ATOM      2  N   UNL A   1      39.586  22.482  26.727  1.00  0.00    -0.355 N 
ATOM      3  C   UNL A   1      38.408  23.097  26.421  1.00  0.00     0.239 C 
ATOM      4  O   UNL A   1      38.224  24.253  26.805  1.00  0.00    -0.273 OA
ATOM      5  H   UNL A   1      40.264  23.036  27.179  1.00  0.00     0.163 HD
BRANCH   3   6
ATOM      6  C   UNL A   1      37.284  22.270  25.799  1.00  0.00     0.216 C 
BRANCH   6   7
ATOM      7  N   UNL A   1      37.111  22.257  24.357  1.00  0.00    -0.345 N 
ATOM      8  C   UNL A   1      36.283  22.994  23.560  1.00  0.00     0.243 C 
ATOM      9  O   UNL A   1      36.604  23.061  22.367  1.00  0.00    -0.273 OA
ATOM     10  H   UNL A   1      37.683  21.614  23.878  1.00  0.00     0.164 HD
BRANCH   8  11
ATOM     11  C   UNL A   1      35.055  23.819  24.068  1.00  0.00     0.176 C 
BRANCH  11  12
ATOM     12  N   UNL A   1      33.722  23.476  23.515  1.00  0.00    -0.337 N 
ATOM     13  C   UNL A   1      32.753  24.262  22.896  1.00  0.00     0.293 C 
ATOM     14  O   UNL A   1      31.623  23.815  22.720  1.00  0.00    -0.265 OA
ATOM     15  H   UNL A   1      33.481  22.526  23.600  1.00  0.00     0.164 HD
BRANCH  13  16
ATOM     16  C   UNL A   1      33.091  25.645  22.329  1.00  0.00     0.252 C 
ATOM     17  O   UNL A   1      33.650  25.635  21.231  1.00  0.00    -0.283 OA
BRANCH  16  18
ATOM     18  C   UNL A   1      32.835  26.914  23.050  1.00  0.00     0.054 A 
ATOM     19  N   UNL A   1      32.909  28.855  24.245  1.00  0.00    -0.240 N 
ATOM     20  C   UNL A   1      33.668  27.759  23.804  1.00  0.00     0.117 A 
ATOM     21  C   UNL A   1      31.664  28.777  23.593  1.00  0.00     0.065 A 
ATOM     22  C   UNL A   1      31.519  27.449  23.204  1.00  0.00     0.012 A 
ATOM     23  C   UNL A   1      30.573  29.668  23.578  1.00  0.00     0.028 A 
ATOM     24  C   UNL A   1      30.215  26.943  23.010  1.00  0.00     0.011 A 
ATOM     25  C   UNL A   1      29.293  29.133  23.449  1.00  0.00     0.002 A 
ATOM     26  C   UNL A   1      29.113  27.778  23.216  1.00  0.00     0.001 A 
BRANCH  19  27
ATOM     27  S   UNL A   1      32.720  29.388  25.916  1.00  0.00     0.268 S 
ATOM     28  O   UNL A   1      32.035  28.270  26.543  1.00  0.00    -0.201 OA
ATOM     29  O   UNL A   1      32.058  30.676  25.745  1.00  0.00    -0.201 OA
BRANCH  27  30
ATOM     30  C   UNL A   1      34.001  29.840  27.036  1.00  0.00     0.088 A 
ATOM     31  C   UNL A   1      36.744  31.877  29.698  1.00  0.00     0.044 C 
ATOM     32  C   UNL A   1      35.795  31.126  28.807  1.00  0.00    -0.051 A 
ATOM     33  C   UNL A   1      34.657  31.795  28.384  1.00  0.00     0.005 A 
ATOM     34  C   UNL A   1      36.019  29.808  28.348  1.00  0.00     0.005 A 
ATOM     35  C   UNL A   1      33.778  31.154  27.528  1.00  0.00     0.022 A 
ATOM     36  C   UNL A   1      35.128  29.153  27.455  1.00  0.00     0.022 A 
ENDBRANCH  27  30
ENDBRANCH  19  27
ENDBRANCH  16  18
ENDBRANCH  13  16
ENDBRANCH  11  12
BRANCH  11  37
ATOM     37  C   UNL A   1      35.046  24.001  25.624  1.00  0.00     0.072 C 
BRANCH  37  38
ATOM     38  C   UNL A   1      33.891  23.414  26.404  1.00  0.00    -0.020 A 
ATOM     39  C   UNL A   1      33.904  22.204  27.079  1.00  0.00     0.087 A 
ATOM     40  C   UNL A   1      32.557  23.937  26.555  1.00  0.00     0.003 A 
ATOM     41  N   UNL A   1      32.629  21.917  27.492  1.00  0.00    -0.361 N 
ATOM     42  C   UNL A   1      31.769  22.906  27.075  1.00  0.00     0.046 A 
ATOM     43  C   UNL A   1      31.910  25.128  26.164  1.00  0.00     0.010 A 
ATOM     44  H   UNL A   1      32.367  21.122  28.011  1.00  0.00     0.166 HD
ATOM     45  C   UNL A   1      30.370  22.950  27.087  1.00  0.00     0.026 A 
ATOM     46  C   UNL A   1      30.512  25.181  26.146  1.00  0.00     0.001 A 
ATOM     47  C   UNL A   1      29.755  24.095  26.574  1.00  0.00     0.002 A 
ENDBRANCH  37  38
ENDBRANCH  11  37
ENDBRANCH   8  11
ENDBRANCH   6   7
ENDBRANCH   3   6
ENDBRANCH   1   2
BRANCH   1  48
ATOM     48  C   UNL A   1      41.173  20.687  27.260  1.00  0.00     0.021 C 
BRANCH  48  49
ATOM     49  C   UNL A   1      42.288  21.732  27.297  1.00  0.00     0.002 C 
BRANCH  49  50
ATOM     50  C   UNL A   1      43.255  21.729  26.101  1.00  0.00     0.002 C 
BRANCH  50  51
ATOM     51  C   UNL A   1      43.058  22.844  25.071  1.00  0.00     0.021 C 
BRANCH  51  52
ATOM     52  C   UNL A   1      43.269  24.246  25.614  1.00  0.00     0.116 C 
BRANCH  52  53
ATOM     53  N   UNL A   1      42.058  25.043  25.701  1.00  0.00    -0.352 N 
ATOM     54  C   UNL A   1      41.551  25.782  26.764  1.00  0.00     0.251 C 
ATOM     55  H   UNL A   1      41.513  25.064  24.882  1.00  0.00     0.163 HD
ATOM     56  O   UNL A   1      40.480  26.328  26.663  1.00  0.00    -0.269 OA
BRANCH  54  57
ATOM     57  C   UNL A   1      42.406  26.015  27.964  1.00  0.00     0.039 A 
ATOM     58  C   UNL A   1      42.877  27.319  28.171  1.00  0.00     0.014 A 
ATOM     59  C   UNL A   1      42.911  24.967  28.723  1.00  0.00     0.014 A 
ATOM     60  C   UNL A   1      44.028  27.518  28.928  1.00  0.00     0.010 A 
ATOM     61  C   UNL A   1      44.113  25.140  29.375  1.00  0.00     0.010 A 
ATOM     62  C   UNL A   1      44.706  26.405  29.417  1.00  0.00    -0.014 A 
BRANCH  62  63
ATOM     63  C   UNL A   1      46.079  26.438  29.896  1.00  0.00     0.031 A 
ATOM     64  C   UNL A   1      47.187  26.060  29.003  1.00  0.00     0.074 A 
ATOM     65  C   UNL A   1      46.341  26.934  31.124  1.00  0.00     0.049 A 
ATOM     66  N   UNL A   1      48.367  25.750  29.415  1.00  0.00    -0.248 NA
ATOM     67  C   UNL A   1      47.032  25.947  27.558  1.00  0.00     0.031 C 
ATOM     68  C   UNL A   1      47.628  27.363  31.664  1.00  0.00     0.029 A 
ATOM     69  N   UNL A   1      45.487  26.940  32.227  1.00  0.00    -0.354 N 
ATOM     70  C   UNL A   1      49.186  25.695  28.315  1.00  0.00     0.074 A 
ATOM     71  C   UNL A   1      48.296  25.741  27.178  1.00  0.00     0.031 C 
ATOM     72  C   UNL A   1      47.563  27.348  33.004  1.00  0.00     0.029 A 
ATOM     73  C   UNL A   1      46.291  26.747  33.368  1.00  0.00     0.049 A 
ATOM     74  H   UNL A   1      44.509  27.057  32.211  1.00  0.00     0.167 HD
ATOM     75  C   UNL A   1      50.535  25.740  28.490  1.00  0.00     0.031 A 
ATOM     76  C   UNL A   1      46.148  25.620  34.128  1.00  0.00     0.031 A 
ATOM     77  C   UNL A   1      50.909  25.723  29.904  1.00  0.00     0.049 A 
ATOM     78  C   UNL A   1      47.374  24.723  34.166  1.00  0.00     0.074 A 
ATOM     79  C   UNL A   1      51.358  26.673  30.806  1.00  0.00     0.029 A 
ATOM     80  N   UNL A   1      50.552  24.620  30.660  1.00  0.00    -0.354 N 
ATOM     81  N   UNL A   1      48.463  24.929  33.478  1.00  0.00    -0.248 NA
ATOM     82  C   UNL A   1      47.425  23.463  34.911  1.00  0.00     0.031 C 
ATOM     83  C   UNL A   1      51.275  26.115  32.117  1.00  0.00     0.029 A 
ATOM     84  C   UNL A   1      50.791  24.827  32.003  1.00  0.00     0.049 A 
ATOM     85  H   UNL A   1      50.174  23.792  30.287  1.00  0.00     0.167 HD
ATOM     86  C   UNL A   1      49.305  23.858  33.618  1.00  0.00     0.074 A 
ATOM     87  C   UNL A   1      48.616  22.968  34.534  1.00  0.00     0.031 C 
ATOM     88  C   UNL A   1      50.480  23.755  32.933  1.00  0.00     0.031 A 
BRANCH  75  89
ATOM     89  C   UNL A   1      51.512  26.013  27.375  1.00  0.00    -0.014 A 
ATOM     90  C   UNL A   1      52.059  27.301  27.233  1.00  0.00     0.009 A 
ATOM     91  C   UNL A   1      51.906  25.069  26.412  1.00  0.00     0.009 A 
ATOM     92  C   UNL A   1      52.875  27.647  26.147  1.00  0.00     0.001 A 
ATOM     93  C   UNL A   1      52.689  25.414  25.303  1.00  0.00     0.001 A 
ATOM     94  C   UNL A   1      53.167  26.709  25.166  1.00  0.00     0.000 A 
ENDBRANCH  75  89
BRANCH  76  95
ATOM     95  C   UNL A   1      44.737  25.135  34.176  1.00  0.00    -0.014 A 
ATOM     96  C   UNL A   1      44.454  23.857  33.649  1.00  0.00     0.009 A 
ATOM     97  C   UNL A   1      43.808  25.720  35.049  1.00  0.00     0.009 A 
ATOM     98  C   UNL A   1      43.346  23.131  34.091  1.00  0.00     0.001 A 
ATOM     99  C   UNL A   1      42.687  24.995  35.471  1.00  0.00     0.001 A 
ATOM    100  C   UNL A   1      42.480  23.689  35.026  1.00  0.00     0.000 A 
ENDBRANCH  76  95
BRANCH  88 101
ATOM    101  C   UNL A   1      51.430  22.593  33.041  1.00  0.00    -0.014 A 
ATOM    102  C   UNL A   1      51.024  21.313  33.440  1.00  0.00     0.009 A 
ATOM    103  C   UNL A   1      52.815  22.797  32.860  1.00  0.00     0.009 A 
ATOM    104  C   UNL A   1      51.954  20.276  33.595  1.00  0.00     0.001 A 
ATOM    105  C   UNL A   1      53.747  21.773  33.035  1.00  0.00     0.001 A 
ATOM    106  C   UNL A   1      53.313  20.505  33.391  1.00  0.00     0.000 A 
ENDBRANCH  88 101
ENDBRANCH  62  63
ENDBRANCH  54  57
ENDBRANCH  52  53
ENDBRANCH  51  52
ENDBRANCH  50  51
ENDBRANCH  49  50
ENDBRANCH  48  49
ENDBRANCH   1  48
TORSDOF 22
ENDMDL
MODEL 3
REMARK VINA RESULT:     -11.7      3.168      5.394
REMARK SMILES Cc1ccc(S(=O)(=O)n2cc(C(=O)C(=O)N[C@@H](Cc3c[nH]c4ccccc34)C(=O)NCC(=O)NCCCCCCNC(=O)c3ccc(-c4c5nc(c(-c6ccccc6)c6ccc([nH]6)c(-c6ccccc6)c6nc(c(-c7ccccc7)c7ccc4[nH]7)C=C6)C=C5)cc3)c3ccccc32)cc1
REMARK SMILES IDX 35 1 34 2 32 3 33 4 31 6 30 7 28 8 29 9 17 11 16 12 14 13
REMARK SMILES IDX 15 14 12 16 13 17 11 18 9 19 10 20 97 21 92 22 96 23 93 24
REMARK SMILES IDX 95 25 94 26 6 27 7 28 8 29 5 30 1 31 2 32 3 33 99 34 4 35
REMARK SMILES IDX 98 36 18 37 19 38 20 39 27 40 21 41 22 42 26 43 23 45 25 46
REMARK SMILES IDX 24 47 36 48 37 49 38 50 39 51 40 52 41 53 42 54 43 56 44 57
REMARK SMILES IDX 45 58 91 59 46 60 90 61 47 62 48 63 49 64 84 65 50 66 89 67
REMARK SMILES IDX 83 68 85 69 51 70 88 71 82 72 81 73 52 75 74 76 59 77 73 78
REMARK SMILES IDX 60 79 63 80 72 81 86 82 61 83 62 84 71 86 87 87 64 88 53 89
REMARK SMILES IDX 54 90 58 91 55 92 57 93 56 94 75 95 76 96 80 97 77 98 79 99
REMARK SMILES IDX 78 100 65 101 66 102 70 103 67 104 69 105 68 106
REMARK H PARENT 34 5 30 10 16 15 21 44 41 55 85 74 63 85
REMARK Flexibility Score: inf
ROOT
ATOM      1  C   UNL A   1      37.605  22.024  25.317  1.00  0.00     0.116 C 
ENDROOT
BRANCH   1   2
ATOM      2  N   UNL A   1      36.568  21.540  26.196  1.00  0.00    -0.355 N 
ATOM      3  C   UNL A   1      35.345  22.101  26.421  1.00  0.00     0.239 C 
ATOM      4  O   UNL A   1      34.539  21.503  27.134  1.00  0.00    -0.273 OA
ATOM      5  H   UNL A   1      36.765  20.710  26.689  1.00  0.00     0.163 HD
BRANCH   3   6
ATOM      6  C   UNL A   1      34.945  23.340  25.621  1.00  0.00     0.216 C 
BRANCH   6   7
ATOM      7  N   UNL A   1      34.399  23.190  24.284  1.00  0.00    -0.345 N 
ATOM      8  C   UNL A   1      33.259  22.568  23.861  1.00  0.00     0.243 C 
ATOM      9  O   UNL A   1      32.840  22.913  22.749  1.00  0.00    -0.273 OA
ATOM     10  H   UNL A   1      34.936  23.601  23.569  1.00  0.00     0.164 HD
BRANCH   8  11
ATOM     11  C   UNL A   1      32.420  21.561  24.714  1.00  0.00     0.176 C 
BRANCH  11  12
ATOM     12  N   UNL A   1      31.081  22.002  25.175  1.00  0.00    -0.337 N 
ATOM     13  C   UNL A   1      30.699  22.862  26.202  1.00  0.00     0.293 C 
ATOM     14  O   UNL A   1      29.524  22.908  26.557  1.00  0.00    -0.265 OA
ATOM     15  H   UNL A   1      30.331  21.621  24.665  1.00  0.00     0.164 HD
BRANCH  13  16
ATOM     16  C   UNL A   1      31.695  23.837  26.838  1.00  0.00     0.252 C 
ATOM     17  O   UNL A   1      32.208  23.446  27.888  1.00  0.00    -0.283 OA
BRANCH  16  18
ATOM     18  C   UNL A   1      31.992  25.181  26.291  1.00  0.00     0.054 A 
ATOM     19  N   UNL A   1      32.852  27.209  25.699  1.00  0.00    -0.240 N 
ATOM     20  C   UNL A   1      33.058  26.075  26.501  1.00  0.00     0.117 A 
ATOM     21  C   UNL A   1      31.766  26.918  24.854  1.00  0.00     0.065 A 
ATOM     22  C   UNL A   1      31.060  25.894  25.476  1.00  0.00     0.012 A 
ATOM     23  C   UNL A   1      31.208  27.647  23.784  1.00  0.00     0.028 A 
ATOM     24  C   UNL A   1      29.689  25.741  25.175  1.00  0.00     0.011 A 
ATOM     25  C   UNL A   1      29.840  27.524  23.551  1.00  0.00     0.002 A 
ATOM     26  C   UNL A   1      29.079  26.616  24.272  1.00  0.00     0.001 A 
BRANCH  19  27
ATOM     27  S   UNL A   1      32.797  28.883  26.254  1.00  0.00     0.268 S 
ATOM     28  O   UNL A   1      31.692  28.880  27.198  1.00  0.00    -0.201 OA
ATOM     29  O   UNL A   1      32.710  29.612  24.994  1.00  0.00    -0.201 OA
BRANCH  27  30
ATOM     30  C   UNL A   1      34.088  29.780  27.047  1.00  0.00     0.088 A 
ATOM     31  C   UNL A   1      36.693  32.793  28.750  1.00  0.00     0.044 C 
ATOM     32  C   UNL A   1      35.803  31.714  28.200  1.00  0.00    -0.051 A 
ATOM     33  C   UNL A   1      34.529  32.085  27.797  1.00  0.00     0.005 A 
ATOM     34  C   UNL A   1      36.203  30.368  28.034  1.00  0.00     0.005 A 
ATOM     35  C   UNL A   1      33.692  31.130  27.246  1.00  0.00     0.022 A 
ATOM     36  C   UNL A   1      35.352  29.389  27.452  1.00  0.00     0.022 A 
ENDBRANCH  27  30
ENDBRANCH  19  27
ENDBRANCH  16  18
ENDBRANCH  13  16
ENDBRANCH  11  12
BRANCH  11  37
ATOM     37  C   UNL A   1      32.418  20.112  24.117  1.00  0.00     0.072 C 
BRANCH  37  38
ATOM     38  C   UNL A   1      33.497  19.154  24.568  1.00  0.00    -0.020 A 
ATOM     39  C   UNL A   1      34.860  19.402  24.543  1.00  0.00     0.087 A 
ATOM     40  C   UNL A   1      33.349  17.801  25.043  1.00  0.00     0.003 A 
ATOM     41  N   UNL A   1      35.524  18.238  24.835  1.00  0.00    -0.361 N 
ATOM     42  C   UNL A   1      34.619  17.219  25.024  1.00  0.00     0.046 A 
ATOM     43  C   UNL A   1      32.248  16.972  25.343  1.00  0.00     0.010 A 
ATOM     44  H   UNL A   1      36.502  18.145  24.900  1.00  0.00     0.166 HD
ATOM     45  C   UNL A   1      34.826  15.840  25.144  1.00  0.00     0.026 A 
ATOM     46  C   UNL A   1      32.432  15.589  25.442  1.00  0.00     0.001 A 
ATOM     47  C   UNL A   1      33.700  15.030  25.314  1.00  0.00     0.002 A 
ENDBRANCH  37  38
ENDBRANCH  11  37
ENDBRANCH   8  11
ENDBRANCH   6   7
ENDBRANCH   3   6
ENDBRANCH   1   2
BRANCH   1  48
ATOM     48  C   UNL A   1      38.980  21.538  25.742  1.00  0.00     0.021 C 
BRANCH  48  49
ATOM     49  C   UNL A   1      39.251  20.069  25.414  1.00  0.00     0.002 C 
BRANCH  49  50
ATOM     50  C   UNL A   1      40.532  19.469  26.018  1.00  0.00     0.002 C 
BRANCH  50  51
ATOM     51  C   UNL A   1      40.980  20.046  27.362  1.00  0.00     0.021 C 
BRANCH  51  52
ATOM     52  C   UNL A   1      42.468  20.329  27.460  1.00  0.00     0.116 C 
BRANCH  52  53
ATOM     53  N   UNL A   1      43.041  20.942  26.275  1.00  0.00    -0.352 N 
ATOM     54  C   UNL A   1      42.901  22.235  25.783  1.00  0.00     0.251 C 
ATOM     55  H   UNL A   1      43.618  20.352  25.738  1.00  0.00     0.163 HD
ATOM     56  O   UNL A   1      43.408  22.539  24.731  1.00  0.00    -0.269 OA
BRANCH  54  57
ATOM     57  C   UNL A   1      42.252  23.274  26.634  1.00  0.00     0.039 A 
ATOM     58  C   UNL A   1      41.707  24.388  25.981  1.00  0.00     0.014 A 
ATOM     59  C   UNL A   1      42.371  23.271  28.019  1.00  0.00     0.014 A 
ATOM     60  C   UNL A   1      41.546  25.580  26.682  1.00  0.00     0.010 A 
ATOM     61  C   UNL A   1      42.326  24.475  28.690  1.00  0.00     0.010 A 
ATOM     62  C   UNL A   1      41.981  25.642  28.002  1.00  0.00    -0.014 A 
BRANCH  62  63
ATOM     63  C   UNL A   1      42.208  26.884  28.724  1.00  0.00     0.031 A 
ATOM     64  C   UNL A   1      41.084  27.790  29.015  1.00  0.00     0.074 A 
ATOM     65  C   UNL A   1      43.432  27.143  29.230  1.00  0.00     0.049 A 
ATOM     66  N   UNL A   1      41.226  29.027  29.347  1.00  0.00    -0.248 NA
ATOM     67  C   UNL A   1      39.690  27.379  28.900  1.00  0.00     0.031 C 
ATOM     68  C   UNL A   1      43.794  28.131  30.243  1.00  0.00     0.029 A 
ATOM     69  N   UNL A   1      44.656  26.683  28.745  1.00  0.00    -0.354 N 
ATOM     70  C   UNL A   1      40.003  29.482  29.772  1.00  0.00     0.074 A 
ATOM     71  C   UNL A   1      39.064  28.450  29.397  1.00  0.00     0.031 C 
ATOM     72  C   UNL A   1      45.106  28.397  30.139  1.00  0.00     0.029 A 
ATOM     73  C   UNL A   1      45.591  27.718  28.949  1.00  0.00     0.049 A 
ATOM     74  H   UNL A   1      44.833  25.804  28.337  1.00  0.00     0.167 HD
ATOM     75  C   UNL A   1      39.940  30.628  30.504  1.00  0.00     0.031 A 
ATOM     76  C   UNL A   1      46.178  28.336  27.881  1.00  0.00     0.031 A 
ATOM     77  C   UNL A   1      41.244  31.278  30.624  1.00  0.00     0.049 A 
ATOM     78  C   UNL A   1      45.857  29.815  27.751  1.00  0.00     0.074 A 
ATOM     79  C   UNL A   1      42.190  31.391  31.630  1.00  0.00     0.029 A 
ATOM     80  N   UNL A   1      41.869  31.704  29.465  1.00  0.00    -0.354 N 
ATOM     81  N   UNL A   1      45.027  30.462  28.522  1.00  0.00    -0.248 NA
ATOM     82  C   UNL A   1      46.373  30.658  26.671  1.00  0.00     0.031 C 
ATOM     83  C   UNL A   1      43.391  31.905  31.054  1.00  0.00     0.029 A 
ATOM     84  C   UNL A   1      43.164  32.114  29.708  1.00  0.00     0.049 A 
ATOM     85  H   UNL A   1      41.444  31.713  28.577  1.00  0.00     0.167 HD
ATOM     86  C   UNL A   1      44.845  31.731  28.040  1.00  0.00     0.074 A 
ATOM     87  C   UNL A   1      45.718  31.812  26.884  1.00  0.00     0.031 C 
ATOM     88  C   UNL A   1      43.955  32.604  28.592  1.00  0.00     0.031 A 
BRANCH  75  89
ATOM     89  C   UNL A   1      38.726  31.048  31.292  1.00  0.00    -0.014 A 
ATOM     90  C   UNL A   1      37.675  30.133  31.486  1.00  0.00     0.009 A 
ATOM     91  C   UNL A   1      38.533  32.329  31.835  1.00  0.00     0.009 A 
ATOM     92  C   UNL A   1      36.472  30.502  32.103  1.00  0.00     0.001 A 
ATOM     93  C   UNL A   1      37.320  32.719  32.418  1.00  0.00     0.001 A 
ATOM     94  C   UNL A   1      36.284  31.805  32.544  1.00  0.00     0.000 A 
ENDBRANCH  75  89
BRANCH  76  95
ATOM     95  C   UNL A   1      46.399  27.409  26.732  1.00  0.00    -0.014 A 
ATOM     96  C   UNL A   1      47.490  26.517  26.798  1.00  0.00     0.009 A 
ATOM     97  C   UNL A   1      45.369  27.141  25.818  1.00  0.00     0.009 A 
ATOM     98  C   UNL A   1      47.482  25.323  26.073  1.00  0.00     0.001 A 
ATOM     99  C   UNL A   1      45.378  25.952  25.078  1.00  0.00     0.001 A 
ATOM    100  C   UNL A   1      46.409  25.027  25.237  1.00  0.00     0.000 A 
ENDBRANCH  76  95
BRANCH  88 101
ATOM    101  C   UNL A   1      43.709  34.002  28.090  1.00  0.00    -0.014 A 
ATOM    102  C   UNL A   1      43.677  35.118  28.935  1.00  0.00     0.009 A 
ATOM    103  C   UNL A   1      43.371  34.214  26.736  1.00  0.00     0.009 A 
ATOM    104  C   UNL A   1      43.377  36.393  28.436  1.00  0.00     0.001 A 
ATOM    105  C   UNL A   1      43.050  35.479  26.240  1.00  0.00     0.001 A 
ATOM    106  C   UNL A   1      43.065  36.574  27.090  1.00  0.00     0.000 A 
ENDBRANCH  88 101
ENDBRANCH  62  63
ENDBRANCH  54  57
ENDBRANCH  52  53
ENDBRANCH  51  52
ENDBRANCH  50  51
ENDBRANCH  49  50
ENDBRANCH  48  49
ENDBRANCH   1  48
TORSDOF 22
ENDMDL
