MODEL 1
REMARK VINA RESULT:     -11.1      0.000      0.000
REMARK SMILES Cc1[nH]c(=O)sc1S(=O)(=O)NC1(CC(=O)NCCCCCCNC(=O)c2ccc(-c3c4nc(c(-c5ccccc5)c5ccc([nH]5)c(-c5ccccc5)c5nc(c(-c6ccccc6)c6ccc3[nH]6)C=C5)C=C4)cc2)CCC1
REMARK SMILES IDX 18 1 17 2 16 3 14 4 15 5 13 7 12 8 74 9 76 10 75 11 11 12
REMARK SMILES IDX 8 14 9 15 10 16 7 17 1 18 2 19 3 20 4 21 6 23 5 24 19 25
REMARK SMILES IDX 20 26 21 27 22 28 23 29 24 30 25 32 26 33 27 34 73 35 28 36
REMARK SMILES IDX 72 37 29 38 30 39 31 40 66 41 32 42 71 43 65 44 67 45 33 46
REMARK SMILES IDX 70 47 64 48 63 49 34 51 56 52 41 53 55 54 42 55 45 56 54 57
REMARK SMILES IDX 68 58 43 59 44 60 53 62 69 63 46 64 35 65 36 66 40 67 37 68
REMARK SMILES IDX 39 69 38 70 57 71 58 72 62 73 59 74 61 75 60 76 47 77 48 78
REMARK SMILES IDX 52 79 49 80 51 81 50 82
REMARK H PARENT 16 6 11 13 3 22 23 31 67 50 45 61
REMARK Flexibility Score: inf
ROOT
ATOM      1  C   UNL A   1      32.197  28.781  27.189  1.00  0.00     0.021 C 
ENDROOT
BRANCH   1   2
ATOM      2  C   UNL A   1      32.577  27.364  26.748  1.00  0.00     0.116 C 
BRANCH   2   3
ATOM      3  N   UNL A   1      31.421  26.504  26.763  1.00  0.00    -0.356 N 
ATOM      4  C   UNL A   1      30.650  26.108  25.717  1.00  0.00     0.221 C 
ATOM      5  O   UNL A   1      29.669  25.395  25.924  1.00  0.00    -0.275 OA
ATOM      6  H   UNL A   1      31.157  26.159  27.645  1.00  0.00     0.163 HD
BRANCH   4   7
ATOM      7  C   UNL A   1      31.033  26.499  24.312  1.00  0.00     0.123 C 
BRANCH   7   8
ATOM      8  C   UNL A   1      32.149  25.690  23.626  1.00  0.00     0.042 C 
ATOM      9  C   UNL A   1      33.388  26.646  23.414  1.00  0.00     0.024 C 
ATOM     10  C   UNL A   1      32.136  25.560  22.062  1.00  0.00     0.024 C 
ATOM     11  C   UNL A   1      33.046  26.771  21.931  1.00  0.00     0.004 C 
BRANCH   8  12
ATOM     12  N   UNL A   1      32.552  24.487  24.469  1.00  0.00    -0.204 NA
ATOM     13  H   UNL A   1      32.337  24.781  25.421  1.00  0.00     0.142 HD
BRANCH  12  14
ATOM     14  S   UNL A   1      34.024  23.643  24.638  1.00  0.00     0.252 S 
ATOM     15  O   UNL A   1      34.703  24.262  25.757  1.00  0.00    -0.206 OA
ATOM     16  O   UNL A   1      34.622  23.721  23.320  1.00  0.00    -0.206 OA
BRANCH  14  17
ATOM     17  C   UNL A   1      33.726  21.974  25.006  1.00  0.00     0.158 A 
ATOM     18  C   UNL A   1      36.173  21.148  24.992  1.00  0.00     0.067 C 
ATOM     19  C   UNL A   1      34.688  21.034  25.086  1.00  0.00     0.046 A 
ATOM     20  N   UNL A   1      34.170  19.763  25.202  1.00  0.00    -0.315 N 
ATOM     21  C   UNL A   1      32.799  19.643  25.261  1.00  0.00     0.305 A 
ATOM     22  H   UNL A   1      34.756  18.973  25.241  1.00  0.00     0.170 HD
ATOM     23  S   UNL A   1      32.129  21.267  25.229  1.00  0.00    -0.061 S 
ATOM     24  O   UNL A   1      32.170  18.620  25.280  1.00  0.00    -0.257 OA
ENDBRANCH  14  17
ENDBRANCH  12  14
ENDBRANCH   8  12
ENDBRANCH   7   8
ENDBRANCH   4   7
ENDBRANCH   2   3
ENDBRANCH   1   2
BRANCH   1  25
ATOM     25  C   UNL A   1      33.181  29.826  26.679  1.00  0.00     0.002 C 
BRANCH  25  26
ATOM     26  C   UNL A   1      34.161  30.267  27.772  1.00  0.00     0.002 C 
BRANCH  26  27
ATOM     27  C   UNL A   1      35.482  30.846  27.236  1.00  0.00     0.021 C 
BRANCH  27  28
ATOM     28  C   UNL A   1      36.686  30.087  27.769  1.00  0.00     0.116 C 
BRANCH  28  29
ATOM     29  N   UNL A   1      37.425  30.919  28.720  1.00  0.00    -0.352 N 
ATOM     30  C   UNL A   1      38.583  30.625  29.407  1.00  0.00     0.251 C 
ATOM     31  H   UNL A   1      37.043  31.810  28.892  1.00  0.00     0.163 HD
ATOM     32  O   UNL A   1      38.836  31.160  30.479  1.00  0.00    -0.269 OA
BRANCH  30  33
ATOM     33  C   UNL A   1      39.578  29.767  28.744  1.00  0.00     0.039 A 
ATOM     34  C   UNL A   1      39.742  29.635  27.361  1.00  0.00     0.014 A 
ATOM     35  C   UNL A   1      40.312  28.951  29.581  1.00  0.00     0.014 A 
ATOM     36  C   UNL A   1      40.614  28.629  26.880  1.00  0.00     0.010 A 
ATOM     37  C   UNL A   1      41.444  28.404  29.074  1.00  0.00     0.010 A 
ATOM     38  C   UNL A   1      41.379  27.883  27.798  1.00  0.00    -0.014 A 
BRANCH  38  39
ATOM     39  C   UNL A   1      42.563  27.039  27.513  1.00  0.00     0.031 A 
ATOM     40  C   UNL A   1      42.085  25.592  27.536  1.00  0.00     0.074 A 
ATOM     41  C   UNL A   1      43.771  27.543  27.068  1.00  0.00     0.049 A 
ATOM     42  N   UNL A   1      42.136  24.811  28.574  1.00  0.00    -0.248 NA
ATOM     43  C   UNL A   1      41.122  25.051  26.523  1.00  0.00     0.031 C 
ATOM     44  C   UNL A   1      44.220  28.946  26.881  1.00  0.00     0.029 A 
ATOM     45  N   UNL A   1      44.921  26.881  26.654  1.00  0.00    -0.354 N 
ATOM     46  C   UNL A   1      41.610  23.591  28.144  1.00  0.00     0.074 A 
ATOM     47  C   UNL A   1      40.698  23.921  27.099  1.00  0.00     0.031 C 
ATOM     48  C   UNL A   1      45.379  29.008  26.161  1.00  0.00     0.029 A 
ATOM     49  C   UNL A   1      45.878  27.668  25.929  1.00  0.00     0.049 A 
ATOM     50  H   UNL A   1      45.072  25.927  26.846  1.00  0.00     0.167 HD
ATOM     51  C   UNL A   1      42.366  22.461  28.275  1.00  0.00     0.031 A 
ATOM     52  C   UNL A   1      47.017  27.228  25.275  1.00  0.00     0.031 A 
ATOM     53  C   UNL A   1      43.429  22.730  29.217  1.00  0.00     0.049 A 
ATOM     54  C   UNL A   1      47.322  25.880  25.816  1.00  0.00     0.074 A 
ATOM     55  C   UNL A   1      43.502  23.140  30.531  1.00  0.00     0.029 A 
ATOM     56  N   UNL A   1      44.589  23.125  28.607  1.00  0.00    -0.354 N 
ATOM     57  N   UNL A   1      47.690  25.703  27.052  1.00  0.00    -0.248 NA
ATOM     58  C   UNL A   1      46.595  24.792  25.182  1.00  0.00     0.031 C 
ATOM     59  C   UNL A   1      44.577  24.078  30.571  1.00  0.00     0.029 A 
ATOM     60  C   UNL A   1      45.246  24.055  29.349  1.00  0.00     0.049 A 
ATOM     61  H   UNL A   1      44.906  22.779  27.742  1.00  0.00     0.167 HD
ATOM     62  C   UNL A   1      46.780  24.771  27.519  1.00  0.00     0.074 A 
ATOM     63  C   UNL A   1      46.127  24.241  26.306  1.00  0.00     0.031 C 
ATOM     64  C   UNL A   1      46.369  24.791  28.824  1.00  0.00     0.031 A 
BRANCH  51  65
ATOM     65  C   UNL A   1      42.575  21.435  27.156  1.00  0.00    -0.014 A 
ATOM     66  C   UNL A   1      42.038  20.146  27.351  1.00  0.00     0.009 A 
ATOM     67  C   UNL A   1      43.492  21.560  26.093  1.00  0.00     0.009 A 
ATOM     68  C   UNL A   1      42.456  19.042  26.595  1.00  0.00     0.001 A 
ATOM     69  C   UNL A   1      43.893  20.463  25.314  1.00  0.00     0.001 A 
ATOM     70  C   UNL A   1      43.391  19.199  25.581  1.00  0.00     0.000 A 
ENDBRANCH  51  65
BRANCH  52  71
ATOM     71  C   UNL A   1      47.694  27.641  23.987  1.00  0.00    -0.014 A 
ATOM     72  C   UNL A   1      48.943  27.119  23.541  1.00  0.00     0.009 A 
ATOM     73  C   UNL A   1      46.922  28.290  23.015  1.00  0.00     0.009 A 
ATOM     74  C   UNL A   1      49.363  27.229  22.192  1.00  0.00     0.001 A 
ATOM     75  C   UNL A   1      47.331  28.384  21.672  1.00  0.00     0.001 A 
ATOM     76  C   UNL A   1      48.543  27.845  21.253  1.00  0.00     0.000 A 
ENDBRANCH  52  71
BRANCH  64  77
ATOM     77  C   UNL A   1      47.111  25.659  29.806  1.00  0.00    -0.014 A 
ATOM     78  C   UNL A   1      48.271  25.306  30.522  1.00  0.00     0.009 A 
ATOM     79  C   UNL A   1      46.654  26.981  29.891  1.00  0.00     0.009 A 
ATOM     80  C   UNL A   1      48.905  26.250  31.348  1.00  0.00     0.001 A 
ATOM     81  C   UNL A   1      47.296  27.921  30.689  1.00  0.00     0.001 A 
ATOM     82  C   UNL A   1      48.409  27.551  31.436  1.00  0.00     0.000 A 
ENDBRANCH  64  77
ENDBRANCH  38  39
ENDBRANCH  30  33
ENDBRANCH  28  29
ENDBRANCH  27  28
ENDBRANCH  26  27
ENDBRANCH  25  26
ENDBRANCH   1  25
TORSDOF 17
ENDMDL
MODEL 2
REMARK VINA RESULT:     -11.0      4.073      6.634
REMARK SMILES Cc1[nH]c(=O)sc1S(=O)(=O)NC1(CC(=O)NCCCCCCNC(=O)c2ccc(-c3c4nc(c(-c5ccccc5)c5ccc([nH]5)c(-c5ccccc5)c5nc(c(-c6ccccc6)c6ccc3[nH]6)C=C5)C=C4)cc2)CCC1
REMARK SMILES IDX 18 1 17 2 16 3 14 4 15 5 13 7 12 8 74 9 76 10 75 11 11 12
REMARK SMILES IDX 8 14 9 15 10 16 7 17 1 18 2 19 3 20 4 21 6 23 5 24 19 25
REMARK SMILES IDX 20 26 21 27 22 28 23 29 24 30 25 32 26 33 27 34 73 35 28 36
REMARK SMILES IDX 72 37 29 38 30 39 31 40 66 41 32 42 71 43 65 44 67 45 33 46
REMARK SMILES IDX 70 47 64 48 63 49 34 51 56 52 41 53 55 54 42 55 45 56 54 57
REMARK SMILES IDX 68 58 43 59 44 60 53 62 69 63 46 64 35 65 36 66 40 67 37 68
REMARK SMILES IDX 39 69 38 70 57 71 58 72 62 73 59 74 61 75 60 76 47 77 48 78
REMARK SMILES IDX 52 79 49 80 51 81 50 82
REMARK H PARENT 16 6 11 13 3 22 23 31 67 50 45 61
REMARK Flexibility Score: inf
ROOT
ATOM      1  C   UNL A   1      37.900  31.928  34.048  1.00  0.00     0.021 C 
ENDROOT
BRANCH   1   2
ATOM      2  C   UNL A   1      36.817  33.002  33.905  1.00  0.00     0.116 C 
BRANCH   2   3
ATOM      3  N   UNL A   1      35.770  32.550  33.025  1.00  0.00    -0.356 N 
ATOM      4  C   UNL A   1      34.741  33.264  32.501  1.00  0.00     0.221 C 
ATOM      5  O   UNL A   1      33.909  32.698  31.792  1.00  0.00    -0.275 OA
ATOM      6  H   UNL A   1      35.806  31.600  32.771  1.00  0.00     0.163 HD
BRANCH   4   7
ATOM      7  C   UNL A   1      34.656  34.749  32.747  1.00  0.00     0.123 C 
BRANCH   7   8
ATOM      8  C   UNL A   1      33.785  35.582  31.789  1.00  0.00     0.042 C 
ATOM      9  C   UNL A   1      33.681  37.047  32.370  1.00  0.00     0.024 C 
ATOM     10  C   UNL A   1      32.225  35.536  31.952  1.00  0.00     0.024 C 
ATOM     11  C   UNL A   1      32.261  36.761  32.852  1.00  0.00     0.004 C 
BRANCH   8  12
ATOM     12  N   UNL A   1      34.387  35.614  30.389  1.00  0.00    -0.204 NA
ATOM     13  H   UNL A   1      34.753  36.562  30.309  1.00  0.00     0.142 HD
BRANCH  12  14
ATOM     14  S   UNL A   1      33.726  35.313  28.847  1.00  0.00     0.252 S 
ATOM     15  O   UNL A   1      34.497  36.122  27.927  1.00  0.00    -0.206 OA
ATOM     16  O   UNL A   1      32.312  35.590  29.014  1.00  0.00    -0.206 OA
BRANCH  14  17
ATOM     17  C   UNL A   1      33.909  33.640  28.425  1.00  0.00     0.158 A 
ATOM     18  C   UNL A   1      36.391  33.361  29.082  1.00  0.00     0.067 C 
ATOM     19  C   UNL A   1      35.066  32.957  28.528  1.00  0.00     0.046 A 
ATOM     20  N   UNL A   1      34.989  31.708  27.953  1.00  0.00    -0.315 N 
ATOM     21  C   UNL A   1      33.777  31.334  27.413  1.00  0.00     0.305 A 
ATOM     22  H   UNL A   1      35.768  31.106  27.928  1.00  0.00     0.170 HD
ATOM     23  S   UNL A   1      32.643  32.642  27.717  1.00  0.00    -0.061 S 
ATOM     24  O   UNL A   1      33.545  30.326  26.803  1.00  0.00    -0.257 OA
ENDBRANCH  14  17
ENDBRANCH  12  14
ENDBRANCH   8  12
ENDBRANCH   7   8
ENDBRANCH   4   7
ENDBRANCH   2   3
ENDBRANCH   1   2
BRANCH   1  25
ATOM     25  C   UNL A   1      39.298  32.487  33.819  1.00  0.00     0.002 C 
BRANCH  25  26
ATOM     26  C   UNL A   1      39.957  31.886  32.573  1.00  0.00     0.002 C 
BRANCH  26  27
ATOM     27  C   UNL A   1      39.134  30.772  31.902  1.00  0.00     0.021 C 
BRANCH  27  28
ATOM     28  C   UNL A   1      38.935  31.033  30.418  1.00  0.00     0.116 C 
BRANCH  28  29
ATOM     29  N   UNL A   1      37.815  30.240  29.912  1.00  0.00    -0.352 N 
ATOM     30  C   UNL A   1      37.712  29.548  28.725  1.00  0.00     0.251 C 
ATOM     31  H   UNL A   1      37.026  30.194  30.500  1.00  0.00     0.163 HD
ATOM     32  O   UNL A   1      36.624  29.336  28.208  1.00  0.00    -0.269 OA
BRANCH  30  33
ATOM     33  C   UNL A   1      38.934  28.939  28.175  1.00  0.00     0.039 A 
ATOM     34  C   UNL A   1      39.616  29.378  27.033  1.00  0.00     0.014 A 
ATOM     35  C   UNL A   1      39.346  27.773  28.787  1.00  0.00     0.014 A 
ATOM     36  C   UNL A   1      40.663  28.573  26.526  1.00  0.00     0.010 A 
ATOM     37  C   UNL A   1      40.617  27.365  28.548  1.00  0.00     0.010 A 
ATOM     38  C   UNL A   1      41.069  27.433  27.247  1.00  0.00    -0.014 A 
BRANCH  38  39
ATOM     39  C   UNL A   1      42.322  26.659  27.085  1.00  0.00     0.031 A 
ATOM     40  C   UNL A   1      41.932  25.186  27.101  1.00  0.00     0.074 A 
ATOM     41  C   UNL A   1      43.531  27.228  26.733  1.00  0.00     0.049 A 
ATOM     42  N   UNL A   1      41.940  24.429  28.159  1.00  0.00    -0.248 NA
ATOM     43  C   UNL A   1      41.095  24.568  26.023  1.00  0.00     0.031 C 
ATOM     44  C   UNL A   1      43.910  28.653  26.551  1.00  0.00     0.029 A 
ATOM     45  N   UNL A   1      44.752  26.631  26.434  1.00  0.00    -0.354 N 
ATOM     46  C   UNL A   1      41.527  23.171  27.714  1.00  0.00     0.074 A 
ATOM     47  C   UNL A   1      40.691  23.424  26.587  1.00  0.00     0.031 C 
ATOM     48  C   UNL A   1      45.122  28.773  25.932  1.00  0.00     0.029 A 
ATOM     49  C   UNL A   1      45.718  27.462  25.776  1.00  0.00     0.049 A 
ATOM     50  H   UNL A   1      44.942  25.692  26.662  1.00  0.00     0.167 HD
ATOM     51  C   UNL A   1      42.335  22.093  27.936  1.00  0.00     0.031 A 
ATOM     52  C   UNL A   1      46.935  27.082  25.232  1.00  0.00     0.031 A 
ATOM     53  C   UNL A   1      43.294  22.444  28.959  1.00  0.00     0.049 A 
ATOM     54  C   UNL A   1      47.272  25.765  25.829  1.00  0.00     0.074 A 
ATOM     55  C   UNL A   1      43.228  22.882  30.264  1.00  0.00     0.029 A 
ATOM     56  N   UNL A   1      44.477  22.898  28.441  1.00  0.00    -0.354 N 
ATOM     57  N   UNL A   1      47.541  25.634  27.096  1.00  0.00    -0.248 NA
ATOM     58  C   UNL A   1      46.669  24.623  25.161  1.00  0.00     0.031 C 
ATOM     59  C   UNL A   1      44.237  23.885  30.374  1.00  0.00     0.029 A 
ATOM     60  C   UNL A   1      45.010  23.881  29.214  1.00  0.00     0.049 A 
ATOM     61  H   UNL A   1      44.889  22.557  27.615  1.00  0.00     0.167 HD
ATOM     62  C   UNL A   1      46.651  24.656  27.505  1.00  0.00     0.074 A 
ATOM     63  C   UNL A   1      46.139  24.065  26.255  1.00  0.00     0.031 C 
ATOM     64  C   UNL A   1      46.128  24.675  28.770  1.00  0.00     0.031 A 
BRANCH  51  65
ATOM     65  C   UNL A   1      42.701  21.060  26.864  1.00  0.00    -0.014 A 
ATOM     66  C   UNL A   1      42.279  19.731  27.073  1.00  0.00     0.009 A 
ATOM     67  C   UNL A   1      43.660  21.244  25.847  1.00  0.00     0.009 A 
ATOM     68  C   UNL A   1      42.842  18.652  26.377  1.00  0.00     0.001 A 
ATOM     69  C   UNL A   1      44.205  20.169  25.126  1.00  0.00     0.001 A 
ATOM     70  C   UNL A   1      43.811  18.871  25.407  1.00  0.00     0.000 A 
ENDBRANCH  51  65
BRANCH  52  71
ATOM     71  C   UNL A   1      47.695  27.511  23.997  1.00  0.00    -0.014 A 
ATOM     72  C   UNL A   1      48.942  26.952  23.596  1.00  0.00     0.009 A 
ATOM     73  C   UNL A   1      47.003  28.229  23.013  1.00  0.00     0.009 A 
ATOM     74  C   UNL A   1      49.437  27.094  22.275  1.00  0.00     0.001 A 
ATOM     75  C   UNL A   1      47.485  28.355  21.697  1.00  0.00     0.001 A 
ATOM     76  C   UNL A   1      48.694  27.779  21.320  1.00  0.00     0.000 A 
ENDBRANCH  52  71
BRANCH  64  77
ATOM     77  C   UNL A   1      46.728  25.606  29.791  1.00  0.00    -0.014 A 
ATOM     78  C   UNL A   1      47.997  25.481  30.390  1.00  0.00     0.009 A 
ATOM     79  C   UNL A   1      45.984  26.765  30.046  1.00  0.00     0.009 A 
ATOM     80  C   UNL A   1      48.461  26.473  31.271  1.00  0.00     0.001 A 
ATOM     81  C   UNL A   1      46.454  27.757  30.898  1.00  0.00     0.001 A 
ATOM     82  C   UNL A   1      47.683  27.602  31.530  1.00  0.00     0.000 A 
ENDBRANCH  64  77
ENDBRANCH  38  39
ENDBRANCH  30  33
ENDBRANCH  28  29
ENDBRANCH  27  28
ENDBRANCH  26  27
ENDBRANCH  25  26
ENDBRANCH   1  25
TORSDOF 17
ENDMDL
MODEL 3
REMARK VINA RESULT:     -10.9      4.653      8.185
REMARK SMILES Cc1[nH]c(=O)sc1S(=O)(=O)NC1(CC(=O)NCCCCCCNC(=O)c2ccc(-c3c4nc(c(-c5ccccc5)c5ccc([nH]5)c(-c5ccccc5)c5nc(c(-c6ccccc6)c6ccc3[nH]6)C=C5)C=C4)cc2)CCC1
REMARK SMILES IDX 18 1 17 2 16 3 14 4 15 5 13 7 12 8 74 9 76 10 75 11 11 12
REMARK SMILES IDX 8 14 9 15 10 16 7 17 1 18 2 19 3 20 4 21 6 23 5 24 19 25
REMARK SMILES IDX 20 26 21 27 22 28 23 29 24 30 25 32 26 33 27 34 73 35 28 36
REMARK SMILES IDX 72 37 29 38 30 39 31 40 66 41 32 42 71 43 65 44 67 45 33 46
REMARK SMILES IDX 70 47 64 48 63 49 34 51 56 52 41 53 55 54 42 55 45 56 54 57
REMARK SMILES IDX 68 58 43 59 44 60 53 62 69 63 46 64 35 65 36 66 40 67 37 68
REMARK SMILES IDX 39 69 38 70 57 71 58 72 62 73 59 74 61 75 60 76 47 77 48 78
REMARK SMILES IDX 52 79 49 80 51 81 50 82
REMARK H PARENT 16 6 11 13 3 22 23 31 67 50 45 61
REMARK Flexibility Score: inf
ROOT
ATOM      1  C   UNL A   1      34.575  31.287  28.166  1.00  0.00     0.021 C 
ENDROOT
BRANCH   1   2
ATOM      2  C   UNL A   1      34.121  30.214  27.171  1.00  0.00     0.116 C 
BRANCH   2   3
ATOM      3  N   UNL A   1      33.230  29.279  27.810  1.00  0.00    -0.356 N 
ATOM      4  C   UNL A   1      32.077  28.747  27.326  1.00  0.00     0.221 C 
ATOM      5  O   UNL A   1      31.418  27.986  28.034  1.00  0.00    -0.275 OA
ATOM      6  H   UNL A   1      33.490  28.988  28.713  1.00  0.00     0.163 HD
BRANCH   4   7
ATOM      7  C   UNL A   1      31.646  29.049  25.914  1.00  0.00     0.123 C 
BRANCH   7   8
ATOM      8  C   UNL A   1      31.886  27.965  24.848  1.00  0.00     0.042 C 
ATOM      9  C   UNL A   1      32.369  28.678  23.524  1.00  0.00     0.024 C 
ATOM     10  C   UNL A   1      30.671  27.465  23.990  1.00  0.00     0.024 C 
ATOM     11  C   UNL A   1      30.987  28.484  22.907  1.00  0.00     0.004 C 
BRANCH   8  12
ATOM     12  N   UNL A   1      32.932  26.960  25.314  1.00  0.00    -0.204 NA
ATOM     13  H   UNL A   1      33.812  27.463  25.204  1.00  0.00     0.142 HD
BRANCH  12  14
ATOM     14  S   UNL A   1      33.313  25.378  24.805  1.00  0.00     0.252 S 
ATOM     15  O   UNL A   1      34.684  25.157  25.214  1.00  0.00    -0.206 OA
ATOM     16  O   UNL A   1      32.991  25.381  23.391  1.00  0.00    -0.206 OA
BRANCH  14  17
ATOM     17  C   UNL A   1      32.290  24.223  25.598  1.00  0.00     0.158 A 
ATOM     18  C   UNL A   1      33.414  22.068  24.723  1.00  0.00     0.067 C 
ATOM     19  C   UNL A   1      32.404  22.888  25.455  1.00  0.00     0.046 A 
ATOM     20  N   UNL A   1      31.357  22.208  26.036  1.00  0.00    -0.315 N 
ATOM     21  C   UNL A   1      30.403  22.956  26.691  1.00  0.00     0.305 A 
ATOM     22  H   UNL A   1      31.293  21.227  25.986  1.00  0.00     0.170 HD
ATOM     23  S   UNL A   1      30.911  24.637  26.612  1.00  0.00    -0.061 S 
ATOM     24  O   UNL A   1      29.386  22.549  27.182  1.00  0.00    -0.257 OA
ENDBRANCH  14  17
ENDBRANCH  12  14
ENDBRANCH   8  12
ENDBRANCH   7   8
ENDBRANCH   4   7
ENDBRANCH   2   3
ENDBRANCH   1   2
BRANCH   1  25
ATOM     25  C   UNL A   1      33.987  32.655  27.845  1.00  0.00     0.002 C 
BRANCH  25  26
ATOM     26  C   UNL A   1      34.999  33.781  28.081  1.00  0.00     0.002 C 
BRANCH  26  27
ATOM     27  C   UNL A   1      34.368  35.109  28.534  1.00  0.00     0.021 C 
BRANCH  27  28
ATOM     28  C   UNL A   1      33.025  34.893  29.212  1.00  0.00     0.116 C 
BRANCH  28  29
ATOM     29  N   UNL A   1      33.017  35.533  30.528  1.00  0.00    -0.352 N 
ATOM     30  C   UNL A   1      33.442  35.028  31.738  1.00  0.00     0.251 C 
ATOM     31  H   UNL A   1      32.658  36.449  30.553  1.00  0.00     0.163 HD
ATOM     32  O   UNL A   1      32.970  35.430  32.793  1.00  0.00    -0.269 OA
BRANCH  30  33
ATOM     33  C   UNL A   1      34.586  34.102  31.733  1.00  0.00     0.039 A 
ATOM     34  C   UNL A   1      34.499  32.705  31.751  1.00  0.00     0.014 A 
ATOM     35  C   UNL A   1      35.829  34.691  31.841  1.00  0.00     0.014 A 
ATOM     36  C   UNL A   1      35.688  31.960  31.936  1.00  0.00     0.010 A 
ATOM     37  C   UNL A   1      36.903  33.933  31.511  1.00  0.00     0.010 A 
ATOM     38  C   UNL A   1      36.925  32.633  31.969  1.00  0.00    -0.014 A 
BRANCH  38  39
ATOM     39  C   UNL A   1      38.278  32.046  31.822  1.00  0.00     0.031 A 
ATOM     40  C   UNL A   1      38.898  32.018  33.214  1.00  0.00     0.074 A 
ATOM     41  C   UNL A   1      38.721  31.429  30.667  1.00  0.00     0.049 A 
ATOM     42  N   UNL A   1      39.667  32.947  33.701  1.00  0.00    -0.248 NA
ATOM     43  C   UNL A   1      38.353  31.161  34.315  1.00  0.00     0.031 C 
ATOM     44  C   UNL A   1      38.076  31.296  29.336  1.00  0.00     0.029 A 
ATOM     45  N   UNL A   1      39.902  30.739  30.414  1.00  0.00    -0.354 N 
ATOM     46  C   UNL A   1      40.007  32.508  34.982  1.00  0.00     0.074 A 
ATOM     47  C   UNL A   1      38.916  31.694  35.405  1.00  0.00     0.031 C 
ATOM     48  C   UNL A   1      38.720  30.378  28.557  1.00  0.00     0.029 A 
ATOM     49  C   UNL A   1      39.919  29.925  29.233  1.00  0.00     0.049 A 
ATOM     50  H   UNL A   1      40.682  30.806  31.011  1.00  0.00     0.167 HD
ATOM     51  C   UNL A   1      41.327  32.382  35.310  1.00  0.00     0.031 A 
ATOM     52  C   UNL A   1      40.895  29.026  28.836  1.00  0.00     0.031 A 
ATOM     53  C   UNL A   1      42.110  33.125  34.347  1.00  0.00     0.049 A 
ATOM     54  C   UNL A   1      42.120  29.364  29.603  1.00  0.00     0.074 A 
ATOM     55  C   UNL A   1      42.163  34.434  33.919  1.00  0.00     0.029 A 
ATOM     56  N   UNL A   1      42.557  32.345  33.314  1.00  0.00    -0.354 N 
ATOM     57  N   UNL A   1      42.758  30.484  29.418  1.00  0.00    -0.248 NA
ATOM     58  C   UNL A   1      42.186  28.778  30.932  1.00  0.00     0.031 C 
ATOM     59  C   UNL A   1      42.323  34.359  32.503  1.00  0.00     0.029 A 
ATOM     60  C   UNL A   1      42.567  33.034  32.143  1.00  0.00     0.049 A 
ATOM     61  H   UNL A   1      42.835  31.405  33.408  1.00  0.00     0.167 HD
ATOM     62  C   UNL A   1      42.817  31.023  30.692  1.00  0.00     0.074 A 
ATOM     63  C   UNL A   1      42.447  29.912  31.589  1.00  0.00     0.031 C 
ATOM     64  C   UNL A   1      42.778  32.379  30.877  1.00  0.00     0.031 A 
BRANCH  51  65
ATOM     65  C   UNL A   1      41.926  31.149  35.996  1.00  0.00    -0.014 A 
ATOM     66  C   UNL A   1      42.941  31.367  36.951  1.00  0.00     0.009 A 
ATOM     67  C   UNL A   1      41.774  29.816  35.561  1.00  0.00     0.009 A 
ATOM     68  C   UNL A   1      43.801  30.344  37.372  1.00  0.00     0.001 A 
ATOM     69  C   UNL A   1      42.614  28.781  36.002  1.00  0.00     0.001 A 
ATOM     70  C   UNL A   1      43.641  29.051  36.891  1.00  0.00     0.000 A 
ENDBRANCH  51  65
BRANCH  52  71
ATOM     71  C   UNL A   1      40.842  27.678  28.151  1.00  0.00    -0.014 A 
ATOM     72  C   UNL A   1      39.990  26.611  28.558  1.00  0.00     0.009 A 
ATOM     73  C   UNL A   1      41.380  27.572  26.862  1.00  0.00     0.009 A 
ATOM     74  C   UNL A   1      39.688  25.525  27.700  1.00  0.00     0.001 A 
ATOM     75  C   UNL A   1      41.066  26.502  26.003  1.00  0.00     0.001 A 
ATOM     76  C   UNL A   1      40.211  25.483  26.413  1.00  0.00     0.000 A 
ENDBRANCH  52  71
BRANCH  64  77
ATOM     77  C   UNL A   1      42.940  33.281  29.681  1.00  0.00    -0.014 A 
ATOM     78  C   UNL A   1      42.037  34.274  29.258  1.00  0.00     0.009 A 
ATOM     79  C   UNL A   1      44.178  33.185  29.031  1.00  0.00     0.009 A 
ATOM     80  C   UNL A   1      42.358  35.098  28.165  1.00  0.00     0.001 A 
ATOM     81  C   UNL A   1      44.504  34.017  27.966  1.00  0.00     0.001 A 
ATOM     82  C   UNL A   1      43.586  34.959  27.517  1.00  0.00     0.000 A 
ENDBRANCH  64  77
ENDBRANCH  38  39
ENDBRANCH  30  33
ENDBRANCH  28  29
ENDBRANCH  27  28
ENDBRANCH  26  27
ENDBRANCH  25  26
ENDBRANCH   1  25
TORSDOF 17
ENDMDL
