MODEL 1
REMARK VINA RESULT:     -11.0      0.000      0.000
REMARK SMILES COc1ccc2cc([C@@H](C)C(=O)NCCCCCCNC(=O)c3ccc(-c4c5nc(c(-c6ccccc6)c6ccc([nH]6)c(-c6ccccc6)c6nc(c(-c7ccccc7)c7ccc4[nH]7)C=C6)C=C5)cc3)ccc2c1
REMARK SMILES IDX 16 1 15 2 14 3 13 4 11 5 12 6 9 8 10 9 8 10 3 11 4 12 74 13
REMARK SMILES IDX 5 14 73 15 6 16 72 17 7 18 71 19 2 20 1 21 17 22 18 23 19 24
REMARK SMILES IDX 20 25 21 26 22 28 23 29 24 30 70 31 25 32 69 33 26 34 27 35
REMARK SMILES IDX 28 36 63 37 29 38 68 39 62 40 64 41 30 42 67 43 61 44 60 45
REMARK SMILES IDX 31 47 53 48 38 49 52 50 39 51 42 52 51 53 65 54 40 55 41 56
REMARK SMILES IDX 50 58 66 59 43 60 32 61 33 62 37 63 34 64 36 65 35 66 54 67
REMARK SMILES IDX 55 68 59 69 56 70 58 71 57 72 44 73 45 74 49 75 46 76 48 77
REMARK SMILES IDX 47 78
REMARK H PARENT 13 7 20 27 64 46 42 57
REMARK Flexibility Score: inf
ROOT
ATOM      1  C   UNL A   1      35.933  21.883  24.549  1.00  0.00     0.002 C 
ENDROOT
BRANCH   1   2
ATOM      2  C   UNL A   1      35.527  22.835  25.679  1.00  0.00     0.021 C 
BRANCH   2   3
ATOM      3  C   UNL A   1      34.915  24.151  25.193  1.00  0.00     0.116 C 
BRANCH   3   4
ATOM      4  N   UNL A   1      33.625  24.397  25.802  1.00  0.00    -0.356 N 
ATOM      5  C   UNL A   1      32.358  24.317  25.313  1.00  0.00     0.227 C 
ATOM      6  O   UNL A   1      31.455  24.695  26.072  1.00  0.00    -0.274 OA
ATOM      7  H   UNL A   1      33.674  24.675  26.744  1.00  0.00     0.163 HD
BRANCH   5   8
ATOM      8  C   UNL A   1      32.005  23.783  23.915  1.00  0.00     0.105 C 
ATOM      9  C   UNL A   1      30.779  24.437  23.279  1.00  0.00     0.023 C 
BRANCH   8  10
ATOM     10  C   UNL A   1      32.080  22.266  23.809  1.00  0.00    -0.035 A 
ATOM     11  C   UNL A   1      32.896  17.289  24.519  1.00  0.00     0.119 A 
ATOM     12  C   UNL A   1      32.972  17.885  25.776  1.00  0.00     0.047 A 
ATOM     13  C   UNL A   1      32.628  18.079  23.397  1.00  0.00     0.055 A 
ATOM     14  C   UNL A   1      32.738  19.256  25.914  1.00  0.00     0.012 A 
ATOM     15  C   UNL A   1      32.416  19.463  23.518  1.00  0.00    -0.015 A 
ATOM     16  C   UNL A   1      32.455  20.054  24.796  1.00  0.00    -0.018 A 
ATOM     17  C   UNL A   1      32.182  20.278  22.401  1.00  0.00     0.009 A 
ATOM     18  C   UNL A   1      32.237  21.435  24.926  1.00  0.00     0.013 A 
ATOM     19  C   UNL A   1      32.041  21.661  22.544  1.00  0.00     0.005 A 
BRANCH  11  20
ATOM     20  O   UNL A   1      33.091  15.960  24.258  1.00  0.00    -0.497 OA
ATOM     21  C   UNL A   1      32.848  15.067  25.339  1.00  0.00     0.278 C 
ENDBRANCH  11  20
ENDBRANCH   8  10
ENDBRANCH   5   8
ENDBRANCH   3   4
ENDBRANCH   2   3
ENDBRANCH   1   2
BRANCH   1  22
ATOM     22  C   UNL A   1      36.198  20.434  24.980  1.00  0.00     0.002 C 
BRANCH  22  23
ATOM     23  C   UNL A   1      37.604  19.901  24.686  1.00  0.00     0.021 C 
BRANCH  23  24
ATOM     24  C   UNL A   1      38.695  20.402  25.630  1.00  0.00     0.116 C 
BRANCH  24  25
ATOM     25  N   UNL A   1      39.787  19.449  25.752  1.00  0.00    -0.352 N 
ATOM     26  C   UNL A   1      41.102  19.656  26.085  1.00  0.00     0.251 C 
ATOM     27  H   UNL A   1      39.544  18.513  25.568  1.00  0.00     0.163 HD
ATOM     28  O   UNL A   1      41.924  18.760  25.920  1.00  0.00    -0.269 OA
BRANCH  26  29
ATOM     29  C   UNL A   1      41.538  20.957  26.635  1.00  0.00     0.039 A 
ATOM     30  C   UNL A   1      42.079  21.909  25.768  1.00  0.00     0.014 A 
ATOM     31  C   UNL A   1      41.462  21.222  28.006  1.00  0.00     0.014 A 
ATOM     32  C   UNL A   1      42.496  23.147  26.265  1.00  0.00     0.010 A 
ATOM     33  C   UNL A   1      41.820  22.478  28.492  1.00  0.00     0.010 A 
ATOM     34  C   UNL A   1      42.345  23.451  27.628  1.00  0.00    -0.014 A 
BRANCH  34  35
ATOM     35  C   UNL A   1      42.737  24.777  28.166  1.00  0.00     0.031 A 
ATOM     36  C   UNL A   1      41.702  25.847  28.377  1.00  0.00     0.074 A 
ATOM     37  C   UNL A   1      44.036  25.040  28.410  1.00  0.00     0.049 A 
ATOM     38  N   UNL A   1      41.862  27.082  28.782  1.00  0.00    -0.248 NA
ATOM     39  C   UNL A   1      40.307  25.491  28.070  1.00  0.00     0.031 C 
ATOM     40  C   UNL A   1      45.142  24.100  28.215  1.00  0.00     0.029 A 
ATOM     41  N   UNL A   1      44.644  26.180  28.869  1.00  0.00    -0.354 N 
ATOM     42  C   UNL A   1      40.596  27.653  28.761  1.00  0.00     0.074 A 
ATOM     43  C   UNL A   1      39.685  26.644  28.263  1.00  0.00     0.031 C 
ATOM     44  C   UNL A   1      46.291  24.696  28.574  1.00  0.00     0.029 A 
ATOM     45  C   UNL A   1      46.008  26.066  28.989  1.00  0.00     0.049 A 
ATOM     46  H   UNL A   1      44.150  27.002  29.092  1.00  0.00     0.167 HD
ATOM     47  C   UNL A   1      40.220  28.899  29.137  1.00  0.00     0.031 A 
ATOM     48  C   UNL A   1      46.929  26.965  29.385  1.00  0.00     0.031 A 
ATOM     49  C   UNL A   1      41.120  29.898  29.647  1.00  0.00     0.049 A 
ATOM     50  C   UNL A   1      46.488  28.342  29.794  1.00  0.00     0.074 A 
ATOM     51  C   UNL A   1      40.825  31.170  30.108  1.00  0.00     0.029 A 
ATOM     52  N   UNL A   1      42.492  29.738  29.764  1.00  0.00    -0.354 N 
ATOM     53  N   UNL A   1      45.278  28.845  29.826  1.00  0.00    -0.248 NA
ATOM     54  C   UNL A   1      47.540  29.269  30.233  1.00  0.00     0.031 C 
ATOM     55  C   UNL A   1      42.026  31.796  30.463  1.00  0.00     0.029 A 
ATOM     56  C   UNL A   1      43.060  30.895  30.270  1.00  0.00     0.049 A 
ATOM     57  H   UNL A   1      42.988  28.922  29.523  1.00  0.00     0.167 HD
ATOM     58  C   UNL A   1      45.419  30.138  30.313  1.00  0.00     0.074 A 
ATOM     59  C   UNL A   1      46.830  30.335  30.575  1.00  0.00     0.031 C 
ATOM     60  C   UNL A   1      44.465  31.077  30.526  1.00  0.00     0.031 A 
BRANCH  47  61
ATOM     61  C   UNL A   1      38.764  29.252  29.005  1.00  0.00    -0.014 A 
ATOM     62  C   UNL A   1      38.242  29.743  27.798  1.00  0.00     0.009 A 
ATOM     63  C   UNL A   1      37.898  29.057  30.092  1.00  0.00     0.009 A 
ATOM     64  C   UNL A   1      36.888  30.069  27.695  1.00  0.00     0.001 A 
ATOM     65  C   UNL A   1      36.539  29.358  29.977  1.00  0.00     0.001 A 
ATOM     66  C   UNL A   1      36.037  29.872  28.782  1.00  0.00     0.000 A 
ENDBRANCH  47  61
BRANCH  48  67
ATOM     67  C   UNL A   1      48.364  26.584  29.433  1.00  0.00    -0.014 A 
ATOM     68  C   UNL A   1      49.203  26.836  28.337  1.00  0.00     0.009 A 
ATOM     69  C   UNL A   1      48.901  25.967  30.573  1.00  0.00     0.009 A 
ATOM     70  C   UNL A   1      50.546  26.454  28.373  1.00  0.00     0.001 A 
ATOM     71  C   UNL A   1      50.251  25.611  30.615  1.00  0.00     0.001 A 
ATOM     72  C   UNL A   1      51.069  25.846  29.512  1.00  0.00     0.000 A 
ENDBRANCH  48  67
BRANCH  60  73
ATOM     73  C   UNL A   1      44.912  32.389  31.101  1.00  0.00    -0.014 A 
ATOM     74  C   UNL A   1      45.270  33.464  30.273  1.00  0.00     0.009 A 
ATOM     75  C   UNL A   1      44.938  32.564  32.494  1.00  0.00     0.009 A 
ATOM     76  C   UNL A   1      45.675  34.678  30.830  1.00  0.00     0.001 A 
ATOM     77  C   UNL A   1      45.319  33.786  33.048  1.00  0.00     0.001 A 
ATOM     78  C   UNL A   1      45.695  34.840  32.215  1.00  0.00     0.000 A 
ENDBRANCH  60  73
ENDBRANCH  34  35
ENDBRANCH  26  29
ENDBRANCH  24  25
ENDBRANCH  23  24
ENDBRANCH  22  23
ENDBRANCH   1  22
TORSDOF 15
ENDMDL
MODEL 2
REMARK VINA RESULT:     -10.9      4.234      9.512
REMARK SMILES COc1ccc2cc([C@@H](C)C(=O)NCCCCCCNC(=O)c3ccc(-c4c5nc(c(-c6ccccc6)c6ccc([nH]6)c(-c6ccccc6)c6nc(c(-c7ccccc7)c7ccc4[nH]7)C=C6)C=C5)cc3)ccc2c1
REMARK SMILES IDX 16 1 15 2 14 3 13 4 11 5 12 6 9 8 10 9 8 10 3 11 4 12 74 13
REMARK SMILES IDX 5 14 73 15 6 16 72 17 7 18 71 19 2 20 1 21 17 22 18 23 19 24
REMARK SMILES IDX 20 25 21 26 22 28 23 29 24 30 70 31 25 32 69 33 26 34 27 35
REMARK SMILES IDX 28 36 63 37 29 38 68 39 62 40 64 41 30 42 67 43 61 44 60 45
REMARK SMILES IDX 31 47 53 48 38 49 52 50 39 51 42 52 51 53 65 54 40 55 41 56
REMARK SMILES IDX 50 58 66 59 43 60 32 61 33 62 37 63 34 64 36 65 35 66 54 67
REMARK SMILES IDX 55 68 59 69 56 70 58 71 57 72 44 73 45 74 49 75 46 76 48 77
REMARK SMILES IDX 47 78
REMARK H PARENT 13 7 20 27 64 46 42 57
REMARK Flexibility Score: inf
ROOT
ATOM      1  C   UNL A   1      32.146  29.308  26.350  1.00  0.00     0.002 C 
ENDROOT
BRANCH   1   2
ATOM      2  C   UNL A   1      31.436  28.046  26.851  1.00  0.00     0.021 C 
BRANCH   2   3
ATOM      3  C   UNL A   1      32.191  26.748  26.553  1.00  0.00     0.116 C 
BRANCH   3   4
ATOM      4  N   UNL A   1      31.397  25.582  26.876  1.00  0.00    -0.356 N 
ATOM      5  C   UNL A   1      30.724  24.694  26.096  1.00  0.00     0.227 C 
ATOM      6  O   UNL A   1      30.046  23.847  26.692  1.00  0.00    -0.274 OA
ATOM      7  H   UNL A   1      31.331  25.397  27.840  1.00  0.00     0.163 HD
BRANCH   5   8
ATOM      8  C   UNL A   1      30.777  24.684  24.559  1.00  0.00     0.105 C 
ATOM      9  C   UNL A   1      31.935  23.880  23.971  1.00  0.00     0.023 C 
BRANCH   8  10
ATOM     10  C   UNL A   1      30.531  26.050  23.935  1.00  0.00    -0.035 A 
ATOM     11  C   UNL A   1      28.559  30.254  21.841  1.00  0.00     0.119 A 
ATOM     12  C   UNL A   1      27.512  29.610  22.496  1.00  0.00     0.047 A 
ATOM     13  C   UNL A   1      29.841  29.696  21.877  1.00  0.00     0.055 A 
ATOM     14  C   UNL A   1      27.754  28.437  23.217  1.00  0.00     0.012 A 
ATOM     15  C   UNL A   1      30.094  28.503  22.577  1.00  0.00    -0.015 A 
ATOM     16  C   UNL A   1      29.040  27.878  23.270  1.00  0.00    -0.018 A 
ATOM     17  C   UNL A   1      31.364  27.909  22.595  1.00  0.00     0.009 A 
ATOM     18  C   UNL A   1      29.286  26.691  23.977  1.00  0.00     0.013 A 
ATOM     19  C   UNL A   1      31.572  26.689  23.244  1.00  0.00     0.005 A 
BRANCH  11  20
ATOM     20  O   UNL A   1      28.451  31.410  21.117  1.00  0.00    -0.497 OA
ATOM     21  C   UNL A   1      28.391  32.617  21.868  1.00  0.00     0.278 C 
ENDBRANCH  11  20
ENDBRANCH   8  10
ENDBRANCH   5   8
ENDBRANCH   3   4
ENDBRANCH   2   3
ENDBRANCH   1   2
BRANCH   1  22
ATOM     22  C   UNL A   1      31.258  30.290  25.572  1.00  0.00     0.002 C 
BRANCH  22  23
ATOM     23  C   UNL A   1      31.207  31.718  26.125  1.00  0.00     0.021 C 
BRANCH  23  24
ATOM     24  C   UNL A   1      32.461  32.167  26.871  1.00  0.00     0.116 C 
BRANCH  24  25
ATOM     25  N   UNL A   1      32.340  33.529  27.366  1.00  0.00    -0.352 N 
ATOM     26  C   UNL A   1      33.088  34.194  28.305  1.00  0.00     0.251 C 
ATOM     27  H   UNL A   1      31.610  34.054  26.965  1.00  0.00     0.163 HD
ATOM     28  O   UNL A   1      32.697  35.267  28.752  1.00  0.00    -0.269 OA
BRANCH  26  29
ATOM     29  C   UNL A   1      34.362  33.620  28.789  1.00  0.00     0.039 A 
ATOM     30  C   UNL A   1      35.537  33.895  28.084  1.00  0.00     0.014 A 
ATOM     31  C   UNL A   1      34.395  32.776  29.904  1.00  0.00     0.014 A 
ATOM     32  C   UNL A   1      36.753  33.366  28.525  1.00  0.00     0.010 A 
ATOM     33  C   UNL A   1      35.616  32.300  30.379  1.00  0.00     0.010 A 
ATOM     34  C   UNL A   1      36.806  32.586  29.691  1.00  0.00    -0.014 A 
BRANCH  34  35
ATOM     35  C   UNL A   1      38.094  32.056  30.202  1.00  0.00     0.031 A 
ATOM     36  C   UNL A   1      38.653  30.768  29.662  1.00  0.00     0.074 A 
ATOM     37  C   UNL A   1      38.734  32.703  31.195  1.00  0.00     0.049 A 
ATOM     38  N   UNL A   1      39.732  30.121  30.024  1.00  0.00    -0.248 NA
ATOM     39  C   UNL A   1      37.888  30.110  28.591  1.00  0.00     0.031 C 
ATOM     40  C   UNL A   1      38.280  33.943  31.830  1.00  0.00     0.029 A 
ATOM     41  N   UNL A   1      39.901  32.401  31.850  1.00  0.00    -0.354 N 
ATOM     42  C   UNL A   1      39.765  28.974  29.241  1.00  0.00     0.074 A 
ATOM     43  C   UNL A   1      38.577  28.992  28.415  1.00  0.00     0.031 C 
ATOM     44  C   UNL A   1      39.171  34.307  32.766  1.00  0.00     0.029 A 
ATOM     45  C   UNL A   1      40.237  33.311  32.823  1.00  0.00     0.049 A 
ATOM     46  H   UNL A   1      40.446  31.608  31.642  1.00  0.00     0.167 HD
ATOM     47  C   UNL A   1      40.706  28.000  29.201  1.00  0.00     0.031 A 
ATOM     48  C   UNL A   1      41.283  33.339  33.670  1.00  0.00     0.031 A 
ATOM     49  C   UNL A   1      41.895  27.988  30.009  1.00  0.00     0.049 A 
ATOM     50  C   UNL A   1      42.313  32.246  33.607  1.00  0.00     0.074 A 
ATOM     51  C   UNL A   1      42.935  27.074  29.998  1.00  0.00     0.029 A 
ATOM     52  N   UNL A   1      42.204  28.934  30.973  1.00  0.00    -0.354 N 
ATOM     53  N   UNL A   1      42.359  31.200  32.818  1.00  0.00    -0.248 NA
ATOM     54  C   UNL A   1      43.439  32.345  34.545  1.00  0.00     0.031 C 
ATOM     55  C   UNL A   1      43.853  27.444  30.988  1.00  0.00     0.029 A 
ATOM     56  C   UNL A   1      43.407  28.615  31.579  1.00  0.00     0.049 A 
ATOM     57  H   UNL A   1      41.648  29.717  31.195  1.00  0.00     0.167 HD
ATOM     58  C   UNL A   1      43.531  30.531  33.145  1.00  0.00     0.074 A 
ATOM     59  C   UNL A   1      44.172  31.297  34.194  1.00  0.00     0.031 C 
ATOM     60  C   UNL A   1      44.033  29.386  32.621  1.00  0.00     0.031 A 
BRANCH  47  61
ATOM     61  C   UNL A   1      40.479  26.860  28.246  1.00  0.00    -0.014 A 
ATOM     62  C   UNL A   1      39.723  25.739  28.620  1.00  0.00     0.009 A 
ATOM     63  C   UNL A   1      41.003  26.925  26.945  1.00  0.00     0.009 A 
ATOM     64  C   UNL A   1      39.527  24.687  27.722  1.00  0.00     0.001 A 
ATOM     65  C   UNL A   1      40.781  25.885  26.041  1.00  0.00     0.001 A 
ATOM     66  C   UNL A   1      40.052  24.763  26.432  1.00  0.00     0.000 A 
ENDBRANCH  47  61
BRANCH  48  67
ATOM     67  C   UNL A   1      41.423  34.456  34.640  1.00  0.00    -0.014 A 
ATOM     68  C   UNL A   1      40.879  34.349  35.928  1.00  0.00     0.009 A 
ATOM     69  C   UNL A   1      42.099  35.632  34.282  1.00  0.00     0.009 A 
ATOM     70  C   UNL A   1      40.987  35.409  36.831  1.00  0.00     0.001 A 
ATOM     71  C   UNL A   1      42.229  36.680  35.197  1.00  0.00     0.001 A 
ATOM     72  C   UNL A   1      41.665  36.571  36.466  1.00  0.00     0.000 A 
ENDBRANCH  48  67
BRANCH  60  73
ATOM     73  C   UNL A   1      45.354  28.912  33.152  1.00  0.00    -0.014 A 
ATOM     74  C   UNL A   1      46.563  29.323  32.569  1.00  0.00     0.009 A 
ATOM     75  C   UNL A   1      45.391  28.073  34.276  1.00  0.00     0.009 A 
ATOM     76  C   UNL A   1      47.781  28.875  33.083  1.00  0.00     0.001 A 
ATOM     77  C   UNL A   1      46.610  27.648  34.804  1.00  0.00     0.001 A 
ATOM     78  C   UNL A   1      47.804  28.043  34.202  1.00  0.00     0.000 A 
ENDBRANCH  60  73
ENDBRANCH  34  35
ENDBRANCH  26  29
ENDBRANCH  24  25
ENDBRANCH  23  24
ENDBRANCH  22  23
ENDBRANCH   1  22
TORSDOF 15
ENDMDL
MODEL 3
REMARK VINA RESULT:     -10.6      0.749      6.090
REMARK SMILES COc1ccc2cc([C@@H](C)C(=O)NCCCCCCNC(=O)c3ccc(-c4c5nc(c(-c6ccccc6)c6ccc([nH]6)c(-c6ccccc6)c6nc(c(-c7ccccc7)c7ccc4[nH]7)C=C6)C=C5)cc3)ccc2c1
REMARK SMILES IDX 16 1 15 2 14 3 13 4 11 5 12 6 9 8 10 9 8 10 3 11 4 12 74 13
REMARK SMILES IDX 5 14 73 15 6 16 72 17 7 18 71 19 2 20 1 21 17 22 18 23 19 24
REMARK SMILES IDX 20 25 21 26 22 28 23 29 24 30 70 31 25 32 69 33 26 34 27 35
REMARK SMILES IDX 28 36 63 37 29 38 68 39 62 40 64 41 30 42 67 43 61 44 60 45
REMARK SMILES IDX 31 47 53 48 38 49 52 50 39 51 42 52 51 53 65 54 40 55 41 56
REMARK SMILES IDX 50 58 66 59 43 60 32 61 33 62 37 63 34 64 36 65 35 66 54 67
REMARK SMILES IDX 55 68 59 69 56 70 58 71 57 72 44 73 45 74 49 75 46 76 48 77
REMARK SMILES IDX 47 78
REMARK H PARENT 13 7 20 27 64 46 42 57
REMARK Flexibility Score: inf
ROOT
ATOM      1  C   UNL A   1      36.444  21.940  24.877  1.00  0.00     0.002 C 
ENDROOT
BRANCH   1   2
ATOM      2  C   UNL A   1      36.680  22.673  23.553  1.00  0.00     0.021 C 
BRANCH   2   3
ATOM      3  C   UNL A   1      35.394  23.069  22.823  1.00  0.00     0.116 C 
BRANCH   3   4
ATOM      4  N   UNL A   1      34.687  24.122  23.521  1.00  0.00    -0.356 N 
ATOM      5  C   UNL A   1      33.368  24.299  23.805  1.00  0.00     0.227 C 
ATOM      6  O   UNL A   1      33.065  25.374  24.340  1.00  0.00    -0.274 OA
ATOM      7  H   UNL A   1      35.268  24.844  23.850  1.00  0.00     0.163 HD
BRANCH   5   8
ATOM      8  C   UNL A   1      32.276  23.256  23.517  1.00  0.00     0.105 C 
ATOM      9  C   UNL A   1      30.848  23.773  23.682  1.00  0.00     0.023 C 
BRANCH   8  10
ATOM     10  C   UNL A   1      32.564  21.892  24.129  1.00  0.00    -0.035 A 
ATOM     11  C   UNL A   1      33.004  16.924  25.164  1.00  0.00     0.119 A 
ATOM     12  C   UNL A   1      32.840  17.027  23.784  1.00  0.00     0.047 A 
ATOM     13  C   UNL A   1      33.026  18.084  25.943  1.00  0.00     0.055 A 
ATOM     14  C   UNL A   1      32.742  18.286  23.185  1.00  0.00     0.012 A 
ATOM     15  C   UNL A   1      32.902  19.356  25.356  1.00  0.00    -0.015 A 
ATOM     16  C   UNL A   1      32.777  19.456  23.957  1.00  0.00    -0.018 A 
ATOM     17  C   UNL A   1      32.885  20.529  26.124  1.00  0.00     0.009 A 
ATOM     18  C   UNL A   1      32.660  20.722  23.363  1.00  0.00     0.013 A 
ATOM     19  C   UNL A   1      32.695  21.775  25.520  1.00  0.00     0.005 A 
BRANCH  11  20
ATOM     20  O   UNL A   1      33.125  15.754  25.863  1.00  0.00    -0.497 OA
ATOM     21  C   UNL A   1      32.272  14.690  25.456  1.00  0.00     0.278 C 
ENDBRANCH  11  20
ENDBRANCH   8  10
ENDBRANCH   5   8
ENDBRANCH   3   4
ENDBRANCH   2   3
ENDBRANCH   1   2
BRANCH   1  22
ATOM     22  C   UNL A   1      36.349  20.412  24.768  1.00  0.00     0.002 C 
BRANCH  22  23
ATOM     23  C   UNL A   1      37.686  19.664  24.750  1.00  0.00     0.021 C 
BRANCH  23  24
ATOM     24  C   UNL A   1      38.743  20.207  25.709  1.00  0.00     0.116 C 
BRANCH  24  25
ATOM     25  N   UNL A   1      39.902  19.332  25.791  1.00  0.00    -0.352 N 
ATOM     26  C   UNL A   1      41.211  19.630  26.076  1.00  0.00     0.251 C 
ATOM     27  H   UNL A   1      39.718  18.381  25.616  1.00  0.00     0.163 HD
ATOM     28  O   UNL A   1      42.086  18.793  25.882  1.00  0.00    -0.269 OA
BRANCH  26  29
ATOM     29  C   UNL A   1      41.576  20.959  26.611  1.00  0.00     0.039 A 
ATOM     30  C   UNL A   1      42.054  21.933  25.729  1.00  0.00     0.014 A 
ATOM     31  C   UNL A   1      41.495  21.233  27.980  1.00  0.00     0.014 A 
ATOM     32  C   UNL A   1      42.403  23.197  26.211  1.00  0.00     0.010 A 
ATOM     33  C   UNL A   1      41.784  22.513  28.450  1.00  0.00     0.010 A 
ATOM     34  C   UNL A   1      42.245  23.506  27.572  1.00  0.00    -0.014 A 
BRANCH  34  35
ATOM     35  C   UNL A   1      42.564  24.857  28.094  1.00  0.00     0.031 A 
ATOM     36  C   UNL A   1      43.970  25.201  28.503  1.00  0.00     0.074 A 
ATOM     37  C   UNL A   1      41.576  25.759  28.256  1.00  0.00     0.049 A 
ATOM     38  N   UNL A   1      44.428  26.307  29.034  1.00  0.00    -0.248 NA
ATOM     39  C   UNL A   1      44.990  24.158  28.314  1.00  0.00     0.031 C 
ATOM     40  C   UNL A   1      40.165  25.539  27.931  1.00  0.00     0.029 A 
ATOM     41  N   UNL A   1      41.610  27.041  28.744  1.00  0.00    -0.354 N 
ATOM     42  C   UNL A   1      45.781  26.087  29.257  1.00  0.00     0.074 A 
ATOM     43  C   UNL A   1      46.061  24.729  28.845  1.00  0.00     0.031 C 
ATOM     44  C   UNL A   1      39.473  26.656  28.206  1.00  0.00     0.029 A 
ATOM     45  C   UNL A   1      40.381  27.656  28.759  1.00  0.00     0.049 A 
ATOM     46  H   UNL A   1      42.436  27.479  29.053  1.00  0.00     0.167 HD
ATOM     47  C   UNL A   1      46.711  26.942  29.746  1.00  0.00     0.031 A 
ATOM     48  C   UNL A   1      40.024  28.885  29.177  1.00  0.00     0.031 A 
ATOM     49  C   UNL A   1      46.438  28.298  30.141  1.00  0.00     0.049 A 
ATOM     50  C   UNL A   1      41.074  29.814  29.718  1.00  0.00     0.074 A 
ATOM     51  C   UNL A   1      47.325  29.259  30.595  1.00  0.00     0.029 A 
ATOM     52  N   UNL A   1      45.183  28.885  30.130  1.00  0.00    -0.354 N 
ATOM     53  N   UNL A   1      42.360  29.610  29.866  1.00  0.00    -0.248 NA
ATOM     54  C   UNL A   1      40.622  31.148  30.139  1.00  0.00     0.031 C 
ATOM     55  C   UNL A   1      46.599  30.416  30.900  1.00  0.00     0.029 A 
ATOM     56  C   UNL A   1      45.269  30.189  30.589  1.00  0.00     0.049 A 
ATOM     57  H   UNL A   1      44.353  28.441  29.839  1.00  0.00     0.167 HD
ATOM     58  C   UNL A   1      42.876  30.796  30.371  1.00  0.00     0.074 A 
ATOM     59  C   UNL A   1      41.766  31.718  30.491  1.00  0.00     0.031 C 
ATOM     60  C   UNL A   1      44.155  31.095  30.703  1.00  0.00     0.031 A 
BRANCH  47  61
ATOM     61  C   UNL A   1      48.118  26.428  29.884  1.00  0.00    -0.014 A 
ATOM     62  C   UNL A   1      48.551  25.803  31.063  1.00  0.00     0.009 A 
ATOM     63  C   UNL A   1      49.011  26.542  28.807  1.00  0.00     0.009 A 
ATOM     64  C   UNL A   1      49.862  25.335  31.175  1.00  0.00     0.001 A 
ATOM     65  C   UNL A   1      50.312  26.048  28.912  1.00  0.00     0.001 A 
ATOM     66  C   UNL A   1      50.740  25.454  30.098  1.00  0.00     0.000 A 
ENDBRANCH  47  61
BRANCH  48  67
ATOM     67  C   UNL A   1      38.607  29.319  29.080  1.00  0.00    -0.014 A 
ATOM     68  C   UNL A   1      37.750  29.195  30.184  1.00  0.00     0.009 A 
ATOM     69  C   UNL A   1      38.104  29.856  27.885  1.00  0.00     0.009 A 
ATOM     70  C   UNL A   1      36.410  29.578  30.085  1.00  0.00     0.001 A 
ATOM     71  C   UNL A   1      36.771  30.263  27.798  1.00  0.00     0.001 A 
ATOM     72  C   UNL A   1      35.923  30.115  28.895  1.00  0.00     0.000 A 
ENDBRANCH  48  67
BRANCH  60  73
ATOM     73  C   UNL A   1      44.428  32.486  31.196  1.00  0.00    -0.014 A 
ATOM     74  C   UNL A   1      44.435  32.786  32.566  1.00  0.00     0.009 A 
ATOM     75  C   UNL A   1      44.719  33.504  30.274  1.00  0.00     0.009 A 
ATOM     76  C   UNL A   1      44.698  34.086  33.002  1.00  0.00     0.001 A 
ATOM     77  C   UNL A   1      45.008  34.797  30.714  1.00  0.00     0.001 A 
ATOM     78  C   UNL A   1      44.988  35.088  32.077  1.00  0.00     0.000 A 
ENDBRANCH  60  73
ENDBRANCH  34  35
ENDBRANCH  26  29
ENDBRANCH  24  25
ENDBRANCH  23  24
ENDBRANCH  22  23
ENDBRANCH   1  22
TORSDOF 15
ENDMDL
