MODEL 1
REMARK VINA RESULT:     -11.2      0.000      0.000
REMARK SMILES Nc1cccc(C(=O)N[C@@H]2C=C[C@@H](C(=O)NCCCCCCNC(=O)c3ccc(-c4c5nc(c(-c6ccccc6)c6ccc([nH]6)c(-c6ccccc6)c6nc(c(-c7ccccc7)c7ccc4[nH]7)C=C6)C=C5)cc3)C2)c1
REMARK SMILES IDX 19 1 18 2 17 3 16 4 14 5 15 6 13 8 10 9 11 10 74 11 12 12
REMARK SMILES IDX 9 13 7 14 8 15 6 17 2 18 3 19 75 20 4 21 5 22 1 23 20 26
REMARK SMILES IDX 21 27 22 28 23 29 24 30 25 32 26 33 27 34 73 35 28 36 72 37
REMARK SMILES IDX 29 38 30 39 31 40 66 41 32 42 71 43 65 44 67 45 33 46 70 47
REMARK SMILES IDX 64 48 63 49 34 51 56 52 41 53 55 54 42 55 45 56 54 57 68 58
REMARK SMILES IDX 43 59 44 60 53 62 69 63 46 64 35 65 36 66 40 67 37 68 39 69
REMARK SMILES IDX 38 70 57 71 58 72 62 73 59 74 61 75 60 76 47 77 48 78 52 79
REMARK SMILES IDX 49 80 51 81 50 82
REMARK H PARENT 16 7 9 16 1 24 1 25 23 31 67 50 45 61
REMARK Flexibility Score: inf
ROOT
ATOM      1  C   UNL A   1      31.410  28.042  25.474  1.00  0.00     0.002 C 
ENDROOT
BRANCH   1   2
ATOM      2  C   UNL A   1      31.304  26.653  26.119  1.00  0.00     0.021 C 
BRANCH   2   3
ATOM      3  C   UNL A   1      30.096  25.849  25.642  1.00  0.00     0.116 C 
BRANCH   3   4
ATOM      4  N   UNL A   1      29.807  24.769  26.560  1.00  0.00    -0.356 N 
ATOM      5  C   UNL A   1      30.422  23.585  26.802  1.00  0.00     0.227 C 
ATOM      6  O   UNL A   1      29.867  22.838  27.617  1.00  0.00    -0.274 OA
ATOM      7  H   UNL A   1      29.010  24.923  27.115  1.00  0.00     0.163 HD
BRANCH   5   8
ATOM      8  C   UNL A   1      31.776  23.185  26.209  1.00  0.00     0.103 C 
ATOM      9  C   UNL A   1      33.461  21.583  27.054  1.00  0.00     0.106 C 
ATOM     10  C   UNL A   1      32.614  21.011  25.965  1.00  0.00    -0.006 C 
ATOM     11  C   UNL A   1      32.995  23.056  27.131  1.00  0.00     0.047 C 
ATOM     12  C   UNL A   1      31.682  21.861  25.530  1.00  0.00    -0.016 C 
BRANCH   9  13
ATOM     13  N   UNL A   1      34.874  21.425  26.774  1.00  0.00    -0.346 N 
ATOM     14  C   UNL A   1      35.648  21.885  25.729  1.00  0.00     0.251 C 
ATOM     15  O   UNL A   1      36.819  21.520  25.652  1.00  0.00    -0.269 OA
ATOM     16  H   UNL A   1      35.367  20.898  27.444  1.00  0.00     0.164 HD
BRANCH  14  17
ATOM     17  C   UNL A   1      35.140  22.902  24.771  1.00  0.00     0.041 A 
ATOM     18  C   UNL A   1      33.796  23.518  22.849  1.00  0.00     0.032 A 
ATOM     19  C   UNL A   1      33.855  24.853  23.252  1.00  0.00     0.025 A 
ATOM     20  C   UNL A   1      34.545  22.571  23.549  1.00  0.00     0.039 A 
ATOM     21  C   UNL A   1      34.563  25.220  24.397  1.00  0.00     0.003 A 
ATOM     22  C   UNL A   1      35.185  24.242  25.171  1.00  0.00     0.014 A 
BRANCH  18  23
ATOM     23  N   UNL A   1      33.079  23.149  21.721  1.00  0.00    -0.399 N 
ATOM     24  H   UNL A   1      33.112  22.218  21.399  1.00  0.00     0.156 HD
ATOM     25  H   UNL A   1      32.538  23.816  21.240  1.00  0.00     0.156 HD
ENDBRANCH  18  23
ENDBRANCH  14  17
ENDBRANCH   9  13
ENDBRANCH   5   8
ENDBRANCH   3   4
ENDBRANCH   2   3
ENDBRANCH   1   2
BRANCH   1  26
ATOM     26  C   UNL A   1      32.795  28.386  24.912  1.00  0.00     0.002 C 
BRANCH  26  27
ATOM     27  C   UNL A   1      33.915  28.438  25.952  1.00  0.00     0.021 C 
BRANCH  27  28
ATOM     28  C   UNL A   1      33.450  28.770  27.367  1.00  0.00     0.116 C 
BRANCH  28  29
ATOM     29  N   UNL A   1      33.543  30.192  27.655  1.00  0.00    -0.352 N 
ATOM     30  C   UNL A   1      34.571  30.900  28.231  1.00  0.00     0.251 C 
ATOM     31  H   UNL A   1      32.755  30.725  27.401  1.00  0.00     0.163 HD
ATOM     32  O   UNL A   1      34.404  32.061  28.579  1.00  0.00    -0.269 OA
BRANCH  30  33
ATOM     33  C   UNL A   1      35.875  30.243  28.450  1.00  0.00     0.039 A 
ATOM     34  C   UNL A   1      36.818  30.255  27.419  1.00  0.00     0.014 A 
ATOM     35  C   UNL A   1      36.171  29.628  29.670  1.00  0.00     0.014 A 
ATOM     36  C   UNL A   1      38.087  29.719  27.639  1.00  0.00     0.010 A 
ATOM     37  C   UNL A   1      37.459  29.159  29.911  1.00  0.00     0.010 A 
ATOM     38  C   UNL A   1      38.432  29.209  28.902  1.00  0.00    -0.014 A 
BRANCH  38  39
ATOM     39  C   UNL A   1      39.816  28.760  29.196  1.00  0.00     0.031 A 
ATOM     40  C   UNL A   1      40.796  29.688  29.857  1.00  0.00     0.074 A 
ATOM     41  C   UNL A   1      40.211  27.534  28.799  1.00  0.00     0.049 A 
ATOM     42  N   UNL A   1      42.060  29.490  30.135  1.00  0.00    -0.248 NA
ATOM     43  C   UNL A   1      40.299  31.020  30.238  1.00  0.00     0.031 C 
ATOM     44  C   UNL A   1      39.366  26.552  28.115  1.00  0.00     0.029 A 
ATOM     45  N   UNL A   1      41.427  26.906  28.907  1.00  0.00    -0.354 N 
ATOM     46  C   UNL A   1      42.511  30.671  30.709  1.00  0.00     0.074 A 
ATOM     47  C   UNL A   1      41.399  31.597  30.696  1.00  0.00     0.031 C 
ATOM     48  C   UNL A   1      40.081  25.439  27.888  1.00  0.00     0.029 A 
ATOM     49  C   UNL A   1      41.445  25.644  28.365  1.00  0.00     0.049 A 
ATOM     50  H   UNL A   1      42.211  27.321  29.333  1.00  0.00     0.167 HD
ATOM     51  C   UNL A   1      43.734  30.954  31.216  1.00  0.00     0.031 A 
ATOM     52  C   UNL A   1      42.448  24.754  28.249  1.00  0.00     0.031 A 
ATOM     53  C   UNL A   1      44.840  30.033  31.225  1.00  0.00     0.049 A 
ATOM     54  C   UNL A   1      43.809  25.110  28.781  1.00  0.00     0.074 A 
ATOM     55  C   UNL A   1      46.101  30.206  31.769  1.00  0.00     0.029 A 
ATOM     56  N   UNL A   1      44.820  28.769  30.656  1.00  0.00    -0.354 N 
ATOM     57  N   UNL A   1      44.197  26.203  29.394  1.00  0.00    -0.248 NA
ATOM     58  C   UNL A   1      44.869  24.107  28.611  1.00  0.00     0.031 C 
ATOM     59  C   UNL A   1      46.866  29.075  31.469  1.00  0.00     0.029 A 
ATOM     60  C   UNL A   1      46.061  28.168  30.798  1.00  0.00     0.049 A 
ATOM     61  H   UNL A   1      44.041  28.359  30.215  1.00  0.00     0.167 HD
ATOM     62  C   UNL A   1      45.537  26.010  29.699  1.00  0.00     0.074 A 
ATOM     63  C   UNL A   1      45.889  24.687  29.226  1.00  0.00     0.031 C 
ATOM     64  C   UNL A   1      46.399  26.855  30.315  1.00  0.00     0.031 A 
BRANCH  51  65
ATOM     65  C   UNL A   1      43.948  32.328  31.792  1.00  0.00    -0.014 A 
ATOM     66  C   UNL A   1      44.379  33.396  30.990  1.00  0.00     0.009 A 
ATOM     67  C   UNL A   1      43.670  32.568  33.146  1.00  0.00     0.009 A 
ATOM     68  C   UNL A   1      44.564  34.667  31.541  1.00  0.00     0.001 A 
ATOM     69  C   UNL A   1      43.825  33.845  33.688  1.00  0.00     0.001 A 
ATOM     70  C   UNL A   1      44.281  34.891  32.887  1.00  0.00     0.000 A 
ENDBRANCH  51  65
BRANCH  52  71
ATOM     71  C   UNL A   1      42.210  23.441  27.595  1.00  0.00    -0.014 A 
ATOM     72  C   UNL A   1      41.678  22.367  28.324  1.00  0.00     0.009 A 
ATOM     73  C   UNL A   1      42.519  23.251  26.238  1.00  0.00     0.009 A 
ATOM     74  C   UNL A   1      41.488  21.123  27.716  1.00  0.00     0.001 A 
ATOM     75  C   UNL A   1      42.297  22.016  25.625  1.00  0.00     0.001 A 
ATOM     76  C   UNL A   1      41.793  20.951  26.367  1.00  0.00     0.000 A 
ENDBRANCH  52  71
BRANCH  64  77
ATOM     77  C   UNL A   1      47.806  26.367  30.530  1.00  0.00    -0.014 A 
ATOM     78  C   UNL A   1      48.193  25.774  31.741  1.00  0.00     0.009 A 
ATOM     79  C   UNL A   1      48.743  26.461  29.489  1.00  0.00     0.009 A 
ATOM     80  C   UNL A   1      49.500  25.312  31.915  1.00  0.00     0.001 A 
ATOM     81  C   UNL A   1      50.038  25.969  29.655  1.00  0.00     0.001 A 
ATOM     82  C   UNL A   1      50.418  25.404  30.870  1.00  0.00     0.000 A 
ENDBRANCH  64  77
ENDBRANCH  38  39
ENDBRANCH  30  33
ENDBRANCH  28  29
ENDBRANCH  27  28
ENDBRANCH  26  27
ENDBRANCH   1  26
TORSDOF 16
ENDMDL
MODEL 2
REMARK VINA RESULT:     -11.1      3.914      6.134
REMARK SMILES Nc1cccc(C(=O)N[C@@H]2C=C[C@@H](C(=O)NCCCCCCNC(=O)c3ccc(-c4c5nc(c(-c6ccccc6)c6ccc([nH]6)c(-c6ccccc6)c6nc(c(-c7ccccc7)c7ccc4[nH]7)C=C6)C=C5)cc3)C2)c1
REMARK SMILES IDX 19 1 18 2 17 3 16 4 14 5 15 6 13 8 10 9 11 10 74 11 12 12
REMARK SMILES IDX 9 13 7 14 8 15 6 17 2 18 3 19 75 20 4 21 5 22 1 23 20 26
REMARK SMILES IDX 21 27 22 28 23 29 24 30 25 32 26 33 27 34 73 35 28 36 72 37
REMARK SMILES IDX 29 38 30 39 31 40 66 41 32 42 71 43 65 44 67 45 33 46 70 47
REMARK SMILES IDX 64 48 63 49 34 51 56 52 41 53 55 54 42 55 45 56 54 57 68 58
REMARK SMILES IDX 43 59 44 60 53 62 69 63 46 64 35 65 36 66 40 67 37 68 39 69
REMARK SMILES IDX 38 70 57 71 58 72 62 73 59 74 61 75 60 76 47 77 48 78 52 79
REMARK SMILES IDX 49 80 51 81 50 82
REMARK H PARENT 16 7 9 16 1 24 1 25 23 31 67 50 45 61
REMARK Flexibility Score: inf
ROOT
ATOM      1  C   UNL A   1      31.847  30.072  25.054  1.00  0.00     0.002 C 
ENDROOT
BRANCH   1   2
ATOM      2  C   UNL A   1      33.043  29.127  24.876  1.00  0.00     0.021 C 
BRANCH   2   3
ATOM      3  C   UNL A   1      32.885  27.796  25.610  1.00  0.00     0.116 C 
BRANCH   3   4
ATOM      4  N   UNL A   1      33.474  26.718  24.846  1.00  0.00    -0.356 N 
ATOM      5  C   UNL A   1      32.959  25.850  23.940  1.00  0.00     0.227 C 
ATOM      6  O   UNL A   1      33.730  24.981  23.516  1.00  0.00    -0.274 OA
ATOM      7  H   UNL A   1      34.434  26.589  25.017  1.00  0.00     0.163 HD
BRANCH   5   8
ATOM      8  C   UNL A   1      31.545  25.953  23.363  1.00  0.00     0.103 C 
ATOM      9  C   UNL A   1      29.860  27.747  23.616  1.00  0.00     0.106 C 
ATOM     10  C   UNL A   1      30.588  27.817  22.315  1.00  0.00    -0.006 C 
ATOM     11  C   UNL A   1      30.399  26.446  24.256  1.00  0.00     0.047 C 
ATOM     12  C   UNL A   1      31.521  26.871  22.188  1.00  0.00    -0.016 C 
BRANCH   9  13
ATOM     13  N   UNL A   1      28.422  27.760  23.428  1.00  0.00    -0.346 N 
ATOM     14  C   UNL A   1      27.557  28.792  23.132  1.00  0.00     0.251 C 
ATOM     15  O   UNL A   1      26.347  28.571  23.134  1.00  0.00    -0.269 OA
ATOM     16  H   UNL A   1      27.990  26.881  23.530  1.00  0.00     0.164 HD
BRANCH  14  17
ATOM     17  C   UNL A   1      28.050  30.123  22.691  1.00  0.00     0.041 A 
ATOM     18  C   UNL A   1      28.180  31.896  21.042  1.00  0.00     0.032 A 
ATOM     19  C   UNL A   1      28.608  32.774  22.039  1.00  0.00     0.025 A 
ATOM     20  C   UNL A   1      28.023  30.546  21.359  1.00  0.00     0.039 A 
ATOM     21  C   UNL A   1      28.775  32.333  23.353  1.00  0.00     0.003 A 
ATOM     22  C   UNL A   1      28.471  31.014  23.685  1.00  0.00     0.014 A 
BRANCH  18  23
ATOM     23  N   UNL A   1      27.998  32.336  19.740  1.00  0.00    -0.399 N 
ATOM     24  H   UNL A   1      27.126  32.695  19.459  1.00  0.00     0.156 HD
ATOM     25  H   UNL A   1      28.740  32.287  19.095  1.00  0.00     0.156 HD
ENDBRANCH  18  23
ENDBRANCH  14  17
ENDBRANCH   9  13
ENDBRANCH   5   8
ENDBRANCH   3   4
ENDBRANCH   2   3
ENDBRANCH   1   2
BRANCH   1  26
ATOM     26  C   UNL A   1      31.556  30.474  26.504  1.00  0.00     0.002 C 
BRANCH  26  27
ATOM     27  C   UNL A   1      31.404  31.978  26.735  1.00  0.00     0.021 C 
BRANCH  27  28
ATOM     28  C   UNL A   1      32.663  32.670  27.249  1.00  0.00     0.116 C 
BRANCH  28  29
ATOM     29  N   UNL A   1      32.417  34.056  27.615  1.00  0.00    -0.352 N 
ATOM     30  C   UNL A   1      33.010  34.820  28.592  1.00  0.00     0.251 C 
ATOM     31  H   UNL A   1      31.724  34.514  27.087  1.00  0.00     0.163 HD
ATOM     32  O   UNL A   1      32.544  35.910  28.894  1.00  0.00    -0.269 OA
BRANCH  30  33
ATOM     33  C   UNL A   1      34.203  34.305  29.294  1.00  0.00     0.039 A 
ATOM     34  C   UNL A   1      34.030  33.584  30.479  1.00  0.00     0.014 A 
ATOM     35  C   UNL A   1      35.486  34.521  28.780  1.00  0.00     0.014 A 
ATOM     36  C   UNL A   1      35.138  33.014  31.106  1.00  0.00     0.010 A 
ATOM     37  C   UNL A   1      36.579  33.892  29.367  1.00  0.00     0.010 A 
ATOM     38  C   UNL A   1      36.415  33.124  30.530  1.00  0.00    -0.014 A 
BRANCH  38  39
ATOM     39  C   UNL A   1      37.581  32.411  31.108  1.00  0.00     0.031 A 
ATOM     40  C   UNL A   1      38.247  32.919  32.356  1.00  0.00     0.074 A 
ATOM     41  C   UNL A   1      38.086  31.340  30.462  1.00  0.00     0.049 A 
ATOM     42  N   UNL A   1      39.311  32.462  32.967  1.00  0.00    -0.248 NA
ATOM     43  C   UNL A   1      37.655  34.108  32.989  1.00  0.00     0.031 C 
ATOM     44  C   UNL A   1      37.554  30.771  29.222  1.00  0.00     0.029 A 
ATOM     45  N   UNL A   1      39.166  30.545  30.755  1.00  0.00    -0.354 N 
ATOM     46  C   UNL A   1      39.522  33.311  34.045  1.00  0.00     0.074 A 
ATOM     47  C   UNL A   1      38.505  34.339  33.977  1.00  0.00     0.031 C 
ATOM     48  C   UNL A   1      38.292  29.704  28.876  1.00  0.00     0.029 A 
ATOM     49  C   UNL A   1      39.376  29.543  29.840  1.00  0.00     0.049 A 
ATOM     50  H   UNL A   1      39.735  30.680  31.547  1.00  0.00     0.167 HD
ATOM     51  C   UNL A   1      40.466  33.233  35.013  1.00  0.00     0.031 A 
ATOM     52  C   UNL A   1      40.341  28.607  29.771  1.00  0.00     0.031 A 
ATOM     53  C   UNL A   1      41.478  32.212  35.076  1.00  0.00     0.049 A 
ATOM     54  C   UNL A   1      41.403  28.569  30.835  1.00  0.00     0.074 A 
ATOM     55  C   UNL A   1      42.442  32.015  36.050  1.00  0.00     0.029 A 
ATOM     56  N   UNL A   1      41.664  31.223  34.124  1.00  0.00    -0.354 N 
ATOM     57  N   UNL A   1      41.540  29.332  31.892  1.00  0.00    -0.248 NA
ATOM     58  C   UNL A   1      42.440  27.538  30.698  1.00  0.00     0.031 C 
ATOM     59  C   UNL A   1      43.253  30.948  35.652  1.00  0.00     0.029 A 
ATOM     60  C   UNL A   1      42.753  30.438  34.465  1.00  0.00     0.049 A 
ATOM     61  H   UNL A   1      41.105  31.097  33.322  1.00  0.00     0.167 HD
ATOM     62  C   UNL A   1      42.664  28.860  32.556  1.00  0.00     0.074 A 
ATOM     63  C   UNL A   1      43.157  27.731  31.796  1.00  0.00     0.031 C 
ATOM     64  C   UNL A   1      43.238  29.323  33.694  1.00  0.00     0.031 A 
BRANCH  51  65
ATOM     65  C   UNL A   1      40.458  34.296  36.079  1.00  0.00    -0.014 A 
ATOM     66  C   UNL A   1      41.206  35.475  35.939  1.00  0.00     0.009 A 
ATOM     67  C   UNL A   1      39.656  34.134  37.219  1.00  0.00     0.009 A 
ATOM     68  C   UNL A   1      41.179  36.454  36.935  1.00  0.00     0.001 A 
ATOM     69  C   UNL A   1      39.606  35.127  38.199  1.00  0.00     0.001 A 
ATOM     70  C   UNL A   1      40.375  36.281  38.061  1.00  0.00     0.000 A 
ENDBRANCH  51  65
BRANCH  52  71
ATOM     71  C   UNL A   1      40.356  27.631  28.650  1.00  0.00    -0.014 A 
ATOM     72  C   UNL A   1      39.674  26.410  28.759  1.00  0.00     0.009 A 
ATOM     73  C   UNL A   1      41.059  27.911  27.467  1.00  0.00     0.009 A 
ATOM     74  C   UNL A   1      39.718  25.479  27.718  1.00  0.00     0.001 A 
ATOM     75  C   UNL A   1      41.074  26.992  26.416  1.00  0.00     0.001 A 
ATOM     76  C   UNL A   1      40.414  25.773  26.546  1.00  0.00     0.000 A 
ENDBRANCH  52  71
BRANCH  64  77
ATOM     77  C   UNL A   1      44.455  28.595  34.196  1.00  0.00    -0.014 A 
ATOM     78  C   UNL A   1      44.338  27.463  35.017  1.00  0.00     0.009 A 
ATOM     79  C   UNL A   1      45.733  29.023  33.805  1.00  0.00     0.009 A 
ATOM     80  C   UNL A   1      45.480  26.792  35.460  1.00  0.00     0.001 A 
ATOM     81  C   UNL A   1      46.871  28.330  34.223  1.00  0.00     0.001 A 
ATOM     82  C   UNL A   1      46.743  27.221  35.057  1.00  0.00     0.000 A 
ENDBRANCH  64  77
ENDBRANCH  38  39
ENDBRANCH  30  33
ENDBRANCH  28  29
ENDBRANCH  27  28
ENDBRANCH  26  27
ENDBRANCH   1  26
TORSDOF 16
ENDMDL
MODEL 3
REMARK VINA RESULT:     -11.0      3.803      8.303
REMARK SMILES Nc1cccc(C(=O)N[C@@H]2C=C[C@@H](C(=O)NCCCCCCNC(=O)c3ccc(-c4c5nc(c(-c6ccccc6)c6ccc([nH]6)c(-c6ccccc6)c6nc(c(-c7ccccc7)c7ccc4[nH]7)C=C6)C=C5)cc3)C2)c1
REMARK SMILES IDX 19 1 18 2 17 3 16 4 14 5 15 6 13 8 10 9 11 10 74 11 12 12
REMARK SMILES IDX 9 13 7 14 8 15 6 17 2 18 3 19 75 20 4 21 5 22 1 23 20 26
REMARK SMILES IDX 21 27 22 28 23 29 24 30 25 32 26 33 27 34 73 35 28 36 72 37
REMARK SMILES IDX 29 38 30 39 31 40 66 41 32 42 71 43 65 44 67 45 33 46 70 47
REMARK SMILES IDX 64 48 63 49 34 51 56 52 41 53 55 54 42 55 45 56 54 57 68 58
REMARK SMILES IDX 43 59 44 60 53 62 69 63 46 64 35 65 36 66 40 67 37 68 39 69
REMARK SMILES IDX 38 70 57 71 58 72 62 73 59 74 61 75 60 76 47 77 48 78 52 79
REMARK SMILES IDX 49 80 51 81 50 82
REMARK H PARENT 16 7 9 16 1 24 1 25 23 31 67 50 45 61
REMARK Flexibility Score: inf
ROOT
ATOM      1  C   UNL A   1      32.311  29.744  25.055  1.00  0.00     0.002 C 
ENDROOT
BRANCH   1   2
ATOM      2  C   UNL A   1      33.401  28.665  25.105  1.00  0.00     0.021 C 
BRANCH   2   3
ATOM      3  C   UNL A   1      32.862  27.265  25.398  1.00  0.00     0.116 C 
BRANCH   3   4
ATOM      4  N   UNL A   1      33.390  26.307  24.452  1.00  0.00    -0.356 N 
ATOM      5  C   UNL A   1      32.822  25.616  23.433  1.00  0.00     0.227 C 
ATOM      6  O   UNL A   1      33.548  24.802  22.852  1.00  0.00    -0.274 OA
ATOM      7  H   UNL A   1      34.349  26.119  24.571  1.00  0.00     0.163 HD
BRANCH   5   8
ATOM      8  C   UNL A   1      31.398  25.859  22.923  1.00  0.00     0.103 C 
ATOM      9  C   UNL A   1      29.758  27.592  23.578  1.00  0.00     0.106 C 
ATOM     10  C   UNL A   1      30.462  27.914  22.301  1.00  0.00    -0.006 C 
ATOM     11  C   UNL A   1      30.281  26.179  23.926  1.00  0.00     0.047 C 
ATOM     12  C   UNL A   1      31.371  26.998  21.962  1.00  0.00    -0.016 C 
BRANCH   9  13
ATOM     13  N   UNL A   1      28.318  27.668  23.430  1.00  0.00    -0.346 N 
ATOM     14  C   UNL A   1      27.488  28.740  23.179  1.00  0.00     0.251 C 
ATOM     15  O   UNL A   1      26.271  28.569  23.210  1.00  0.00    -0.269 OA
ATOM     16  H   UNL A   1      27.852  26.806  23.528  1.00  0.00     0.164 HD
BRANCH  14  17
ATOM     17  C   UNL A   1      28.025  30.058  22.750  1.00  0.00     0.041 A 
ATOM     18  C   UNL A   1      28.134  31.888  21.162  1.00  0.00     0.032 A 
ATOM     19  C   UNL A   1      28.687  32.699  22.154  1.00  0.00     0.025 A 
ATOM     20  C   UNL A   1      27.922  30.537  21.440  1.00  0.00     0.039 A 
ATOM     21  C   UNL A   1      28.925  32.196  23.434  1.00  0.00     0.003 A 
ATOM     22  C   UNL A   1      28.571  30.883  23.740  1.00  0.00     0.014 A 
BRANCH  18  23
ATOM     23  N   UNL A   1      27.881  32.389  19.894  1.00  0.00    -0.399 N 
ATOM     24  H   UNL A   1      28.630  32.613  19.295  1.00  0.00     0.156 HD
ATOM     25  H   UNL A   1      26.954  32.523  19.593  1.00  0.00     0.156 HD
ENDBRANCH  18  23
ENDBRANCH  14  17
ENDBRANCH   9  13
ENDBRANCH   5   8
ENDBRANCH   3   4
ENDBRANCH   2   3
ENDBRANCH   1   2
BRANCH   1  26
ATOM     26  C   UNL A   1      31.774  30.181  26.423  1.00  0.00     0.002 C 
BRANCH  26  27
ATOM     27  C   UNL A   1      31.591  31.691  26.588  1.00  0.00     0.021 C 
BRANCH  27  28
ATOM     28  C   UNL A   1      32.757  32.398  27.272  1.00  0.00     0.116 C 
BRANCH  28  29
ATOM     29  N   UNL A   1      32.451  33.787  27.579  1.00  0.00    -0.352 N 
ATOM     30  C   UNL A   1      33.052  34.635  28.478  1.00  0.00     0.251 C 
ATOM     31  H   UNL A   1      31.705  34.176  27.068  1.00  0.00     0.163 HD
ATOM     32  O   UNL A   1      32.541  35.713  28.749  1.00  0.00    -0.269 OA
BRANCH  30  33
ATOM     33  C   UNL A   1      34.310  34.226  29.136  1.00  0.00     0.039 A 
ATOM     34  C   UNL A   1      34.248  33.633  30.400  1.00  0.00     0.014 A 
ATOM     35  C   UNL A   1      35.543  34.414  28.505  1.00  0.00     0.014 A 
ATOM     36  C   UNL A   1      35.416  33.159  30.997  1.00  0.00     0.010 A 
ATOM     37  C   UNL A   1      36.696  33.877  29.069  1.00  0.00     0.010 A 
ATOM     38  C   UNL A   1      36.642  33.236  30.316  1.00  0.00    -0.014 A 
BRANCH  38  39
ATOM     39  C   UNL A   1      37.870  32.615  30.873  1.00  0.00     0.031 A 
ATOM     40  C   UNL A   1      38.438  31.364  30.266  1.00  0.00     0.074 A 
ATOM     41  C   UNL A   1      38.433  33.144  31.978  1.00  0.00     0.049 A 
ATOM     42  N   UNL A   1      39.464  30.650  30.656  1.00  0.00    -0.248 NA
ATOM     43  C   UNL A   1      37.753  30.831  29.078  1.00  0.00     0.031 C 
ATOM     44  C   UNL A   1      37.956  34.335  32.685  1.00  0.00     0.029 A 
ATOM     45  N   UNL A   1      39.525  32.743  32.706  1.00  0.00    -0.354 N 
ATOM     46  C   UNL A   1      39.540  29.582  29.772  1.00  0.00     0.074 A 
ATOM     47  C   UNL A   1      38.428  29.713  28.855  1.00  0.00     0.031 C 
ATOM     48  C   UNL A   1      38.766  34.583  33.727  1.00  0.00     0.029 A 
ATOM     49  C   UNL A   1      39.788  33.543  33.791  1.00  0.00     0.049 A 
ATOM     50  H   UNL A   1      40.070  31.957  32.472  1.00  0.00     0.167 HD
ATOM     51  C   UNL A   1      40.461  28.591  29.719  1.00  0.00     0.031 A 
ATOM     52  C   UNL A   1      40.734  33.445  34.744  1.00  0.00     0.031 A 
ATOM     53  C   UNL A   1      41.564  28.460  30.634  1.00  0.00     0.049 A 
ATOM     54  C   UNL A   1      41.718  32.310  34.686  1.00  0.00     0.074 A 
ATOM     55  C   UNL A   1      42.583  27.522  30.625  1.00  0.00     0.029 A 
ATOM     56  N   UNL A   1      41.787  29.283  31.726  1.00  0.00    -0.354 N 
ATOM     57  N   UNL A   1      41.824  31.353  33.796  1.00  0.00    -0.248 NA
ATOM     58  C   UNL A   1      42.717  32.245  35.761  1.00  0.00     0.031 C 
ATOM     59  C   UNL A   1      43.384  27.738  31.751  1.00  0.00     0.029 A 
ATOM     60  C   UNL A   1      42.903  28.851  32.423  1.00  0.00     0.049 A 
ATOM     61  H   UNL A   1      41.233  30.060  31.971  1.00  0.00     0.167 HD
ATOM     62  C   UNL A   1      42.911  30.586  34.192  1.00  0.00     0.074 A 
ATOM     63  C   UNL A   1      43.446  31.202  35.388  1.00  0.00     0.031 C 
ATOM     64  C   UNL A   1      43.419  29.468  33.617  1.00  0.00     0.031 A 
BRANCH  51  65
ATOM     65  C   UNL A   1      40.305  27.554  28.639  1.00  0.00    -0.014 A 
ATOM     66  C   UNL A   1      40.907  27.714  27.382  1.00  0.00     0.009 A 
ATOM     67  C   UNL A   1      39.582  26.379  28.898  1.00  0.00     0.009 A 
ATOM     68  C   UNL A   1      40.758  26.737  26.394  1.00  0.00     0.001 A 
ATOM     69  C   UNL A   1      39.460  25.390  27.921  1.00  0.00     0.001 A 
ATOM     70  C   UNL A   1      40.039  25.574  26.668  1.00  0.00     0.000 A 
ENDBRANCH  51  65
BRANCH  52  71
ATOM     71  C   UNL A   1      40.796  34.447  35.841  1.00  0.00    -0.014 A 
ATOM     72  C   UNL A   1      41.571  35.608  35.704  1.00  0.00     0.009 A 
ATOM     73  C   UNL A   1      40.086  34.244  37.035  1.00  0.00     0.009 A 
ATOM     74  C   UNL A   1      41.655  36.531  36.750  1.00  0.00     0.001 A 
ATOM     75  C   UNL A   1      40.146  35.183  38.066  1.00  0.00     0.001 A 
ATOM     76  C   UNL A   1      40.939  36.320  37.927  1.00  0.00     0.000 A 
ENDBRANCH  52  71
BRANCH  64  77
ATOM     77  C   UNL A   1      44.628  28.850  34.264  1.00  0.00    -0.014 A 
ATOM     78  C   UNL A   1      44.504  27.776  35.158  1.00  0.00     0.009 A 
ATOM     79  C   UNL A   1      45.910  29.320  33.938  1.00  0.00     0.009 A 
ATOM     80  C   UNL A   1      45.640  27.204  35.737  1.00  0.00     0.001 A 
ATOM     81  C   UNL A   1      47.044  28.725  34.492  1.00  0.00     0.001 A 
ATOM     82  C   UNL A   1      46.908  27.675  35.398  1.00  0.00     0.000 A 
ENDBRANCH  64  77
ENDBRANCH  38  39
ENDBRANCH  30  33
ENDBRANCH  28  29
ENDBRANCH  27  28
ENDBRANCH  26  27
ENDBRANCH   1  26
TORSDOF 16
ENDMDL
