MODEL 1
REMARK VINA RESULT:     -10.2      0.000      0.000
REMARK SMILES CC1(C)[C@@H](CBr)CC[C@]1(C)C(=O)NCCCCCCNC(=O)c1ccc(-c2c3nc(c(-c4ccccc4)c4ccc([nH]4)c(-c4ccccc4)c4nc(c(-c5ccccc5)c5ccc2[nH]5)C=C4)C=C3)cc1
REMARK SMILES IDX 17 1 16 2 15 3 14 4 13 5 11 6 12 7 9 9 1 10 2 11 3 12 4 13
REMARK SMILES IDX 7 14 8 15 10 16 5 17 6 18 18 19 19 20 20 21 21 22 22 24
REMARK SMILES IDX 23 25 24 26 70 27 25 28 69 29 26 30 27 31 28 32 63 33 29 34
REMARK SMILES IDX 68 35 62 36 64 37 30 38 67 39 61 40 60 41 31 43 53 44 38 45
REMARK SMILES IDX 52 46 39 47 42 48 51 49 65 50 40 51 41 52 50 54 66 55 43 56
REMARK SMILES IDX 32 57 33 58 37 59 34 60 36 61 35 62 54 63 55 64 59 65 56 66
REMARK SMILES IDX 58 67 57 68 44 69 45 70 49 71 46 72 48 73 47 74
REMARK H PARENT 13 8 20 23 64 42 42 53
REMARK Flexibility Score: inf
ROOT
ATOM      1  C   UNL A   1      31.550  27.671  25.954  1.00  0.00     0.002 C 
ENDROOT
BRANCH   1   2
ATOM      2  C   UNL A   1      30.865  26.304  25.866  1.00  0.00     0.002 C 
BRANCH   2   3
ATOM      3  C   UNL A   1      30.179  26.026  24.529  1.00  0.00     0.021 C 
BRANCH   3   4
ATOM      4  C   UNL A   1      30.793  24.863  23.750  1.00  0.00     0.116 C 
BRANCH   4   5
ATOM      5  N   UNL A   1      31.877  25.306  22.902  1.00  0.00    -0.356 N 
ATOM      6  C   UNL A   1      33.169  24.904  22.760  1.00  0.00     0.226 C 
ATOM      7  O   UNL A   1      33.837  25.577  21.970  1.00  0.00    -0.274 OA
ATOM      8  H   UNL A   1      31.631  26.049  22.306  1.00  0.00     0.163 HD
BRANCH   6   9
ATOM      9  C   UNL A   1      33.774  23.684  23.518  1.00  0.00     0.052 C 
ATOM     10  C   UNL A   1      33.077  23.558  26.086  1.00  0.00     0.012 C 
ATOM     11  C   UNL A   1      34.133  23.959  25.046  1.00  0.00    -0.018 C 
ATOM     12  C   UNL A   1      34.429  25.471  25.287  1.00  0.00     0.012 C 
ATOM     13  C   UNL A   1      35.487  23.194  25.287  1.00  0.00     0.006 C 
ATOM     14  C   UNL A   1      36.231  23.446  23.975  1.00  0.00     0.006 C 
ATOM     15  C   UNL A   1      35.175  23.333  22.886  1.00  0.00     0.017 C 
ATOM     16  C   UNL A   1      32.876  22.462  23.211  1.00  0.00     0.022 C 
BRANCH  13  17
ATOM     17  C   UNL A   1      35.421  21.686  25.567  1.00  0.00     0.084 C 
ATOM     18  Br  UNL A   1      37.067  20.767  25.052  1.00  0.00    -0.092 Br
ENDBRANCH  13  17
ENDBRANCH   6   9
ENDBRANCH   4   5
ENDBRANCH   3   4
ENDBRANCH   2   3
ENDBRANCH   1   2
BRANCH   1  19
ATOM     19  C   UNL A   1      32.144  28.005  27.325  1.00  0.00     0.021 C 
BRANCH  19  20
ATOM     20  C   UNL A   1      33.539  28.618  27.275  1.00  0.00     0.116 C 
BRANCH  20  21
ATOM     21  N   UNL A   1      33.513  30.041  27.572  1.00  0.00    -0.352 N 
ATOM     22  C   UNL A   1      34.459  30.807  28.199  1.00  0.00     0.251 C 
ATOM     23  H   UNL A   1      32.703  30.520  27.281  1.00  0.00     0.163 HD
ATOM     24  O   UNL A   1      34.185  31.945  28.581  1.00  0.00    -0.269 OA
BRANCH  22  25
ATOM     25  C   UNL A   1      35.808  30.258  28.429  1.00  0.00     0.039 A 
ATOM     26  C   UNL A   1      36.750  30.321  27.401  1.00  0.00     0.014 A 
ATOM     27  C   UNL A   1      36.138  29.676  29.657  1.00  0.00     0.014 A 
ATOM     28  C   UNL A   1      38.041  29.840  27.620  1.00  0.00     0.010 A 
ATOM     29  C   UNL A   1      37.445  29.266  29.899  1.00  0.00     0.010 A 
ATOM     30  C   UNL A   1      38.406  29.334  28.879  1.00  0.00    -0.014 A 
BRANCH  30  31
ATOM     31  C   UNL A   1      39.787  28.859  29.142  1.00  0.00     0.031 A 
ATOM     32  C   UNL A   1      40.780  29.761  29.823  1.00  0.00     0.074 A 
ATOM     33  C   UNL A   1      40.159  27.631  28.728  1.00  0.00     0.049 A 
ATOM     34  N   UNL A   1      42.038  29.537  30.108  1.00  0.00    -0.248 NA
ATOM     35  C   UNL A   1      40.303  31.097  30.216  1.00  0.00     0.031 C 
ATOM     36  C   UNL A   1      39.299  26.673  28.029  1.00  0.00     0.029 A 
ATOM     37  N   UNL A   1      41.362  26.979  28.839  1.00  0.00    -0.354 N 
ATOM     38  C   UNL A   1      42.502  30.704  30.703  1.00  0.00     0.074 A 
ATOM     39  C   UNL A   1      41.410  31.652  30.685  1.00  0.00     0.031 C 
ATOM     40  C   UNL A   1      39.991  25.544  27.807  1.00  0.00     0.029 A 
ATOM     41  C   UNL A   1      41.352  25.713  28.307  1.00  0.00     0.049 A 
ATOM     42  H   UNL A   1      42.156  27.380  29.260  1.00  0.00     0.167 HD
ATOM     43  C   UNL A   1      43.720  30.956  31.240  1.00  0.00     0.031 A 
ATOM     44  C   UNL A   1      42.330  24.792  28.228  1.00  0.00     0.031 A 
ATOM     45  C   UNL A   1      44.805  30.012  31.259  1.00  0.00     0.049 A 
ATOM     46  C   UNL A   1      43.684  25.111  28.801  1.00  0.00     0.074 A 
ATOM     47  C   UNL A   1      46.067  30.160  31.808  1.00  0.00     0.029 A 
ATOM     48  N   UNL A   1      44.757  28.744  30.703  1.00  0.00    -0.354 N 
ATOM     49  N   UNL A   1      44.089  26.198  29.412  1.00  0.00    -0.248 NA
ATOM     50  C   UNL A   1      44.711  24.066  28.685  1.00  0.00     0.031 C 
ATOM     51  C   UNL A   1      46.799  28.999  31.539  1.00  0.00     0.029 A 
ATOM     52  C   UNL A   1      45.971  28.104  30.879  1.00  0.00     0.049 A 
ATOM     53  H   UNL A   1      43.974  28.355  30.248  1.00  0.00     0.167 HD
ATOM     54  C   UNL A   1      45.403  25.952  29.788  1.00  0.00     0.074 A 
ATOM     55  C   UNL A   1      45.722  24.610  29.349  1.00  0.00     0.031 C 
ATOM     56  C   UNL A   1      46.269  26.765  30.442  1.00  0.00     0.031 A 
BRANCH  43  57
ATOM     57  C   UNL A   1      43.938  32.313  31.851  1.00  0.00    -0.014 A 
ATOM     58  C   UNL A   1      43.664  32.552  33.207  1.00  0.00     0.009 A 
ATOM     59  C   UNL A   1      44.458  33.358  31.071  1.00  0.00     0.009 A 
ATOM     60  C   UNL A   1      43.870  33.818  33.760  1.00  0.00     0.001 A 
ATOM     61  C   UNL A   1      44.693  34.614  31.634  1.00  0.00     0.001 A 
ATOM     62  C   UNL A   1      44.388  34.846  32.975  1.00  0.00     0.000 A 
ENDBRANCH  43  57
BRANCH  44  63
ATOM     63  C   UNL A   1      42.068  23.470  27.602  1.00  0.00    -0.014 A 
ATOM     64  C   UNL A   1      41.535  22.416  28.361  1.00  0.00     0.009 A 
ATOM     65  C   UNL A   1      42.371  23.244  26.250  1.00  0.00     0.009 A 
ATOM     66  C   UNL A   1      41.345  21.155  27.789  1.00  0.00     0.001 A 
ATOM     67  C   UNL A   1      42.151  21.991  25.673  1.00  0.00     0.001 A 
ATOM     68  C   UNL A   1      41.650  20.946  26.446  1.00  0.00     0.000 A 
ENDBRANCH  44  63
BRANCH  56  69
ATOM     69  C   UNL A   1      47.623  26.202  30.772  1.00  0.00    -0.014 A 
ATOM     70  C   UNL A   1      48.656  26.163  29.821  1.00  0.00     0.009 A 
ATOM     71  C   UNL A   1      47.877  25.730  32.070  1.00  0.00     0.009 A 
ATOM     72  C   UNL A   1      49.901  25.625  30.154  1.00  0.00     0.001 A 
ATOM     73  C   UNL A   1      49.132  25.225  32.409  1.00  0.00     0.001 A 
ATOM     74  C   UNL A   1      50.139  25.161  31.447  1.00  0.00     0.000 A 
ENDBRANCH  56  69
ENDBRANCH  30  31
ENDBRANCH  22  25
ENDBRANCH  20  21
ENDBRANCH  19  20
ENDBRANCH   1  19
TORSDOF 14
ENDMDL
MODEL 2
REMARK VINA RESULT:     -10.0      2.474      7.318
REMARK SMILES CC1(C)[C@@H](CBr)CC[C@]1(C)C(=O)NCCCCCCNC(=O)c1ccc(-c2c3nc(c(-c4ccccc4)c4ccc([nH]4)c(-c4ccccc4)c4nc(c(-c5ccccc5)c5ccc2[nH]5)C=C4)C=C3)cc1
REMARK SMILES IDX 17 1 16 2 15 3 14 4 13 5 11 6 12 7 9 9 1 10 2 11 3 12 4 13
REMARK SMILES IDX 7 14 8 15 10 16 5 17 6 18 18 19 19 20 20 21 21 22 22 24
REMARK SMILES IDX 23 25 24 26 70 27 25 28 69 29 26 30 27 31 28 32 63 33 29 34
REMARK SMILES IDX 68 35 62 36 64 37 30 38 67 39 61 40 60 41 31 43 53 44 38 45
REMARK SMILES IDX 52 46 39 47 42 48 51 49 65 50 40 51 41 52 50 54 66 55 43 56
REMARK SMILES IDX 32 57 33 58 37 59 34 60 36 61 35 62 54 63 55 64 59 65 56 66
REMARK SMILES IDX 58 67 57 68 44 69 45 70 49 71 46 72 48 73 47 74
REMARK H PARENT 13 8 20 23 64 42 42 53
REMARK Flexibility Score: inf
ROOT
ATOM      1  C   UNL A   1      36.025  20.911  25.368  1.00  0.00     0.002 C 
ENDROOT
BRANCH   1   2
ATOM      2  C   UNL A   1      34.714  20.599  24.640  1.00  0.00     0.002 C 
BRANCH   2   3
ATOM      3  C   UNL A   1      33.504  20.435  25.559  1.00  0.00     0.021 C 
BRANCH   3   4
ATOM      4  C   UNL A   1      32.235  21.104  25.034  1.00  0.00     0.116 C 
BRANCH   4   5
ATOM      5  N   UNL A   1      31.516  21.782  26.090  1.00  0.00    -0.356 N 
ATOM      6  C   UNL A   1      31.200  23.087  26.308  1.00  0.00     0.226 C 
ATOM      7  O   UNL A   1      30.626  23.309  27.378  1.00  0.00    -0.274 OA
ATOM      8  H   UNL A   1      31.190  21.177  26.794  1.00  0.00     0.163 HD
BRANCH   6   9
ATOM      9  C   UNL A   1      31.517  24.226  25.293  1.00  0.00     0.052 C 
ATOM     10  C   UNL A   1      33.791  23.871  23.951  1.00  0.00     0.012 C 
ATOM     11  C   UNL A   1      33.067  24.553  25.121  1.00  0.00    -0.018 C 
ATOM     12  C   UNL A   1      33.864  24.176  26.407  1.00  0.00     0.012 C 
ATOM     13  C   UNL A   1      33.137  26.121  24.994  1.00  0.00     0.006 C 
ATOM     14  C   UNL A   1      32.078  26.567  26.004  1.00  0.00     0.006 C 
ATOM     15  C   UNL A   1      30.931  25.581  25.846  1.00  0.00     0.017 C 
ATOM     16  C   UNL A   1      30.708  23.932  24.006  1.00  0.00     0.022 C 
BRANCH  13  17
ATOM     17  C   UNL A   1      32.846  26.746  23.623  1.00  0.00     0.084 C 
ATOM     18  Br  UNL A   1      32.020  28.510  23.776  1.00  0.00    -0.092 Br
ENDBRANCH  13  17
ENDBRANCH   6   9
ENDBRANCH   4   5
ENDBRANCH   3   4
ENDBRANCH   2   3
ENDBRANCH   1   2
BRANCH   1  19
ATOM     19  C   UNL A   1      37.210  20.030  24.962  1.00  0.00     0.021 C 
BRANCH  19  20
ATOM     20  C   UNL A   1      38.574  20.597  25.339  1.00  0.00     0.116 C 
BRANCH  20  21
ATOM     21  N   UNL A   1      39.547  19.544  25.581  1.00  0.00    -0.352 N 
ATOM     22  C   UNL A   1      40.838  19.649  26.021  1.00  0.00     0.251 C 
ATOM     23  H   UNL A   1      39.232  18.628  25.403  1.00  0.00     0.163 HD
ATOM     24  O   UNL A   1      41.601  18.685  25.950  1.00  0.00    -0.269 OA
BRANCH  22  25
ATOM     25  C   UNL A   1      41.320  20.929  26.571  1.00  0.00     0.039 A 
ATOM     26  C   UNL A   1      41.914  21.856  25.713  1.00  0.00     0.014 A 
ATOM     27  C   UNL A   1      41.191  21.210  27.936  1.00  0.00     0.014 A 
ATOM     28  C   UNL A   1      42.338  23.087  26.215  1.00  0.00     0.010 A 
ATOM     29  C   UNL A   1      41.545  22.465  28.420  1.00  0.00     0.010 A 
ATOM     30  C   UNL A   1      42.132  23.411  27.567  1.00  0.00    -0.014 A 
BRANCH  30  31
ATOM     31  C   UNL A   1      42.538  24.732  28.107  1.00  0.00     0.031 A 
ATOM     32  C   UNL A   1      41.513  25.816  28.301  1.00  0.00     0.074 A 
ATOM     33  C   UNL A   1      43.836  24.969  28.384  1.00  0.00     0.049 A 
ATOM     34  N   UNL A   1      41.681  27.042  28.729  1.00  0.00    -0.248 NA
ATOM     35  C   UNL A   1      40.122  25.487  27.947  1.00  0.00     0.031 C 
ATOM     36  C   UNL A   1      44.930  24.011  28.209  1.00  0.00     0.029 A 
ATOM     37  N   UNL A   1      44.453  26.093  28.871  1.00  0.00    -0.354 N 
ATOM     38  C   UNL A   1      40.422  27.630  28.687  1.00  0.00     0.074 A 
ATOM     39  C   UNL A   1      39.513  26.648  28.137  1.00  0.00     0.031 C 
ATOM     40  C   UNL A   1      46.077  24.576  28.620  1.00  0.00     0.029 A 
ATOM     41  C   UNL A   1      45.808  25.947  29.042  1.00  0.00     0.049 A 
ATOM     42  H   UNL A   1      43.971  26.926  29.078  1.00  0.00     0.167 HD
ATOM     43  C   UNL A   1      40.049  28.867  29.092  1.00  0.00     0.031 A 
ATOM     44  C   UNL A   1      46.730  26.819  29.488  1.00  0.00     0.031 A 
ATOM     45  C   UNL A   1      40.952  29.844  29.639  1.00  0.00     0.049 A 
ATOM     46  C   UNL A   1      46.295  28.199  29.899  1.00  0.00     0.074 A 
ATOM     47  C   UNL A   1      40.667  31.114  30.110  1.00  0.00     0.029 A 
ATOM     48  N   UNL A   1      42.317  29.658  29.789  1.00  0.00    -0.354 N 
ATOM     49  N   UNL A   1      45.092  28.719  29.907  1.00  0.00    -0.248 NA
ATOM     50  C   UNL A   1      47.347  29.106  30.377  1.00  0.00     0.031 C 
ATOM     51  C   UNL A   1      41.869  31.716  30.498  1.00  0.00     0.029 A 
ATOM     52  C   UNL A   1      42.892  30.796  30.328  1.00  0.00     0.049 A 
ATOM     53  H   UNL A   1      42.807  28.839  29.547  1.00  0.00     0.167 HD
ATOM     54  C   UNL A   1      45.237  29.999  30.427  1.00  0.00     0.074 A 
ATOM     55  C   UNL A   1      46.642  30.170  30.736  1.00  0.00     0.031 C 
ATOM     56  C   UNL A   1      44.291  30.947  30.635  1.00  0.00     0.031 A 
BRANCH  43  57
ATOM     57  C   UNL A   1      38.596  29.232  28.954  1.00  0.00    -0.014 A 
ATOM     58  C   UNL A   1      37.706  29.087  30.031  1.00  0.00     0.009 A 
ATOM     59  C   UNL A   1      38.116  29.760  27.746  1.00  0.00     0.009 A 
ATOM     60  C   UNL A   1      36.358  29.427  29.888  1.00  0.00     0.001 A 
ATOM     61  C   UNL A   1      36.776  30.129  27.615  1.00  0.00     0.001 A 
ATOM     62  C   UNL A   1      35.896  29.952  28.683  1.00  0.00     0.000 A 
ENDBRANCH  43  57
BRANCH  44  63
ATOM     63  C   UNL A   1      48.157  26.415  29.592  1.00  0.00    -0.014 A 
ATOM     64  C   UNL A   1      48.651  25.842  30.775  1.00  0.00     0.009 A 
ATOM     65  C   UNL A   1      49.041  26.621  28.521  1.00  0.00     0.009 A 
ATOM     66  C   UNL A   1      50.004  25.519  30.896  1.00  0.00     0.001 A 
ATOM     67  C   UNL A   1      50.387  26.268  28.633  1.00  0.00     0.001 A 
ATOM     68  C   UNL A   1      50.869  25.728  29.825  1.00  0.00     0.000 A 
ENDBRANCH  44  63
BRANCH  56  69
ATOM     69  C   UNL A   1      44.736  32.232  31.277  1.00  0.00    -0.014 A 
ATOM     70  C   UNL A   1      44.759  32.388  32.672  1.00  0.00     0.009 A 
ATOM     71  C   UNL A   1      45.168  33.295  30.467  1.00  0.00     0.009 A 
ATOM     72  C   UNL A   1      45.167  33.597  33.239  1.00  0.00     0.001 A 
ATOM     73  C   UNL A   1      45.607  34.489  31.038  1.00  0.00     0.001 A 
ATOM     74  C   UNL A   1      45.595  34.644  32.423  1.00  0.00     0.000 A 
ENDBRANCH  56  69
ENDBRANCH  30  31
ENDBRANCH  22  25
ENDBRANCH  20  21
ENDBRANCH  19  20
ENDBRANCH   1  19
TORSDOF 14
ENDMDL
MODEL 3
REMARK VINA RESULT:     -10.0      2.512      7.629
REMARK SMILES CC1(C)[C@@H](CBr)CC[C@]1(C)C(=O)NCCCCCCNC(=O)c1ccc(-c2c3nc(c(-c4ccccc4)c4ccc([nH]4)c(-c4ccccc4)c4nc(c(-c5ccccc5)c5ccc2[nH]5)C=C4)C=C3)cc1
REMARK SMILES IDX 17 1 16 2 15 3 14 4 13 5 11 6 12 7 9 9 1 10 2 11 3 12 4 13
REMARK SMILES IDX 7 14 8 15 10 16 5 17 6 18 18 19 19 20 20 21 21 22 22 24
REMARK SMILES IDX 23 25 24 26 70 27 25 28 69 29 26 30 27 31 28 32 63 33 29 34
REMARK SMILES IDX 68 35 62 36 64 37 30 38 67 39 61 40 60 41 31 43 53 44 38 45
REMARK SMILES IDX 52 46 39 47 42 48 51 49 65 50 40 51 41 52 50 54 66 55 43 56
REMARK SMILES IDX 32 57 33 58 37 59 34 60 36 61 35 62 54 63 55 64 59 65 56 66
REMARK SMILES IDX 58 67 57 68 44 69 45 70 49 71 46 72 48 73 47 74
REMARK H PARENT 13 8 20 23 64 42 42 53
REMARK Flexibility Score: inf
ROOT
ATOM      1  C   UNL A   1      36.374  20.429  24.988  1.00  0.00     0.002 C 
ENDROOT
BRANCH   1   2
ATOM      2  C   UNL A   1      36.511  21.909  24.620  1.00  0.00     0.002 C 
BRANCH   2   3
ATOM      3  C   UNL A   1      35.504  22.828  25.310  1.00  0.00     0.021 C 
BRANCH   3   4
ATOM      4  C   UNL A   1      34.046  22.445  25.060  1.00  0.00     0.116 C 
BRANCH   4   5
ATOM      5  N   UNL A   1      33.194  22.853  26.155  1.00  0.00    -0.356 N 
ATOM      6  C   UNL A   1      32.246  23.819  26.284  1.00  0.00     0.226 C 
ATOM      7  O   UNL A   1      31.764  23.925  27.415  1.00  0.00    -0.274 OA
ATOM      8  H   UNL A   1      33.327  22.323  26.973  1.00  0.00     0.163 HD
BRANCH   6   9
ATOM      9  C   UNL A   1      31.782  24.727  25.105  1.00  0.00     0.052 C 
ATOM     10  C   UNL A   1      33.741  25.399  23.428  1.00  0.00     0.012 C 
ATOM     11  C   UNL A   1      32.860  25.797  24.622  1.00  0.00    -0.018 C 
ATOM     12  C   UNL A   1      33.837  26.167  25.780  1.00  0.00     0.012 C 
ATOM     13  C   UNL A   1      32.027  27.094  24.306  1.00  0.00     0.006 C 
ATOM     14  C   UNL A   1      30.990  27.086  25.430  1.00  0.00     0.006 C 
ATOM     15  C   UNL A   1      30.585  25.629  25.593  1.00  0.00     0.017 C 
ATOM     16  C   UNL A   1      31.173  23.799  24.025  1.00  0.00     0.022 C 
BRANCH  13  17
ATOM     17  C   UNL A   1      31.321  27.183  22.946  1.00  0.00     0.084 C 
ATOM     18  Br  UNL A   1      29.602  28.104  23.065  1.00  0.00    -0.092 Br
ENDBRANCH  13  17
ENDBRANCH   6   9
ENDBRANCH   4   5
ENDBRANCH   3   4
ENDBRANCH   2   3
ENDBRANCH   1   2
BRANCH   1  19
ATOM     19  C   UNL A   1      37.671  19.621  24.892  1.00  0.00     0.021 C 
BRANCH  19  20
ATOM     20  C   UNL A   1      38.855  20.240  25.626  1.00  0.00     0.116 C 
BRANCH  20  21
ATOM     21  N   UNL A   1      39.962  19.305  25.746  1.00  0.00    -0.352 N 
ATOM     22  C   UNL A   1      41.270  19.557  26.062  1.00  0.00     0.251 C 
ATOM     23  H   UNL A   1      39.740  18.361  25.577  1.00  0.00     0.163 HD
ATOM     24  O   UNL A   1      42.128  18.690  25.894  1.00  0.00    -0.269 OA
BRANCH  22  25
ATOM     25  C   UNL A   1      41.652  20.877  26.595  1.00  0.00     0.039 A 
ATOM     26  C   UNL A   1      42.117  21.856  25.716  1.00  0.00     0.014 A 
ATOM     27  C   UNL A   1      41.556  21.145  27.965  1.00  0.00     0.014 A 
ATOM     28  C   UNL A   1      42.444  23.121  26.203  1.00  0.00     0.010 A 
ATOM     29  C   UNL A   1      41.810  22.428  28.438  1.00  0.00     0.010 A 
ATOM     30  C   UNL A   1      42.268  23.425  27.563  1.00  0.00    -0.014 A 
BRANCH  30  31
ATOM     31  C   UNL A   1      42.570  24.779  28.090  1.00  0.00     0.031 A 
ATOM     32  C   UNL A   1      43.976  25.142  28.479  1.00  0.00     0.074 A 
ATOM     33  C   UNL A   1      41.570  25.667  28.257  1.00  0.00     0.049 A 
ATOM     34  N   UNL A   1      44.429  26.261  28.987  1.00  0.00    -0.248 NA
ATOM     35  C   UNL A   1      45.006  24.106  28.293  1.00  0.00     0.031 C 
ATOM     36  C   UNL A   1      40.159  25.426  27.948  1.00  0.00     0.029 A 
ATOM     37  N   UNL A   1      41.591  26.955  28.731  1.00  0.00    -0.354 N 
ATOM     38  C   UNL A   1      45.790  26.058  29.188  1.00  0.00     0.074 A 
ATOM     39  C   UNL A   1      46.077  24.694  28.805  1.00  0.00     0.031 C 
ATOM     40  C   UNL A   1      39.457  26.542  28.204  1.00  0.00     0.029 A 
ATOM     41  C   UNL A   1      40.357  27.559  28.736  1.00  0.00     0.049 A 
ATOM     42  H   UNL A   1      42.411  27.404  29.037  1.00  0.00     0.167 HD
ATOM     43  C   UNL A   1      46.722  26.936  29.629  1.00  0.00     0.031 A 
ATOM     44  C   UNL A   1      39.992  28.794  29.128  1.00  0.00     0.031 A 
ATOM     45  C   UNL A   1      46.437  28.294  30.011  1.00  0.00     0.049 A 
ATOM     46  C   UNL A   1      41.041  29.738  29.647  1.00  0.00     0.074 A 
ATOM     47  C   UNL A   1      47.316  29.272  30.439  1.00  0.00     0.029 A 
ATOM     48  N   UNL A   1      45.173  28.864  30.008  1.00  0.00    -0.354 N 
ATOM     49  N   UNL A   1      42.333  29.549  29.777  1.00  0.00    -0.248 NA
ATOM     50  C   UNL A   1      40.583  31.071  30.059  1.00  0.00     0.031 C 
ATOM     51  C   UNL A   1      46.578  30.420  30.745  1.00  0.00     0.029 A 
ATOM     52  C   UNL A   1      45.247  30.175  30.445  1.00  0.00     0.049 A 
ATOM     53  H   UNL A   1      44.346  28.404  29.737  1.00  0.00     0.167 HD
ATOM     54  C   UNL A   1      42.844  30.752  30.248  1.00  0.00     0.074 A 
ATOM     55  C   UNL A   1      41.727  31.666  30.366  1.00  0.00     0.031 C 
ATOM     56  C   UNL A   1      44.126  31.073  30.551  1.00  0.00     0.031 A 
BRANCH  43  57
ATOM     57  C   UNL A   1      48.142  26.448  29.724  1.00  0.00    -0.014 A 
ATOM     58  C   UNL A   1      49.033  26.594  28.648  1.00  0.00     0.009 A 
ATOM     59  C   UNL A   1      48.606  25.867  30.914  1.00  0.00     0.009 A 
ATOM     60  C   UNL A   1      50.348  26.133  28.749  1.00  0.00     0.001 A 
ATOM     61  C   UNL A   1      49.930  25.437  31.023  1.00  0.00     0.001 A 
ATOM     62  C   UNL A   1      50.797  25.560  29.938  1.00  0.00     0.000 A 
ENDBRANCH  43  57
BRANCH  44  63
ATOM     63  C   UNL A   1      38.573  29.224  29.029  1.00  0.00    -0.014 A 
ATOM     64  C   UNL A   1      38.075  29.764  27.832  1.00  0.00     0.009 A 
ATOM     65  C   UNL A   1      37.713  29.121  30.133  1.00  0.00     0.009 A 
ATOM     66  C   UNL A   1      36.759  30.226  27.755  1.00  0.00     0.001 A 
ATOM     67  C   UNL A   1      36.388  29.555  30.044  1.00  0.00     0.001 A 
ATOM     68  C   UNL A   1      35.916  30.117  28.860  1.00  0.00     0.000 A 
ENDBRANCH  44  63
BRANCH  56  69
ATOM     69  C   UNL A   1      44.396  32.487  30.985  1.00  0.00    -0.014 A 
ATOM     70  C   UNL A   1      44.675  33.501  30.056  1.00  0.00     0.009 A 
ATOM     71  C   UNL A   1      44.338  32.813  32.350  1.00  0.00     0.009 A 
ATOM     72  C   UNL A   1      44.932  34.804  30.489  1.00  0.00     0.001 A 
ATOM     73  C   UNL A   1      44.562  34.121  32.777  1.00  0.00     0.001 A 
ATOM     74  C   UNL A   1      44.870  35.113  31.848  1.00  0.00     0.000 A 
ENDBRANCH  56  69
ENDBRANCH  30  31
ENDBRANCH  22  25
ENDBRANCH  20  21
ENDBRANCH  19  20
ENDBRANCH   1  19
TORSDOF 14
ENDMDL
