MODEL 1
REMARK VINA RESULT:     -11.0      0.000      0.000
REMARK SMILES Nc1c(N2CCCC2)ncnc1N1CCC(C(=O)NCCCCCCNC(=O)c2ccc(-c3c4nc(c(-c5ccccc5)c5ccc([nH]5)c(-c5ccccc5)c5nc(c(-c6ccccc6)c6ccc3[nH]6)C=C5)C=C4)cc2)CC1
REMARK SMILES IDX 22 1 21 2 20 3 19 4 17 5 18 6 16 8 13 9 14 10 78 11 15 12
REMARK SMILES IDX 77 13 12 14 2 15 3 16 9 17 11 18 10 19 1 20 4 23 5 24 8 25
REMARK SMILES IDX 6 26 7 27 23 28 24 29 25 30 26 31 27 32 28 34 29 35 30 36
REMARK SMILES IDX 76 37 31 38 75 39 32 40 33 41 34 42 69 43 35 44 74 45 68 46
REMARK SMILES IDX 70 47 36 48 73 49 67 50 66 51 37 53 59 54 44 55 58 56 45 57
REMARK SMILES IDX 48 58 57 59 71 60 46 61 47 62 56 64 72 65 49 66 38 67 39 68
REMARK SMILES IDX 43 69 40 70 42 71 41 72 60 73 61 74 65 75 62 76 64 77 63 78
REMARK SMILES IDX 50 79 51 80 55 81 52 82 54 83 53 84
REMARK H PARENT 19 7 1 21 1 22 26 33 70 52 48 63
REMARK Flexibility Score: inf
ROOT
ATOM      1  C   UNL A   1      33.473  28.991  23.360  1.00  0.00     0.002 C 
ENDROOT
BRANCH   1   2
ATOM      2  C   UNL A   1      33.873  27.536  23.094  1.00  0.00     0.021 C 
BRANCH   2   3
ATOM      3  C   UNL A   1      32.879  26.771  22.223  1.00  0.00     0.116 C 
BRANCH   3   4
ATOM      4  N   UNL A   1      31.649  27.525  22.044  1.00  0.00    -0.356 N 
ATOM      5  C   UNL A   1      30.422  27.367  22.614  1.00  0.00     0.223 C 
ATOM      6  O   UNL A   1      29.513  28.121  22.259  1.00  0.00    -0.275 OA
ATOM      7  H   UNL A   1      31.713  28.273  21.407  1.00  0.00     0.163 HD
BRANCH   5   8
ATOM      8  C   UNL A   1      30.177  26.309  23.678  1.00  0.00     0.082 C 
ATOM      9  N   UNL A   1      31.523  24.572  25.437  1.00  0.00    -0.355 N 
ATOM     10  C   UNL A   1      30.842  23.924  24.336  1.00  0.00     0.119 C 
ATOM     11  C   UNL A   1      30.864  25.703  26.062  1.00  0.00     0.119 C 
ATOM     12  C   UNL A   1      30.655  24.924  23.207  1.00  0.00     0.035 C 
ATOM     13  C   UNL A   1      30.709  26.809  25.033  1.00  0.00     0.035 C 
BRANCH   9  14
ATOM     14  C   UNL A   1      32.483  23.843  26.117  1.00  0.00     0.157 A 
ATOM     15  C   UNL A   1      33.797  23.717  25.645  1.00  0.00     0.118 A 
ATOM     16  C   UNL A   1      34.642  22.851  26.364  1.00  0.00     0.157 A 
ATOM     17  N   UNL A   1      34.220  22.178  27.447  1.00  0.00    -0.217 NA
ATOM     18  N   UNL A   1      32.075  23.234  27.245  1.00  0.00    -0.217 NA
ATOM     19  C   UNL A   1      32.962  22.421  27.837  1.00  0.00     0.226 A 
BRANCH  15  20
ATOM     20  N   UNL A   1      34.231  24.321  24.450  1.00  0.00    -0.393 N 
ATOM     21  H   UNL A   1      33.584  24.515  23.733  1.00  0.00     0.156 HD
ATOM     22  H   UNL A   1      35.180  24.552  24.332  1.00  0.00     0.156 HD
ENDBRANCH  15  20
BRANCH  16  23
ATOM     23  N   UNL A   1      35.945  22.680  25.940  1.00  0.00    -0.355 N 
ATOM     24  C   UNL A   1      37.012  23.531  26.432  1.00  0.00     0.118 C 
ATOM     25  C   UNL A   1      36.461  21.367  25.596  1.00  0.00     0.118 C 
ATOM     26  C   UNL A   1      38.135  23.139  25.485  1.00  0.00     0.023 C 
ATOM     27  C   UNL A   1      37.955  21.627  25.338  1.00  0.00     0.023 C 
ENDBRANCH  16  23
ENDBRANCH   9  14
ENDBRANCH   5   8
ENDBRANCH   3   4
ENDBRANCH   2   3
ENDBRANCH   1   2
BRANCH   1  28
ATOM     28  C   UNL A   1      33.259  29.342  24.836  1.00  0.00     0.002 C 
BRANCH  28  29
ATOM     29  C   UNL A   1      33.976  28.424  25.829  1.00  0.00     0.021 C 
BRANCH  29  30
ATOM     30  C   UNL A   1      33.595  28.653  27.287  1.00  0.00     0.116 C 
BRANCH  30  31
ATOM     31  N   UNL A   1      33.569  30.067  27.625  1.00  0.00    -0.352 N 
ATOM     32  C   UNL A   1      34.522  30.825  28.253  1.00  0.00     0.251 C 
ATOM     33  H   UNL A   1      32.749  30.548  27.366  1.00  0.00     0.163 HD
ATOM     34  O   UNL A   1      34.253  31.958  28.649  1.00  0.00    -0.269 OA
BRANCH  32  35
ATOM     35  C   UNL A   1      35.873  30.272  28.469  1.00  0.00     0.039 A 
ATOM     36  C   UNL A   1      36.794  30.311  27.421  1.00  0.00     0.014 A 
ATOM     37  C   UNL A   1      36.224  29.704  29.698  1.00  0.00     0.014 A 
ATOM     38  C   UNL A   1      38.086  29.821  27.620  1.00  0.00     0.010 A 
ATOM     39  C   UNL A   1      37.533  29.284  29.917  1.00  0.00     0.010 A 
ATOM     40  C   UNL A   1      38.472  29.326  28.876  1.00  0.00    -0.014 A 
BRANCH  40  41
ATOM     41  C   UNL A   1      39.848  28.820  29.107  1.00  0.00     0.031 A 
ATOM     42  C   UNL A   1      40.881  29.718  29.734  1.00  0.00     0.074 A 
ATOM     43  C   UNL A   1      40.177  27.571  28.725  1.00  0.00     0.049 A 
ATOM     44  N   UNL A   1      42.143  29.472  29.978  1.00  0.00    -0.248 NA
ATOM     45  C   UNL A   1      40.448  31.072  30.121  1.00  0.00     0.031 C 
ATOM     46  C   UNL A   1      39.271  26.614  28.084  1.00  0.00     0.029 A 
ATOM     47  N   UNL A   1      41.364  26.889  28.818  1.00  0.00    -0.354 N 
ATOM     48  C   UNL A   1      42.652  30.638  30.537  1.00  0.00     0.074 A 
ATOM     49  C   UNL A   1      41.580  31.608  30.553  1.00  0.00     0.031 C 
ATOM     50  C   UNL A   1      39.929  25.463  27.867  1.00  0.00     0.029 A 
ATOM     51  C   UNL A   1      41.311  25.613  28.313  1.00  0.00     0.049 A 
ATOM     52  H   UNL A   1      42.178  27.278  29.213  1.00  0.00     0.167 HD
ATOM     53  C   UNL A   1      43.894  30.871  31.016  1.00  0.00     0.031 A 
ATOM     54  C   UNL A   1      42.269  24.671  28.210  1.00  0.00     0.031 A 
ATOM     55  C   UNL A   1      44.954  29.900  31.023  1.00  0.00     0.049 A 
ATOM     56  C   UNL A   1      43.651  24.973  28.725  1.00  0.00     0.074 A 
ATOM     57  C   UNL A   1      46.231  30.030  31.539  1.00  0.00     0.029 A 
ATOM     58  N   UNL A   1      44.859  28.623  30.494  1.00  0.00    -0.354 N 
ATOM     59  N   UNL A   1      44.095  26.058  29.312  1.00  0.00    -0.248 NA
ATOM     60  C   UNL A   1      44.662  23.917  28.572  1.00  0.00     0.031 C 
ATOM     61  C   UNL A   1      46.931  28.852  31.269  1.00  0.00     0.029 A 
ATOM     62  C   UNL A   1      46.069  27.966  30.642  1.00  0.00     0.049 A 
ATOM     63  H   UNL A   1      44.055  28.240  30.076  1.00  0.00     0.167 HD
ATOM     64  C   UNL A   1      45.427  25.806  29.616  1.00  0.00     0.074 A 
ATOM     65  C   UNL A   1      45.712  24.458  29.174  1.00  0.00     0.031 C 
ATOM     66  C   UNL A   1      46.335  26.623  30.202  1.00  0.00     0.031 A 
BRANCH  53  67
ATOM     67  C   UNL A   1      44.192  32.226  31.593  1.00  0.00    -0.014 A 
ATOM     68  C   UNL A   1      44.001  32.485  32.959  1.00  0.00     0.009 A 
ATOM     69  C   UNL A   1      44.779  33.214  30.787  1.00  0.00     0.009 A 
ATOM     70  C   UNL A   1      44.391  33.709  33.506  1.00  0.00     0.001 A 
ATOM     71  C   UNL A   1      45.191  34.426  31.342  1.00  0.00     0.001 A 
ATOM     72  C   UNL A   1      44.996  34.673  32.700  1.00  0.00     0.000 A 
ENDBRANCH  53  67
BRANCH  54  73
ATOM     73  C   UNL A   1      41.965  23.354  27.588  1.00  0.00    -0.014 A 
ATOM     74  C   UNL A   1      41.291  22.358  28.311  1.00  0.00     0.009 A 
ATOM     75  C   UNL A   1      42.371  23.076  26.272  1.00  0.00     0.009 A 
ATOM     76  C   UNL A   1      41.061  21.102  27.743  1.00  0.00     0.001 A 
ATOM     77  C   UNL A   1      42.110  21.831  25.695  1.00  0.00     0.001 A 
ATOM     78  C   UNL A   1      41.467  20.841  26.435  1.00  0.00     0.000 A 
ENDBRANCH  54  73
BRANCH  66  79
ATOM     79  C   UNL A   1      47.720  26.083  30.421  1.00  0.00    -0.014 A 
ATOM     80  C   UNL A   1      48.664  26.068  29.382  1.00  0.00     0.009 A 
ATOM     81  C   UNL A   1      48.110  25.660  31.702  1.00  0.00     0.009 A 
ATOM     82  C   UNL A   1      49.963  25.619  29.618  1.00  0.00     0.001 A 
ATOM     83  C   UNL A   1      49.419  25.242  31.942  1.00  0.00     0.001 A 
ATOM     84  C   UNL A   1      50.343  25.214  30.898  1.00  0.00     0.000 A 
ENDBRANCH  66  79
ENDBRANCH  40  41
ENDBRANCH  32  35
ENDBRANCH  30  31
ENDBRANCH  29  30
ENDBRANCH  28  29
ENDBRANCH   1  28
TORSDOF 16
ENDMDL
MODEL 2
REMARK VINA RESULT:     -10.8      0.260      5.841
REMARK SMILES Nc1c(N2CCCC2)ncnc1N1CCC(C(=O)NCCCCCCNC(=O)c2ccc(-c3c4nc(c(-c5ccccc5)c5ccc([nH]5)c(-c5ccccc5)c5nc(c(-c6ccccc6)c6ccc3[nH]6)C=C5)C=C4)cc2)CC1
REMARK SMILES IDX 22 1 21 2 20 3 19 4 17 5 18 6 16 8 13 9 14 10 78 11 15 12
REMARK SMILES IDX 77 13 12 14 2 15 3 16 9 17 11 18 10 19 1 20 4 23 5 24 8 25
REMARK SMILES IDX 6 26 7 27 23 28 24 29 25 30 26 31 27 32 28 34 29 35 30 36
REMARK SMILES IDX 76 37 31 38 75 39 32 40 33 41 34 42 69 43 35 44 74 45 68 46
REMARK SMILES IDX 70 47 36 48 73 49 67 50 66 51 37 53 59 54 44 55 58 56 45 57
REMARK SMILES IDX 48 58 57 59 71 60 46 61 47 62 56 64 72 65 49 66 38 67 39 68
REMARK SMILES IDX 43 69 40 70 42 71 41 72 60 73 61 74 65 75 62 76 64 77 63 78
REMARK SMILES IDX 50 79 51 80 55 81 52 82 54 83 53 84
REMARK H PARENT 19 7 1 21 1 22 26 33 70 52 48 63
REMARK Flexibility Score: inf
ROOT
ATOM      1  C   UNL A   1      33.542  28.917  23.204  1.00  0.00     0.002 C 
ENDROOT
BRANCH   1   2
ATOM      2  C   UNL A   1      33.939  27.490  22.811  1.00  0.00     0.021 C 
BRANCH   2   3
ATOM      3  C   UNL A   1      32.829  26.710  22.110  1.00  0.00     0.116 C 
BRANCH   3   4
ATOM      4  N   UNL A   1      31.628  27.517  21.969  1.00  0.00    -0.356 N 
ATOM      5  C   UNL A   1      30.415  27.415  22.581  1.00  0.00     0.223 C 
ATOM      6  O   UNL A   1      29.529  28.208  22.254  1.00  0.00    -0.275 OA
ATOM      7  H   UNL A   1      31.703  28.260  21.327  1.00  0.00     0.163 HD
BRANCH   5   8
ATOM      8  C   UNL A   1      30.160  26.372  23.658  1.00  0.00     0.082 C 
ATOM      9  N   UNL A   1      31.488  24.644  25.437  1.00  0.00    -0.355 N 
ATOM     10  C   UNL A   1      30.803  23.989  24.344  1.00  0.00     0.119 C 
ATOM     11  C   UNL A   1      30.839  25.788  26.049  1.00  0.00     0.119 C 
ATOM     12  C   UNL A   1      30.626  24.977  23.203  1.00  0.00     0.035 C 
ATOM     13  C   UNL A   1      30.696  26.883  25.007  1.00  0.00     0.035 C 
BRANCH   9  14
ATOM     14  C   UNL A   1      32.442  23.914  26.126  1.00  0.00     0.157 A 
ATOM     15  C   UNL A   1      33.762  23.792  25.670  1.00  0.00     0.118 A 
ATOM     16  C   UNL A   1      34.600  22.924  26.397  1.00  0.00     0.157 A 
ATOM     17  N   UNL A   1      34.165  22.247  27.472  1.00  0.00    -0.217 NA
ATOM     18  N   UNL A   1      32.021  23.300  27.247  1.00  0.00    -0.217 NA
ATOM     19  C   UNL A   1      32.902  22.486  27.847  1.00  0.00     0.226 A 
BRANCH  15  20
ATOM     20  N   UNL A   1      34.209  24.401  24.483  1.00  0.00    -0.393 N 
ATOM     21  H   UNL A   1      34.577  23.849  23.755  1.00  0.00     0.156 HD
ATOM     22  H   UNL A   1      34.154  25.378  24.380  1.00  0.00     0.156 HD
ENDBRANCH  15  20
BRANCH  16  23
ATOM     23  N   UNL A   1      35.907  22.757  25.988  1.00  0.00    -0.355 N 
ATOM     24  C   UNL A   1      36.968  23.605  26.501  1.00  0.00     0.118 C 
ATOM     25  C   UNL A   1      36.429  21.448  25.640  1.00  0.00     0.118 C 
ATOM     26  C   UNL A   1      38.103  23.220  25.565  1.00  0.00     0.023 C 
ATOM     27  C   UNL A   1      37.925  21.710  25.404  1.00  0.00     0.023 C 
ENDBRANCH  16  23
ENDBRANCH   9  14
ENDBRANCH   5   8
ENDBRANCH   3   4
ENDBRANCH   2   3
ENDBRANCH   1   2
BRANCH   1  28
ATOM     28  C   UNL A   1      33.306  29.131  24.702  1.00  0.00     0.002 C 
BRANCH  28  29
ATOM     29  C   UNL A   1      34.157  28.254  25.623  1.00  0.00     0.021 C 
BRANCH  29  30
ATOM     30  C   UNL A   1      33.844  28.408  27.106  1.00  0.00     0.116 C 
BRANCH  30  31
ATOM     31  N   UNL A   1      33.647  29.800  27.477  1.00  0.00    -0.352 N 
ATOM     32  C   UNL A   1      34.484  30.639  28.166  1.00  0.00     0.251 C 
ATOM     33  H   UNL A   1      32.791  30.196  27.195  1.00  0.00     0.163 HD
ATOM     34  O   UNL A   1      34.076  31.724  28.577  1.00  0.00    -0.269 OA
BRANCH  32  35
ATOM     35  C   UNL A   1      35.878  30.231  28.427  1.00  0.00     0.039 A 
ATOM     36  C   UNL A   1      36.217  29.756  29.696  1.00  0.00     0.014 A 
ATOM     37  C   UNL A   1      36.851  30.331  27.428  1.00  0.00     0.014 A 
ATOM     38  C   UNL A   1      37.523  29.336  29.949  1.00  0.00     0.010 A 
ATOM     39  C   UNL A   1      38.134  29.844  27.660  1.00  0.00     0.010 A 
ATOM     40  C   UNL A   1      38.486  29.354  28.926  1.00  0.00    -0.014 A 
BRANCH  40  41
ATOM     41  C   UNL A   1      39.874  28.893  29.177  1.00  0.00     0.031 A 
ATOM     42  C   UNL A   1      40.295  27.515  28.742  1.00  0.00     0.074 A 
ATOM     43  C   UNL A   1      40.742  29.696  29.821  1.00  0.00     0.049 A 
ATOM     44  N   UNL A   1      41.448  26.918  28.907  1.00  0.00    -0.248 NA
ATOM     45  C   UNL A   1      39.288  26.693  28.046  1.00  0.00     0.031 C 
ATOM     46  C   UNL A   1      40.446  31.043  30.314  1.00  0.00     0.029 A 
ATOM     47  N   UNL A   1      42.053  29.497  30.174  1.00  0.00    -0.354 N 
ATOM     48  C   UNL A   1      41.301  25.655  28.346  1.00  0.00     0.074 A 
ATOM     49  C   UNL A   1      39.937  25.550  27.879  1.00  0.00     0.031 C 
ATOM     50  C   UNL A   1      41.550  31.557  30.881  1.00  0.00     0.029 A 
ATOM     51  C   UNL A   1      42.618  30.563  30.831  1.00  0.00     0.049 A 
ATOM     52  H   UNL A   1      42.545  28.667  29.974  1.00  0.00     0.167 HD
ATOM     53  C   UNL A   1      42.227  24.680  28.212  1.00  0.00     0.031 A 
ATOM     54  C   UNL A   1      43.854  30.721  31.344  1.00  0.00     0.031 A 
ATOM     55  C   UNL A   1      43.590  24.792  28.654  1.00  0.00     0.049 A 
ATOM     56  C   UNL A   1      44.853  29.603  31.204  1.00  0.00     0.074 A 
ATOM     57  C   UNL A   1      44.615  23.874  28.510  1.00  0.00     0.029 A 
ATOM     58  N   UNL A   1      44.117  25.885  29.321  1.00  0.00    -0.354 N 
ATOM     59  N   UNL A   1      44.716  28.442  30.611  1.00  0.00    -0.248 NA
ATOM     60  C   UNL A   1      46.181  29.822  31.797  1.00  0.00     0.031 C 
ATOM     61  C   UNL A   1      45.750  24.386  29.143  1.00  0.00     0.029 A 
ATOM     62  C   UNL A   1      45.447  25.649  29.625  1.00  0.00     0.049 A 
ATOM     63  H   UNL A   1      43.622  26.706  29.546  1.00  0.00     0.167 HD
ATOM     64  C   UNL A   1      45.943  27.804  30.741  1.00  0.00     0.074 A 
ATOM     65  C   UNL A   1      46.819  28.714  31.445  1.00  0.00     0.031 C 
ATOM     66  C   UNL A   1      46.308  26.569  30.321  1.00  0.00     0.031 A 
BRANCH  53  67
ATOM     67  C   UNL A   1      41.818  23.397  27.545  1.00  0.00    -0.014 A 
ATOM     68  C   UNL A   1      42.135  23.151  26.200  1.00  0.00     0.009 A 
ATOM     69  C   UNL A   1      41.216  22.379  28.301  1.00  0.00     0.009 A 
ATOM     70  C   UNL A   1      41.854  21.910  25.625  1.00  0.00     0.001 A 
ATOM     71  C   UNL A   1      40.959  21.132  27.730  1.00  0.00     0.001 A 
ATOM     72  C   UNL A   1      41.277  20.899  26.393  1.00  0.00     0.000 A 
ENDBRANCH  53  67
BRANCH  54  73
ATOM     73  C   UNL A   1      44.222  31.980  32.046  1.00  0.00    -0.014 A 
ATOM     74  C   UNL A   1      44.796  33.051  31.344  1.00  0.00     0.009 A 
ATOM     75  C   UNL A   1      44.024  32.110  33.430  1.00  0.00     0.009 A 
ATOM     76  C   UNL A   1      45.195  34.209  32.017  1.00  0.00     0.001 A 
ATOM     77  C   UNL A   1      44.392  33.281  34.095  1.00  0.00     0.001 A 
ATOM     78  C   UNL A   1      44.989  34.324  33.391  1.00  0.00     0.000 A 
ENDBRANCH  54  73
BRANCH  66  79
ATOM     79  C   UNL A   1      47.719  26.129  30.591  1.00  0.00    -0.014 A 
ATOM     80  C   UNL A   1      48.718  26.264  29.615  1.00  0.00     0.009 A 
ATOM     81  C   UNL A   1      48.069  25.649  31.863  1.00  0.00     0.009 A 
ATOM     82  C   UNL A   1      50.036  25.906  29.902  1.00  0.00     0.001 A 
ATOM     83  C   UNL A   1      49.393  25.322  32.157  1.00  0.00     0.001 A 
ATOM     84  C   UNL A   1      50.374  25.444  31.174  1.00  0.00     0.000 A 
ENDBRANCH  66  79
ENDBRANCH  40  41
ENDBRANCH  32  35
ENDBRANCH  30  31
ENDBRANCH  29  30
ENDBRANCH  28  29
ENDBRANCH   1  28
TORSDOF 16
ENDMDL
MODEL 3
REMARK VINA RESULT:     -10.1      2.556      7.920
REMARK SMILES Nc1c(N2CCCC2)ncnc1N1CCC(C(=O)NCCCCCCNC(=O)c2ccc(-c3c4nc(c(-c5ccccc5)c5ccc([nH]5)c(-c5ccccc5)c5nc(c(-c6ccccc6)c6ccc3[nH]6)C=C5)C=C4)cc2)CC1
REMARK SMILES IDX 22 1 21 2 20 3 19 4 17 5 18 6 16 8 13 9 14 10 78 11 15 12
REMARK SMILES IDX 77 13 12 14 2 15 3 16 9 17 11 18 10 19 1 20 4 23 5 24 8 25
REMARK SMILES IDX 6 26 7 27 23 28 24 29 25 30 26 31 27 32 28 34 29 35 30 36
REMARK SMILES IDX 76 37 31 38 75 39 32 40 33 41 34 42 69 43 35 44 74 45 68 46
REMARK SMILES IDX 70 47 36 48 73 49 67 50 66 51 37 53 59 54 44 55 58 56 45 57
REMARK SMILES IDX 48 58 57 59 71 60 46 61 47 62 56 64 72 65 49 66 38 67 39 68
REMARK SMILES IDX 43 69 40 70 42 71 41 72 60 73 61 74 65 75 62 76 64 77 63 78
REMARK SMILES IDX 50 79 51 80 55 81 52 82 54 83 53 84
REMARK H PARENT 19 7 1 21 1 22 26 33 70 52 48 63
REMARK Flexibility Score: inf
ROOT
ATOM      1  C   UNL A   1      36.222  21.550  25.726  1.00  0.00     0.002 C 
ENDROOT
BRANCH   1   2
ATOM      2  C   UNL A   1      35.750  22.931  25.259  1.00  0.00     0.021 C 
BRANCH   2   3
ATOM      3  C   UNL A   1      34.235  23.116  25.306  1.00  0.00     0.116 C 
BRANCH   3   4
ATOM      4  N   UNL A   1      33.550  21.833  25.308  1.00  0.00    -0.356 N 
ATOM      5  C   UNL A   1      32.223  21.538  25.216  1.00  0.00     0.223 C 
ATOM      6  O   UNL A   1      31.884  20.354  25.285  1.00  0.00    -0.275 OA
ATOM      7  H   UNL A   1      34.141  21.050  25.387  1.00  0.00     0.163 HD
BRANCH   5   8
ATOM      8  C   UNL A   1      31.184  22.628  25.008  1.00  0.00     0.082 C 
ATOM      9  N   UNL A   1      30.926  25.384  24.500  1.00  0.00    -0.355 N 
ATOM     10  C   UNL A   1      30.528  24.966  25.827  1.00  0.00     0.119 C 
ATOM     11  C   UNL A   1      30.588  24.512  23.390  1.00  0.00     0.119 C 
ATOM     12  C   UNL A   1      31.210  23.649  26.160  1.00  0.00     0.035 C 
ATOM     13  C   UNL A   1      31.301  23.185  23.578  1.00  0.00     0.035 C 
BRANCH   9  14
ATOM     14  C   UNL A   1      31.169  26.732  24.297  1.00  0.00     0.157 A 
ATOM     15  C   UNL A   1      30.171  27.613  23.858  1.00  0.00     0.118 A 
ATOM     16  C   UNL A   1      30.576  28.931  23.575  1.00  0.00     0.157 A 
ATOM     17  N   UNL A   1      31.849  29.332  23.716  1.00  0.00    -0.217 NA
ATOM     18  N   UNL A   1      32.431  27.146  24.516  1.00  0.00    -0.217 NA
ATOM     19  C   UNL A   1      32.704  28.419  24.196  1.00  0.00     0.226 A 
BRANCH  15  20
ATOM     20  N   UNL A   1      28.855  27.190  23.593  1.00  0.00    -0.393 N 
ATOM     21  H   UNL A   1      28.276  27.722  23.000  1.00  0.00     0.156 HD
ATOM     22  H   UNL A   1      28.513  26.361  24.000  1.00  0.00     0.156 HD
ENDBRANCH  15  20
BRANCH  16  23
ATOM     23  N   UNL A   1      29.637  29.840  23.130  1.00  0.00    -0.355 N 
ATOM     24  C   UNL A   1      29.278  30.998  23.926  1.00  0.00     0.118 C 
ATOM     25  C   UNL A   1      29.474  30.126  21.716  1.00  0.00     0.118 C 
ATOM     26  C   UNL A   1      28.059  31.490  23.161  1.00  0.00     0.023 C 
ATOM     27  C   UNL A   1      28.456  31.279  21.699  1.00  0.00     0.023 C 
ENDBRANCH  16  23
ENDBRANCH   9  14
ENDBRANCH   5   8
ENDBRANCH   3   4
ENDBRANCH   2   3
ENDBRANCH   1   2
BRANCH   1  28
ATOM     28  C   UNL A   1      36.599  20.583  24.599  1.00  0.00     0.002 C 
BRANCH  28  29
ATOM     29  C   UNL A   1      37.715  19.593  24.944  1.00  0.00     0.021 C 
BRANCH  29  30
ATOM     30  C   UNL A   1      38.880  20.202  25.715  1.00  0.00     0.116 C 
BRANCH  30  31
ATOM     31  N   UNL A   1      40.017  19.298  25.783  1.00  0.00    -0.352 N 
ATOM     32  C   UNL A   1      41.327  19.575  26.077  1.00  0.00     0.251 C 
ATOM     33  H   UNL A   1      39.817  18.353  25.592  1.00  0.00     0.163 HD
ATOM     34  O   UNL A   1      42.198  18.728  25.885  1.00  0.00    -0.269 OA
BRANCH  32  35
ATOM     35  C   UNL A   1      41.694  20.901  26.609  1.00  0.00     0.039 A 
ATOM     36  C   UNL A   1      42.163  21.877  25.728  1.00  0.00     0.014 A 
ATOM     37  C   UNL A   1      41.591  21.175  27.977  1.00  0.00     0.014 A 
ATOM     38  C   UNL A   1      42.483  23.146  26.212  1.00  0.00     0.010 A 
ATOM     39  C   UNL A   1      41.840  22.462  28.446  1.00  0.00     0.010 A 
ATOM     40  C   UNL A   1      42.302  23.456  27.570  1.00  0.00    -0.014 A 
BRANCH  40  41
ATOM     41  C   UNL A   1      42.621  24.807  28.094  1.00  0.00     0.031 A 
ATOM     42  C   UNL A   1      44.035  25.144  28.482  1.00  0.00     0.074 A 
ATOM     43  C   UNL A   1      41.639  25.715  28.251  1.00  0.00     0.049 A 
ATOM     44  N   UNL A   1      44.504  26.253  28.996  1.00  0.00    -0.248 NA
ATOM     45  C   UNL A   1      45.054  24.098  28.286  1.00  0.00     0.031 C 
ATOM     46  C   UNL A   1      40.225  25.499  27.934  1.00  0.00     0.029 A 
ATOM     47  N   UNL A   1      41.679  27.005  28.718  1.00  0.00    -0.354 N 
ATOM     48  C   UNL A   1      45.862  26.034  29.190  1.00  0.00     0.074 A 
ATOM     49  C   UNL A   1      46.137  24.674  28.785  1.00  0.00     0.031 C 
ATOM     50  C   UNL A   1      39.539  26.625  28.191  1.00  0.00     0.029 A 
ATOM     51  C   UNL A   1      40.454  27.627  28.730  1.00  0.00     0.049 A 
ATOM     52  H   UNL A   1      42.508  27.444  29.015  1.00  0.00     0.167 HD
ATOM     53  C   UNL A   1      46.799  26.897  29.641  1.00  0.00     0.031 A 
ATOM     54  C   UNL A   1      40.103  28.863  29.138  1.00  0.00     0.031 A 
ATOM     55  C   UNL A   1      46.531  28.258  30.019  1.00  0.00     0.049 A 
ATOM     56  C   UNL A   1      41.166  29.789  29.665  1.00  0.00     0.074 A 
ATOM     57  C   UNL A   1      47.429  29.223  30.437  1.00  0.00     0.029 A 
ATOM     58  N   UNL A   1      45.276  28.844  30.024  1.00  0.00    -0.354 N 
ATOM     59  N   UNL A   1      42.457  29.587  29.777  1.00  0.00    -0.248 NA
ATOM     60  C   UNL A   1      40.726  31.119  30.112  1.00  0.00     0.031 C 
ATOM     61  C   UNL A   1      46.711  30.378  30.753  1.00  0.00     0.029 A 
ATOM     62  C   UNL A   1      45.374  30.151  30.470  1.00  0.00     0.049 A 
ATOM     63  H   UNL A   1      44.441  28.399  29.752  1.00  0.00     0.167 HD
ATOM     64  C   UNL A   1      42.983  30.767  30.286  1.00  0.00     0.074 A 
ATOM     65  C   UNL A   1      41.878  31.690  30.436  1.00  0.00     0.031 C 
ATOM     66  C   UNL A   1      44.266  31.058  30.609  1.00  0.00     0.031 A 
BRANCH  53  67
ATOM     67  C   UNL A   1      48.219  26.416  29.743  1.00  0.00    -0.014 A 
ATOM     68  C   UNL A   1      49.132  26.640  28.701  1.00  0.00     0.009 A 
ATOM     69  C   UNL A   1      48.676  25.841  30.939  1.00  0.00     0.009 A 
ATOM     70  C   UNL A   1      50.476  26.293  28.854  1.00  0.00     0.001 A 
ATOM     71  C   UNL A   1      50.025  25.519  31.099  1.00  0.00     0.001 A 
ATOM     72  C   UNL A   1      50.923  25.744  30.057  1.00  0.00     0.000 A 
ENDBRANCH  53  67
BRANCH  54  73
ATOM     73  C   UNL A   1      38.682  29.300  29.076  1.00  0.00    -0.014 A 
ATOM     74  C   UNL A   1      37.836  29.149  30.186  1.00  0.00     0.009 A 
ATOM     75  C   UNL A   1      38.155  29.850  27.896  1.00  0.00     0.009 A 
ATOM     76  C   UNL A   1      36.488  29.505  30.105  1.00  0.00     0.001 A 
ATOM     77  C   UNL A   1      36.816  30.237  27.827  1.00  0.00     0.001 A 
ATOM     78  C   UNL A   1      35.980  30.053  28.927  1.00  0.00     0.000 A 
ENDBRANCH  54  73
BRANCH  66  79
ATOM     79  C   UNL A   1      44.558  32.433  31.138  1.00  0.00    -0.014 A 
ATOM     80  C   UNL A   1      44.565  32.691  32.518  1.00  0.00     0.009 A 
ATOM     81  C   UNL A   1      44.909  33.463  30.251  1.00  0.00     0.009 A 
ATOM     82  C   UNL A   1      44.897  33.960  32.995  1.00  0.00     0.001 A 
ATOM     83  C   UNL A   1      45.271  34.721  30.733  1.00  0.00     0.001 A 
ATOM     84  C   UNL A   1      45.257  34.971  32.104  1.00  0.00     0.000 A 
ENDBRANCH  66  79
ENDBRANCH  40  41
ENDBRANCH  32  35
ENDBRANCH  30  31
ENDBRANCH  29  30
ENDBRANCH  28  29
ENDBRANCH   1  28
TORSDOF 16
ENDMDL
