MODEL 1
REMARK VINA RESULT:     -10.7      0.000      0.000
REMARK SMILES CCOc1ccc(C(=O)N2CCC(C(=O)NCCCCCCNC(=O)c3ccc(-c4c5nc(c(-c6ccccc6)c6ccc([nH]6)c(-c6ccccc6)c6nc(c(-c7ccccc7)c7ccc4[nH]7)C=C6)C=C5)cc3)(c3ccccc3)CC2)cc1OC
REMARK SMILES IDX 19 1 18 2 17 3 16 4 14 5 15 6 13 8 8 9 9 10 10 11 11 12
REMARK SMILES IDX 81 13 12 14 80 15 7 16 4 17 5 18 83 19 6 20 82 21 3 22 2 23
REMARK SMILES IDX 1 24 84 25 85 26 74 27 75 28 79 29 76 30 78 31 77 32 20 33
REMARK SMILES IDX 21 34 22 35 23 36 24 37 25 39 26 40 27 41 73 42 28 43 72 44
REMARK SMILES IDX 29 45 30 46 31 47 66 48 32 49 71 50 65 51 67 52 33 53 70 54
REMARK SMILES IDX 64 55 63 56 34 58 56 59 41 60 55 61 42 62 45 63 54 64 68 65
REMARK SMILES IDX 43 66 44 67 53 69 69 70 46 71 35 72 36 73 40 74 37 75 39 76
REMARK SMILES IDX 38 77 57 78 58 79 62 80 59 81 61 82 60 83 47 84 48 85 52 86
REMARK SMILES IDX 49 87 51 88 50 89
REMARK H PARENT 16 7 23 38 67 57 45 68
REMARK Flexibility Score: inf
ROOT
ATOM      1  C   UNL A   1      39.662  23.866  27.926  1.00  0.00     0.002 C 
ENDROOT
BRANCH   1   2
ATOM      2  C   UNL A   1      39.196  24.513  26.617  1.00  0.00     0.021 C 
BRANCH   2   3
ATOM      3  C   UNL A   1      37.829  24.031  26.141  1.00  0.00     0.116 C 
BRANCH   3   4
ATOM      4  N   UNL A   1      37.860  22.609  25.838  1.00  0.00    -0.355 N 
ATOM      5  C   UNL A   1      36.928  21.730  25.368  1.00  0.00     0.230 C 
ATOM      6  O   UNL A   1      37.384  20.602  25.170  1.00  0.00    -0.274 OA
ATOM      7  H   UNL A   1      38.736  22.194  26.008  1.00  0.00     0.163 HD
BRANCH   5   8
ATOM      8  C   UNL A   1      35.460  22.174  25.029  1.00  0.00     0.077 C 
ATOM      9  C   UNL A   1      33.828  26.207  25.091  1.00  0.00     0.253 C 
ATOM     10  O   UNL A   1      34.164  26.853  26.085  1.00  0.00    -0.269 OA
ATOM     11  N   UNL A   1      34.240  24.872  24.944  1.00  0.00    -0.339 N 
ATOM     12  C   UNL A   1      33.877  23.986  26.037  1.00  0.00     0.121 C 
ATOM     13  C   UNL A   1      34.653  24.263  23.688  1.00  0.00     0.121 C 
ATOM     14  C   UNL A   1      34.848  22.842  26.291  1.00  0.00     0.043 C 
ATOM     15  C   UNL A   1      35.664  23.142  23.823  1.00  0.00     0.043 C 
BRANCH   9  16
ATOM     16  C   UNL A   1      32.804  26.807  24.162  1.00  0.00     0.043 A 
ATOM     17  C   UNL A   1      30.827  28.149  22.623  1.00  0.00     0.161 A 
ATOM     18  C   UNL A   1      32.140  28.641  22.695  1.00  0.00     0.051 A 
ATOM     19  C   UNL A   1      30.520  26.953  23.262  1.00  0.00     0.161 A 
ATOM     20  C   UNL A   1      33.120  27.974  23.453  1.00  0.00     0.018 A 
ATOM     21  C   UNL A   1      31.501  26.332  24.041  1.00  0.00     0.064 A 
BRANCH  17  22
ATOM     22  O   UNL A   1      29.901  28.775  21.841  1.00  0.00    -0.490 OA
BRANCH  22  23
ATOM     23  C   UNL A   1      29.296  29.921  22.455  1.00  0.00     0.226 C 
ATOM     24  C   UNL A   1      28.525  30.689  21.392  1.00  0.00     0.049 C 
ENDBRANCH  22  23
ENDBRANCH  17  22
BRANCH  19  25
ATOM     25  O   UNL A   1      29.376  26.209  23.255  1.00  0.00    -0.493 OA
ATOM     26  C   UNL A   1      28.261  26.624  24.015  1.00  0.00     0.278 C 
ENDBRANCH  19  25
ENDBRANCH   9  16
BRANCH   8  27
ATOM     27  C   UNL A   1      34.476  21.018  24.613  1.00  0.00    -0.032 A 
ATOM     28  C   UNL A   1      34.670  19.666  24.947  1.00  0.00     0.005 A 
ATOM     29  C   UNL A   1      33.282  21.298  23.911  1.00  0.00     0.005 A 
ATOM     30  C   UNL A   1      33.779  18.661  24.544  1.00  0.00     0.000 A 
ATOM     31  C   UNL A   1      32.383  20.302  23.515  1.00  0.00     0.000 A 
ATOM     32  C   UNL A   1      32.638  18.977  23.821  1.00  0.00     0.000 A 
ENDBRANCH   8  27
ENDBRANCH   5   8
ENDBRANCH   3   4
ENDBRANCH   2   3
ENDBRANCH   1   2
BRANCH   1  33
ATOM     33  C   UNL A   1      41.066  23.255  27.882  1.00  0.00     0.002 C 
BRANCH  33  34
ATOM     34  C   UNL A   1      41.134  21.850  27.282  1.00  0.00     0.021 C 
BRANCH  34  35
ATOM     35  C   UNL A   1      41.558  21.814  25.819  1.00  0.00     0.116 C 
BRANCH  35  36
ATOM     36  N   UNL A   1      42.870  21.212  25.646  1.00  0.00    -0.352 N 
ATOM     37  C   UNL A   1      44.107  21.801  25.729  1.00  0.00     0.251 C 
ATOM     38  H   UNL A   1      42.871  20.249  25.439  1.00  0.00     0.163 HD
ATOM     39  O   UNL A   1      45.108  21.200  25.363  1.00  0.00    -0.269 OA
BRANCH  37  40
ATOM     40  C   UNL A   1      44.216  23.182  26.244  1.00  0.00     0.039 A 
ATOM     41  C   UNL A   1      43.941  24.247  25.384  1.00  0.00     0.014 A 
ATOM     42  C   UNL A   1      44.579  23.423  27.573  1.00  0.00     0.014 A 
ATOM     43  C   UNL A   1      43.976  25.553  25.872  1.00  0.00     0.010 A 
ATOM     44  C   UNL A   1      44.534  24.719  28.078  1.00  0.00     0.010 A 
ATOM     45  C   UNL A   1      44.239  25.798  27.231  1.00  0.00    -0.014 A 
BRANCH  45  46
ATOM     46  C   UNL A   1      44.223  27.177  27.780  1.00  0.00     0.031 A 
ATOM     47  C   UNL A   1      42.923  27.802  28.210  1.00  0.00     0.074 A 
ATOM     48  C   UNL A   1      45.369  27.882  27.855  1.00  0.00     0.049 A 
ATOM     49  N   UNL A   1      42.698  29.010  28.663  1.00  0.00    -0.248 NA
ATOM     50  C   UNL A   1      41.714  26.968  28.101  1.00  0.00     0.031 C 
ATOM     51  C   UNL A   1      46.692  27.400  27.449  1.00  0.00     0.029 A 
ATOM     52  N   UNL A   1      45.606  29.159  28.300  1.00  0.00    -0.354 N 
ATOM     53  C   UNL A   1      41.329  29.078  28.890  1.00  0.00     0.074 A 
ATOM     54  C   UNL A   1      40.764  27.815  28.468  1.00  0.00     0.031 C 
ATOM     55  C   UNL A   1      47.604  28.357  27.693  1.00  0.00     0.029 A 
ATOM     56  C   UNL A   1      46.927  29.534  28.226  1.00  0.00     0.049 A 
ATOM     57  H   UNL A   1      44.896  29.749  28.642  1.00  0.00     0.167 HD
ATOM     58  C   UNL A   1      40.607  30.088  29.430  1.00  0.00     0.031 A 
ATOM     59  C   UNL A   1      47.521  30.700  28.541  1.00  0.00     0.031 A 
ATOM     60  C   UNL A   1      41.165  31.345  29.849  1.00  0.00     0.049 A 
ATOM     61  C   UNL A   1      46.682  31.827  29.080  1.00  0.00     0.074 A 
ATOM     62  C   UNL A   1      40.518  32.426  30.424  1.00  0.00     0.029 A 
ATOM     63  N   UNL A   1      42.503  31.690  29.743  1.00  0.00    -0.354 N 
ATOM     64  N   UNL A   1      45.397  31.854  29.339  1.00  0.00    -0.248 NA
ATOM     65  C   UNL A   1      47.382  33.084  29.384  1.00  0.00     0.031 C 
ATOM     66  C   UNL A   1      41.456  33.443  30.621  1.00  0.00     0.029 A 
ATOM     67  C   UNL A   1      42.698  32.972  30.228  1.00  0.00     0.049 A 
ATOM     68  H   UNL A   1      43.209  31.109  29.378  1.00  0.00     0.167 HD
ATOM     69  C   UNL A   1      45.144  33.113  29.871  1.00  0.00     0.074 A 
ATOM     70  C   UNL A   1      46.412  33.811  29.917  1.00  0.00     0.031 C 
ATOM     71  C   UNL A   1      43.969  33.645  30.284  1.00  0.00     0.031 A 
BRANCH  58  72
ATOM     72  C   UNL A   1      39.131  29.870  29.610  1.00  0.00    -0.014 A 
ATOM     73  C   UNL A   1      38.614  29.415  30.833  1.00  0.00     0.009 A 
ATOM     74  C   UNL A   1      38.240  30.181  28.571  1.00  0.00     0.009 A 
ATOM     75  C   UNL A   1      37.238  29.250  31.003  1.00  0.00     0.001 A 
ATOM     76  C   UNL A   1      36.863  30.045  28.754  1.00  0.00     0.001 A 
ATOM     77  C   UNL A   1      36.363  29.573  29.967  1.00  0.00     0.000 A 
ENDBRANCH  58  72
BRANCH  59  78
ATOM     78  C   UNL A   1      48.987  30.881  28.357  1.00  0.00    -0.014 A 
ATOM     79  C   UNL A   1      49.879  30.589  29.400  1.00  0.00     0.009 A 
ATOM     80  C   UNL A   1      49.497  31.406  27.159  1.00  0.00     0.009 A 
ATOM     81  C   UNL A   1      51.242  30.867  29.268  1.00  0.00     0.001 A 
ATOM     82  C   UNL A   1      50.865  31.648  27.015  1.00  0.00     0.001 A 
ATOM     83  C   UNL A   1      51.734  31.396  28.076  1.00  0.00     0.000 A 
ENDBRANCH  59  78
BRANCH  71  84
ATOM     84  C   UNL A   1      44.007  35.026  30.878  1.00  0.00    -0.014 A 
ATOM     85  C   UNL A   1      44.209  35.228  32.252  1.00  0.00     0.009 A 
ATOM     86  C   UNL A   1      43.873  36.143  30.039  1.00  0.00     0.009 A 
ATOM     87  C   UNL A   1      44.237  36.521  32.778  1.00  0.00     0.001 A 
ATOM     88  C   UNL A   1      43.936  37.435  30.562  1.00  0.00     0.001 A 
ATOM     89  C   UNL A   1      44.107  37.622  31.932  1.00  0.00     0.000 A 
ENDBRANCH  71  84
ENDBRANCH  45  46
ENDBRANCH  37  40
ENDBRANCH  35  36
ENDBRANCH  34  35
ENDBRANCH  33  34
ENDBRANCH   1  33
TORSDOF 18
ENDMDL
MODEL 2
REMARK VINA RESULT:     -10.5      3.931      5.175
REMARK SMILES CCOc1ccc(C(=O)N2CCC(C(=O)NCCCCCCNC(=O)c3ccc(-c4c5nc(c(-c6ccccc6)c6ccc([nH]6)c(-c6ccccc6)c6nc(c(-c7ccccc7)c7ccc4[nH]7)C=C6)C=C5)cc3)(c3ccccc3)CC2)cc1OC
REMARK SMILES IDX 19 1 18 2 17 3 16 4 14 5 15 6 13 8 8 9 9 10 10 11 11 12
REMARK SMILES IDX 81 13 12 14 80 15 7 16 4 17 5 18 83 19 6 20 82 21 3 22 2 23
REMARK SMILES IDX 1 24 84 25 85 26 74 27 75 28 79 29 76 30 78 31 77 32 20 33
REMARK SMILES IDX 21 34 22 35 23 36 24 37 25 39 26 40 27 41 73 42 28 43 72 44
REMARK SMILES IDX 29 45 30 46 31 47 66 48 32 49 71 50 65 51 67 52 33 53 70 54
REMARK SMILES IDX 64 55 63 56 34 58 56 59 41 60 55 61 42 62 45 63 54 64 68 65
REMARK SMILES IDX 43 66 44 67 53 69 69 70 46 71 35 72 36 73 40 74 37 75 39 76
REMARK SMILES IDX 38 77 57 78 58 79 62 80 59 81 61 82 60 83 47 84 48 85 52 86
REMARK SMILES IDX 49 87 51 88 50 89
REMARK H PARENT 16 7 23 38 67 57 45 68
REMARK Flexibility Score: inf
ROOT
ATOM      1  C   UNL A   1      38.045  23.167  26.042  1.00  0.00     0.002 C 
ENDROOT
BRANCH   1   2
ATOM      2  C   UNL A   1      37.836  21.804  25.372  1.00  0.00     0.021 C 
BRANCH   2   3
ATOM      3  C   UNL A   1      36.371  21.429  25.174  1.00  0.00     0.116 C 
BRANCH   3   4
ATOM      4  N   UNL A   1      35.671  21.398  26.448  1.00  0.00    -0.355 N 
ATOM      5  C   UNL A   1      34.425  21.792  26.842  1.00  0.00     0.230 C 
ATOM      6  O   UNL A   1      34.181  21.515  28.018  1.00  0.00    -0.274 OA
ATOM      7  H   UNL A   1      36.206  21.011  27.177  1.00  0.00     0.163 HD
BRANCH   5   8
ATOM      8  C   UNL A   1      33.399  22.436  25.842  1.00  0.00     0.077 C 
ATOM      9  C   UNL A   1      31.747  26.460  25.965  1.00  0.00     0.253 C 
ATOM     10  O   UNL A   1      31.395  26.808  27.094  1.00  0.00    -0.269 OA
ATOM     11  N   UNL A   1      32.263  25.170  25.752  1.00  0.00    -0.339 N 
ATOM     12  C   UNL A   1      31.399  24.079  26.167  1.00  0.00     0.121 C 
ATOM     13  C   UNL A   1      33.371  24.855  24.862  1.00  0.00     0.121 C 
ATOM     14  C   UNL A   1      32.122  22.825  26.637  1.00  0.00     0.043 C 
ATOM     15  C   UNL A   1      34.195  23.650  25.269  1.00  0.00     0.043 C 
BRANCH   9  16
ATOM     16  C   UNL A   1      31.412  27.360  24.804  1.00  0.00     0.043 A 
ATOM     17  C   UNL A   1      30.490  29.029  22.696  1.00  0.00     0.161 A 
ATOM     18  C   UNL A   1      30.612  29.523  24.005  1.00  0.00     0.051 A 
ATOM     19  C   UNL A   1      30.891  27.725  22.429  1.00  0.00     0.161 A 
ATOM     20  C   UNL A   1      31.074  28.698  25.047  1.00  0.00     0.018 A 
ATOM     21  C   UNL A   1      31.308  26.914  23.489  1.00  0.00     0.064 A 
BRANCH  17  22
ATOM     22  O   UNL A   1      30.093  29.854  21.685  1.00  0.00    -0.490 OA
BRANCH  22  23
ATOM     23  C   UNL A   1      28.694  30.166  21.699  1.00  0.00     0.226 C 
ATOM     24  C   UNL A   1      28.534  31.679  21.682  1.00  0.00     0.049 C 
ENDBRANCH  22  23
ENDBRANCH  17  22
BRANCH  19  25
ATOM     25  O   UNL A   1      30.984  27.048  21.247  1.00  0.00    -0.493 OA
ATOM     26  C   UNL A   1      31.839  25.931  21.140  1.00  0.00     0.278 C 
ENDBRANCH  19  25
ENDBRANCH   9  16
BRANCH   8  27
ATOM     27  C   UNL A   1      32.927  21.512  24.659  1.00  0.00    -0.032 A 
ATOM     28  C   UNL A   1      32.567  21.991  23.387  1.00  0.00     0.005 A 
ATOM     29  C   UNL A   1      32.898  20.107  24.802  1.00  0.00     0.005 A 
ATOM     30  C   UNL A   1      32.137  21.137  22.361  1.00  0.00     0.000 A 
ATOM     31  C   UNL A   1      32.480  19.248  23.780  1.00  0.00     0.000 A 
ATOM     32  C   UNL A   1      32.085  19.765  22.558  1.00  0.00     0.000 A 
ENDBRANCH   8  27
ENDBRANCH   5   8
ENDBRANCH   3   4
ENDBRANCH   2   3
ENDBRANCH   1   2
BRANCH   1  33
ATOM     33  C   UNL A   1      39.499  23.503  26.388  1.00  0.00     0.002 C 
BRANCH  33  34
ATOM     34  C   UNL A   1      39.737  24.950  26.820  1.00  0.00     0.021 C 
BRANCH  34  35
ATOM     35  C   UNL A   1      40.571  25.767  25.841  1.00  0.00     0.116 C 
BRANCH  35  36
ATOM     36  N   UNL A   1      41.949  25.311  25.785  1.00  0.00    -0.352 N 
ATOM     37  C   UNL A   1      43.028  25.736  26.519  1.00  0.00     0.251 C 
ATOM     38  H   UNL A   1      42.135  24.599  25.130  1.00  0.00     0.163 HD
ATOM     39  O   UNL A   1      44.162  25.390  26.217  1.00  0.00    -0.269 OA
BRANCH  37  40
ATOM     40  C   UNL A   1      42.809  26.639  27.669  1.00  0.00     0.039 A 
ATOM     41  C   UNL A   1      43.076  28.001  27.519  1.00  0.00     0.014 A 
ATOM     42  C   UNL A   1      42.333  26.142  28.887  1.00  0.00     0.014 A 
ATOM     43  C   UNL A   1      42.813  28.875  28.573  1.00  0.00     0.010 A 
ATOM     44  C   UNL A   1      41.996  27.025  29.908  1.00  0.00     0.010 A 
ATOM     45  C   UNL A   1      42.239  28.400  29.764  1.00  0.00    -0.014 A 
BRANCH  45  46
ATOM     46  C   UNL A   1      41.897  29.324  30.875  1.00  0.00     0.031 A 
ATOM     47  C   UNL A   1      40.666  30.185  30.788  1.00  0.00     0.074 A 
ATOM     48  C   UNL A   1      42.715  29.418  31.943  1.00  0.00     0.049 A 
ATOM     49  N   UNL A   1      40.231  31.089  31.628  1.00  0.00    -0.248 NA
ATOM     50  C   UNL A   1      39.822  30.022  29.592  1.00  0.00     0.031 C 
ATOM     51  C   UNL A   1      43.951  28.657  32.138  1.00  0.00     0.029 A 
ATOM     52  N   UNL A   1      42.627  30.199  33.068  1.00  0.00    -0.354 N 
ATOM     53  C   UNL A   1      39.068  31.600  31.063  1.00  0.00     0.074 A 
ATOM     54  C   UNL A   1      38.898  30.952  29.781  1.00  0.00     0.031 C 
ATOM     55  C   UNL A   1      44.489  28.986  33.325  1.00  0.00     0.029 A 
ATOM     56  C   UNL A   1      43.664  30.013  33.952  1.00  0.00     0.049 A 
ATOM     57  H   UNL A   1      41.890  30.832  33.228  1.00  0.00     0.167 HD
ATOM     58  C   UNL A   1      38.201  32.505  31.576  1.00  0.00     0.031 A 
ATOM     59  C   UNL A   1      43.925  30.612  35.129  1.00  0.00     0.031 A 
ATOM     60  C   UNL A   1      38.368  33.151  32.850  1.00  0.00     0.049 A 
ATOM     61  C   UNL A   1      42.976  31.660  35.643  1.00  0.00     0.074 A 
ATOM     62  C   UNL A   1      37.535  34.071  33.465  1.00  0.00     0.029 A 
ATOM     63  N   UNL A   1      39.438  32.945  33.706  1.00  0.00    -0.354 N 
ATOM     64  N   UNL A   1      41.853  32.090  35.121  1.00  0.00    -0.248 NA
ATOM     65  C   UNL A   1      43.326  32.297  36.922  1.00  0.00     0.031 C 
ATOM     66  C   UNL A   1      38.126  34.457  34.671  1.00  0.00     0.029 A 
ATOM     67  C   UNL A   1      39.294  33.732  34.836  1.00  0.00     0.049 A 
ATOM     68  H   UNL A   1      40.189  32.331  33.535  1.00  0.00     0.167 HD
ATOM     69  C   UNL A   1      41.345  33.017  36.024  1.00  0.00     0.074 A 
ATOM     70  C   UNL A   1      42.272  33.070  37.135  1.00  0.00     0.031 C 
ATOM     71  C   UNL A   1      40.215  33.759  35.942  1.00  0.00     0.031 A 
BRANCH  58  72
ATOM     72  C   UNL A   1      36.983  32.841  30.763  1.00  0.00    -0.014 A 
ATOM     73  C   UNL A   1      37.033  33.825  29.763  1.00  0.00     0.009 A 
ATOM     74  C   UNL A   1      35.790  32.125  30.952  1.00  0.00     0.009 A 
ATOM     75  C   UNL A   1      35.906  34.105  28.988  1.00  0.00     0.001 A 
ATOM     76  C   UNL A   1      34.674  32.386  30.154  1.00  0.00     0.001 A 
ATOM     77  C   UNL A   1      34.731  33.380  29.178  1.00  0.00     0.000 A 
ENDBRANCH  58  72
BRANCH  59  78
ATOM     78  C   UNL A   1      45.138  30.252  35.914  1.00  0.00    -0.014 A 
ATOM     79  C   UNL A   1      46.358  30.907  35.683  1.00  0.00     0.009 A 
ATOM     80  C   UNL A   1      45.098  29.209  36.852  1.00  0.00     0.009 A 
ATOM     81  C   UNL A   1      47.522  30.492  36.335  1.00  0.00     0.001 A 
ATOM     82  C   UNL A   1      46.256  28.821  37.532  1.00  0.00     0.001 A 
ATOM     83  C   UNL A   1      47.470  29.450  37.260  1.00  0.00     0.000 A 
ENDBRANCH  59  78
BRANCH  71  84
ATOM     84  C   UNL A   1      39.884  34.644  37.111  1.00  0.00    -0.014 A 
ATOM     85  C   UNL A   1      39.158  34.165  38.212  1.00  0.00     0.009 A 
ATOM     86  C   UNL A   1      40.338  35.973  37.122  1.00  0.00     0.009 A 
ATOM     87  C   UNL A   1      38.862  35.011  39.283  1.00  0.00     0.001 A 
ATOM     88  C   UNL A   1      40.071  36.805  38.208  1.00  0.00     0.001 A 
ATOM     89  C   UNL A   1      39.324  36.327  39.283  1.00  0.00     0.000 A 
ENDBRANCH  71  84
ENDBRANCH  45  46
ENDBRANCH  37  40
ENDBRANCH  35  36
ENDBRANCH  34  35
ENDBRANCH  33  34
ENDBRANCH   1  33
TORSDOF 18
ENDMDL
MODEL 3
REMARK VINA RESULT:     -10.4      4.789     12.178
REMARK SMILES CCOc1ccc(C(=O)N2CCC(C(=O)NCCCCCCNC(=O)c3ccc(-c4c5nc(c(-c6ccccc6)c6ccc([nH]6)c(-c6ccccc6)c6nc(c(-c7ccccc7)c7ccc4[nH]7)C=C6)C=C5)cc3)(c3ccccc3)CC2)cc1OC
REMARK SMILES IDX 19 1 18 2 17 3 16 4 14 5 15 6 13 8 8 9 9 10 10 11 11 12
REMARK SMILES IDX 81 13 12 14 80 15 7 16 4 17 5 18 83 19 6 20 82 21 3 22 2 23
REMARK SMILES IDX 1 24 84 25 85 26 74 27 75 28 79 29 76 30 78 31 77 32 20 33
REMARK SMILES IDX 21 34 22 35 23 36 24 37 25 39 26 40 27 41 73 42 28 43 72 44
REMARK SMILES IDX 29 45 30 46 31 47 66 48 32 49 71 50 65 51 67 52 33 53 70 54
REMARK SMILES IDX 64 55 63 56 34 58 56 59 41 60 55 61 42 62 45 63 54 64 68 65
REMARK SMILES IDX 43 66 44 67 53 69 69 70 46 71 35 72 36 73 40 74 37 75 39 76
REMARK SMILES IDX 38 77 57 78 58 79 62 80 59 81 61 82 60 83 47 84 48 85 52 86
REMARK SMILES IDX 49 87 51 88 50 89
REMARK H PARENT 16 7 23 38 67 57 45 68
REMARK Flexibility Score: inf
ROOT
ATOM      1  C   UNL A   1      34.909  33.316  31.123  1.00  0.00     0.002 C 
ENDROOT
BRANCH   1   2
ATOM      2  C   UNL A   1      34.501  33.035  32.574  1.00  0.00     0.021 C 
BRANCH   2   3
ATOM      3  C   UNL A   1      35.470  33.596  33.610  1.00  0.00     0.116 C 
BRANCH   3   4
ATOM      4  N   UNL A   1      36.640  34.169  32.964  1.00  0.00    -0.355 N 
ATOM      5  C   UNL A   1      37.980  33.937  33.078  1.00  0.00     0.230 C 
ATOM      6  O   UNL A   1      38.653  34.593  32.279  1.00  0.00    -0.274 OA
ATOM      7  H   UNL A   1      36.419  34.868  32.308  1.00  0.00     0.163 HD
BRANCH   5   8
ATOM      8  C   UNL A   1      38.560  32.863  34.065  1.00  0.00     0.077 C 
ATOM      9  C   UNL A   1      40.154  28.937  33.074  1.00  0.00     0.253 C 
ATOM     10  O   UNL A   1      39.462  28.322  32.261  1.00  0.00    -0.269 OA
ATOM     11  N   UNL A   1      39.751  30.204  33.528  1.00  0.00    -0.339 N 
ATOM     12  C   UNL A   1      38.429  30.258  34.129  1.00  0.00     0.121 C 
ATOM     13  C   UNL A   1      40.648  31.326  33.766  1.00  0.00     0.121 C 
ATOM     14  C   UNL A   1      37.693  31.578  33.953  1.00  0.00     0.043 C 
ATOM     15  C   UNL A   1      40.028  32.694  33.565  1.00  0.00     0.043 C 
BRANCH   9  16
ATOM     16  C   UNL A   1      41.307  28.215  33.722  1.00  0.00     0.043 A 
ATOM     17  C   UNL A   1      43.511  26.699  34.683  1.00  0.00     0.161 A 
ATOM     18  C   UNL A   1      43.709  27.792  33.825  1.00  0.00     0.051 A 
ATOM     19  C   UNL A   1      42.222  26.406  35.114  1.00  0.00     0.161 A 
ATOM     20  C   UNL A   1      42.618  28.546  33.353  1.00  0.00     0.018 A 
ATOM     21  C   UNL A   1      41.153  27.145  34.599  1.00  0.00     0.064 A 
BRANCH  17  22
ATOM     22  O   UNL A   1      44.581  26.010  35.176  1.00  0.00    -0.490 OA
BRANCH  22  23
ATOM     23  C   UNL A   1      44.810  24.748  34.536  1.00  0.00     0.226 C 
ATOM     24  C   UNL A   1      44.969  23.682  35.610  1.00  0.00     0.049 C 
ENDBRANCH  22  23
ENDBRANCH  17  22
BRANCH  19  25
ATOM     25  O   UNL A   1      41.775  25.489  36.021  1.00  0.00    -0.493 OA
ATOM     26  C   UNL A   1      42.020  25.683  37.397  1.00  0.00     0.278 C 
ENDBRANCH  19  25
ENDBRANCH   9  16
BRANCH   8  27
ATOM     27  C   UNL A   1      38.568  33.267  35.587  1.00  0.00    -0.032 A 
ATOM     28  C   UNL A   1      37.719  32.699  36.552  1.00  0.00     0.005 A 
ATOM     29  C   UNL A   1      39.498  34.209  36.083  1.00  0.00     0.005 A 
ATOM     30  C   UNL A   1      37.744  33.097  37.897  1.00  0.00     0.000 A 
ATOM     31  C   UNL A   1      39.536  34.602  37.425  1.00  0.00     0.000 A 
ATOM     32  C   UNL A   1      38.648  34.055  38.334  1.00  0.00     0.000 A 
ENDBRANCH   8  27
ENDBRANCH   5   8
ENDBRANCH   3   4
ENDBRANCH   2   3
ENDBRANCH   1   2
BRANCH   1  33
ATOM     33  C   UNL A   1      33.996  34.289  30.371  1.00  0.00     0.002 C 
BRANCH  33  34
ATOM     34  C   UNL A   1      33.898  34.042  28.865  1.00  0.00     0.021 C 
BRANCH  34  35
ATOM     35  C   UNL A   1      34.772  32.902  28.359  1.00  0.00     0.116 C 
BRANCH  35  36
ATOM     36  N   UNL A   1      34.002  31.698  28.097  1.00  0.00    -0.352 N 
ATOM     37  C   UNL A   1      34.446  30.412  27.915  1.00  0.00     0.251 C 
ATOM     38  H   UNL A   1      33.026  31.821  28.043  1.00  0.00     0.163 HD
ATOM     39  O   UNL A   1      33.688  29.543  27.508  1.00  0.00    -0.269 OA
BRANCH  37  40
ATOM     40  C   UNL A   1      35.863  30.092  28.191  1.00  0.00     0.039 A 
ATOM     41  C   UNL A   1      36.239  29.765  29.495  1.00  0.00     0.014 A 
ATOM     42  C   UNL A   1      36.812  30.105  27.164  1.00  0.00     0.014 A 
ATOM     43  C   UNL A   1      37.558  29.396  29.760  1.00  0.00     0.010 A 
ATOM     44  C   UNL A   1      38.107  29.660  27.414  1.00  0.00     0.010 A 
ATOM     45  C   UNL A   1      38.495  29.308  28.716  1.00  0.00    -0.014 A 
BRANCH  45  46
ATOM     46  C   UNL A   1      39.888  28.862  28.969  1.00  0.00     0.031 A 
ATOM     47  C   UNL A   1      40.882  29.808  29.586  1.00  0.00     0.074 A 
ATOM     48  C   UNL A   1      40.269  27.621  28.607  1.00  0.00     0.049 A 
ATOM     49  N   UNL A   1      42.154  29.621  29.835  1.00  0.00    -0.248 NA
ATOM     50  C   UNL A   1      40.389  31.145  29.957  1.00  0.00     0.031 C 
ATOM     51  C   UNL A   1      39.409  26.615  27.979  1.00  0.00     0.029 A 
ATOM     52  N   UNL A   1      41.485  26.992  28.717  1.00  0.00    -0.354 N 
ATOM     53  C   UNL A   1      42.608  30.812  30.388  1.00  0.00     0.074 A 
ATOM     54  C   UNL A   1      41.496  31.736  30.382  1.00  0.00     0.031 C 
ATOM     55  C   UNL A   1      40.115  25.488  27.787  1.00  0.00     0.029 A 
ATOM     56  C   UNL A   1      41.487  25.705  28.233  1.00  0.00     0.049 A 
ATOM     57  H   UNL A   1      42.280  27.423  29.106  1.00  0.00     0.167 HD
ATOM     58  C   UNL A   1      43.834  31.105  30.885  1.00  0.00     0.031 A 
ATOM     59  C   UNL A   1      42.486  24.806  28.150  1.00  0.00     0.031 A 
ATOM     60  C   UNL A   1      44.942  30.189  30.892  1.00  0.00     0.049 A 
ATOM     61  C   UNL A   1      43.854  25.183  28.653  1.00  0.00     0.074 A 
ATOM     62  C   UNL A   1      46.220  30.386  31.388  1.00  0.00     0.029 A 
ATOM     63  N   UNL A   1      44.906  28.902  30.380  1.00  0.00    -0.354 N 
ATOM     64  N   UNL A   1      44.250  26.295  29.223  1.00  0.00    -0.248 NA
ATOM     65  C   UNL A   1      44.910  24.170  28.514  1.00  0.00     0.031 C 
ATOM     66  C   UNL A   1      46.970  29.235  31.134  1.00  0.00     0.029 A 
ATOM     67  C   UNL A   1      46.143  28.299  30.536  1.00  0.00     0.049 A 
ATOM     68  H   UNL A   1      44.118  28.479  29.968  1.00  0.00     0.167 HD
ATOM     69  C   UNL A   1      45.589  26.099  29.543  1.00  0.00     0.074 A 
ATOM     70  C   UNL A   1      45.928  24.756  29.124  1.00  0.00     0.031 C 
ATOM     71  C   UNL A   1      46.459  26.955  30.130  1.00  0.00     0.031 A 
BRANCH  58  72
ATOM     72  C   UNL A   1      44.037  32.471  31.477  1.00  0.00    -0.014 A 
ATOM     73  C   UNL A   1      43.733  32.725  32.824  1.00  0.00     0.009 A 
ATOM     74  C   UNL A   1      44.595  33.500  30.702  1.00  0.00     0.009 A 
ATOM     75  C   UNL A   1      43.959  33.987  33.375  1.00  0.00     0.001 A 
ATOM     76  C   UNL A   1      44.848  34.752  31.264  1.00  0.00     0.001 A 
ATOM     77  C   UNL A   1      44.524  34.997  32.598  1.00  0.00     0.000 A 
ENDBRANCH  58  72
BRANCH  59  78
ATOM     78  C   UNL A   1      42.250  23.458  27.563  1.00  0.00    -0.014 A 
ATOM     79  C   UNL A   1      41.823  22.393  28.371  1.00  0.00     0.009 A 
ATOM     80  C   UNL A   1      42.510  23.214  26.206  1.00  0.00     0.009 A 
ATOM     81  C   UNL A   1      41.712  21.103  27.847  1.00  0.00     0.001 A 
ATOM     82  C   UNL A   1      42.362  21.931  25.674  1.00  0.00     0.001 A 
ATOM     83  C   UNL A   1      41.981  20.873  26.498  1.00  0.00     0.000 A 
ENDBRANCH  59  78
BRANCH  71  84
ATOM     84  C   UNL A   1      47.845  26.444  30.412  1.00  0.00    -0.014 A 
ATOM     85  C   UNL A   1      48.879  26.572  29.471  1.00  0.00     0.009 A 
ATOM     86  C   UNL A   1      48.126  25.856  31.655  1.00  0.00     0.009 A 
ATOM     87  C   UNL A   1      50.157  26.086  29.758  1.00  0.00     0.001 A 
ATOM     88  C   UNL A   1      49.411  25.403  31.952  1.00  0.00     0.001 A 
ATOM     89  C   UNL A   1      50.422  25.508  30.999  1.00  0.00     0.000 A 
ENDBRANCH  71  84
ENDBRANCH  45  46
ENDBRANCH  37  40
ENDBRANCH  35  36
ENDBRANCH  34  35
ENDBRANCH  33  34
ENDBRANCH   1  33
TORSDOF 18
ENDMDL
