MODEL 1
REMARK VINA RESULT:     -11.2      0.000      0.000
REMARK SMILES NC(=O)C[NH+]1CCC(C(=O)N[C@H](C(=O)NCCCCCCNC(=O)c2ccc(-c3c4nc(c(-c5ccccc5)c5ccc([nH]5)c(-c5ccccc5)c5nc(c(-c6ccccc6)c6ccc3[nH]6)C=C5)C=C4)cc2)c2ccc(Cl)cc2)CC1
REMARK SMILES IDX 17 1 16 2 15 3 13 4 14 5 12 7 11 8 9 9 10 10 8 12 5 13 6 14
REMARK SMILES IDX 81 15 7 17 80 18 4 19 2 20 1 21 3 24 73 25 74 26 79 27 75 28
REMARK SMILES IDX 78 29 76 30 77 31 18 32 19 33 20 34 21 35 22 36 23 37 24 39
REMARK SMILES IDX 25 40 26 41 72 42 27 43 71 44 28 45 29 46 30 47 65 48 31 49
REMARK SMILES IDX 70 50 64 51 66 52 32 53 69 54 63 55 62 56 33 58 55 59 40 60
REMARK SMILES IDX 54 61 41 62 44 63 53 64 67 65 42 66 43 67 52 69 68 70 45 71
REMARK SMILES IDX 34 72 35 73 39 74 36 75 38 76 37 77 56 78 57 79 61 80 58 81
REMARK SMILES IDX 60 82 59 83 46 84 47 85 51 86 48 87 50 88 49 89
REMARK H PARENT 15 6 11 11 5 16 1 22 1 23 22 38 66 57 44 68
REMARK Flexibility Score: inf
ROOT
ATOM      1  C   UNL A   1      32.223  27.862  22.389  1.00  0.00     0.021 C 
ENDROOT
BRANCH   1   2
ATOM      2  C   UNL A   1      31.702  26.481  21.990  1.00  0.00     0.116 C 
BRANCH   2   3
ATOM      3  N   UNL A   1      32.751  25.587  21.543  1.00  0.00    -0.354 N 
ATOM      4  C   UNL A   1      33.175  24.412  22.070  1.00  0.00     0.247 C 
ATOM      5  O   UNL A   1      33.321  23.514  21.229  1.00  0.00    -0.272 OA
ATOM      6  H   UNL A   1      33.229  25.877  20.734  1.00  0.00     0.163 HD
BRANCH   4   7
ATOM      7  C   UNL A   1      33.373  24.118  23.580  1.00  0.00     0.202 C 
BRANCH   7   8
ATOM      8  N   UNL A   1      32.363  23.245  24.221  1.00  0.00    -0.340 N 
ATOM      9  C   UNL A   1      32.250  21.935  24.541  1.00  0.00     0.224 C 
ATOM     10  O   UNL A   1      31.397  21.673  25.402  1.00  0.00    -0.275 OA
ATOM     11  H   UNL A   1      31.562  23.752  24.484  1.00  0.00     0.164 HD
BRANCH   9  12
ATOM     12  C   UNL A   1      32.961  20.774  23.848  1.00  0.00     0.089 C 
ATOM     13  N   UNL A   1      33.196  17.883  24.064  1.00  0.00    -0.327 N 
ATOM     14  C   UNL A   1      34.355  18.686  24.488  1.00  0.00     0.263 C 
ATOM     15  C   UNL A   1      32.660  18.464  22.827  1.00  0.00     0.263 C 
ATOM     16  H   UNL A   1      32.488  17.900  24.799  1.00  0.00     0.348 HD
ATOM     17  C   UNL A   1      34.002  20.144  24.785  1.00  0.00     0.075 C 
ATOM     18  C   UNL A   1      32.028  19.815  23.125  1.00  0.00     0.075 C 
BRANCH  13  19
ATOM     19  C   UNL A   1      33.577  16.466  23.846  1.00  0.00     0.363 C 
BRANCH  19  20
ATOM     20  C   UNL A   1      33.951  15.777  25.162  1.00  0.00     0.272 C 
ATOM     21  N   UNL A   1      35.260  15.827  25.540  1.00  0.00    -0.365 N 
ATOM     22  H   UNL A   1      35.548  15.399  26.378  1.00  0.00     0.159 HD
ATOM     23  H   UNL A   1      35.918  16.292  24.974  1.00  0.00     0.159 HD
ATOM     24  O   UNL A   1      33.143  15.142  25.834  1.00  0.00    -0.269 OA
ENDBRANCH  19  20
ENDBRANCH  13  19
ENDBRANCH   9  12
ENDBRANCH   7   8
BRANCH   7  25
ATOM     25  C   UNL A   1      34.748  23.906  24.216  1.00  0.00    -0.016 A 
ATOM     26  C   UNL A   1      35.125  24.367  25.481  1.00  0.00     0.008 A 
ATOM     27  C   UNL A   1      35.712  23.178  23.480  1.00  0.00     0.008 A 
ATOM     28  C   UNL A   1      36.349  23.988  26.053  1.00  0.00     0.021 A 
ATOM     29  C   UNL A   1      36.951  22.833  24.029  1.00  0.00     0.021 A 
ATOM     30  C   UNL A   1      37.250  23.209  25.332  1.00  0.00     0.041 A 
ATOM     31  Cl  UNL A   1      38.724  22.697  26.055  1.00  0.00    -0.084 Cl
ENDBRANCH   7  25
ENDBRANCH   4   7
ENDBRANCH   2   3
ENDBRANCH   1   2
BRANCH   1  32
ATOM     32  C   UNL A   1      33.339  27.887  23.443  1.00  0.00     0.002 C 
BRANCH  32  33
ATOM     33  C   UNL A   1      32.926  28.296  24.858  1.00  0.00     0.002 C 
BRANCH  33  34
ATOM     34  C   UNL A   1      34.051  28.343  25.886  1.00  0.00     0.021 C 
BRANCH  34  35
ATOM     35  C   UNL A   1      33.607  28.622  27.315  1.00  0.00     0.116 C 
BRANCH  35  36
ATOM     36  N   UNL A   1      33.607  30.035  27.652  1.00  0.00    -0.352 N 
ATOM     37  C   UNL A   1      34.639  30.780  28.171  1.00  0.00     0.251 C 
ATOM     38  H   UNL A   1      32.765  30.518  27.490  1.00  0.00     0.163 HD
ATOM     39  O   UNL A   1      34.477  31.949  28.504  1.00  0.00    -0.269 OA
BRANCH  37  40
ATOM     40  C   UNL A   1      35.954  30.133  28.364  1.00  0.00     0.039 A 
ATOM     41  C   UNL A   1      36.884  30.169  27.323  1.00  0.00     0.014 A 
ATOM     42  C   UNL A   1      36.286  29.560  29.596  1.00  0.00     0.014 A 
ATOM     43  C   UNL A   1      38.177  29.690  27.540  1.00  0.00     0.010 A 
ATOM     44  C   UNL A   1      37.595  29.154  29.832  1.00  0.00     0.010 A 
ATOM     45  C   UNL A   1      38.554  29.213  28.806  1.00  0.00    -0.014 A 
BRANCH  45  46
ATOM     46  C   UNL A   1      39.937  28.753  29.081  1.00  0.00     0.031 A 
ATOM     47  C   UNL A   1      40.924  29.695  29.712  1.00  0.00     0.074 A 
ATOM     48  C   UNL A   1      40.328  27.522  28.700  1.00  0.00     0.049 A 
ATOM     49  N   UNL A   1      42.200  29.520  29.947  1.00  0.00    -0.248 NA
ATOM     50  C   UNL A   1      40.415  31.018  30.106  1.00  0.00     0.031 C 
ATOM     51  C   UNL A   1      39.479  26.522  28.048  1.00  0.00     0.029 A 
ATOM     52  N   UNL A   1      41.551  26.904  28.797  1.00  0.00    -0.354 N 
ATOM     53  C   UNL A   1      42.648  30.717  30.491  1.00  0.00     0.074 A 
ATOM     54  C   UNL A   1      41.522  31.624  30.508  1.00  0.00     0.031 C 
ATOM     55  C   UNL A   1      40.200  25.411  27.824  1.00  0.00     0.029 A 
ATOM     56  C   UNL A   1      41.569  25.632  28.278  1.00  0.00     0.049 A 
ATOM     57  H   UNL A   1      42.340  27.333  29.200  1.00  0.00     0.167 HD
ATOM     58  C   UNL A   1      43.882  31.030  30.952  1.00  0.00     0.031 A 
ATOM     59  C   UNL A   1      42.579  24.746  28.172  1.00  0.00     0.031 A 
ATOM     60  C   UNL A   1      44.996  30.122  30.955  1.00  0.00     0.049 A 
ATOM     61  C   UNL A   1      43.943  25.119  28.682  1.00  0.00     0.074 A 
ATOM     62  C   UNL A   1      46.271  30.324  31.456  1.00  0.00     0.029 A 
ATOM     63  N   UNL A   1      44.968  28.839  30.434  1.00  0.00    -0.354 N 
ATOM     64  N   UNL A   1      44.335  26.234  29.247  1.00  0.00    -0.248 NA
ATOM     65  C   UNL A   1      45.001  24.107  28.547  1.00  0.00     0.031 C 
ATOM     66  C   UNL A   1      47.027  29.177  31.197  1.00  0.00     0.029 A 
ATOM     67  C   UNL A   1      46.209  28.243  30.582  1.00  0.00     0.049 A 
ATOM     68  H   UNL A   1      44.183  28.413  30.020  1.00  0.00     0.167 HD
ATOM     69  C   UNL A   1      45.676  26.048  29.561  1.00  0.00     0.074 A 
ATOM     70  C   UNL A   1      46.027  24.710  29.132  1.00  0.00     0.031 C 
ATOM     71  C   UNL A   1      46.538  26.909  30.154  1.00  0.00     0.031 A 
BRANCH  58  72
ATOM     72  C   UNL A   1      44.087  32.419  31.485  1.00  0.00    -0.014 A 
ATOM     73  C   UNL A   1      44.492  33.468  30.644  1.00  0.00     0.009 A 
ATOM     74  C   UNL A   1      43.849  32.688  32.842  1.00  0.00     0.009 A 
ATOM     75  C   UNL A   1      44.692  34.750  31.159  1.00  0.00     0.001 A 
ATOM     76  C   UNL A   1      44.022  33.978  33.348  1.00  0.00     0.001 A 
ATOM     77  C   UNL A   1      44.453  35.005  32.510  1.00  0.00     0.000 A 
ENDBRANCH  58  72
BRANCH  59  78
ATOM     78  C   UNL A   1      42.336  23.411  27.566  1.00  0.00    -0.014 A 
ATOM     79  C   UNL A   1      42.594  23.191  26.205  1.00  0.00     0.009 A 
ATOM     80  C   UNL A   1      41.840  22.352  28.343  1.00  0.00     0.009 A 
ATOM     81  C   UNL A   1      42.339  21.944  25.627  1.00  0.00     0.001 A 
ATOM     82  C   UNL A   1      41.612  21.099  27.769  1.00  0.00     0.001 A 
ATOM     83  C   UNL A   1      41.853  20.899  26.411  1.00  0.00     0.000 A 
ENDBRANCH  59  78
BRANCH  71  84
ATOM     84  C   UNL A   1      47.934  26.420  30.412  1.00  0.00    -0.014 A 
ATOM     85  C   UNL A   1      48.273  25.791  31.619  1.00  0.00     0.009 A 
ATOM     86  C   UNL A   1      48.906  26.535  29.406  1.00  0.00     0.009 A 
ATOM     87  C   UNL A   1      49.567  25.307  31.822  1.00  0.00     0.001 A 
ATOM     88  C   UNL A   1      50.191  26.029  29.601  1.00  0.00     0.001 A 
ATOM     89  C   UNL A   1      50.522  25.421  30.812  1.00  0.00     0.000 A 
ENDBRANCH  71  84
ENDBRANCH  45  46
ENDBRANCH  37  40
ENDBRANCH  35  36
ENDBRANCH  34  35
ENDBRANCH  33  34
ENDBRANCH  32  33
ENDBRANCH   1  32
TORSDOF 18
ENDMDL
MODEL 2
REMARK VINA RESULT:     -11.1      3.233      4.854
REMARK SMILES NC(=O)C[NH+]1CCC(C(=O)N[C@H](C(=O)NCCCCCCNC(=O)c2ccc(-c3c4nc(c(-c5ccccc5)c5ccc([nH]5)c(-c5ccccc5)c5nc(c(-c6ccccc6)c6ccc3[nH]6)C=C5)C=C4)cc2)c2ccc(Cl)cc2)CC1
REMARK SMILES IDX 17 1 16 2 15 3 13 4 14 5 12 7 11 8 9 9 10 10 8 12 5 13 6 14
REMARK SMILES IDX 81 15 7 17 80 18 4 19 2 20 1 21 3 24 73 25 74 26 79 27 75 28
REMARK SMILES IDX 78 29 76 30 77 31 18 32 19 33 20 34 21 35 22 36 23 37 24 39
REMARK SMILES IDX 25 40 26 41 72 42 27 43 71 44 28 45 29 46 30 47 65 48 31 49
REMARK SMILES IDX 70 50 64 51 66 52 32 53 69 54 63 55 62 56 33 58 55 59 40 60
REMARK SMILES IDX 54 61 41 62 44 63 53 64 67 65 42 66 43 67 52 69 68 70 45 71
REMARK SMILES IDX 34 72 35 73 39 74 36 75 38 76 37 77 56 78 57 79 61 80 58 81
REMARK SMILES IDX 60 82 59 83 46 84 47 85 51 86 48 87 50 88 49 89
REMARK H PARENT 15 6 11 11 5 16 1 22 1 23 22 38 66 57 44 68
REMARK Flexibility Score: inf
ROOT
ATOM      1  C   UNL A   1      32.299  27.911  27.405  1.00  0.00     0.021 C 
ENDROOT
BRANCH   1   2
ATOM      2  C   UNL A   1      33.470  27.762  26.432  1.00  0.00     0.116 C 
BRANCH   2   3
ATOM      3  N   UNL A   1      33.744  26.384  26.083  1.00  0.00    -0.354 N 
ATOM      4  C   UNL A   1      33.219  25.615  25.097  1.00  0.00     0.247 C 
ATOM      5  O   UNL A   1      34.068  24.982  24.455  1.00  0.00    -0.272 OA
ATOM      6  H   UNL A   1      34.413  25.935  26.648  1.00  0.00     0.163 HD
BRANCH   4   7
ATOM      7  C   UNL A   1      31.724  25.570  24.685  1.00  0.00     0.202 C 
BRANCH   7   8
ATOM      8  N   UNL A   1      30.810  24.842  25.595  1.00  0.00    -0.340 N 
ATOM      9  C   UNL A   1      30.875  23.756  26.400  1.00  0.00     0.224 C 
ATOM     10  O   UNL A   1      30.000  23.694  27.276  1.00  0.00    -0.275 OA
ATOM     11  H   UNL A   1      29.918  25.258  25.621  1.00  0.00     0.164 HD
BRANCH   9  12
ATOM     12  C   UNL A   1      31.820  22.567  26.232  1.00  0.00     0.089 C 
ATOM     13  N   UNL A   1      34.467  21.985  25.178  1.00  0.00    -0.327 N 
ATOM     14  C   UNL A   1      33.313  21.515  24.394  1.00  0.00     0.263 C 
ATOM     15  C   UNL A   1      34.195  21.733  26.599  1.00  0.00     0.263 C 
ATOM     16  H   UNL A   1      34.601  22.984  25.016  1.00  0.00     0.348 HD
ATOM     17  C   UNL A   1      32.013  22.240  24.745  1.00  0.00     0.075 C 
ATOM     18  C   UNL A   1      33.081  22.650  27.079  1.00  0.00     0.075 C 
BRANCH  13  19
ATOM     19  C   UNL A   1      35.714  21.296  24.763  1.00  0.00     0.363 C 
BRANCH  19  20
ATOM     20  C   UNL A   1      36.924  22.233  24.838  1.00  0.00     0.272 C 
ATOM     21  N   UNL A   1      36.692  23.564  24.654  1.00  0.00    -0.365 N 
ATOM     22  H   UNL A   1      37.438  24.204  24.693  1.00  0.00     0.159 HD
ATOM     23  H   UNL A   1      35.778  23.885  24.481  1.00  0.00     0.159 HD
ATOM     24  O   UNL A   1      38.073  21.826  24.989  1.00  0.00    -0.269 OA
ENDBRANCH  19  20
ENDBRANCH  13  19
ENDBRANCH   9  12
ENDBRANCH   7   8
BRANCH   7  25
ATOM     25  C   UNL A   1      31.003  26.749  24.029  1.00  0.00    -0.016 A 
ATOM     26  C   UNL A   1      31.636  27.819  23.388  1.00  0.00     0.008 A 
ATOM     27  C   UNL A   1      29.589  26.757  24.056  1.00  0.00     0.008 A 
ATOM     28  C   UNL A   1      30.895  28.771  22.672  1.00  0.00     0.021 A 
ATOM     29  C   UNL A   1      28.845  27.728  23.379  1.00  0.00     0.021 A 
ATOM     30  C   UNL A   1      29.504  28.713  22.656  1.00  0.00     0.041 A 
ATOM     31  Cl  UNL A   1      28.601  29.847  21.731  1.00  0.00    -0.084 Cl
ENDBRANCH   7  25
ENDBRANCH   4   7
ENDBRANCH   2   3
ENDBRANCH   1   2
BRANCH   1  32
ATOM     32  C   UNL A   1      31.396  29.136  27.196  1.00  0.00     0.002 C 
BRANCH  32  33
ATOM     33  C   UNL A   1      31.898  30.187  26.205  1.00  0.00     0.002 C 
BRANCH  33  34
ATOM     34  C   UNL A   1      31.625  31.638  26.587  1.00  0.00     0.021 C 
BRANCH  34  35
ATOM     35  C   UNL A   1      32.810  32.380  27.187  1.00  0.00     0.116 C 
BRANCH  35  36
ATOM     36  N   UNL A   1      32.474  33.710  27.667  1.00  0.00    -0.352 N 
ATOM     37  C   UNL A   1      33.169  34.486  28.563  1.00  0.00     0.251 C 
ATOM     38  H   UNL A   1      31.646  34.103  27.306  1.00  0.00     0.163 HD
ATOM     39  O   UNL A   1      32.722  35.557  28.961  1.00  0.00    -0.269 OA
BRANCH  37  40
ATOM     40  C   UNL A   1      34.460  33.988  29.082  1.00  0.00     0.039 A 
ATOM     41  C   UNL A   1      34.473  33.251  30.268  1.00  0.00     0.014 A 
ATOM     42  C   UNL A   1      35.638  34.187  28.355  1.00  0.00     0.014 A 
ATOM     43  C   UNL A   1      35.660  32.653  30.693  1.00  0.00     0.010 A 
ATOM     44  C   UNL A   1      36.800  33.528  28.740  1.00  0.00     0.010 A 
ATOM     45  C   UNL A   1      36.825  32.756  29.914  1.00  0.00    -0.014 A 
BRANCH  45  46
ATOM     46  C   UNL A   1      38.085  32.082  30.311  1.00  0.00     0.031 A 
ATOM     47  C   UNL A   1      39.030  32.768  31.259  1.00  0.00     0.074 A 
ATOM     48  C   UNL A   1      38.417  30.895  29.769  1.00  0.00     0.049 A 
ATOM     49  N   UNL A   1      40.220  32.394  31.654  1.00  0.00    -0.248 NA
ATOM     50  C   UNL A   1      38.589  34.059  31.812  1.00  0.00     0.031 C 
ATOM     51  C   UNL A   1      37.605  30.138  28.813  1.00  0.00     0.029 A 
ATOM     52  N   UNL A   1      39.537  30.119  29.939  1.00  0.00    -0.354 N 
ATOM     53  C   UNL A   1      40.678  33.414  32.480  1.00  0.00     0.074 A 
ATOM     54  C   UNL A   1      39.660  34.440  32.491  1.00  0.00     0.031 C 
ATOM     55  C   UNL A   1      38.244  28.999  28.499  1.00  0.00     0.029 A 
ATOM     56  C   UNL A   1      39.525  28.963  29.197  1.00  0.00     0.049 A 
ATOM     57  H   UNL A   1      40.279  30.368  30.536  1.00  0.00     0.167 HD
ATOM     58  C   UNL A   1      41.833  33.482  33.181  1.00  0.00     0.031 A 
ATOM     59  C   UNL A   1      40.447  27.986  29.085  1.00  0.00     0.031 A 
ATOM     60  C   UNL A   1      42.836  32.452  33.188  1.00  0.00     0.049 A 
ATOM     61  C   UNL A   1      41.727  28.089  29.866  1.00  0.00     0.074 A 
ATOM     62  C   UNL A   1      44.014  32.401  33.913  1.00  0.00     0.029 A 
ATOM     63  N   UNL A   1      42.777  31.291  32.434  1.00  0.00    -0.354 N 
ATOM     64  N   UNL A   1      42.118  29.031  30.688  1.00  0.00    -0.248 NA
ATOM     65  C   UNL A   1      42.689  26.988  29.709  1.00  0.00     0.031 C 
ATOM     66  C   UNL A   1      44.690  31.228  33.563  1.00  0.00     0.029 A 
ATOM     67  C   UNL A   1      43.908  30.526  32.660  1.00  0.00     0.049 A 
ATOM     68  H   UNL A   1      42.041  31.047  31.828  1.00  0.00     0.167 HD
ATOM     69  C   UNL A   1      43.357  28.625  31.168  1.00  0.00     0.074 A 
ATOM     70  C   UNL A   1      43.647  27.346  30.553  1.00  0.00     0.031 C 
ATOM     71  C   UNL A   1      44.178  29.254  32.043  1.00  0.00     0.031 A 
BRANCH  58  72
ATOM     72  C   UNL A   1      42.074  34.722  33.995  1.00  0.00    -0.014 A 
ATOM     73  C   UNL A   1      42.695  35.850  33.435  1.00  0.00     0.009 A 
ATOM     74  C   UNL A   1      41.650  34.772  35.333  1.00  0.00     0.009 A 
ATOM     75  C   UNL A   1      42.924  36.988  34.211  1.00  0.00     0.001 A 
ATOM     76  C   UNL A   1      41.854  35.922  36.096  1.00  0.00     0.001 A 
ATOM     77  C   UNL A   1      42.500  37.025  35.539  1.00  0.00     0.000 A 
ENDBRANCH  58  72
BRANCH  59  78
ATOM     78  C   UNL A   1      40.187  26.816  28.205  1.00  0.00    -0.014 A 
ATOM     79  C   UNL A   1      39.436  25.728  28.674  1.00  0.00     0.009 A 
ATOM     80  C   UNL A   1      40.693  26.778  26.897  1.00  0.00     0.009 A 
ATOM     81  C   UNL A   1      39.215  24.616  27.859  1.00  0.00     0.001 A 
ATOM     82  C   UNL A   1      40.449  25.676  26.075  1.00  0.00     0.001 A 
ATOM     83  C   UNL A   1      39.718  24.593  26.559  1.00  0.00     0.000 A 
ENDBRANCH  59  78
BRANCH  71  84
ATOM     84  C   UNL A   1      45.451  28.553  32.421  1.00  0.00    -0.014 A 
ATOM     85  C   UNL A   1      46.640  28.771  31.710  1.00  0.00     0.009 A 
ATOM     86  C   UNL A   1      45.472  27.712  33.545  1.00  0.00     0.009 A 
ATOM     87  C   UNL A   1      47.822  28.140  32.104  1.00  0.00     0.001 A 
ATOM     88  C   UNL A   1      46.660  27.103  33.952  1.00  0.00     0.001 A 
ATOM     89  C   UNL A   1      47.832  27.313  33.226  1.00  0.00     0.000 A 
ENDBRANCH  71  84
ENDBRANCH  45  46
ENDBRANCH  37  40
ENDBRANCH  35  36
ENDBRANCH  34  35
ENDBRANCH  33  34
ENDBRANCH  32  33
ENDBRANCH   1  32
TORSDOF 18
ENDMDL
MODEL 3
REMARK VINA RESULT:     -11.1      0.489      5.672
REMARK SMILES NC(=O)C[NH+]1CCC(C(=O)N[C@H](C(=O)NCCCCCCNC(=O)c2ccc(-c3c4nc(c(-c5ccccc5)c5ccc([nH]5)c(-c5ccccc5)c5nc(c(-c6ccccc6)c6ccc3[nH]6)C=C5)C=C4)cc2)c2ccc(Cl)cc2)CC1
REMARK SMILES IDX 17 1 16 2 15 3 13 4 14 5 12 7 11 8 9 9 10 10 8 12 5 13 6 14
REMARK SMILES IDX 81 15 7 17 80 18 4 19 2 20 1 21 3 24 73 25 74 26 79 27 75 28
REMARK SMILES IDX 78 29 76 30 77 31 18 32 19 33 20 34 21 35 22 36 23 37 24 39
REMARK SMILES IDX 25 40 26 41 72 42 27 43 71 44 28 45 29 46 30 47 65 48 31 49
REMARK SMILES IDX 70 50 64 51 66 52 32 53 69 54 63 55 62 56 33 58 55 59 40 60
REMARK SMILES IDX 54 61 41 62 44 63 53 64 67 65 42 66 43 67 52 69 68 70 45 71
REMARK SMILES IDX 34 72 35 73 39 74 36 75 38 76 37 77 56 78 57 79 61 80 58 81
REMARK SMILES IDX 60 82 59 83 46 84 47 85 51 86 48 87 50 88 49 89
REMARK H PARENT 15 6 11 11 5 16 1 22 1 23 22 38 66 57 44 68
REMARK Flexibility Score: inf
ROOT
ATOM      1  C   UNL A   1      31.924  27.477  22.520  1.00  0.00     0.021 C 
ENDROOT
BRANCH   1   2
ATOM      2  C   UNL A   1      31.441  26.173  21.882  1.00  0.00     0.116 C 
BRANCH   2   3
ATOM      3  N   UNL A   1      32.527  25.310  21.466  1.00  0.00    -0.354 N 
ATOM      4  C   UNL A   1      32.980  24.155  22.014  1.00  0.00     0.247 C 
ATOM      5  O   UNL A   1      33.171  23.254  21.187  1.00  0.00    -0.272 OA
ATOM      6  H   UNL A   1      33.011  25.607  20.662  1.00  0.00     0.163 HD
BRANCH   4   7
ATOM      7  C   UNL A   1      33.158  23.885  23.531  1.00  0.00     0.202 C 
BRANCH   7   8
ATOM      8  N   UNL A   1      32.181  22.966  24.158  1.00  0.00    -0.340 N 
ATOM      9  C   UNL A   1      32.145  21.664  24.528  1.00  0.00     0.224 C 
ATOM     10  O   UNL A   1      31.269  21.375  25.356  1.00  0.00    -0.275 OA
ATOM     11  H   UNL A   1      31.332  23.422  24.357  1.00  0.00     0.164 HD
BRANCH   9  12
ATOM     12  C   UNL A   1      32.974  20.534  23.923  1.00  0.00     0.089 C 
ATOM     13  N   UNL A   1      33.479  17.700  24.339  1.00  0.00    -0.327 N 
ATOM     14  C   UNL A   1      34.549  18.636  24.718  1.00  0.00     0.263 C 
ATOM     15  C   UNL A   1      32.910  18.141  23.060  1.00  0.00     0.263 C 
ATOM     16  H   UNL A   1      32.760  17.698  25.064  1.00  0.00     0.348 HD
ATOM     17  C   UNL A   1      34.054  20.070  24.911  1.00  0.00     0.075 C 
ATOM     18  C   UNL A   1      32.148  19.443  23.259  1.00  0.00     0.075 C 
BRANCH  13  19
ATOM     19  C   UNL A   1      33.995  16.314  24.222  1.00  0.00     0.363 C 
BRANCH  19  20
ATOM     20  C   UNL A   1      33.161  15.332  25.052  1.00  0.00     0.272 C 
ATOM     21  N   UNL A   1      31.917  15.741  25.432  1.00  0.00    -0.365 N 
ATOM     22  H   UNL A   1      31.344  15.145  25.966  1.00  0.00     0.159 HD
ATOM     23  H   UNL A   1      31.591  16.633  25.173  1.00  0.00     0.159 HD
ATOM     24  O   UNL A   1      33.592  14.246  25.430  1.00  0.00    -0.269 OA
ENDBRANCH  19  20
ENDBRANCH  13  19
ENDBRANCH   9  12
ENDBRANCH   7   8
BRANCH   7  25
ATOM     25  C   UNL A   1      34.528  23.751  24.199  1.00  0.00    -0.016 A 
ATOM     26  C   UNL A   1      34.829  24.172  25.499  1.00  0.00     0.008 A 
ATOM     27  C   UNL A   1      35.569  23.144  23.459  1.00  0.00     0.008 A 
ATOM     28  C   UNL A   1      36.064  23.862  26.089  1.00  0.00     0.021 A 
ATOM     29  C   UNL A   1      36.816  22.871  24.030  1.00  0.00     0.021 A 
ATOM     30  C   UNL A   1      37.046  23.199  25.359  1.00  0.00     0.041 A 
ATOM     31  Cl  UNL A   1      38.536  22.770  26.102  1.00  0.00    -0.084 Cl
ENDBRANCH   7  25
ENDBRANCH   4   7
ENDBRANCH   2   3
ENDBRANCH   1   2
BRANCH   1  32
ATOM     32  C   UNL A   1      33.009  27.342  23.598  1.00  0.00     0.002 C 
BRANCH  32  33
ATOM     33  C   UNL A   1      32.722  28.020  24.939  1.00  0.00     0.002 C 
BRANCH  33  34
ATOM     34  C   UNL A   1      33.930  28.628  25.643  1.00  0.00     0.021 C 
BRANCH  34  35
ATOM     35  C   UNL A   1      33.861  28.621  27.163  1.00  0.00     0.116 C 
BRANCH  35  36
ATOM     36  N   UNL A   1      33.733  29.949  27.739  1.00  0.00    -0.352 N 
ATOM     37  C   UNL A   1      34.689  30.675  28.409  1.00  0.00     0.251 C 
ATOM     38  H   UNL A   1      32.855  30.381  27.638  1.00  0.00     0.163 HD
ATOM     39  O   UNL A   1      34.422  31.751  28.933  1.00  0.00    -0.269 OA
BRANCH  37  40
ATOM     40  C   UNL A   1      36.052  30.116  28.525  1.00  0.00     0.039 A 
ATOM     41  C   UNL A   1      36.918  30.213  27.433  1.00  0.00     0.014 A 
ATOM     42  C   UNL A   1      36.490  29.566  29.734  1.00  0.00     0.014 A 
ATOM     43  C   UNL A   1      38.250  29.821  27.575  1.00  0.00     0.010 A 
ATOM     44  C   UNL A   1      37.834  29.247  29.894  1.00  0.00     0.010 A 
ATOM     45  C   UNL A   1      38.728  29.369  28.817  1.00  0.00    -0.014 A 
BRANCH  45  46
ATOM     46  C   UNL A   1      40.151  29.000  29.012  1.00  0.00     0.031 A 
ATOM     47  C   UNL A   1      40.629  27.632  28.611  1.00  0.00     0.074 A 
ATOM     48  C   UNL A   1      40.996  29.860  29.613  1.00  0.00     0.049 A 
ATOM     49  N   UNL A   1      41.804  27.083  28.784  1.00  0.00    -0.248 NA
ATOM     50  C   UNL A   1      39.645  26.756  27.954  1.00  0.00     0.031 C 
ATOM     51  C   UNL A   1      40.653  31.205  30.081  1.00  0.00     0.029 A 
ATOM     52  N   UNL A   1      42.321  29.723  29.946  1.00  0.00    -0.354 N 
ATOM     53  C   UNL A   1      41.692  25.793  28.281  1.00  0.00     0.074 A 
ATOM     54  C   UNL A   1      40.325  25.626  27.840  1.00  0.00     0.031 C 
ATOM     55  C   UNL A   1      41.744  31.776  30.618  1.00  0.00     0.029 A 
ATOM     56  C   UNL A   1      42.850  30.826  30.571  1.00  0.00     0.049 A 
ATOM     57  H   UNL A   1      42.843  28.911  29.754  1.00  0.00     0.167 HD
ATOM     58  C   UNL A   1      42.645  24.838  28.177  1.00  0.00     0.031 A 
ATOM     59  C   UNL A   1      44.087  31.044  31.060  1.00  0.00     0.031 A 
ATOM     60  C   UNL A   1      44.010  25.010  28.595  1.00  0.00     0.049 A 
ATOM     61  C   UNL A   1      45.126  29.965  30.942  1.00  0.00     0.074 A 
ATOM     62  C   UNL A   1      45.066  24.123  28.477  1.00  0.00     0.029 A 
ATOM     63  N   UNL A   1      44.507  26.148  29.210  1.00  0.00    -0.354 N 
ATOM     64  N   UNL A   1      45.020  28.772  30.411  1.00  0.00    -0.248 NA
ATOM     65  C   UNL A   1      46.459  30.267  31.486  1.00  0.00     0.031 C 
ATOM     66  C   UNL A   1      46.193  24.708  29.062  1.00  0.00     0.029 A 
ATOM     67  C   UNL A   1      45.850  25.979  29.498  1.00  0.00     0.049 A 
ATOM     68  H   UNL A   1      43.983  26.956  29.413  1.00  0.00     0.167 HD
ATOM     69  C   UNL A   1      46.277  28.191  30.529  1.00  0.00     0.074 A 
ATOM     70  C   UNL A   1      47.132  29.167  31.174  1.00  0.00     0.031 C 
ATOM     71  C   UNL A   1      46.686  26.962  30.135  1.00  0.00     0.031 A 
BRANCH  58  72
ATOM     72  C   UNL A   1      42.237  23.515  27.592  1.00  0.00    -0.014 A 
ATOM     73  C   UNL A   1      42.427  23.233  26.230  1.00  0.00     0.009 A 
ATOM     74  C   UNL A   1      41.678  22.530  28.420  1.00  0.00     0.009 A 
ATOM     75  C   UNL A   1      42.027  22.004  25.701  1.00  0.00     0.001 A 
ATOM     76  C   UNL A   1      41.307  21.291  27.894  1.00  0.00     0.001 A 
ATOM     77  C   UNL A   1      41.472  21.033  26.534  1.00  0.00     0.000 A 
ENDBRANCH  58  72
BRANCH  59  78
ATOM     78  C   UNL A   1      44.415  32.347  31.697  1.00  0.00    -0.014 A 
ATOM     79  C   UNL A   1      44.942  33.398  30.932  1.00  0.00     0.009 A 
ATOM     80  C   UNL A   1      44.210  32.544  33.071  1.00  0.00     0.009 A 
ATOM     81  C   UNL A   1      45.279  34.613  31.533  1.00  0.00     0.001 A 
ATOM     82  C   UNL A   1      44.521  33.769  33.665  1.00  0.00     0.001 A 
ATOM     83  C   UNL A   1      45.063  34.799  32.898  1.00  0.00     0.000 A 
ENDBRANCH  59  78
BRANCH  71  84
ATOM     84  C   UNL A   1      48.131  26.611  30.353  1.00  0.00    -0.014 A 
ATOM     85  C   UNL A   1      48.539  25.871  31.472  1.00  0.00     0.009 A 
ATOM     86  C   UNL A   1      49.084  26.976  29.390  1.00  0.00     0.009 A 
ATOM     87  C   UNL A   1      49.881  25.522  31.633  1.00  0.00     0.001 A 
ATOM     88  C   UNL A   1      50.420  26.604  29.540  1.00  0.00     0.001 A 
ATOM     89  C   UNL A   1      50.819  25.883  30.665  1.00  0.00     0.000 A 
ENDBRANCH  71  84
ENDBRANCH  45  46
ENDBRANCH  37  40
ENDBRANCH  35  36
ENDBRANCH  34  35
ENDBRANCH  33  34
ENDBRANCH  32  33
ENDBRANCH   1  32
TORSDOF 18
ENDMDL
