MODEL 1
REMARK VINA RESULT:     -10.5      0.000      0.000
REMARK SMILES CCc1cc(C(=O)N2CCO[C@@H](CC(=O)NCCCCCCNC(=O)c3ccc(-c4c5nc(c(-c6ccccc6)c6ccc([nH]6)c(-c6ccccc6)c6nc(c(-c7ccccc7)c7ccc4[nH]7)C=C6)C=C5)cc3)C2)sc1C
REMARK SMILES IDX 18 1 17 2 16 3 14 4 15 5 13 7 12 8 8 9 9 10 74 11 10 12
REMARK SMILES IDX 11 13 6 14 7 15 5 16 3 17 4 18 76 19 75 20 77 21 2 22 1 23
REMARK SMILES IDX 19 24 20 25 21 26 22 27 23 28 24 29 25 31 26 32 27 33 73 34
REMARK SMILES IDX 28 35 72 36 29 37 30 38 31 39 66 40 32 41 71 42 65 43 67 44
REMARK SMILES IDX 33 45 70 46 64 47 63 48 34 50 56 51 41 52 55 53 42 54 45 55
REMARK SMILES IDX 54 56 68 57 43 58 44 59 53 61 69 62 46 63 35 64 36 65 40 66
REMARK SMILES IDX 37 67 39 68 38 69 57 70 58 71 62 72 59 73 61 74 60 75 47 76
REMARK SMILES IDX 48 77 52 78 49 79 51 80 50 81
REMARK H PARENT 16 6 23 30 67 49 45 60
REMARK Flexibility Score: inf
ROOT
ATOM      1  C   UNL A   1      34.589  31.316  28.121  1.00  0.00     0.021 C 
ENDROOT
BRANCH   1   2
ATOM      2  C   UNL A   1      33.387  31.048  27.209  1.00  0.00     0.116 C 
BRANCH   2   3
ATOM      3  N   UNL A   1      32.660  29.863  27.640  1.00  0.00    -0.356 N 
ATOM      4  C   UNL A   1      32.772  28.560  27.255  1.00  0.00     0.222 C 
ATOM      5  O   UNL A   1      31.956  27.749  27.695  1.00  0.00    -0.275 OA
ATOM      6  H   UNL A   1      31.971  30.031  28.324  1.00  0.00     0.163 HD
BRANCH   4   7
ATOM      7  C   UNL A   1      33.849  28.124  26.285  1.00  0.00     0.133 C 
BRANCH   7   8
ATOM      8  C   UNL A   1      33.341  28.146  24.844  1.00  0.00     0.147 C 
ATOM      9  N   UNL A   1      32.834  26.732  22.883  1.00  0.00    -0.333 N 
ATOM     10  C   UNL A   1      31.503  27.322  22.793  1.00  0.00     0.148 C 
ATOM     11  C   UNL A   1      33.412  26.753  24.212  1.00  0.00     0.152 C 
ATOM     12  C   UNL A   1      31.464  28.686  23.490  1.00  0.00     0.182 C 
ATOM     13  O   UNL A   1      31.969  28.604  24.837  1.00  0.00    -0.374 OA
BRANCH   9  14
ATOM     14  C   UNL A   1      33.217  25.680  22.054  1.00  0.00     0.264 C 
ATOM     15  O   UNL A   1      33.250  25.839  20.832  1.00  0.00    -0.268 OA
BRANCH  14  16
ATOM     16  C   UNL A   1      33.376  24.393  22.718  1.00  0.00     0.093 A 
ATOM     17  C   UNL A   1      34.275  22.582  23.925  1.00  0.00    -0.034 A 
ATOM     18  C   UNL A   1      34.527  23.754  23.136  1.00  0.00     0.029 A 
ATOM     19  C   UNL A   1      32.914  22.371  24.071  1.00  0.00     0.005 A 
ATOM     20  S   UNL A   1      31.988  23.525  23.208  1.00  0.00    -0.135 S 
ATOM     21  C   UNL A   1      32.195  21.320  24.852  1.00  0.00     0.056 C 
BRANCH  17  22
ATOM     22  C   UNL A   1      35.371  21.752  24.534  1.00  0.00     0.033 C 
ATOM     23  C   UNL A   1      36.754  22.195  24.084  1.00  0.00     0.009 C 
ENDBRANCH  17  22
ENDBRANCH  14  16
ENDBRANCH   9  14
ENDBRANCH   7   8
ENDBRANCH   4   7
ENDBRANCH   2   3
ENDBRANCH   1   2
BRANCH   1  24
ATOM     24  C   UNL A   1      34.365  32.404  29.174  1.00  0.00     0.002 C 
BRANCH  24  25
ATOM     25  C   UNL A   1      34.373  33.841  28.646  1.00  0.00     0.002 C 
BRANCH  25  26
ATOM     26  C   UNL A   1      33.085  34.645  28.858  1.00  0.00     0.021 C 
BRANCH  26  27
ATOM     27  C   UNL A   1      33.261  36.046  29.446  1.00  0.00     0.116 C 
BRANCH  27  28
ATOM     28  N   UNL A   1      32.461  36.252  30.640  1.00  0.00    -0.352 N 
ATOM     29  C   UNL A   1      32.632  35.772  31.913  1.00  0.00     0.251 C 
ATOM     30  H   UNL A   1      31.671  36.828  30.518  1.00  0.00     0.163 HD
ATOM     31  O   UNL A   1      31.753  35.939  32.756  1.00  0.00    -0.269 OA
BRANCH  29  32
ATOM     32  C   UNL A   1      33.857  35.028  32.283  1.00  0.00     0.039 A 
ATOM     33  C   UNL A   1      33.728  33.705  32.720  1.00  0.00     0.014 A 
ATOM     34  C   UNL A   1      35.116  35.634  32.254  1.00  0.00     0.014 A 
ATOM     35  C   UNL A   1      34.864  32.970  33.069  1.00  0.00     0.010 A 
ATOM     36  C   UNL A   1      36.255  34.887  32.562  1.00  0.00     0.010 A 
ATOM     37  C   UNL A   1      36.139  33.548  32.970  1.00  0.00    -0.014 A 
BRANCH  37  38
ATOM     38  C   UNL A   1      37.358  32.769  33.296  1.00  0.00     0.031 A 
ATOM     39  C   UNL A   1      38.074  32.990  34.599  1.00  0.00     0.074 A 
ATOM     40  C   UNL A   1      37.851  31.891  32.401  1.00  0.00     0.049 A 
ATOM     41  N   UNL A   1      39.196  32.463  35.024  1.00  0.00    -0.248 NA
ATOM     42  C   UNL A   1      37.455  33.935  35.541  1.00  0.00     0.031 C 
ATOM     43  C   UNL A   1      37.263  31.590  31.094  1.00  0.00     0.029 A 
ATOM     44  N   UNL A   1      38.967  31.095  32.457  1.00  0.00    -0.354 N 
ATOM     45  C   UNL A   1      39.425  33.025  36.273  1.00  0.00     0.074 A 
ATOM     46  C   UNL A   1      38.341  33.949  36.529  1.00  0.00     0.031 C 
ATOM     47  C   UNL A   1      38.018  30.665  30.477  1.00  0.00     0.029 A 
ATOM     48  C   UNL A   1      39.155  30.332  31.330  1.00  0.00     0.049 A 
ATOM     49  H   UNL A   1      39.576  31.072  33.230  1.00  0.00     0.167 HD
ATOM     50  C   UNL A   1      40.441  32.786  37.136  1.00  0.00     0.031 A 
ATOM     51  C   UNL A   1      40.137  29.468  31.014  1.00  0.00     0.031 A 
ATOM     52  C   UNL A   1      41.517  31.862  36.898  1.00  0.00     0.049 A 
ATOM     53  C   UNL A   1      41.254  29.224  31.988  1.00  0.00     0.074 A 
ATOM     54  C   UNL A   1      42.583  31.548  37.724  1.00  0.00     0.029 A 
ATOM     55  N   UNL A   1      41.658  31.097  35.752  1.00  0.00    -0.354 N 
ATOM     56  N   UNL A   1      41.448  29.753  33.171  1.00  0.00    -0.248 NA
ATOM     57  C   UNL A   1      42.283  28.255  31.585  1.00  0.00     0.031 C 
ATOM     58  C   UNL A   1      43.380  30.603  37.067  1.00  0.00     0.029 A 
ATOM     59  C   UNL A   1      42.793  30.310  35.848  1.00  0.00     0.049 A 
ATOM     60  H   UNL A   1      41.041  31.110  34.985  1.00  0.00     0.167 HD
ATOM     61  C   UNL A   1      42.606  29.167  33.661  1.00  0.00     0.074 A 
ATOM     62  C   UNL A   1      43.068  28.235  32.653  1.00  0.00     0.031 C 
ATOM     63  C   UNL A   1      43.233  29.383  34.842  1.00  0.00     0.031 A 
BRANCH  50  64
ATOM     64  C   UNL A   1      40.435  33.547  38.429  1.00  0.00    -0.014 A 
ATOM     65  C   UNL A   1      41.150  34.748  38.560  1.00  0.00     0.009 A 
ATOM     66  C   UNL A   1      39.678  33.080  39.514  1.00  0.00     0.009 A 
ATOM     67  C   UNL A   1      41.125  35.454  39.764  1.00  0.00     0.001 A 
ATOM     68  C   UNL A   1      39.642  33.798  40.710  1.00  0.00     0.001 A 
ATOM     69  C   UNL A   1      40.369  34.981  40.836  1.00  0.00     0.000 A 
ENDBRANCH  50  64
BRANCH  51  70
ATOM     70  C   UNL A   1      40.112  28.756  29.713  1.00  0.00    -0.014 A 
ATOM     71  C   UNL A   1      40.680  29.346  28.574  1.00  0.00     0.009 A 
ATOM     72  C   UNL A   1      39.505  27.497  29.600  1.00  0.00     0.009 A 
ATOM     73  C   UNL A   1      40.619  28.698  27.339  1.00  0.00     0.001 A 
ATOM     74  C   UNL A   1      39.464  26.842  28.367  1.00  0.00     0.001 A 
ATOM     75  C   UNL A   1      40.014  27.445  27.238  1.00  0.00     0.000 A 
ENDBRANCH  51  70
BRANCH  63  76
ATOM     76  C   UNL A   1      44.461  28.571  35.121  1.00  0.00    -0.014 A 
ATOM     77  C   UNL A   1      45.733  29.031  34.747  1.00  0.00     0.009 A 
ATOM     78  C   UNL A   1      44.346  27.345  35.793  1.00  0.00     0.009 A 
ATOM     79  C   UNL A   1      46.866  28.264  35.021  1.00  0.00     0.001 A 
ATOM     80  C   UNL A   1      45.483  26.588  36.079  1.00  0.00     0.001 A 
ATOM     81  C   UNL A   1      46.741  27.046  35.687  1.00  0.00     0.000 A 
ENDBRANCH  63  76
ENDBRANCH  37  38
ENDBRANCH  29  32
ENDBRANCH  27  28
ENDBRANCH  26  27
ENDBRANCH  25  26
ENDBRANCH  24  25
ENDBRANCH   1  24
TORSDOF 17
ENDMDL
MODEL 2
REMARK VINA RESULT:     -10.2      6.625     12.070
REMARK SMILES CCc1cc(C(=O)N2CCO[C@@H](CC(=O)NCCCCCCNC(=O)c3ccc(-c4c5nc(c(-c6ccccc6)c6ccc([nH]6)c(-c6ccccc6)c6nc(c(-c7ccccc7)c7ccc4[nH]7)C=C6)C=C5)cc3)C2)sc1C
REMARK SMILES IDX 18 1 17 2 16 3 14 4 15 5 13 7 12 8 8 9 9 10 74 11 10 12
REMARK SMILES IDX 11 13 6 14 7 15 5 16 3 17 4 18 76 19 75 20 77 21 2 22 1 23
REMARK SMILES IDX 19 24 20 25 21 26 22 27 23 28 24 29 25 31 26 32 27 33 73 34
REMARK SMILES IDX 28 35 72 36 29 37 30 38 31 39 66 40 32 41 71 42 65 43 67 44
REMARK SMILES IDX 33 45 70 46 64 47 63 48 34 50 56 51 41 52 55 53 42 54 45 55
REMARK SMILES IDX 54 56 68 57 43 58 44 59 53 61 69 62 46 63 35 64 36 65 40 66
REMARK SMILES IDX 37 67 39 68 38 69 57 70 58 71 62 72 59 73 61 74 60 75 47 76
REMARK SMILES IDX 48 77 52 78 49 79 51 80 50 81
REMARK H PARENT 16 6 23 30 67 49 45 60
REMARK Flexibility Score: inf
ROOT
ATOM      1  C   UNL A   1      40.919  21.747  27.627  1.00  0.00     0.021 C 
ENDROOT
BRANCH   1   2
ATOM      2  C   UNL A   1      39.859  21.554  26.537  1.00  0.00     0.116 C 
BRANCH   2   3
ATOM      3  N   UNL A   1      38.944  22.685  26.494  1.00  0.00    -0.356 N 
ATOM      4  C   UNL A   1      37.740  22.834  25.871  1.00  0.00     0.222 C 
ATOM      5  O   UNL A   1      37.203  23.942  25.897  1.00  0.00    -0.275 OA
ATOM      6  H   UNL A   1      39.244  23.475  26.999  1.00  0.00     0.163 HD
BRANCH   4   7
ATOM      7  C   UNL A   1      37.095  21.680  25.135  1.00  0.00     0.133 C 
BRANCH   7   8
ATOM      8  C   UNL A   1      35.591  21.892  24.975  1.00  0.00     0.147 C 
ATOM      9  N   UNL A   1      33.846  22.748  23.450  1.00  0.00    -0.333 N 
ATOM     10  C   UNL A   1      33.110  21.494  23.577  1.00  0.00     0.148 C 
ATOM     11  C   UNL A   1      35.273  22.632  23.672  1.00  0.00     0.152 C 
ATOM     12  C   UNL A   1      33.504  20.761  24.864  1.00  0.00     0.182 C 
ATOM     13  O   UNL A   1      34.933  20.604  24.965  1.00  0.00    -0.374 OA
BRANCH   9  14
ATOM     14  C   UNL A   1      33.431  23.744  22.569  1.00  0.00     0.264 C 
ATOM     15  O   UNL A   1      33.325  23.498  21.365  1.00  0.00    -0.268 OA
BRANCH  14  16
ATOM     16  C   UNL A   1      33.331  25.078  23.144  1.00  0.00     0.093 A 
ATOM     17  C   UNL A   1      33.397  26.889  24.651  1.00  0.00    -0.034 A 
ATOM     18  C   UNL A   1      33.314  25.467  24.470  1.00  0.00     0.029 A 
ATOM     19  C   UNL A   1      33.468  27.535  23.427  1.00  0.00     0.005 A 
ATOM     20  S   UNL A   1      33.360  26.441  22.114  1.00  0.00    -0.135 S 
ATOM     21  C   UNL A   1      33.624  28.991  23.132  1.00  0.00     0.056 C 
BRANCH  17  22
ATOM     22  C   UNL A   1      33.447  27.542  26.003  1.00  0.00     0.033 C 
ATOM     23  C   UNL A   1      32.074  27.973  26.492  1.00  0.00     0.009 C 
ENDBRANCH  17  22
ENDBRANCH  14  16
ENDBRANCH   9  14
ENDBRANCH   7   8
ENDBRANCH   4   7
ENDBRANCH   2   3
ENDBRANCH   1   2
BRANCH   1  24
ATOM     24  C   UNL A   1      42.202  20.940  27.422  1.00  0.00     0.002 C 
BRANCH  24  25
ATOM     25  C   UNL A   1      42.080  19.435  27.677  1.00  0.00     0.002 C 
BRANCH  25  26
ATOM     26  C   UNL A   1      42.762  18.519  26.654  1.00  0.00     0.021 C 
BRANCH  26  27
ATOM     27  C   UNL A   1      42.829  19.051  25.221  1.00  0.00     0.116 C 
BRANCH  27  28
ATOM     28  N   UNL A   1      44.083  18.724  24.565  1.00  0.00    -0.352 N 
ATOM     29  C   UNL A   1      45.141  19.529  24.229  1.00  0.00     0.251 C 
ATOM     30  H   UNL A   1      44.191  17.775  24.324  1.00  0.00     0.163 HD
ATOM     31  O   UNL A   1      46.053  19.085  23.535  1.00  0.00    -0.269 OA
BRANCH  29  32
ATOM     32  C   UNL A   1      45.188  20.941  24.670  1.00  0.00     0.039 A 
ATOM     33  C   UNL A   1      45.565  21.216  25.989  1.00  0.00     0.014 A 
ATOM     34  C   UNL A   1      44.818  21.985  23.818  1.00  0.00     0.014 A 
ATOM     35  C   UNL A   1      45.629  22.538  26.437  1.00  0.00     0.010 A 
ATOM     36  C   UNL A   1      44.924  23.308  24.251  1.00  0.00     0.010 A 
ATOM     37  C   UNL A   1      45.332  23.596  25.564  1.00  0.00    -0.014 A 
BRANCH  37  38
ATOM     38  C   UNL A   1      45.436  25.006  26.011  1.00  0.00     0.031 A 
ATOM     39  C   UNL A   1      46.755  25.725  25.951  1.00  0.00     0.074 A 
ATOM     40  C   UNL A   1      44.354  25.631  26.514  1.00  0.00     0.049 A 
ATOM     41  N   UNL A   1      47.058  26.929  26.370  1.00  0.00    -0.248 NA
ATOM     42  C   UNL A   1      47.881  24.992  25.352  1.00  0.00     0.031 C 
ATOM     43  C   UNL A   1      43.019  25.045  26.642  1.00  0.00     0.029 A 
ATOM     44  N   UNL A   1      44.214  26.899  27.020  1.00  0.00    -0.354 N 
ATOM     45  C   UNL A   1      48.411  27.090  26.102  1.00  0.00     0.074 A 
ATOM     46  C   UNL A   1      48.877  25.856  25.506  1.00  0.00     0.031 C 
ATOM     47  C   UNL A   1      42.190  25.957  27.180  1.00  0.00     0.029 A 
ATOM     48  C   UNL A   1      42.943  27.176  27.460  1.00  0.00     0.049 A 
ATOM     49  H   UNL A   1      44.953  27.548  27.063  1.00  0.00     0.167 HD
ATOM     50  C   UNL A   1      49.196  28.172  26.322  1.00  0.00     0.031 A 
ATOM     51  C   UNL A   1      42.440  28.286  28.033  1.00  0.00     0.031 A 
ATOM     52  C   UNL A   1      48.743  29.408  26.902  1.00  0.00     0.049 A 
ATOM     53  C   UNL A   1      43.333  29.470  28.269  1.00  0.00     0.074 A 
ATOM     54  C   UNL A   1      49.466  30.561  27.151  1.00  0.00     0.029 A 
ATOM     55  N   UNL A   1      47.443  29.652  27.316  1.00  0.00    -0.354 N 
ATOM     56  N   UNL A   1      44.607  29.611  27.997  1.00  0.00    -0.248 NA
ATOM     57  C   UNL A   1      42.713  30.653  28.884  1.00  0.00     0.031 C 
ATOM     58  C   UNL A   1      48.607  31.500  27.733  1.00  0.00     0.029 A 
ATOM     59  C   UNL A   1      47.344  30.938  27.818  1.00  0.00     0.049 A 
ATOM     60  H   UNL A   1      46.702  29.007  27.260  1.00  0.00     0.167 HD
ATOM     61  C   UNL A   1      44.935  30.901  28.387  1.00  0.00     0.074 A 
ATOM     62  C   UNL A   1      43.727  31.507  28.906  1.00  0.00     0.031 C 
ATOM     63  C   UNL A   1      46.134  31.528  28.322  1.00  0.00     0.031 A 
BRANCH  50  64
ATOM     64  C   UNL A   1      50.640  28.062  25.930  1.00  0.00    -0.014 A 
ATOM     65  C   UNL A   1      51.604  27.633  26.856  1.00  0.00     0.009 A 
ATOM     66  C   UNL A   1      51.034  28.354  24.616  1.00  0.00     0.009 A 
ATOM     67  C   UNL A   1      52.943  27.521  26.475  1.00  0.00     0.001 A 
ATOM     68  C   UNL A   1      52.370  28.225  24.236  1.00  0.00     0.001 A 
ATOM     69  C   UNL A   1      53.325  27.814  25.167  1.00  0.00     0.000 A 
ENDBRANCH  50  64
BRANCH  51  70
ATOM     70  C   UNL A   1      41.010  28.338  28.425  1.00  0.00    -0.014 A 
ATOM     71  C   UNL A   1      40.062  28.912  27.565  1.00  0.00     0.009 A 
ATOM     72  C   UNL A   1      40.591  27.833  29.664  1.00  0.00     0.009 A 
ATOM     73  C   UNL A   1      38.723  29.001  27.950  1.00  0.00     0.001 A 
ATOM     74  C   UNL A   1      39.247  27.905  30.038  1.00  0.00     0.001 A 
ATOM     75  C   UNL A   1      38.317  28.495  29.185  1.00  0.00     0.000 A 
ENDBRANCH  51  70
BRANCH  63  76
ATOM     76  C   UNL A   1      46.185  32.952  28.788  1.00  0.00    -0.014 A 
ATOM     77  C   UNL A   1      46.506  33.266  30.117  1.00  0.00     0.009 A 
ATOM     78  C   UNL A   1      45.938  33.991  27.878  1.00  0.00     0.009 A 
ATOM     79  C   UNL A   1      46.555  34.598  30.532  1.00  0.00     0.001 A 
ATOM     80  C   UNL A   1      46.004  35.322  28.292  1.00  0.00     0.001 A 
ATOM     81  C   UNL A   1      46.306  35.624  29.620  1.00  0.00     0.000 A 
ENDBRANCH  63  76
ENDBRANCH  37  38
ENDBRANCH  29  32
ENDBRANCH  27  28
ENDBRANCH  26  27
ENDBRANCH  25  26
ENDBRANCH  24  25
ENDBRANCH   1  24
TORSDOF 17
ENDMDL
MODEL 3
REMARK VINA RESULT:     -10.0      1.466      2.269
REMARK SMILES CCc1cc(C(=O)N2CCO[C@@H](CC(=O)NCCCCCCNC(=O)c3ccc(-c4c5nc(c(-c6ccccc6)c6ccc([nH]6)c(-c6ccccc6)c6nc(c(-c7ccccc7)c7ccc4[nH]7)C=C6)C=C5)cc3)C2)sc1C
REMARK SMILES IDX 18 1 17 2 16 3 14 4 15 5 13 7 12 8 8 9 9 10 74 11 10 12
REMARK SMILES IDX 11 13 6 14 7 15 5 16 3 17 4 18 76 19 75 20 77 21 2 22 1 23
REMARK SMILES IDX 19 24 20 25 21 26 22 27 23 28 24 29 25 31 26 32 27 33 73 34
REMARK SMILES IDX 28 35 72 36 29 37 30 38 31 39 66 40 32 41 71 42 65 43 67 44
REMARK SMILES IDX 33 45 70 46 64 47 63 48 34 50 56 51 41 52 55 53 42 54 45 55
REMARK SMILES IDX 54 56 68 57 43 58 44 59 53 61 69 62 46 63 35 64 36 65 40 66
REMARK SMILES IDX 37 67 39 68 38 69 57 70 58 71 62 72 59 73 61 74 60 75 47 76
REMARK SMILES IDX 48 77 52 78 49 79 51 80 50 81
REMARK H PARENT 16 6 23 30 67 49 45 60
REMARK Flexibility Score: inf
ROOT
ATOM      1  C   UNL A   1      34.891  30.182  27.827  1.00  0.00     0.021 C 
ENDROOT
BRANCH   1   2
ATOM      2  C   UNL A   1      33.655  30.321  26.931  1.00  0.00     0.116 C 
BRANCH   2   3
ATOM      3  N   UNL A   1      32.539  29.551  27.459  1.00  0.00    -0.356 N 
ATOM      4  C   UNL A   1      32.204  28.239  27.295  1.00  0.00     0.222 C 
ATOM      5  O   UNL A   1      31.135  27.846  27.765  1.00  0.00    -0.275 OA
ATOM      6  H   UNL A   1      31.921  30.063  28.031  1.00  0.00     0.163 HD
BRANCH   4   7
ATOM      7  C   UNL A   1      33.103  27.296  26.525  1.00  0.00     0.133 C 
BRANCH   7   8
ATOM      8  C   UNL A   1      32.927  27.467  25.018  1.00  0.00     0.147 C 
ATOM      9  N   UNL A   1      32.742  26.248  22.877  1.00  0.00    -0.333 N 
ATOM     10  C   UNL A   1      31.519  26.978  22.559  1.00  0.00     0.148 C 
ATOM     11  C   UNL A   1      33.014  26.120  24.295  1.00  0.00     0.152 C 
ATOM     12  C   UNL A   1      31.447  28.289  23.349  1.00  0.00     0.182 C 
ATOM     13  O   UNL A   1      31.635  28.065  24.761  1.00  0.00    -0.374 OA
BRANCH   9  14
ATOM     14  C   UNL A   1      33.205  25.220  22.058  1.00  0.00     0.264 C 
ATOM     15  O   UNL A   1      33.276  25.388  20.839  1.00  0.00    -0.268 OA
BRANCH  14  16
ATOM     16  C   UNL A   1      33.399  23.939  22.722  1.00  0.00     0.093 A 
ATOM     17  C   UNL A   1      34.326  22.175  23.981  1.00  0.00    -0.034 A 
ATOM     18  C   UNL A   1      34.557  23.371  23.221  1.00  0.00     0.029 A 
ATOM     19  C   UNL A   1      32.974  21.874  24.021  1.00  0.00     0.005 A 
ATOM     20  S   UNL A   1      32.041  22.974  23.100  1.00  0.00    -0.135 S 
ATOM     21  C   UNL A   1      32.272  20.767  24.738  1.00  0.00     0.056 C 
BRANCH  17  22
ATOM     22  C   UNL A   1      35.426  21.413  24.664  1.00  0.00     0.033 C 
ATOM     23  C   UNL A   1      36.115  22.230  25.745  1.00  0.00     0.009 C 
ENDBRANCH  17  22
ENDBRANCH  14  16
ENDBRANCH   9  14
ENDBRANCH   7   8
ENDBRANCH   4   7
ENDBRANCH   2   3
ENDBRANCH   1   2
BRANCH   1  24
ATOM     24  C   UNL A   1      35.227  31.425  28.652  1.00  0.00     0.002 C 
BRANCH  24  25
ATOM     25  C   UNL A   1      34.963  32.765  27.959  1.00  0.00     0.002 C 
BRANCH  25  26
ATOM     26  C   UNL A   1      33.690  33.506  28.386  1.00  0.00     0.021 C 
BRANCH  26  27
ATOM     27  C   UNL A   1      33.885  34.940  28.879  1.00  0.00     0.116 C 
BRANCH  27  28
ATOM     28  N   UNL A   1      33.290  35.165  30.185  1.00  0.00    -0.352 N 
ATOM     29  C   UNL A   1      33.623  34.645  31.410  1.00  0.00     0.251 C 
ATOM     30  H   UNL A   1      32.528  35.788  30.193  1.00  0.00     0.163 HD
ATOM     31  O   UNL A   1      32.894  34.844  32.379  1.00  0.00    -0.269 OA
BRANCH  29  32
ATOM     32  C   UNL A   1      34.841  33.822  31.577  1.00  0.00     0.039 A 
ATOM     33  C   UNL A   1      36.064  34.344  31.141  1.00  0.00     0.014 A 
ATOM     34  C   UNL A   1      34.783  32.530  32.109  1.00  0.00     0.014 A 
ATOM     35  C   UNL A   1      37.236  33.598  31.291  1.00  0.00     0.010 A 
ATOM     36  C   UNL A   1      35.959  31.803  32.299  1.00  0.00     0.010 A 
ATOM     37  C   UNL A   1      37.196  32.331  31.894  1.00  0.00    -0.014 A 
BRANCH  37  38
ATOM     38  C   UNL A   1      38.437  31.544  32.100  1.00  0.00     0.031 A 
ATOM     39  C   UNL A   1      39.362  31.872  33.238  1.00  0.00     0.074 A 
ATOM     40  C   UNL A   1      38.757  30.561  31.237  1.00  0.00     0.049 A 
ATOM     41  N   UNL A   1      40.528  31.350  33.529  1.00  0.00    -0.248 NA
ATOM     42  C   UNL A   1      38.927  32.932  34.161  1.00  0.00     0.031 C 
ATOM     43  C   UNL A   1      37.955  30.148  30.084  1.00  0.00     0.029 A 
ATOM     44  N   UNL A   1      39.851  29.733  31.197  1.00  0.00    -0.354 N 
ATOM     45  C   UNL A   1      40.972  32.029  34.657  1.00  0.00     0.074 A 
ATOM     46  C   UNL A   1      39.964  33.014  34.984  1.00  0.00     0.031 C 
ATOM     47  C   UNL A   1      38.579  29.137  29.455  1.00  0.00     0.029 A 
ATOM     48  C   UNL A   1      39.834  28.852  30.144  1.00  0.00     0.049 A 
ATOM     49  H   UNL A   1      40.579  29.768  31.859  1.00  0.00     0.167 HD
ATOM     50  C   UNL A   1      42.112  31.843  35.364  1.00  0.00     0.031 A 
ATOM     51  C   UNL A   1      40.733  27.923  29.768  1.00  0.00     0.031 A 
ATOM     52  C   UNL A   1      43.116  30.860  35.056  1.00  0.00     0.049 A 
ATOM     53  C   UNL A   1      41.991  27.740  30.569  1.00  0.00     0.074 A 
ATOM     54  C   UNL A   1      44.297  30.592  35.727  1.00  0.00     0.029 A 
ATOM     55  N   UNL A   1      43.049  29.975  33.992  1.00  0.00    -0.354 N 
ATOM     56  N   UNL A   1      42.388  28.381  31.640  1.00  0.00    -0.248 NA
ATOM     57  C   UNL A   1      42.920  26.696  30.110  1.00  0.00     0.031 C 
ATOM     58  C   UNL A   1      44.956  29.556  35.056  1.00  0.00     0.029 A 
ATOM     59  C   UNL A   1      44.169  29.161  33.987  1.00  0.00     0.049 A 
ATOM     60  H   UNL A   1      42.315  29.932  33.338  1.00  0.00     0.167 HD
ATOM     61  C   UNL A   1      43.600  27.805  31.995  1.00  0.00     0.074 A 
ATOM     62  C   UNL A   1      43.870  26.758  31.033  1.00  0.00     0.031 C 
ATOM     63  C   UNL A   1      44.417  28.119  33.029  1.00  0.00     0.031 A 
BRANCH  50  64
ATOM     64  C   UNL A   1      42.335  32.733  36.551  1.00  0.00    -0.014 A 
ATOM     65  C   UNL A   1      41.899  32.348  37.829  1.00  0.00     0.009 A 
ATOM     66  C   UNL A   1      43.018  33.948  36.399  1.00  0.00     0.009 A 
ATOM     67  C   UNL A   1      42.125  33.178  38.929  1.00  0.00     0.001 A 
ATOM     68  C   UNL A   1      43.256  34.767  37.503  1.00  0.00     0.001 A 
ATOM     69  C   UNL A   1      42.805  34.384  38.766  1.00  0.00     0.000 A 
ENDBRANCH  50  64
BRANCH  51  70
ATOM     70  C   UNL A   1      40.479  27.083  28.572  1.00  0.00    -0.014 A 
ATOM     71  C   UNL A   1      39.720  25.908  28.682  1.00  0.00     0.009 A 
ATOM     72  C   UNL A   1      41.008  27.440  27.324  1.00  0.00     0.009 A 
ATOM     73  C   UNL A   1      39.516  25.094  27.567  1.00  0.00     0.001 A 
ATOM     74  C   UNL A   1      40.785  26.633  26.206  1.00  0.00     0.001 A 
ATOM     75  C   UNL A   1      40.047  25.458  26.330  1.00  0.00     0.000 A 
ENDBRANCH  51  70
BRANCH  63  76
ATOM     76  C   UNL A   1      45.658  27.294  33.191  1.00  0.00    -0.014 A 
ATOM     77  C   UNL A   1      45.647  26.111  33.946  1.00  0.00     0.009 A 
ATOM     78  C   UNL A   1      46.845  27.690  32.555  1.00  0.00     0.009 A 
ATOM     79  C   UNL A   1      46.811  25.353  34.080  1.00  0.00     0.001 A 
ATOM     80  C   UNL A   1      48.002  26.921  32.678  1.00  0.00     0.001 A 
ATOM     81  C   UNL A   1      47.986  25.757  33.446  1.00  0.00     0.000 A 
ENDBRANCH  63  76
ENDBRANCH  37  38
ENDBRANCH  29  32
ENDBRANCH  27  28
ENDBRANCH  26  27
ENDBRANCH  25  26
ENDBRANCH  24  25
ENDBRANCH   1  24
TORSDOF 17
ENDMDL
