MODEL 1
REMARK VINA RESULT:     -10.9      0.000      0.000
REMARK SMILES O=C(NCCCCCCNC(=O)[C@H]1C[C@H]2CCCC[C@@H]2[N@@H+]1CCn1ccnc1)c1ccc(-c2c3nc(c(-c4ccccc4)c4ccc([nH]4)c(-c4ccccc4)c4nc(c(-c5ccccc5)c5ccc2[nH]5)C=C4)C=C3)cc1
REMARK SMILES IDX 7 1 6 2 5 3 4 4 3 5 1 6 2 7 29 9 30 10 76 11 31 12 75 13
REMARK SMILES IDX 32 14 33 15 34 16 69 17 35 18 74 19 68 20 70 21 36 22 73 23
REMARK SMILES IDX 67 24 66 25 37 27 59 28 44 29 58 30 45 31 48 32 57 33 71 34
REMARK SMILES IDX 46 35 47 36 56 38 72 39 49 40 38 41 39 42 43 43 40 44 42 45
REMARK SMILES IDX 41 46 60 47 61 48 65 49 62 50 64 51 63 52 50 53 51 54 55 55
REMARK SMILES IDX 52 56 54 57 53 58 8 59 9 60 10 61 11 62 12 64 13 65 14 66
REMARK SMILES IDX 21 67 15 68 20 69 16 71 19 72 17 73 18 74 22 75 23 76 24 77
REMARK SMILES IDX 25 78 28 79 26 80 27 81
REMARK H PARENT 3 8 70 26 48 37 10 63 21 70
REMARK Flexibility Score: inf
ROOT
ATOM      1  C   UNL A   1      35.387  23.129  23.372  1.00  0.00     0.002 C 
ENDROOT
BRANCH   1   2
ATOM      2  C   UNL A   1      36.820  22.947  23.887  1.00  0.00     0.002 C 
BRANCH   2   3
ATOM      3  C   UNL A   1      37.159  23.689  25.185  1.00  0.00     0.021 C 
BRANCH   3   4
ATOM      4  C   UNL A   1      37.554  22.782  26.349  1.00  0.00     0.116 C 
BRANCH   4   5
ATOM      5  N   UNL A   1      38.955  22.419  26.357  1.00  0.00    -0.352 N 
ATOM      6  O   UNL A   1      41.143  22.365  26.652  1.00  0.00    -0.269 OA
ATOM      7  C   UNL A   1      40.117  23.055  26.690  1.00  0.00     0.251 C 
ATOM      8  H   UNL A   1      39.107  21.496  26.051  1.00  0.00     0.163 HD
BRANCH   7   9
ATOM      9  C   UNL A   1      40.249  24.499  27.034  1.00  0.00     0.039 A 
ATOM     10  C   UNL A   1      40.591  25.527  26.155  1.00  0.00     0.014 A 
ATOM     11  C   UNL A   1      39.990  24.833  28.380  1.00  0.00     0.014 A 
ATOM     12  C   UNL A   1      40.727  26.836  26.621  1.00  0.00     0.010 A 
ATOM     13  C   UNL A   1      40.119  26.137  28.849  1.00  0.00     0.010 A 
ATOM     14  C   UNL A   1      40.508  27.140  27.970  1.00  0.00    -0.014 A 
BRANCH  14  15
ATOM     15  C   UNL A   1      40.489  28.547  28.370  1.00  0.00     0.031 A 
ATOM     16  C   UNL A   1      41.726  29.296  28.014  1.00  0.00     0.074 A 
ATOM     17  C   UNL A   1      39.438  29.210  28.894  1.00  0.00     0.049 A 
ATOM     18  N   UNL A   1      42.612  29.778  28.821  1.00  0.00    -0.248 NA
ATOM     19  C   UNL A   1      42.071  29.435  26.591  1.00  0.00     0.031 C 
ATOM     20  C   UNL A   1      38.056  28.752  29.041  1.00  0.00     0.029 A 
ATOM     21  N   UNL A   1      39.380  30.504  29.335  1.00  0.00    -0.354 N 
ATOM     22  C   UNL A   1      43.546  30.433  28.024  1.00  0.00     0.074 A 
ATOM     23  C   UNL A   1      43.237  30.079  26.662  1.00  0.00     0.031 C 
ATOM     24  C   UNL A   1      37.262  29.810  29.333  1.00  0.00     0.029 A 
ATOM     25  C   UNL A   1      38.092  30.988  29.532  1.00  0.00     0.049 A 
ATOM     26  H   UNL A   1      40.185  31.047  29.499  1.00  0.00     0.167 HD
ATOM     27  C   UNL A   1      44.374  31.388  28.532  1.00  0.00     0.031 A 
ATOM     28  C   UNL A   1      37.735  32.269  29.802  1.00  0.00     0.031 A 
ATOM     29  C   UNL A   1      44.402  31.366  29.971  1.00  0.00     0.049 A 
ATOM     30  C   UNL A   1      38.923  32.971  30.332  1.00  0.00     0.074 A 
ATOM     31  C   UNL A   1      44.750  30.439  30.932  1.00  0.00     0.029 A 
ATOM     32  N   UNL A   1      43.670  32.329  30.621  1.00  0.00    -0.354 N 
ATOM     33  N   UNL A   1      39.433  32.737  31.504  1.00  0.00    -0.248 NA
ATOM     34  C   UNL A   1      39.790  33.673  29.400  1.00  0.00     0.031 C 
ATOM     35  C   UNL A   1      43.813  30.638  31.988  1.00  0.00     0.029 A 
ATOM     36  C   UNL A   1      42.992  31.711  31.636  1.00  0.00     0.049 A 
ATOM     37  H   UNL A   1      43.639  33.287  30.400  1.00  0.00     0.167 HD
ATOM     38  C   UNL A   1      40.802  32.833  31.311  1.00  0.00     0.074 A 
ATOM     39  C   UNL A   1      40.955  33.527  30.034  1.00  0.00     0.031 C 
ATOM     40  C   UNL A   1      41.667  32.094  32.065  1.00  0.00     0.031 A 
BRANCH  27  41
ATOM     41  C   UNL A   1      44.830  32.603  27.760  1.00  0.00    -0.014 A 
ATOM     42  C   UNL A   1      43.854  33.458  27.212  1.00  0.00     0.009 A 
ATOM     43  C   UNL A   1      46.147  32.767  27.294  1.00  0.00     0.009 A 
ATOM     44  C   UNL A   1      44.165  34.362  26.190  1.00  0.00     0.001 A 
ATOM     45  C   UNL A   1      46.469  33.700  26.304  1.00  0.00     0.001 A 
ATOM     46  C   UNL A   1      45.472  34.474  25.729  1.00  0.00     0.000 A 
ENDBRANCH  27  41
BRANCH  28  47
ATOM     47  C   UNL A   1      36.508  33.017  29.448  1.00  0.00    -0.014 A 
ATOM     48  C   UNL A   1      35.992  32.975  28.141  1.00  0.00     0.009 A 
ATOM     49  C   UNL A   1      35.678  33.527  30.461  1.00  0.00     0.009 A 
ATOM     50  C   UNL A   1      34.677  33.379  27.868  1.00  0.00     0.001 A 
ATOM     51  C   UNL A   1      34.366  33.933  30.189  1.00  0.00     0.001 A 
ATOM     52  C   UNL A   1      33.860  33.841  28.896  1.00  0.00     0.000 A 
ENDBRANCH  28  47
BRANCH  40  53
ATOM     53  C   UNL A   1      41.132  31.410  33.298  1.00  0.00    -0.014 A 
ATOM     54  C   UNL A   1      40.596  30.110  33.295  1.00  0.00     0.009 A 
ATOM     55  C   UNL A   1      41.296  32.059  34.531  1.00  0.00     0.009 A 
ATOM     56  C   UNL A   1      40.202  29.497  34.489  1.00  0.00     0.001 A 
ATOM     57  C   UNL A   1      40.927  31.437  35.724  1.00  0.00     0.001 A 
ATOM     58  C   UNL A   1      40.372  30.159  35.703  1.00  0.00     0.000 A 
ENDBRANCH  40  53
ENDBRANCH  14  15
ENDBRANCH   7   9
ENDBRANCH   4   5
ENDBRANCH   3   4
ENDBRANCH   2   3
ENDBRANCH   1   2
BRANCH   1  59
ATOM     59  C   UNL A   1      34.320  22.295  24.093  1.00  0.00     0.021 C 
BRANCH  59  60
ATOM     60  C   UNL A   1      32.925  22.916  24.072  1.00  0.00     0.116 C 
BRANCH  60  61
ATOM     61  N   UNL A   1      32.413  23.084  25.418  1.00  0.00    -0.351 N 
ATOM     62  C   UNL A   1      32.066  24.213  26.102  1.00  0.00     0.278 C 
ATOM     63  H   UNL A   1      32.298  22.246  25.922  1.00  0.00     0.163 HD
ATOM     64  O   UNL A   1      31.740  24.080  27.285  1.00  0.00    -0.268 OA
BRANCH  62  65
ATOM     65  C   UNL A   1      32.015  25.569  25.369  1.00  0.00     0.274 C 
ATOM     66  C   UNL A   1      31.095  26.523  26.155  1.00  0.00     0.085 C 
ATOM     67  N   UNL A   1      33.366  26.202  25.339  1.00  0.00    -0.321 N 
ATOM     68  C   UNL A   1      31.910  27.798  26.224  1.00  0.00     0.054 C 
ATOM     69  C   UNL A   1      33.328  27.269  26.348  1.00  0.00     0.188 C 
ATOM     70  H   UNL A   1      34.103  25.548  25.604  1.00  0.00     0.349 HD
ATOM     71  C   UNL A   1      31.572  28.796  27.312  1.00  0.00     0.010 C 
ATOM     72  C   UNL A   1      34.386  28.367  26.366  1.00  0.00     0.065 C 
ATOM     73  C   UNL A   1      32.560  29.962  27.229  1.00  0.00     0.001 C 
ATOM     74  C   UNL A   1      34.019  29.505  27.326  1.00  0.00     0.006 C 
BRANCH  67  75
ATOM     75  C   UNL A   1      33.905  26.493  24.001  1.00  0.00     0.285 C 
BRANCH  75  76
ATOM     76  C   UNL A   1      33.032  26.512  22.715  1.00  0.00     0.184 C 
BRANCH  76  77
ATOM     77  N   UNL A   1      31.964  27.483  22.632  1.00  0.00    -0.332 N 
ATOM     78  C   UNL A   1      32.068  28.840  22.743  1.00  0.00     0.107 A 
ATOM     79  C   UNL A   1      30.654  27.201  22.347  1.00  0.00     0.199 A 
ATOM     80  C   UNL A   1      30.772  29.300  22.696  1.00  0.00     0.130 A 
ATOM     81  N   UNL A   1      29.903  28.275  22.429  1.00  0.00    -0.245 NA
ENDBRANCH  76  77
ENDBRANCH  75  76
ENDBRANCH  67  75
ENDBRANCH  62  65
ENDBRANCH  60  61
ENDBRANCH  59  60
ENDBRANCH   1  59
TORSDOF 16
ENDMDL
MODEL 2
REMARK VINA RESULT:     -10.9      2.853      7.944
REMARK SMILES O=C(NCCCCCCNC(=O)[C@H]1C[C@H]2CCCC[C@@H]2[N@@H+]1CCn1ccnc1)c1ccc(-c2c3nc(c(-c4ccccc4)c4ccc([nH]4)c(-c4ccccc4)c4nc(c(-c5ccccc5)c5ccc2[nH]5)C=C4)C=C3)cc1
REMARK SMILES IDX 7 1 6 2 5 3 4 4 3 5 1 6 2 7 29 9 30 10 76 11 31 12 75 13
REMARK SMILES IDX 32 14 33 15 34 16 69 17 35 18 74 19 68 20 70 21 36 22 73 23
REMARK SMILES IDX 67 24 66 25 37 27 59 28 44 29 58 30 45 31 48 32 57 33 71 34
REMARK SMILES IDX 46 35 47 36 56 38 72 39 49 40 38 41 39 42 43 43 40 44 42 45
REMARK SMILES IDX 41 46 60 47 61 48 65 49 62 50 64 51 63 52 50 53 51 54 55 55
REMARK SMILES IDX 52 56 54 57 53 58 8 59 9 60 10 61 11 62 12 64 13 65 14 66
REMARK SMILES IDX 21 67 15 68 20 69 16 71 19 72 17 73 18 74 22 75 23 76 24 77
REMARK SMILES IDX 25 78 28 79 26 80 27 81
REMARK H PARENT 3 8 70 26 48 37 10 63 21 70
REMARK Flexibility Score: inf
ROOT
ATOM      1  C   UNL A   1      32.577  27.006  26.417  1.00  0.00     0.002 C 
ENDROOT
BRANCH   1   2
ATOM      2  C   UNL A   1      33.284  28.069  25.566  1.00  0.00     0.002 C 
BRANCH   2   3
ATOM      3  C   UNL A   1      32.795  29.510  25.762  1.00  0.00     0.021 C 
BRANCH   3   4
ATOM      4  C   UNL A   1      32.780  29.981  27.214  1.00  0.00     0.116 C 
BRANCH   4   5
ATOM      5  N   UNL A   1      33.261  31.335  27.394  1.00  0.00    -0.352 N 
ATOM      6  O   UNL A   1      34.507  33.139  27.654  1.00  0.00    -0.269 OA
ATOM      7  C   UNL A   1      34.472  31.903  27.669  1.00  0.00     0.251 C 
ATOM      8  H   UNL A   1      32.546  32.005  27.294  1.00  0.00     0.163 HD
BRANCH   7   9
ATOM      9  C   UNL A   1      35.714  31.165  28.034  1.00  0.00     0.039 A 
ATOM     10  C   UNL A   1      35.970  29.815  27.797  1.00  0.00     0.014 A 
ATOM     11  C   UNL A   1      36.714  31.930  28.672  1.00  0.00     0.014 A 
ATOM     12  C   UNL A   1      37.163  29.236  28.235  1.00  0.00     0.010 A 
ATOM     13  C   UNL A   1      37.906  31.359  29.108  1.00  0.00     0.010 A 
ATOM     14  C   UNL A   1      38.124  30.003  28.905  1.00  0.00    -0.014 A 
BRANCH  14  15
ATOM     15  C   UNL A   1      39.425  29.394  29.185  1.00  0.00     0.031 A 
ATOM     16  C   UNL A   1      39.659  29.096  30.625  1.00  0.00     0.074 A 
ATOM     17  C   UNL A   1      40.326  28.987  28.267  1.00  0.00     0.049 A 
ATOM     18  N   UNL A   1      40.510  29.662  31.415  1.00  0.00    -0.248 NA
ATOM     19  C   UNL A   1      38.772  28.130  31.290  1.00  0.00     0.031 C 
ATOM     20  C   UNL A   1      40.169  28.907  26.815  1.00  0.00     0.029 A 
ATOM     21  N   UNL A   1      41.573  28.466  28.471  1.00  0.00    -0.354 N 
ATOM     22  C   UNL A   1      40.393  29.011  32.641  1.00  0.00     0.074 A 
ATOM     23  C   UNL A   1      39.224  28.173  32.545  1.00  0.00     0.031 C 
ATOM     24  C   UNL A   1      41.186  28.178  26.295  1.00  0.00     0.029 A 
ATOM     25  C   UNL A   1      42.134  27.861  27.352  1.00  0.00     0.049 A 
ATOM     26  H   UNL A   1      42.036  28.514  29.338  1.00  0.00     0.167 HD
ATOM     27  C   UNL A   1      41.388  29.050  33.569  1.00  0.00     0.031 A 
ATOM     28  C   UNL A   1      43.274  27.125  27.307  1.00  0.00     0.031 A 
ATOM     29  C   UNL A   1      42.351  30.081  33.282  1.00  0.00     0.049 A 
ATOM     30  C   UNL A   1      44.080  27.461  28.500  1.00  0.00     0.074 A 
ATOM     31  C   UNL A   1      42.309  31.455  33.152  1.00  0.00     0.029 A 
ATOM     32  N   UNL A   1      43.538  29.684  32.719  1.00  0.00    -0.354 N 
ATOM     33  N   UNL A   1      44.678  28.603  28.666  1.00  0.00    -0.248 NA
ATOM     34  C   UNL A   1      43.908  26.663  29.703  1.00  0.00     0.031 C 
ATOM     35  C   UNL A   1      43.226  31.750  32.102  1.00  0.00     0.029 A 
ATOM     36  C   UNL A   1      43.816  30.552  31.698  1.00  0.00     0.049 A 
ATOM     37  H   UNL A   1      44.089  28.917  32.998  1.00  0.00     0.167 HD
ATOM     38  C   UNL A   1      44.539  28.874  30.018  1.00  0.00     0.074 A 
ATOM     39  C   UNL A   1      44.167  27.596  30.622  1.00  0.00     0.031 C 
ATOM     40  C   UNL A   1      44.464  30.160  30.468  1.00  0.00     0.031 A 
BRANCH  27  41
ATOM     41  C   UNL A   1      41.724  27.903  34.491  1.00  0.00    -0.014 A 
ATOM     42  C   UNL A   1      41.841  28.161  35.872  1.00  0.00     0.009 A 
ATOM     43  C   UNL A   1      42.226  26.671  34.035  1.00  0.00     0.009 A 
ATOM     44  C   UNL A   1      42.505  27.275  36.727  1.00  0.00     0.001 A 
ATOM     45  C   UNL A   1      42.851  25.764  34.895  1.00  0.00     0.001 A 
ATOM     46  C   UNL A   1      43.020  26.081  36.236  1.00  0.00     0.000 A 
ENDBRANCH  27  41
BRANCH  28  47
ATOM     47  C   UNL A   1      43.649  25.990  26.435  1.00  0.00    -0.014 A 
ATOM     48  C   UNL A   1      44.790  26.059  25.616  1.00  0.00     0.009 A 
ATOM     49  C   UNL A   1      43.061  24.729  26.629  1.00  0.00     0.009 A 
ATOM     50  C   UNL A   1      45.350  24.902  25.056  1.00  0.00     0.001 A 
ATOM     51  C   UNL A   1      43.618  23.574  26.068  1.00  0.00     0.001 A 
ATOM     52  C   UNL A   1      44.773  23.658  25.297  1.00  0.00     0.000 A 
ENDBRANCH  28  47
BRANCH  40  53
ATOM     53  C   UNL A   1      44.835  31.270  29.517  1.00  0.00    -0.014 A 
ATOM     54  C   UNL A   1      43.895  31.990  28.759  1.00  0.00     0.009 A 
ATOM     55  C   UNL A   1      46.174  31.687  29.486  1.00  0.00     0.009 A 
ATOM     56  C   UNL A   1      44.294  33.071  27.965  1.00  0.00     0.001 A 
ATOM     57  C   UNL A   1      46.568  32.781  28.715  1.00  0.00     0.001 A 
ATOM     58  C   UNL A   1      45.629  33.468  27.948  1.00  0.00     0.000 A 
ENDBRANCH  40  53
ENDBRANCH  14  15
ENDBRANCH   7   9
ENDBRANCH   4   5
ENDBRANCH   3   4
ENDBRANCH   2   3
ENDBRANCH   1   2
BRANCH   1  59
ATOM     59  C   UNL A   1      31.077  26.841  26.145  1.00  0.00     0.021 C 
BRANCH  59  60
ATOM     60  C   UNL A   1      30.650  25.402  25.862  1.00  0.00     0.116 C 
BRANCH  60  61
ATOM     61  N   UNL A   1      31.194  24.496  26.854  1.00  0.00    -0.351 N 
ATOM     62  C   UNL A   1      32.072  23.459  26.725  1.00  0.00     0.278 C 
ATOM     63  H   UNL A   1      30.878  24.655  27.773  1.00  0.00     0.163 HD
ATOM     64  O   UNL A   1      32.302  22.785  27.732  1.00  0.00    -0.268 OA
BRANCH  62  65
ATOM     65  C   UNL A   1      32.790  23.225  25.380  1.00  0.00     0.274 C 
ATOM     66  C   UNL A   1      34.007  24.167  25.298  1.00  0.00     0.085 C 
ATOM     67  N   UNL A   1      33.318  21.832  25.301  1.00  0.00    -0.321 N 
ATOM     68  C   UNL A   1      35.116  23.246  24.834  1.00  0.00     0.054 C 
ATOM     69  C   UNL A   1      34.765  21.942  25.528  1.00  0.00     0.188 C 
ATOM     70  H   UNL A   1      32.932  21.232  26.030  1.00  0.00     0.349 HD
ATOM     71  C   UNL A   1      36.545  23.671  25.098  1.00  0.00     0.010 C 
ATOM     72  C   UNL A   1      35.702  20.793  25.170  1.00  0.00     0.065 C 
ATOM     73  C   UNL A   1      37.482  22.564  24.606  1.00  0.00     0.001 C 
ATOM     74  C   UNL A   1      37.177  21.206  25.248  1.00  0.00     0.006 C 
BRANCH  67  75
ATOM     75  C   UNL A   1      32.823  21.026  24.175  1.00  0.00     0.285 C 
BRANCH  75  76
ATOM     76  C   UNL A   1      32.178  19.622  24.348  1.00  0.00     0.184 C 
BRANCH  76  77
ATOM     77  N   UNL A   1      32.950  18.465  23.953  1.00  0.00    -0.332 N 
ATOM     78  C   UNL A   1      33.862  17.782  24.706  1.00  0.00     0.107 A 
ATOM     79  C   UNL A   1      32.837  17.805  22.759  1.00  0.00     0.199 A 
ATOM     80  C   UNL A   1      34.390  16.838  23.853  1.00  0.00     0.130 A 
ATOM     81  N   UNL A   1      33.731  16.848  22.652  1.00  0.00    -0.245 NA
ENDBRANCH  76  77
ENDBRANCH  75  76
ENDBRANCH  67  75
ENDBRANCH  62  65
ENDBRANCH  60  61
ENDBRANCH  59  60
ENDBRANCH   1  59
TORSDOF 16
ENDMDL
MODEL 3
REMARK VINA RESULT:     -10.9      2.487      7.756
REMARK SMILES O=C(NCCCCCCNC(=O)[C@H]1C[C@H]2CCCC[C@@H]2[N@@H+]1CCn1ccnc1)c1ccc(-c2c3nc(c(-c4ccccc4)c4ccc([nH]4)c(-c4ccccc4)c4nc(c(-c5ccccc5)c5ccc2[nH]5)C=C4)C=C3)cc1
REMARK SMILES IDX 7 1 6 2 5 3 4 4 3 5 1 6 2 7 29 9 30 10 76 11 31 12 75 13
REMARK SMILES IDX 32 14 33 15 34 16 69 17 35 18 74 19 68 20 70 21 36 22 73 23
REMARK SMILES IDX 67 24 66 25 37 27 59 28 44 29 58 30 45 31 48 32 57 33 71 34
REMARK SMILES IDX 46 35 47 36 56 38 72 39 49 40 38 41 39 42 43 43 40 44 42 45
REMARK SMILES IDX 41 46 60 47 61 48 65 49 62 50 64 51 63 52 50 53 51 54 55 55
REMARK SMILES IDX 52 56 54 57 53 58 8 59 9 60 10 61 11 62 12 64 13 65 14 66
REMARK SMILES IDX 21 67 15 68 20 69 16 71 19 72 17 73 18 74 22 75 23 76 24 77
REMARK SMILES IDX 25 78 28 79 26 80 27 81
REMARK H PARENT 3 8 70 26 48 37 10 63 21 70
REMARK Flexibility Score: inf
ROOT
ATOM      1  C   UNL A   1      34.866  32.267  27.999  1.00  0.00     0.002 C 
ENDROOT
BRANCH   1   2
ATOM      2  C   UNL A   1      34.591  33.777  27.986  1.00  0.00     0.002 C 
BRANCH   2   3
ATOM      3  C   UNL A   1      33.228  34.209  28.540  1.00  0.00     0.021 C 
BRANCH   3   4
ATOM      4  C   UNL A   1      33.229  35.573  29.229  1.00  0.00     0.116 C 
BRANCH   4   5
ATOM      5  N   UNL A   1      32.955  35.510  30.649  1.00  0.00    -0.352 N 
ATOM      6  O   UNL A   1      33.062  35.180  32.830  1.00  0.00    -0.269 OA
ATOM      7  C   UNL A   1      33.557  34.924  31.725  1.00  0.00     0.251 C 
ATOM      8  H   UNL A   1      32.142  36.008  30.898  1.00  0.00     0.163 HD
BRANCH   7   9
ATOM      9  C   UNL A   1      34.705  33.975  31.669  1.00  0.00     0.039 A 
ATOM     10  C   UNL A   1      34.623  32.583  31.668  1.00  0.00     0.014 A 
ATOM     11  C   UNL A   1      35.984  34.566  31.602  1.00  0.00     0.014 A 
ATOM     12  C   UNL A   1      35.785  31.808  31.660  1.00  0.00     0.010 A 
ATOM     13  C   UNL A   1      37.145  33.800  31.589  1.00  0.00     0.010 A 
ATOM     14  C   UNL A   1      37.046  32.415  31.637  1.00  0.00    -0.014 A 
BRANCH  14  15
ATOM     15  C   UNL A   1      38.222  31.565  31.450  1.00  0.00     0.031 A 
ATOM     16  C   UNL A   1      38.934  31.227  32.714  1.00  0.00     0.074 A 
ATOM     17  C   UNL A   1      38.611  30.989  30.294  1.00  0.00     0.049 A 
ATOM     18  N   UNL A   1      40.110  31.616  33.080  1.00  0.00    -0.248 NA
ATOM     19  C   UNL A   1      38.213  30.453  33.735  1.00  0.00     0.031 C 
ATOM     20  C   UNL A   1      37.896  30.941  29.018  1.00  0.00     0.029 A 
ATOM     21  N   UNL A   1      39.725  30.234  30.051  1.00  0.00    -0.354 N 
ATOM     22  C   UNL A   1      40.358  31.001  34.304  1.00  0.00     0.074 A 
ATOM     23  C   UNL A   1      39.112  30.408  34.719  1.00  0.00     0.031 C 
ATOM     24  C   UNL A   1      38.486  30.027  28.210  1.00  0.00     0.029 A 
ATOM     25  C   UNL A   1      39.694  29.532  28.852  1.00  0.00     0.049 A 
ATOM     26  H   UNL A   1      40.486  30.192  30.674  1.00  0.00     0.167 HD
ATOM     27  C   UNL A   1      41.624  30.845  34.783  1.00  0.00     0.031 A 
ATOM     28  C   UNL A   1      40.576  28.587  28.437  1.00  0.00     0.031 A 
ATOM     29  C   UNL A   1      42.570  31.668  34.077  1.00  0.00     0.049 A 
ATOM     30  C   UNL A   1      41.825  28.760  29.208  1.00  0.00     0.074 A 
ATOM     31  C   UNL A   1      42.730  33.023  33.870  1.00  0.00     0.029 A 
ATOM     32  N   UNL A   1      43.357  31.047  33.139  1.00  0.00    -0.354 N 
ATOM     33  N   UNL A   1      42.635  29.763  29.049  1.00  0.00    -0.248 NA
ATOM     34  C   UNL A   1      41.988  28.011  30.443  1.00  0.00     0.031 C 
ATOM     35  C   UNL A   1      43.210  33.134  32.532  1.00  0.00     0.029 A 
ATOM     36  C   UNL A   1      43.373  31.843  32.027  1.00  0.00     0.049 A 
ATOM     37  H   UNL A   1      43.825  30.187  33.247  1.00  0.00     0.167 HD
ATOM     38  C   UNL A   1      43.079  30.056  30.329  1.00  0.00     0.074 A 
ATOM     39  C   UNL A   1      42.744  28.876  31.124  1.00  0.00     0.031 C 
ATOM     40  C   UNL A   1      43.415  31.332  30.676  1.00  0.00     0.031 A 
BRANCH  27  41
ATOM     41  C   UNL A   1      42.076  29.655  35.594  1.00  0.00    -0.014 A 
ATOM     42  C   UNL A   1      43.158  29.817  36.481  1.00  0.00     0.009 A 
ATOM     43  C   UNL A   1      41.693  28.334  35.299  1.00  0.00     0.009 A 
ATOM     44  C   UNL A   1      43.872  28.718  36.971  1.00  0.00     0.001 A 
ATOM     45  C   UNL A   1      42.377  27.233  35.822  1.00  0.00     0.001 A 
ATOM     46  C   UNL A   1      43.488  27.425  36.632  1.00  0.00     0.000 A 
ENDBRANCH  27  41
BRANCH  28  47
ATOM     47  C   UNL A   1      40.375  27.401  27.575  1.00  0.00    -0.014 A 
ATOM     48  C   UNL A   1      41.214  27.164  26.472  1.00  0.00     0.009 A 
ATOM     49  C   UNL A   1      39.555  26.346  28.010  1.00  0.00     0.009 A 
ATOM     50  C   UNL A   1      41.266  25.903  25.861  1.00  0.00     0.001 A 
ATOM     51  C   UNL A   1      39.606  25.087  27.399  1.00  0.00     0.001 A 
ATOM     52  C   UNL A   1      40.475  24.860  26.337  1.00  0.00     0.000 A 
ENDBRANCH  28  47
BRANCH  40  53
ATOM     53  C   UNL A   1      43.585  32.349  29.575  1.00  0.00    -0.014 A 
ATOM     54  C   UNL A   1      42.689  33.409  29.351  1.00  0.00     0.009 A 
ATOM     55  C   UNL A   1      44.766  32.304  28.819  1.00  0.00     0.009 A 
ATOM     56  C   UNL A   1      42.953  34.373  28.372  1.00  0.00     0.001 A 
ATOM     57  C   UNL A   1      45.041  33.280  27.860  1.00  0.00     0.001 A 
ATOM     58  C   UNL A   1      44.131  34.310  27.630  1.00  0.00     0.000 A 
ENDBRANCH  40  53
ENDBRANCH  14  15
ENDBRANCH   7   9
ENDBRANCH   4   5
ENDBRANCH   3   4
ENDBRANCH   2   3
ENDBRANCH   1   2
BRANCH   1  59
ATOM     59  C   UNL A   1      33.692  31.384  27.558  1.00  0.00     0.021 C 
BRANCH  59  60
ATOM     60  C   UNL A   1      34.077  29.932  27.280  1.00  0.00     0.116 C 
BRANCH  60  61
ATOM     61  N   UNL A   1      33.060  29.024  27.774  1.00  0.00    -0.351 N 
ATOM     62  C   UNL A   1      32.166  28.240  27.104  1.00  0.00     0.278 C 
ATOM     63  H   UNL A   1      33.006  28.963  28.756  1.00  0.00     0.163 HD
ATOM     64  O   UNL A   1      31.339  27.621  27.779  1.00  0.00    -0.268 OA
BRANCH  62  65
ATOM     65  C   UNL A   1      32.272  28.094  25.572  1.00  0.00     0.274 C 
ATOM     66  C   UNL A   1      33.568  27.330  25.237  1.00  0.00     0.085 C 
ATOM     67  N   UNL A   1      31.142  27.278  25.042  1.00  0.00    -0.321 N 
ATOM     68  C   UNL A   1      33.099  26.295  24.235  1.00  0.00     0.054 C 
ATOM     69  C   UNL A   1      31.709  25.955  24.746  1.00  0.00     0.188 C 
ATOM     70  H   UNL A   1      30.401  27.151  25.733  1.00  0.00     0.349 HD
ATOM     71  C   UNL A   1      33.955  25.061  24.038  1.00  0.00     0.010 C 
ATOM     72  C   UNL A   1      30.963  24.964  23.860  1.00  0.00     0.065 C 
ATOM     73  C   UNL A   1      33.257  24.136  23.039  1.00  0.00     0.001 C 
ATOM     74  C   UNL A   1      31.836  23.763  23.476  1.00  0.00     0.006 C 
BRANCH  67  75
ATOM     75  C   UNL A   1      30.292  27.939  24.040  1.00  0.00     0.285 C 
BRANCH  75  76
ATOM     76  C   UNL A   1      30.648  29.304  23.386  1.00  0.00     0.184 C 
BRANCH  76  77
ATOM     77  N   UNL A   1      29.562  30.149  22.942  1.00  0.00    -0.332 N 
ATOM     78  C   UNL A   1      28.944  31.143  23.647  1.00  0.00     0.107 A 
ATOM     79  C   UNL A   1      29.010  30.142  21.689  1.00  0.00     0.199 A 
ATOM     80  C   UNL A   1      27.920  31.571  22.833  1.00  0.00     0.130 A 
ATOM     81  N   UNL A   1      27.983  30.956  21.611  1.00  0.00    -0.245 NA
ENDBRANCH  76  77
ENDBRANCH  75  76
ENDBRANCH  67  75
ENDBRANCH  62  65
ENDBRANCH  60  61
ENDBRANCH  59  60
ENDBRANCH   1  59
TORSDOF 16
ENDMDL
