MODEL 1
REMARK VINA RESULT:     -12.1      0.000      0.000
REMARK SMILES CN1C(=O)C[C@@H](C(=O)NCCCCCCNC(=O)c2ccc(-c3c4nc(c(-c5ccccc5)c5ccc([nH]5)c(-c5ccccc5)c5nc(c(-c6ccccc6)c6ccc3[nH]6)C=C5)C=C4)cc2)C12CCN(c1ccc(Cl)cn1)CC2
REMARK SMILES IDX 13 1 12 2 11 3 10 4 9 5 7 6 8 7 6 9 1 10 2 11 3 12 67 13
REMARK SMILES IDX 4 14 5 15 68 16 79 17 69 18 78 19 70 20 71 21 72 22 77 23
REMARK SMILES IDX 73 24 76 25 74 26 75 27 14 28 15 29 16 30 17 31 18 33 19 34
REMARK SMILES IDX 20 35 66 36 21 37 65 38 22 39 23 40 24 41 59 42 25 43 64 44
REMARK SMILES IDX 58 45 60 46 26 47 63 48 57 49 56 50 27 52 49 53 34 54 48 55
REMARK SMILES IDX 35 56 38 57 47 58 61 59 36 60 37 61 46 63 62 64 39 65 28 66
REMARK SMILES IDX 29 67 33 68 30 69 32 70 31 71 50 72 51 73 55 74 52 75 54 76
REMARK SMILES IDX 53 77 40 78 41 79 45 80 42 81 44 82 43 83
REMARK H PARENT 9 8 16 32 60 51 38 62
REMARK Flexibility Score: inf
ROOT
ATOM      1  C   UNL A   1      32.033  28.830  25.267  1.00  0.00     0.002 C 
ENDROOT
BRANCH   1   2
ATOM      2  C   UNL A   1      30.946  27.757  25.288  1.00  0.00     0.002 C 
BRANCH   2   3
ATOM      3  C   UNL A   1      30.662  27.113  23.932  1.00  0.00     0.021 C 
BRANCH   3   4
ATOM      4  C   UNL A   1      30.728  25.583  23.923  1.00  0.00     0.116 C 
BRANCH   4   5
ATOM      5  N   UNL A   1      31.035  25.031  25.227  1.00  0.00    -0.356 N 
ATOM      6  C   UNL A   1      32.117  24.393  25.731  1.00  0.00     0.226 C 
ATOM      7  O   UNL A   1      32.034  24.043  26.915  1.00  0.00    -0.275 OA
ATOM      8  H   UNL A   1      30.307  25.142  25.880  1.00  0.00     0.163 HD
BRANCH   6   9
ATOM      9  C   UNL A   1      33.403  24.075  24.962  1.00  0.00     0.113 C 
ATOM     10  C   UNL A   1      33.064  23.361  21.302  1.00  0.00     0.147 C 
ATOM     11  N   UNL A   1      33.405  23.841  22.629  1.00  0.00    -0.339 N 
ATOM     12  C   UNL A   1      33.835  25.140  22.861  1.00  0.00     0.223 C 
ATOM     13  C   UNL A   1      33.378  23.005  23.842  1.00  0.00     0.058 C 
ATOM     14  O   UNL A   1      33.996  26.013  22.024  1.00  0.00    -0.275 OA
ATOM     15  C   UNL A   1      34.033  25.322  24.338  1.00  0.00     0.116 C 
ATOM     16  C   UNL A   1      32.158  22.065  23.885  1.00  0.00     0.051 C 
ATOM     17  C   UNL A   1      34.682  22.142  23.886  1.00  0.00     0.051 C 
ATOM     18  C   UNL A   1      32.215  21.092  25.047  1.00  0.00     0.120 C 
ATOM     19  C   UNL A   1      34.676  21.058  24.981  1.00  0.00     0.120 C 
ATOM     20  N   UNL A   1      33.429  20.326  24.867  1.00  0.00    -0.356 N 
BRANCH  20  21
ATOM     21  C   UNL A   1      33.376  18.959  25.000  1.00  0.00     0.128 A 
ATOM     22  C   UNL A   1      34.374  18.176  24.408  1.00  0.00     0.048 A 
ATOM     23  N   UNL A   1      32.375  18.397  25.705  1.00  0.00    -0.238 NA
ATOM     24  C   UNL A   1      34.339  16.788  24.517  1.00  0.00     0.026 A 
ATOM     25  C   UNL A   1      32.340  17.041  25.773  1.00  0.00     0.134 A 
ATOM     26  C   UNL A   1      33.289  16.207  25.204  1.00  0.00     0.059 A 
ATOM     27  Cl  UNL A   1      33.179  14.502  25.345  1.00  0.00    -0.083 Cl
ENDBRANCH  20  21
ENDBRANCH   6   9
ENDBRANCH   4   5
ENDBRANCH   3   4
ENDBRANCH   2   3
ENDBRANCH   1   2
BRANCH   1  28
ATOM     28  C   UNL A   1      33.389  28.377  25.813  1.00  0.00     0.021 C 
BRANCH  28  29
ATOM     29  C   UNL A   1      33.576  28.601  27.310  1.00  0.00     0.116 C 
BRANCH  29  30
ATOM     30  N   UNL A   1      33.567  30.012  27.655  1.00  0.00    -0.352 N 
ATOM     31  C   UNL A   1      34.544  30.744  28.279  1.00  0.00     0.251 C 
ATOM     32  H   UNL A   1      32.752  30.508  27.409  1.00  0.00     0.163 HD
ATOM     33  O   UNL A   1      34.320  31.879  28.689  1.00  0.00    -0.269 OA
BRANCH  31  34
ATOM     34  C   UNL A   1      35.875  30.137  28.466  1.00  0.00     0.039 A 
ATOM     35  C   UNL A   1      36.797  30.179  27.418  1.00  0.00     0.014 A 
ATOM     36  C   UNL A   1      36.216  29.565  29.695  1.00  0.00     0.014 A 
ATOM     37  C   UNL A   1      38.092  29.698  27.625  1.00  0.00     0.010 A 
ATOM     38  C   UNL A   1      37.523  29.152  29.919  1.00  0.00     0.010 A 
ATOM     39  C   UNL A   1      38.473  29.214  28.887  1.00  0.00    -0.014 A 
BRANCH  39  40
ATOM     40  C   UNL A   1      39.855  28.750  29.160  1.00  0.00     0.031 A 
ATOM     41  C   UNL A   1      40.855  29.705  29.749  1.00  0.00     0.074 A 
ATOM     42  C   UNL A   1      40.233  27.506  28.802  1.00  0.00     0.049 A 
ATOM     43  N   UNL A   1      42.141  29.549  29.931  1.00  0.00    -0.248 NA
ATOM     44  C   UNL A   1      40.344  31.021  30.169  1.00  0.00     0.031 C 
ATOM     45  C   UNL A   1      39.362  26.491  28.206  1.00  0.00     0.029 A 
ATOM     46  N   UNL A   1      41.458  26.893  28.872  1.00  0.00    -0.354 N 
ATOM     47  C   UNL A   1      42.593  30.746  30.469  1.00  0.00     0.074 A 
ATOM     48  C   UNL A   1      41.456  31.638  30.536  1.00  0.00     0.031 C 
ATOM     49  C   UNL A   1      40.079  25.379  27.975  1.00  0.00     0.029 A 
ATOM     50  C   UNL A   1      41.467  25.619  28.357  1.00  0.00     0.049 A 
ATOM     51  H   UNL A   1      42.257  27.325  29.255  1.00  0.00     0.167 HD
ATOM     52  C   UNL A   1      43.838  31.069  30.892  1.00  0.00     0.031 A 
ATOM     53  C   UNL A   1      42.483  24.752  28.190  1.00  0.00     0.031 A 
ATOM     54  C   UNL A   1      44.967  30.180  30.826  1.00  0.00     0.049 A 
ATOM     55  C   UNL A   1      43.869  25.155  28.615  1.00  0.00     0.074 A 
ATOM     56  C   UNL A   1      46.264  30.404  31.250  1.00  0.00     0.029 A 
ATOM     57  N   UNL A   1      44.928  28.897  30.305  1.00  0.00    -0.354 N 
ATOM     58  N   UNL A   1      44.273  26.277  29.163  1.00  0.00    -0.248 NA
ATOM     59  C   UNL A   1      44.941  24.171  28.404  1.00  0.00     0.031 C 
ATOM     60  C   UNL A   1      47.024  29.273  30.940  1.00  0.00     0.029 A 
ATOM     61  C   UNL A   1      46.186  28.323  30.380  1.00  0.00     0.049 A 
ATOM     62  H   UNL A   1      44.127  28.459  29.936  1.00  0.00     0.167 HD
ATOM     63  C   UNL A   1      45.632  26.116  29.396  1.00  0.00     0.074 A 
ATOM     64  C   UNL A   1      45.984  24.788  28.940  1.00  0.00     0.031 C 
ATOM     65  C   UNL A   1      46.511  26.991  29.941  1.00  0.00     0.031 A 
BRANCH  52  66
ATOM     66  C   UNL A   1      44.041  32.444  31.464  1.00  0.00    -0.014 A 
ATOM     67  C   UNL A   1      44.385  33.527  30.640  1.00  0.00     0.009 A 
ATOM     68  C   UNL A   1      43.844  32.670  32.835  1.00  0.00     0.009 A 
ATOM     69  C   UNL A   1      44.564  34.800  31.182  1.00  0.00     0.001 A 
ATOM     70  C   UNL A   1      43.993  33.951  33.370  1.00  0.00     0.001 A 
ATOM     71  C   UNL A   1      44.361  35.012  32.544  1.00  0.00     0.000 A 
ENDBRANCH  52  66
BRANCH  53  72
ATOM     72  C   UNL A   1      42.241  23.416  27.579  1.00  0.00    -0.014 A 
ATOM     73  C   UNL A   1      42.416  23.220  26.200  1.00  0.00     0.009 A 
ATOM     74  C   UNL A   1      41.800  22.340  28.365  1.00  0.00     0.009 A 
ATOM     75  C   UNL A   1      42.118  21.986  25.616  1.00  0.00     0.001 A 
ATOM     76  C   UNL A   1      41.535  21.098  27.783  1.00  0.00     0.001 A 
ATOM     77  C   UNL A   1      41.681  20.926  26.408  1.00  0.00     0.000 A 
ENDBRANCH  53  72
BRANCH  65  78
ATOM     78  C   UNL A   1      47.927  26.526  30.134  1.00  0.00    -0.014 A 
ATOM     79  C   UNL A   1      48.327  25.857  31.300  1.00  0.00     0.009 A 
ATOM     80  C   UNL A   1      48.856  26.699  29.094  1.00  0.00     0.009 A 
ATOM     81  C   UNL A   1      49.637  25.390  31.429  1.00  0.00     0.001 A 
ATOM     82  C   UNL A   1      50.155  26.205  29.215  1.00  0.00     0.001 A 
ATOM     83  C   UNL A   1      50.546  25.557  30.385  1.00  0.00     0.000 A 
ENDBRANCH  65  78
ENDBRANCH  39  40
ENDBRANCH  31  34
ENDBRANCH  29  30
ENDBRANCH  28  29
ENDBRANCH   1  28
TORSDOF 14
ENDMDL
MODEL 2
REMARK VINA RESULT:     -11.7      2.648      6.969
REMARK SMILES CN1C(=O)C[C@@H](C(=O)NCCCCCCNC(=O)c2ccc(-c3c4nc(c(-c5ccccc5)c5ccc([nH]5)c(-c5ccccc5)c5nc(c(-c6ccccc6)c6ccc3[nH]6)C=C5)C=C4)cc2)C12CCN(c1ccc(Cl)cn1)CC2
REMARK SMILES IDX 13 1 12 2 11 3 10 4 9 5 7 6 8 7 6 9 1 10 2 11 3 12 67 13
REMARK SMILES IDX 4 14 5 15 68 16 79 17 69 18 78 19 70 20 71 21 72 22 77 23
REMARK SMILES IDX 73 24 76 25 74 26 75 27 14 28 15 29 16 30 17 31 18 33 19 34
REMARK SMILES IDX 20 35 66 36 21 37 65 38 22 39 23 40 24 41 59 42 25 43 64 44
REMARK SMILES IDX 58 45 60 46 26 47 63 48 57 49 56 50 27 52 49 53 34 54 48 55
REMARK SMILES IDX 35 56 38 57 47 58 61 59 36 60 37 61 46 63 62 64 39 65 28 66
REMARK SMILES IDX 29 67 33 68 30 69 32 70 31 71 50 72 51 73 55 74 52 75 54 76
REMARK SMILES IDX 53 77 40 78 41 79 45 80 42 81 44 82 43 83
REMARK H PARENT 9 8 16 32 60 51 38 62
REMARK Flexibility Score: inf
ROOT
ATOM      1  C   UNL A   1      31.965  29.439  25.687  1.00  0.00     0.002 C 
ENDROOT
BRANCH   1   2
ATOM      2  C   UNL A   1      33.468  29.239  25.501  1.00  0.00     0.002 C 
BRANCH   2   3
ATOM      3  C   UNL A   1      33.861  28.551  24.196  1.00  0.00     0.021 C 
BRANCH   3   4
ATOM      4  C   UNL A   1      32.708  28.332  23.213  1.00  0.00     0.116 C 
BRANCH   4   5
ATOM      5  N   UNL A   1      33.074  27.468  22.109  1.00  0.00    -0.356 N 
ATOM      6  C   UNL A   1      32.803  26.174  21.817  1.00  0.00     0.226 C 
ATOM      7  O   UNL A   1      33.294  25.745  20.765  1.00  0.00    -0.275 OA
ATOM      8  H   UNL A   1      33.634  27.913  21.433  1.00  0.00     0.163 HD
BRANCH   6   9
ATOM      9  C   UNL A   1      31.958  25.225  22.671  1.00  0.00     0.113 C 
ATOM     10  C   UNL A   1      31.809  25.924  26.347  1.00  0.00     0.147 C 
ATOM     11  N   UNL A   1      31.561  25.653  24.943  1.00  0.00    -0.339 N 
ATOM     12  C   UNL A   1      30.428  26.111  24.287  1.00  0.00     0.223 C 
ATOM     13  C   UNL A   1      32.445  24.838  24.091  1.00  0.00     0.058 C 
ATOM     14  O   UNL A   1      29.516  26.759  24.776  1.00  0.00    -0.275 OA
ATOM     15  C   UNL A   1      30.519  25.716  22.841  1.00  0.00     0.116 C 
ATOM     16  C   UNL A   1      33.938  25.116  24.350  1.00  0.00     0.051 C 
ATOM     17  C   UNL A   1      32.157  23.326  24.370  1.00  0.00     0.051 C 
ATOM     18  C   UNL A   1      34.846  24.165  23.595  1.00  0.00     0.120 C 
ATOM     19  C   UNL A   1      33.169  22.366  23.715  1.00  0.00     0.120 C 
ATOM     20  N   UNL A   1      34.500  22.837  24.050  1.00  0.00    -0.356 N 
BRANCH  20  21
ATOM     21  C   UNL A   1      35.509  21.970  24.394  1.00  0.00     0.128 A 
ATOM     22  C   UNL A   1      36.829  22.434  24.423  1.00  0.00     0.048 A 
ATOM     23  N   UNL A   1      35.212  20.694  24.708  1.00  0.00    -0.238 NA
ATOM     24  C   UNL A   1      37.872  21.574  24.756  1.00  0.00     0.026 A 
ATOM     25  C   UNL A   1      36.246  19.863  24.999  1.00  0.00     0.134 A 
ATOM     26  C   UNL A   1      37.575  20.253  25.037  1.00  0.00     0.059 A 
ATOM     27  Cl  UNL A   1      38.822  19.143  25.426  1.00  0.00    -0.083 Cl
ENDBRANCH  20  21
ENDBRANCH   6   9
ENDBRANCH   4   5
ENDBRANCH   3   4
ENDBRANCH   2   3
ENDBRANCH   1   2
BRANCH   1  28
ATOM     28  C   UNL A   1      31.569  30.790  26.286  1.00  0.00     0.021 C 
BRANCH  28  29
ATOM     29  C   UNL A   1      32.696  31.517  27.012  1.00  0.00     0.116 C 
BRANCH  29  30
ATOM     30  N   UNL A   1      32.348  32.894  27.318  1.00  0.00    -0.352 N 
ATOM     31  C   UNL A   1      32.999  33.775  28.143  1.00  0.00     0.251 C 
ATOM     32  H   UNL A   1      31.539  33.240  26.874  1.00  0.00     0.163 HD
ATOM     33  O   UNL A   1      32.480  34.839  28.466  1.00  0.00    -0.269 OA
BRANCH  31  34
ATOM     34  C   UNL A   1      34.334  33.414  28.655  1.00  0.00     0.039 A 
ATOM     35  C   UNL A   1      34.436  32.658  29.824  1.00  0.00     0.014 A 
ATOM     36  C   UNL A   1      35.479  33.794  27.948  1.00  0.00     0.014 A 
ATOM     37  C   UNL A   1      35.692  32.227  30.254  1.00  0.00     0.010 A 
ATOM     38  C   UNL A   1      36.719  33.306  28.339  1.00  0.00     0.010 A 
ATOM     39  C   UNL A   1      36.838  32.519  29.496  1.00  0.00    -0.014 A 
BRANCH  39  40
ATOM     40  C   UNL A   1      38.181  32.028  29.891  1.00  0.00     0.031 A 
ATOM     41  C   UNL A   1      38.655  30.689  29.399  1.00  0.00     0.074 A 
ATOM     42  C   UNL A   1      38.933  32.739  30.753  1.00  0.00     0.049 A 
ATOM     43  N   UNL A   1      39.724  30.014  29.736  1.00  0.00    -0.248 NA
ATOM     44  C   UNL A   1      37.800  30.007  28.412  1.00  0.00     0.031 C 
ATOM     45  C   UNL A   1      38.578  34.043  31.316  1.00  0.00     0.029 A 
ATOM     46  N   UNL A   1      40.148  32.452  31.321  1.00  0.00    -0.354 N 
ATOM     47  C   UNL A   1      39.661  28.828  29.018  1.00  0.00     0.074 A 
ATOM     48  C   UNL A   1      38.426  28.849  28.267  1.00  0.00     0.031 C 
ATOM     49  C   UNL A   1      39.559  34.448  32.140  1.00  0.00     0.029 A 
ATOM     50  C   UNL A   1      40.584  33.411  32.204  1.00  0.00     0.049 A 
ATOM     51  H   UNL A   1      40.661  31.636  31.117  1.00  0.00     0.167 HD
ATOM     52  C   UNL A   1      40.563  27.819  28.969  1.00  0.00     0.031 A 
ATOM     53  C   UNL A   1      41.675  33.441  32.994  1.00  0.00     0.031 A 
ATOM     54  C   UNL A   1      41.791  27.799  29.716  1.00  0.00     0.049 A 
ATOM     55  C   UNL A   1      42.633  32.280  32.964  1.00  0.00     0.074 A 
ATOM     56  C   UNL A   1      42.782  26.834  29.718  1.00  0.00     0.029 A 
ATOM     57  N   UNL A   1      42.196  28.794  30.591  1.00  0.00    -0.354 N 
ATOM     58  N   UNL A   1      42.582  31.184  32.247  1.00  0.00    -0.248 NA
ATOM     59  C   UNL A   1      43.803  32.364  33.851  1.00  0.00     0.031 C 
ATOM     60  C   UNL A   1      43.765  27.221  30.633  1.00  0.00     0.029 A 
ATOM     61  C   UNL A   1      43.415  28.457  31.153  1.00  0.00     0.049 A 
ATOM     62  H   UNL A   1      41.692  29.617  30.785  1.00  0.00     0.167 HD
ATOM     63  C   UNL A   1      43.729  30.469  32.566  1.00  0.00     0.074 A 
ATOM     64  C   UNL A   1      44.461  31.258  33.534  1.00  0.00     0.031 C 
ATOM     65  C   UNL A   1      44.140  29.265  32.098  1.00  0.00     0.031 A 
BRANCH  52  66
ATOM     66  C   UNL A   1      40.249  26.651  28.076  1.00  0.00    -0.014 A 
ATOM     67  C   UNL A   1      40.794  26.560  26.785  1.00  0.00     0.009 A 
ATOM     68  C   UNL A   1      39.434  25.608  28.544  1.00  0.00     0.009 A 
ATOM     69  C   UNL A   1      40.500  25.468  25.968  1.00  0.00     0.001 A 
ATOM     70  C   UNL A   1      39.167  24.502  27.735  1.00  0.00     0.001 A 
ATOM     71  C   UNL A   1      39.693  24.437  26.446  1.00  0.00     0.000 A 
ENDBRANCH  52  66
BRANCH  53  72
ATOM     72  C   UNL A   1      41.921  34.600  33.894  1.00  0.00    -0.014 A 
ATOM     73  C   UNL A   1      41.503  34.564  35.234  1.00  0.00     0.009 A 
ATOM     74  C   UNL A   1      42.545  35.761  33.411  1.00  0.00     0.009 A 
ATOM     75  C   UNL A   1      41.669  35.680  36.058  1.00  0.00     0.001 A 
ATOM     76  C   UNL A   1      42.740  36.863  34.247  1.00  0.00     0.001 A 
ATOM     77  C   UNL A   1      42.290  36.826  35.566  1.00  0.00     0.000 A 
ENDBRANCH  53  72
BRANCH  65  78
ATOM     78  C   UNL A   1      45.468  28.751  32.575  1.00  0.00    -0.014 A 
ATOM     79  C   UNL A   1      45.567  27.886  33.675  1.00  0.00     0.009 A 
ATOM     80  C   UNL A   1      46.631  29.085  31.863  1.00  0.00     0.009 A 
ATOM     81  C   UNL A   1      46.810  27.383  34.065  1.00  0.00     0.001 A 
ATOM     82  C   UNL A   1      47.868  28.556  32.237  1.00  0.00     0.001 A 
ATOM     83  C   UNL A   1      47.957  27.712  33.341  1.00  0.00     0.000 A 
ENDBRANCH  65  78
ENDBRANCH  39  40
ENDBRANCH  31  34
ENDBRANCH  29  30
ENDBRANCH  28  29
ENDBRANCH   1  28
TORSDOF 14
ENDMDL
MODEL 3
REMARK VINA RESULT:     -11.7      2.931      8.038
REMARK SMILES CN1C(=O)C[C@@H](C(=O)NCCCCCCNC(=O)c2ccc(-c3c4nc(c(-c5ccccc5)c5ccc([nH]5)c(-c5ccccc5)c5nc(c(-c6ccccc6)c6ccc3[nH]6)C=C5)C=C4)cc2)C12CCN(c1ccc(Cl)cn1)CC2
REMARK SMILES IDX 13 1 12 2 11 3 10 4 9 5 7 6 8 7 6 9 1 10 2 11 3 12 67 13
REMARK SMILES IDX 4 14 5 15 68 16 79 17 69 18 78 19 70 20 71 21 72 22 77 23
REMARK SMILES IDX 73 24 76 25 74 26 75 27 14 28 15 29 16 30 17 31 18 33 19 34
REMARK SMILES IDX 20 35 66 36 21 37 65 38 22 39 23 40 24 41 59 42 25 43 64 44
REMARK SMILES IDX 58 45 60 46 26 47 63 48 57 49 56 50 27 52 49 53 34 54 48 55
REMARK SMILES IDX 35 56 38 57 47 58 61 59 36 60 37 61 46 63 62 64 39 65 28 66
REMARK SMILES IDX 29 67 33 68 30 69 32 70 31 71 50 72 51 73 55 74 52 75 54 76
REMARK SMILES IDX 53 77 40 78 41 79 45 80 42 81 44 82 43 83
REMARK H PARENT 9 8 16 32 60 51 38 62
REMARK Flexibility Score: inf
ROOT
ATOM      1  C   UNL A   1      38.819  22.331  26.128  1.00  0.00     0.002 C 
ENDROOT
BRANCH   1   2
ATOM      2  C   UNL A   1      37.473  22.731  25.524  1.00  0.00     0.002 C 
BRANCH   2   3
ATOM      3  C   UNL A   1      36.864  21.692  24.585  1.00  0.00     0.021 C 
BRANCH   3   4
ATOM      4  C   UNL A   1      35.655  20.945  25.153  1.00  0.00     0.116 C 
BRANCH   4   5
ATOM      5  N   UNL A   1      35.225  21.473  26.432  1.00  0.00    -0.356 N 
ATOM      6  C   UNL A   1      34.042  21.951  26.886  1.00  0.00     0.226 C 
ATOM      7  O   UNL A   1      34.032  22.335  28.062  1.00  0.00    -0.275 OA
ATOM      8  H   UNL A   1      35.938  21.486  27.109  1.00  0.00     0.163 HD
BRANCH   6   9
ATOM      9  C   UNL A   1      32.751  22.055  26.070  1.00  0.00     0.113 C 
ATOM     10  C   UNL A   1      33.104  22.703  22.399  1.00  0.00     0.147 C 
ATOM     11  N   UNL A   1      32.792  22.218  23.731  1.00  0.00    -0.339 N 
ATOM     12  C   UNL A   1      32.548  20.878  23.994  1.00  0.00     0.223 C 
ATOM     13  C   UNL A   1      32.657  23.084  24.915  1.00  0.00     0.058 C 
ATOM     14  O   UNL A   1      32.544  19.966  23.183  1.00  0.00    -0.275 OA
ATOM     15  C   UNL A   1      32.329  20.712  25.470  1.00  0.00     0.116 C 
ATOM     16  C   UNL A   1      33.726  24.193  24.962  1.00  0.00     0.051 C 
ATOM     17  C   UNL A   1      31.242  23.748  24.892  1.00  0.00     0.051 C 
ATOM     18  C   UNL A   1      33.490  25.181  26.087  1.00  0.00     0.120 C 
ATOM     19  C   UNL A   1      31.053  24.854  25.949  1.00  0.00     0.120 C 
ATOM     20  N   UNL A   1      32.185  25.756  25.846  1.00  0.00    -0.356 N 
BRANCH  20  21
ATOM     21  C   UNL A   1      32.034  27.119  25.934  1.00  0.00     0.128 A 
ATOM     22  C   UNL A   1      32.331  27.763  27.140  1.00  0.00     0.048 A 
ATOM     23  N   UNL A   1      31.616  27.813  24.858  1.00  0.00    -0.238 NA
ATOM     24  C   UNL A   1      32.176  29.141  27.262  1.00  0.00     0.026 A 
ATOM     25  C   UNL A   1      31.441  29.152  25.005  1.00  0.00     0.134 A 
ATOM     26  C   UNL A   1      31.706  29.851  26.172  1.00  0.00     0.059 A 
ATOM     27  Cl  UNL A   1      31.468  31.546  26.272  1.00  0.00    -0.083 Cl
ENDBRANCH  20  21
ENDBRANCH   6   9
ENDBRANCH   4   5
ENDBRANCH   3   4
ENDBRANCH   2   3
ENDBRANCH   1   2
BRANCH   1  28
ATOM     28  C   UNL A   1      39.347  20.970  25.669  1.00  0.00     0.021 C 
BRANCH  28  29
ATOM     29  C   UNL A   1      40.222  20.252  26.691  1.00  0.00     0.116 C 
BRANCH  29  30
ATOM     30  N   UNL A   1      41.398  19.658  26.079  1.00  0.00    -0.352 N 
ATOM     31  C   UNL A   1      42.582  20.262  25.741  1.00  0.00     0.251 C 
ATOM     32  H   UNL A   1      41.337  18.695  25.880  1.00  0.00     0.163 HD
ATOM     33  O   UNL A   1      43.411  19.683  25.046  1.00  0.00    -0.269 OA
BRANCH  31  34
ATOM     34  C   UNL A   1      42.839  21.635  26.215  1.00  0.00     0.039 A 
ATOM     35  C   UNL A   1      42.996  22.661  25.282  1.00  0.00     0.014 A 
ATOM     36  C   UNL A   1      42.882  21.903  27.587  1.00  0.00     0.014 A 
ATOM     37  C   UNL A   1      43.135  23.977  25.728  1.00  0.00     0.010 A 
ATOM     38  C   UNL A   1      42.951  23.219  28.025  1.00  0.00     0.010 A 
ATOM     39  C   UNL A   1      43.079  24.268  27.100  1.00  0.00    -0.014 A 
BRANCH  39  40
ATOM     40  C   UNL A   1      43.165  25.660  27.607  1.00  0.00     0.031 A 
ATOM     41  C   UNL A   1      44.498  26.216  28.024  1.00  0.00     0.074 A 
ATOM     42  C   UNL A   1      42.044  26.388  27.772  1.00  0.00     0.049 A 
ATOM     43  N   UNL A   1      44.772  27.346  28.623  1.00  0.00    -0.248 NA
ATOM     44  C   UNL A   1      45.678  25.378  27.751  1.00  0.00     0.031 C 
ATOM     45  C   UNL A   1      40.689  25.956  27.423  1.00  0.00     0.029 A 
ATOM     46  N   UNL A   1      41.867  27.644  28.297  1.00  0.00    -0.354 N 
ATOM     47  C   UNL A   1      46.148  27.348  28.811  1.00  0.00     0.074 A 
ATOM     48  C   UNL A   1      46.647  26.085  28.312  1.00  0.00     0.031 C 
ATOM     49  C   UNL A   1      39.822  26.934  27.733  1.00  0.00     0.029 A 
ATOM     50  C   UNL A   1      40.551  28.039  28.349  1.00  0.00     0.049 A 
ATOM     51  H   UNL A   1      42.611  28.209  28.607  1.00  0.00     0.167 HD
ATOM     52  C   UNL A   1      46.931  28.322  29.332  1.00  0.00     0.031 A 
ATOM     53  C   UNL A   1      39.993  29.154  28.858  1.00  0.00     0.031 A 
ATOM     54  C   UNL A   1      46.433  29.577  29.828  1.00  0.00     0.049 A 
ATOM     55  C   UNL A   1      40.880  30.197  29.484  1.00  0.00     0.074 A 
ATOM     56  C   UNL A   1      47.146  30.639  30.354  1.00  0.00     0.029 A 
ATOM     57  N   UNL A   1      45.095  29.937  29.853  1.00  0.00    -0.354 N 
ATOM     58  N   UNL A   1      42.184  30.202  29.615  1.00  0.00    -0.248 NA
ATOM     59  C   UNL A   1      40.216  31.391  30.027  1.00  0.00     0.031 C 
ATOM     60  C   UNL A   1      46.235  31.624  30.744  1.00  0.00     0.029 A 
ATOM     61  C   UNL A   1      44.961  31.201  30.404  1.00  0.00     0.049 A 
ATOM     62  H   UNL A   1      44.352  29.379  29.529  1.00  0.00     0.167 HD
ATOM     63  C   UNL A   1      42.499  31.413  30.219  1.00  0.00     0.074 A 
ATOM     64  C   UNL A   1      41.251  32.120  30.420  1.00  0.00     0.031 C 
ATOM     65  C   UNL A   1      43.713  31.897  30.575  1.00  0.00     0.031 A 
BRANCH  52  66
ATOM     66  C   UNL A   1      48.410  28.064  29.393  1.00  0.00    -0.014 A 
ATOM     67  C   UNL A   1      49.250  28.415  28.324  1.00  0.00     0.009 A 
ATOM     68  C   UNL A   1      48.979  27.504  30.548  1.00  0.00     0.009 A 
ATOM     69  C   UNL A   1      50.624  28.177  28.395  1.00  0.00     0.001 A 
ATOM     70  C   UNL A   1      50.357  27.295  30.628  1.00  0.00     0.001 A 
ATOM     71  C   UNL A   1      51.176  27.624  29.549  1.00  0.00     0.000 A 
ENDBRANCH  52  66
BRANCH  53  72
ATOM     72  C   UNL A   1      38.518  29.345  28.813  1.00  0.00    -0.014 A 
ATOM     73  C   UNL A   1      37.890  29.775  27.634  1.00  0.00     0.009 A 
ATOM     74  C   UNL A   1      37.735  29.133  29.958  1.00  0.00     0.009 A 
ATOM     75  C   UNL A   1      36.516  30.025  27.613  1.00  0.00     0.001 A 
ATOM     76  C   UNL A   1      36.355  29.352  29.925  1.00  0.00     0.001 A 
ATOM     77  C   UNL A   1      35.749  29.810  28.757  1.00  0.00     0.000 A 
ENDBRANCH  53  72
BRANCH  65  78
ATOM     78  C   UNL A   1      43.766  33.279  31.162  1.00  0.00    -0.014 A 
ATOM     79  C   UNL A   1      43.847  34.419  30.348  1.00  0.00     0.009 A 
ATOM     80  C   UNL A   1      43.660  33.440  32.553  1.00  0.00     0.009 A 
ATOM     81  C   UNL A   1      43.843  35.693  30.919  1.00  0.00     0.001 A 
ATOM     82  C   UNL A   1      43.626  34.716  33.118  1.00  0.00     0.001 A 
ATOM     83  C   UNL A   1      43.724  35.840  32.302  1.00  0.00     0.000 A 
ENDBRANCH  65  78
ENDBRANCH  39  40
ENDBRANCH  31  34
ENDBRANCH  29  30
ENDBRANCH  28  29
ENDBRANCH   1  28
TORSDOF 14
ENDMDL
