MODEL 1
REMARK VINA RESULT:     -13.5      0.000      0.000
REMARK SMILES Cc1ccc(C2=NN(C(=O)CCC(=O)NCCCCCCNC(=O)c3ccc(-c4c5nc(c(-c6ccccc6)c6ccc([nH]6)c(-c6ccccc6)c6nc(c(-c7ccccc7)c7ccc4[nH]7)C=C6)C=C5)cc3)[C@H](C[C@@H]3C=c4cccc(C)c4=NC3=O)C2)cc1
REMARK SMILES IDX 17 1 16 2 15 3 13 4 14 5 12 7 11 8 9 9 10 10 8 11 6 12 7 13
REMARK SMILES IDX 87 14 73 15 5 16 1 17 2 18 3 19 89 20 4 21 88 22 74 23 75 24
REMARK SMILES IDX 76 25 85 26 77 27 84 28 86 29 78 30 83 31 79 32 81 33 80 34
REMARK SMILES IDX 82 35 18 36 19 37 20 38 21 39 22 40 23 41 24 43 25 44 26 45
REMARK SMILES IDX 72 46 27 47 71 48 28 49 29 50 30 51 65 52 31 53 70 54 64 55
REMARK SMILES IDX 66 56 32 57 69 58 63 59 62 60 33 62 55 63 40 64 54 65 41 66
REMARK SMILES IDX 44 67 53 68 67 69 42 70 43 71 52 73 68 74 45 75 34 76 35 77
REMARK SMILES IDX 39 78 36 79 38 80 37 81 56 82 57 83 61 84 58 85 60 86 59 87
REMARK SMILES IDX 46 88 47 89 51 90 48 91 50 92 49 93
REMARK H PARENT 15 6 22 42 66 61 44 72
REMARK Flexibility Score: inf
ROOT
ATOM      1  C   UNL A   1      39.009  24.205  26.527  1.00  0.00     0.021 C 
ENDROOT
BRANCH   1   2
ATOM      2  C   UNL A   1      40.029  26.065  27.185  1.00  0.00     0.116 C 
BRANCH   2   3
ATOM      3  N   UNL A   1      40.827  27.148  26.291  1.00  0.00    -0.356 N 
ATOM      4  C   UNL A   1      41.775  28.084  26.491  1.00  0.00     0.220 C 
ATOM      5  O   UNL A   1      42.061  28.788  25.519  1.00  0.00    -0.275 OA
ATOM      6  H   UNL A   1      40.544  27.115  25.348  1.00  0.00     0.163 HD
BRANCH   4   7
ATOM      7  C   UNL A   1      42.471  28.238  27.807  1.00  0.00     0.110 C 
BRANCH   7   8
ATOM      8  C   UNL A   1      41.613  28.556  29.019  1.00  0.00     0.112 C 
BRANCH   8   9
ATOM      9  C   UNL A   1      41.413  30.046  29.366  1.00  0.00     0.243 C 
ATOM     10  O   UNL A   1      42.353  30.833  29.264  1.00  0.00    -0.273 OA
BRANCH   9  11
ATOM     11  N   UNL A   1      40.121  30.406  29.923  1.00  0.00    -0.230 N 
ATOM     12  C   UNL A   1      39.068  29.967  32.502  1.00  0.00     0.070 C 
ATOM     13  N   UNL A   1      40.174  30.690  31.719  1.00  0.00    -0.174 NA
ATOM     14  C   UNL A   1      37.850  28.808  31.144  1.00  0.00     0.086 C 
ATOM     15  C   UNL A   1      38.598  29.515  29.360  1.00  0.00     0.118 C 
BRANCH  12  16
ATOM     16  C   UNL A   1      38.612  30.941  34.001  1.00  0.00    -0.002 A 
ATOM     17  C   UNL A   1      37.595  33.202  37.656  1.00  0.00     0.044 C 
ATOM     18  C   UNL A   1      37.726  32.415  36.393  1.00  0.00    -0.051 A 
ATOM     19  C   UNL A   1      37.552  32.883  35.087  1.00  0.00     0.004 A 
ATOM     20  C   UNL A   1      38.194  31.157  36.525  1.00  0.00     0.004 A 
ATOM     21  C   UNL A   1      37.985  32.178  33.898  1.00  0.00     0.010 A 
ATOM     22  C   UNL A   1      38.639  30.511  35.383  1.00  0.00     0.010 A 
ENDBRANCH  12  16
BRANCH  15  23
ATOM     23  C   UNL A   1      37.883  30.597  28.272  1.00  0.00     0.045 C 
BRANCH  23  24
ATOM     24  C   UNL A   1      36.303  30.563  28.206  1.00  0.00     0.106 C 
ATOM     25  C   UNL A   1      35.757  29.542  27.243  1.00  0.00    -0.003 C 
ATOM     26  C   UNL A   1      35.515  31.856  27.916  1.00  0.00     0.253 C 
ATOM     27  C   UNL A   1      34.444  29.357  27.121  1.00  0.00    -0.003 A 
ATOM     28  N   UNL A   1      34.140  31.739  27.687  1.00  0.00    -0.212 NA
ATOM     29  O   UNL A   1      36.069  32.949  27.994  1.00  0.00    -0.272 OA
ATOM     30  C   UNL A   1      33.836  28.090  26.798  1.00  0.00     0.010 A 
ATOM     31  C   UNL A   1      33.639  30.595  27.320  1.00  0.00     0.077 A 
ATOM     32  C   UNL A   1      32.507  27.994  26.690  1.00  0.00     0.001 A 
ATOM     33  C   UNL A   1      32.190  30.419  26.915  1.00  0.00    -0.025 A 
ATOM     34  C   UNL A   1      31.698  29.188  26.670  1.00  0.00     0.005 A 
ATOM     35  C   UNL A   1      31.399  31.648  26.610  1.00  0.00     0.047 C 
ENDBRANCH  23  24
ENDBRANCH  15  23
ENDBRANCH   9  11
ENDBRANCH   8   9
ENDBRANCH   7   8
ENDBRANCH   4   7
ENDBRANCH   2   3
ENDBRANCH   1   2
BRANCH   1  36
ATOM     36  C   UNL A   1      40.078  22.690  27.228  1.00  0.00     0.002 C 
BRANCH  36  37
ATOM     37  C   UNL A   1      41.287  21.943  25.990  1.00  0.00     0.002 C 
BRANCH  37  38
ATOM     38  C   UNL A   1      43.089  22.308  25.706  1.00  0.00     0.021 C 
BRANCH  38  39
ATOM     39  C   UNL A   1      44.523  22.090  26.691  1.00  0.00     0.116 C 
BRANCH  39  40
ATOM     40  N   UNL A   1      45.710  23.007  26.548  1.00  0.00    -0.352 N 
ATOM     41  C   UNL A   1      46.239  24.175  27.126  1.00  0.00     0.251 C 
ATOM     42  H   UNL A   1      46.297  22.691  25.824  1.00  0.00     0.163 HD
ATOM     43  O   UNL A   1      47.234  24.641  26.555  1.00  0.00    -0.269 OA
BRANCH  41  44
ATOM     44  C   UNL A   1      45.829  24.880  28.399  1.00  0.00     0.039 A 
ATOM     45  C   UNL A   1      46.845  25.335  29.294  1.00  0.00     0.014 A 
ATOM     46  C   UNL A   1      44.515  25.054  28.807  1.00  0.00     0.014 A 
ATOM     47  C   UNL A   1      46.570  25.694  30.639  1.00  0.00     0.010 A 
ATOM     48  C   UNL A   1      44.238  25.421  30.138  1.00  0.00     0.010 A 
ATOM     49  C   UNL A   1      45.256  25.639  31.092  1.00  0.00    -0.014 A 
BRANCH  49  50
ATOM     50  C   UNL A   1      44.817  25.787  32.497  1.00  0.00     0.031 A 
ATOM     51  C   UNL A   1      44.677  27.150  33.078  1.00  0.00     0.074 A 
ATOM     52  C   UNL A   1      44.304  24.751  33.213  1.00  0.00     0.049 A 
ATOM     53  N   UNL A   1      44.476  27.406  34.331  1.00  0.00    -0.248 NA
ATOM     54  C   UNL A   1      44.807  28.354  32.264  1.00  0.00     0.031 C 
ATOM     55  C   UNL A   1      43.262  24.832  34.241  1.00  0.00     0.029 A 
ATOM     56  N   UNL A   1      44.655  23.396  33.232  1.00  0.00    -0.354 N 
ATOM     57  C   UNL A   1      44.115  28.733  34.420  1.00  0.00     0.074 A 
ATOM     58  C   UNL A   1      44.452  29.302  33.136  1.00  0.00     0.031 C 
ATOM     59  C   UNL A   1      43.195  23.671  34.912  1.00  0.00     0.029 A 
ATOM     60  C   UNL A   1      44.339  22.882  34.503  1.00  0.00     0.049 A 
ATOM     61  H   UNL A   1      45.054  22.891  32.486  1.00  0.00     0.167 HD
ATOM     62  C   UNL A   1      43.408  29.179  35.499  1.00  0.00     0.031 A 
ATOM     63  C   UNL A   1      45.251  22.321  35.347  1.00  0.00     0.031 A 
ATOM     64  C   UNL A   1      43.190  28.127  36.485  1.00  0.00     0.049 A 
ATOM     65  C   UNL A   1      45.261  22.927  36.727  1.00  0.00     0.074 A 
ATOM     66  C   UNL A   1      42.117  27.283  36.721  1.00  0.00     0.029 A 
ATOM     67  N   UNL A   1      44.256  27.636  37.222  1.00  0.00    -0.354 N 
ATOM     68  N   UNL A   1      44.754  24.095  36.986  1.00  0.00    -0.248 NA
ATOM     69  C   UNL A   1      45.951  22.347  37.877  1.00  0.00     0.031 C 
ATOM     70  C   UNL A   1      42.560  26.246  37.574  1.00  0.00     0.029 A 
ATOM     71  C   UNL A   1      43.890  26.477  37.879  1.00  0.00     0.049 A 
ATOM     72  H   UNL A   1      45.146  28.055  37.271  1.00  0.00     0.167 HD
ATOM     73  C   UNL A   1      45.121  24.479  38.244  1.00  0.00     0.074 A 
ATOM     74  C   UNL A   1      45.830  23.335  38.782  1.00  0.00     0.031 C 
ATOM     75  C   UNL A   1      44.859  25.741  38.681  1.00  0.00     0.031 A 
BRANCH  62  76
ATOM     76  C   UNL A   1      42.639  30.480  35.532  1.00  0.00    -0.014 A 
ATOM     77  C   UNL A   1      42.445  31.197  34.333  1.00  0.00     0.009 A 
ATOM     78  C   UNL A   1      42.117  31.075  36.692  1.00  0.00     0.009 A 
ATOM     79  C   UNL A   1      41.849  32.463  34.303  1.00  0.00     0.001 A 
ATOM     80  C   UNL A   1      41.546  32.357  36.675  1.00  0.00     0.001 A 
ATOM     81  C   UNL A   1      41.421  33.056  35.482  1.00  0.00     0.000 A 
ENDBRANCH  62  76
BRANCH  63  82
ATOM     82  C   UNL A   1      46.510  21.864  34.707  1.00  0.00    -0.014 A 
ATOM     83  C   UNL A   1      47.663  22.662  34.740  1.00  0.00     0.009 A 
ATOM     84  C   UNL A   1      46.619  20.520  34.318  1.00  0.00     0.009 A 
ATOM     85  C   UNL A   1      48.907  22.108  34.429  1.00  0.00     0.001 A 
ATOM     86  C   UNL A   1      47.861  19.968  34.015  1.00  0.00     0.001 A 
ATOM     87  C   UNL A   1      49.002  20.763  34.067  1.00  0.00     0.000 A 
ENDBRANCH  63  82
BRANCH  75  88
ATOM     88  C   UNL A   1      45.446  26.383  39.906  1.00  0.00    -0.014 A 
ATOM     89  C   UNL A   1      46.798  26.727  40.043  1.00  0.00     0.009 A 
ATOM     90  C   UNL A   1      44.581  26.781  40.948  1.00  0.00     0.009 A 
ATOM     91  C   UNL A   1      47.271  27.375  41.191  1.00  0.00     0.001 A 
ATOM     92  C   UNL A   1      45.039  27.472  42.069  1.00  0.00     0.001 A 
ATOM     93  C   UNL A   1      46.392  27.753  42.200  1.00  0.00     0.000 A 
ENDBRANCH  75  88
ENDBRANCH  49  50
ENDBRANCH  41  44
ENDBRANCH  39  40
ENDBRANCH  38  39
ENDBRANCH  37  38
ENDBRANCH  36  37
ENDBRANCH   1  36
TORSDOF 19
ENDMDL
MODEL 2
REMARK VINA RESULT:     -13.0      3.461     11.190
REMARK SMILES Cc1ccc(C2=NN(C(=O)CCC(=O)NCCCCCCNC(=O)c3ccc(-c4c5nc(c(-c6ccccc6)c6ccc([nH]6)c(-c6ccccc6)c6nc(c(-c7ccccc7)c7ccc4[nH]7)C=C6)C=C5)cc3)[C@H](C[C@@H]3C=c4cccc(C)c4=NC3=O)C2)cc1
REMARK SMILES IDX 17 1 16 2 15 3 13 4 14 5 12 7 11 8 9 9 10 10 8 11 6 12 7 13
REMARK SMILES IDX 87 14 73 15 5 16 1 17 2 18 3 19 89 20 4 21 88 22 74 23 75 24
REMARK SMILES IDX 76 25 85 26 77 27 84 28 86 29 78 30 83 31 79 32 81 33 80 34
REMARK SMILES IDX 82 35 18 36 19 37 20 38 21 39 22 40 23 41 24 43 25 44 26 45
REMARK SMILES IDX 72 46 27 47 71 48 28 49 29 50 30 51 65 52 31 53 70 54 64 55
REMARK SMILES IDX 66 56 32 57 69 58 63 59 62 60 33 62 55 63 40 64 54 65 41 66
REMARK SMILES IDX 44 67 53 68 67 69 42 70 43 71 52 73 68 74 45 75 34 76 35 77
REMARK SMILES IDX 39 78 36 79 38 80 37 81 56 82 57 83 61 84 58 85 60 86 59 87
REMARK SMILES IDX 46 88 47 89 51 90 48 91 50 92 49 93
REMARK H PARENT 15 6 22 42 66 61 44 72
REMARK Flexibility Score: inf
ROOT
ATOM      1  C   UNL A   1      45.489  33.254  30.766  1.00  0.00     0.021 C 
ENDROOT
BRANCH   1   2
ATOM      2  C   UNL A   1      45.931  34.086  28.755  1.00  0.00     0.116 C 
BRANCH   2   3
ATOM      3  N   UNL A   1      45.483  33.522  27.310  1.00  0.00    -0.356 N 
ATOM      4  C   UNL A   1      45.380  32.321  26.709  1.00  0.00     0.220 C 
ATOM      5  O   UNL A   1      45.068  32.331  25.516  1.00  0.00    -0.275 OA
ATOM      6  H   UNL A   1      45.214  34.252  26.705  1.00  0.00     0.163 HD
BRANCH   4   7
ATOM      7  C   UNL A   1      45.597  31.042  27.455  1.00  0.00     0.110 C 
BRANCH   7   8
ATOM      8  C   UNL A   1      44.410  30.105  27.600  1.00  0.00     0.112 C 
BRANCH   8   9
ATOM      9  C   UNL A   1      44.465  28.777  26.817  1.00  0.00     0.243 C 
ATOM     10  O   UNL A   1      43.984  28.709  25.687  1.00  0.00    -0.273 OA
BRANCH   9  11
ATOM     11  N   UNL A   1      44.988  27.630  27.538  1.00  0.00    -0.230 N 
ATOM     12  C   UNL A   1      45.400  27.254  30.303  1.00  0.00     0.070 C 
ATOM     13  N   UNL A   1      44.328  27.489  29.227  1.00  0.00    -0.174 NA
ATOM     14  C   UNL A   1      47.358  27.222  29.387  1.00  0.00     0.086 C 
ATOM     15  C   UNL A   1      46.786  27.205  27.409  1.00  0.00     0.118 C 
BRANCH  12  16
ATOM     16  C   UNL A   1      44.700  26.259  31.689  1.00  0.00    -0.002 A 
ATOM     17  C   UNL A   1      42.940  23.966  35.029  1.00  0.00     0.044 C 
ATOM     18  C   UNL A   1      43.724  24.712  33.999  1.00  0.00    -0.051 A 
ATOM     19  C   UNL A   1      44.506  24.166  32.976  1.00  0.00     0.004 A 
ATOM     20  C   UNL A   1      43.546  26.049  33.974  1.00  0.00     0.004 A 
ATOM     21  C   UNL A   1      44.990  24.906  31.829  1.00  0.00     0.010 A 
ATOM     22  C   UNL A   1      43.983  26.736  32.853  1.00  0.00     0.010 A 
ENDBRANCH  12  16
BRANCH  15  23
ATOM     23  C   UNL A   1      46.812  25.914  26.315  1.00  0.00     0.045 C 
BRANCH  23  24
ATOM     24  C   UNL A   1      45.515  25.010  26.286  1.00  0.00     0.106 C 
ATOM     25  C   UNL A   1      45.205  24.350  27.604  1.00  0.00    -0.003 C 
ATOM     26  C   UNL A   1      45.373  23.894  25.231  1.00  0.00     0.253 C 
ATOM     27  C   UNL A   1      44.111  23.604  27.750  1.00  0.00    -0.003 A 
ATOM     28  N   UNL A   1      44.298  23.010  25.364  1.00  0.00    -0.212 NA
ATOM     29  O   UNL A   1      46.122  23.865  24.259  1.00  0.00    -0.272 OA
ATOM     30  C   UNL A   1      43.380  23.482  28.987  1.00  0.00     0.010 A 
ATOM     31  C   UNL A   1      43.713  22.869  26.518  1.00  0.00     0.077 A 
ATOM     32  C   UNL A   1      42.293  22.707  29.047  1.00  0.00     0.001 A 
ATOM     33  C   UNL A   1      42.640  21.832  26.779  1.00  0.00    -0.025 A 
ATOM     34  C   UNL A   1      41.979  21.819  27.955  1.00  0.00     0.005 A 
ATOM     35  C   UNL A   1      42.485  20.727  25.787  1.00  0.00     0.047 C 
ENDBRANCH  23  24
ENDBRANCH  15  23
ENDBRANCH   9  11
ENDBRANCH   8   9
ENDBRANCH   7   8
ENDBRANCH   4   7
ENDBRANCH   2   3
ENDBRANCH   1   2
BRANCH   1  36
ATOM     36  C   UNL A   1      46.954  31.987  31.193  1.00  0.00     0.002 C 
BRANCH  36  37
ATOM     37  C   UNL A   1      46.380  30.316  31.850  1.00  0.00     0.002 C 
BRANCH  37  38
ATOM     38  C   UNL A   1      47.138  29.213  33.142  1.00  0.00     0.021 C 
BRANCH  38  39
ATOM     39  C   UNL A   1      48.053  29.535  34.603  1.00  0.00     0.116 C 
BRANCH  39  40
ATOM     40  N   UNL A   1      47.959  30.867  35.300  1.00  0.00    -0.352 N 
ATOM     41  C   UNL A   1      47.020  31.885  35.548  1.00  0.00     0.251 C 
ATOM     42  H   UNL A   1      48.825  31.097  35.709  1.00  0.00     0.163 HD
ATOM     43  O   UNL A   1      47.474  32.897  36.099  1.00  0.00    -0.269 OA
BRANCH  41  44
ATOM     44  C   UNL A   1      45.524  31.876  35.332  1.00  0.00     0.039 A 
ATOM     45  C   UNL A   1      44.751  30.812  35.891  1.00  0.00     0.014 A 
ATOM     46  C   UNL A   1      44.842  32.799  34.553  1.00  0.00     0.014 A 
ATOM     47  C   UNL A   1      43.425  30.533  35.472  1.00  0.00     0.010 A 
ATOM     48  C   UNL A   1      43.521  32.531  34.145  1.00  0.00     0.010 A 
ATOM     49  C   UNL A   1      42.840  31.349  34.510  1.00  0.00    -0.014 A 
BRANCH  49  50
ATOM     50  C   UNL A   1      41.555  31.094  33.822  1.00  0.00     0.031 A 
ATOM     51  C   UNL A   1      41.561  30.693  32.389  1.00  0.00     0.074 A 
ATOM     52  C   UNL A   1      40.379  30.976  34.495  1.00  0.00     0.049 A 
ATOM     53  N   UNL A   1      40.512  30.616  31.635  1.00  0.00    -0.248 NA
ATOM     54  C   UNL A   1      42.799  30.388  31.678  1.00  0.00     0.031 C 
ATOM     55  C   UNL A   1      39.253  30.109  34.138  1.00  0.00     0.029 A 
ATOM     56  N   UNL A   1      39.899  31.665  35.616  1.00  0.00    -0.354 N 
ATOM     57  C   UNL A   1      40.882  29.940  30.493  1.00  0.00     0.074 A 
ATOM     58  C   UNL A   1      42.327  29.930  30.514  1.00  0.00     0.031 C 
ATOM     59  C   UNL A   1      38.175  30.442  34.866  1.00  0.00     0.029 A 
ATOM     60  C   UNL A   1      38.494  31.680  35.549  1.00  0.00     0.049 A 
ATOM     61  H   UNL A   1      40.449  32.068  36.327  1.00  0.00     0.167 HD
ATOM     62  C   UNL A   1      39.941  29.306  29.736  1.00  0.00     0.031 A 
ATOM     63  C   UNL A   1      37.745  32.818  35.506  1.00  0.00     0.031 A 
ATOM     64  C   UNL A   1      38.593  29.513  30.251  1.00  0.00     0.049 A 
ATOM     65  C   UNL A   1      36.776  32.870  34.352  1.00  0.00     0.074 A 
ATOM     66  C   UNL A   1      37.782  28.740  31.067  1.00  0.00     0.029 A 
ATOM     67  N   UNL A   1      38.004  30.764  30.170  1.00  0.00    -0.354 N 
ATOM     68  N   UNL A   1      36.898  32.122  33.297  1.00  0.00    -0.248 NA
ATOM     69  C   UNL A   1      35.695  33.846  34.227  1.00  0.00     0.031 C 
ATOM     70  C   UNL A   1      36.718  29.555  31.518  1.00  0.00     0.029 A 
ATOM     71  C   UNL A   1      36.866  30.809  30.953  1.00  0.00     0.049 A 
ATOM     72  H   UNL A   1      38.347  31.512  29.631  1.00  0.00     0.167 HD
ATOM     73  C   UNL A   1      36.034  32.554  32.333  1.00  0.00     0.074 A 
ATOM     74  C   UNL A   1      35.269  33.605  32.974  1.00  0.00     0.031 C 
ATOM     75  C   UNL A   1      36.096  32.041  31.073  1.00  0.00     0.031 A 
BRANCH  62  76
ATOM     76  C   UNL A   1      40.252  28.239  28.710  1.00  0.00    -0.014 A 
ATOM     77  C   UNL A   1      40.608  28.626  27.401  1.00  0.00     0.009 A 
ATOM     78  C   UNL A   1      40.180  26.857  28.942  1.00  0.00     0.009 A 
ATOM     79  C   UNL A   1      40.792  27.699  26.369  1.00  0.00     0.001 A 
ATOM     80  C   UNL A   1      40.333  25.922  27.906  1.00  0.00     0.001 A 
ATOM     81  C   UNL A   1      40.630  26.343  26.617  1.00  0.00     0.000 A 
ENDBRANCH  62  76
BRANCH  63  82
ATOM     82  C   UNL A   1      38.429  34.046  35.981  1.00  0.00    -0.014 A 
ATOM     83  C   UNL A   1      38.571  34.304  37.354  1.00  0.00     0.009 A 
ATOM     84  C   UNL A   1      39.176  34.801  35.063  1.00  0.00     0.009 A 
ATOM     85  C   UNL A   1      39.476  35.271  37.795  1.00  0.00     0.001 A 
ATOM     86  C   UNL A   1      40.084  35.760  35.506  1.00  0.00     0.001 A 
ATOM     87  C   UNL A   1      40.229  35.997  36.869  1.00  0.00     0.000 A 
ENDBRANCH  63  82
BRANCH  75  88
ATOM     88  C   UNL A   1      35.420  32.613  29.860  1.00  0.00    -0.014 A 
ATOM     89  C   UNL A   1      34.451  31.937  29.107  1.00  0.00     0.009 A 
ATOM     90  C   UNL A   1      35.672  33.958  29.511  1.00  0.00     0.009 A 
ATOM     91  C   UNL A   1      33.816  32.550  28.019  1.00  0.00     0.001 A 
ATOM     92  C   UNL A   1      35.005  34.589  28.461  1.00  0.00     0.001 A 
ATOM     93  C   UNL A   1      34.089  33.876  27.700  1.00  0.00     0.000 A 
ENDBRANCH  75  88
ENDBRANCH  49  50
ENDBRANCH  41  44
ENDBRANCH  39  40
ENDBRANCH  38  39
ENDBRANCH  37  38
ENDBRANCH  36  37
ENDBRANCH   1  36
TORSDOF 19
ENDMDL
MODEL 3
REMARK VINA RESULT:     -12.7      3.743     11.857
REMARK SMILES Cc1ccc(C2=NN(C(=O)CCC(=O)NCCCCCCNC(=O)c3ccc(-c4c5nc(c(-c6ccccc6)c6ccc([nH]6)c(-c6ccccc6)c6nc(c(-c7ccccc7)c7ccc4[nH]7)C=C6)C=C5)cc3)[C@H](C[C@@H]3C=c4cccc(C)c4=NC3=O)C2)cc1
REMARK SMILES IDX 17 1 16 2 15 3 13 4 14 5 12 7 11 8 9 9 10 10 8 11 6 12 7 13
REMARK SMILES IDX 87 14 73 15 5 16 1 17 2 18 3 19 89 20 4 21 88 22 74 23 75 24
REMARK SMILES IDX 76 25 85 26 77 27 84 28 86 29 78 30 83 31 79 32 81 33 80 34
REMARK SMILES IDX 82 35 18 36 19 37 20 38 21 39 22 40 23 41 24 43 25 44 26 45
REMARK SMILES IDX 72 46 27 47 71 48 28 49 29 50 30 51 65 52 31 53 70 54 64 55
REMARK SMILES IDX 66 56 32 57 69 58 63 59 62 60 33 62 55 63 40 64 54 65 41 66
REMARK SMILES IDX 44 67 53 68 67 69 42 70 43 71 52 73 68 74 45 75 34 76 35 77
REMARK SMILES IDX 39 78 36 79 38 80 37 81 56 82 57 83 61 84 58 85 60 86 59 87
REMARK SMILES IDX 46 88 47 89 51 90 48 91 50 92 49 93
REMARK H PARENT 15 6 22 42 66 61 44 72
REMARK Flexibility Score: inf
ROOT
ATOM      1  C   UNL A   1      45.213  33.288  29.849  1.00  0.00     0.021 C 
ENDROOT
BRANCH   1   2
ATOM      2  C   UNL A   1      46.486  33.287  28.030  1.00  0.00     0.116 C 
BRANCH   2   3
ATOM      3  N   UNL A   1      46.472  32.252  26.790  1.00  0.00    -0.356 N 
ATOM      4  C   UNL A   1      45.970  31.028  26.533  1.00  0.00     0.220 C 
ATOM      5  O   UNL A   1      46.271  30.531  25.445  1.00  0.00    -0.275 OA
ATOM      6  H   UNL A   1      46.962  32.611  26.015  1.00  0.00     0.163 HD
BRANCH   4   7
ATOM      7  C   UNL A   1      45.067  30.325  27.497  1.00  0.00     0.110 C 
BRANCH   7   8
ATOM      8  C   UNL A   1      43.867  29.590  26.925  1.00  0.00     0.112 C 
BRANCH   8   9
ATOM      9  C   UNL A   1      44.126  28.202  26.303  1.00  0.00     0.243 C 
ATOM     10  O   UNL A   1      43.649  27.921  25.205  1.00  0.00    -0.273 OA
BRANCH   9  11
ATOM     11  N   UNL A   1      44.836  27.248  27.138  1.00  0.00    -0.230 N 
ATOM     12  C   UNL A   1      45.153  27.167  29.939  1.00  0.00     0.070 C 
ATOM     13  N   UNL A   1      44.122  27.088  28.803  1.00  0.00    -0.174 NA
ATOM     14  C   UNL A   1      47.124  27.494  29.115  1.00  0.00     0.086 C 
ATOM     15  C   UNL A   1      46.688  27.214  27.122  1.00  0.00     0.118 C 
BRANCH  12  16
ATOM     16  C   UNL A   1      44.598  26.146  31.371  1.00  0.00    -0.002 A 
ATOM     17  C   UNL A   1      43.202  23.795  34.840  1.00  0.00     0.044 C 
ATOM     18  C   UNL A   1      43.873  24.532  33.727  1.00  0.00    -0.051 A 
ATOM     19  C   UNL A   1      44.383  23.989  32.544  1.00  0.00     0.004 A 
ATOM     20  C   UNL A   1      43.859  25.877  33.816  1.00  0.00     0.004 A 
ATOM     21  C   UNL A   1      44.740  24.762  31.373  1.00  0.00     0.010 A 
ATOM     22  C   UNL A   1      44.167  26.602  32.676  1.00  0.00     0.010 A 
ENDBRANCH  12  16
BRANCH  15  23
ATOM     23  C   UNL A   1      47.052  25.884  26.139  1.00  0.00     0.045 C 
BRANCH  23  24
ATOM     24  C   UNL A   1      48.073  26.158  24.962  1.00  0.00     0.106 C 
ATOM     25  C   UNL A   1      49.472  26.459  25.429  1.00  0.00    -0.003 C 
ATOM     26  C   UNL A   1      47.759  27.232  23.901  1.00  0.00     0.253 C 
ATOM     27  C   UNL A   1      50.455  26.654  24.550  1.00  0.00    -0.003 A 
ATOM     28  N   UNL A   1      48.771  27.561  22.993  1.00  0.00    -0.212 NA
ATOM     29  O   UNL A   1      46.625  27.693  23.805  1.00  0.00    -0.272 OA
ATOM     30  C   UNL A   1      51.832  26.305  24.794  1.00  0.00     0.010 A 
ATOM     31  C   UNL A   1      50.012  27.300  23.284  1.00  0.00     0.077 A 
ATOM     32  C   UNL A   1      52.757  26.540  23.857  1.00  0.00     0.001 A 
ATOM     33  C   UNL A   1      51.174  27.752  22.423  1.00  0.00    -0.025 A 
ATOM     34  C   UNL A   1      52.428  27.342  22.704  1.00  0.00     0.005 A 
ATOM     35  C   UNL A   1      50.911  28.804  21.396  1.00  0.00     0.047 C 
ENDBRANCH  23  24
ENDBRANCH  15  23
ENDBRANCH   9  11
ENDBRANCH   8   9
ENDBRANCH   7   8
ENDBRANCH   4   7
ENDBRANCH   2   3
ENDBRANCH   1   2
BRANCH   1  36
ATOM     36  C   UNL A   1      46.295  32.485  31.304  1.00  0.00     0.002 C 
BRANCH  36  37
ATOM     37  C   UNL A   1      46.292  30.601  31.336  1.00  0.00     0.002 C 
BRANCH  37  38
ATOM     38  C   UNL A   1      47.398  29.416  32.249  1.00  0.00     0.021 C 
BRANCH  38  39
ATOM     39  C   UNL A   1      48.448  29.592  33.642  1.00  0.00     0.116 C 
BRANCH  39  40
ATOM     40  N   UNL A   1      48.367  30.809  34.527  1.00  0.00    -0.352 N 
ATOM     41  C   UNL A   1      47.408  31.703  35.036  1.00  0.00     0.251 C 
ATOM     42  H   UNL A   1      49.264  31.055  34.849  1.00  0.00     0.163 HD
ATOM     43  O   UNL A   1      47.867  32.669  35.661  1.00  0.00    -0.269 OA
BRANCH  41  44
ATOM     44  C   UNL A   1      45.899  31.598  35.017  1.00  0.00     0.039 A 
ATOM     45  C   UNL A   1      45.291  30.338  35.306  1.00  0.00     0.014 A 
ATOM     46  C   UNL A   1      45.049  32.633  34.659  1.00  0.00     0.014 A 
ATOM     47  C   UNL A   1      43.937  30.056  34.990  1.00  0.00     0.010 A 
ATOM     48  C   UNL A   1      43.701  32.359  34.355  1.00  0.00     0.010 A 
ATOM     49  C   UNL A   1      43.161  31.056  34.413  1.00  0.00    -0.014 A 
BRANCH  49  50
ATOM     50  C   UNL A   1      41.805  30.883  33.846  1.00  0.00     0.031 A 
ATOM     51  C   UNL A   1      41.655  30.523  32.410  1.00  0.00     0.074 A 
ATOM     52  C   UNL A   1      40.695  30.801  34.627  1.00  0.00     0.049 A 
ATOM     53  N   UNL A   1      40.537  30.518  31.759  1.00  0.00    -0.248 NA
ATOM     54  C   UNL A   1      42.803  30.180  31.576  1.00  0.00     0.031 C 
ATOM     55  C   UNL A   1      39.497  29.999  34.359  1.00  0.00     0.029 A 
ATOM     56  N   UNL A   1      40.358  31.480  35.804  1.00  0.00    -0.354 N 
ATOM     57  C   UNL A   1      40.763  29.859  30.570  1.00  0.00     0.074 A 
ATOM     58  C   UNL A   1      42.200  29.779  30.452  1.00  0.00     0.031 C 
ATOM     59  C   UNL A   1      38.511  30.363  35.195  1.00  0.00     0.029 A 
ATOM     60  C   UNL A   1      38.955  31.563  35.873  1.00  0.00     0.049 A 
ATOM     61  H   UNL A   1      40.992  31.835  36.469  1.00  0.00     0.167 HD
ATOM     62  C   UNL A   1      39.723  29.292  29.892  1.00  0.00     0.031 A 
ATOM     63  C   UNL A   1      38.264  32.737  35.930  1.00  0.00     0.031 A 
ATOM     64  C   UNL A   1      38.442  29.548  30.540  1.00  0.00     0.049 A 
ATOM     65  C   UNL A   1      37.194  32.869  34.877  1.00  0.00     0.074 A 
ATOM     66  C   UNL A   1      37.675  28.792  31.411  1.00  0.00     0.029 A 
ATOM     67  N   UNL A   1      37.911  30.828  30.546  1.00  0.00    -0.354 N 
ATOM     68  N   UNL A   1      37.177  32.146  33.798  1.00  0.00    -0.248 NA
ATOM     69  C   UNL A   1      36.157  33.898  34.880  1.00  0.00     0.031 C 
ATOM     70  C   UNL A   1      36.700  29.643  31.982  1.00  0.00     0.029 A 
ATOM     71  C   UNL A   1      36.857  30.905  31.436  1.00  0.00     0.049 A 
ATOM     72  H   UNL A   1      38.239  31.575  29.995  1.00  0.00     0.167 HD
ATOM     73  C   UNL A   1      36.249  32.647  32.932  1.00  0.00     0.074 A 
ATOM     74  C   UNL A   1      35.602  33.715  33.668  1.00  0.00     0.031 C 
ATOM     75  C   UNL A   1      36.165  32.168  31.660  1.00  0.00     0.031 A 
BRANCH  62  76
ATOM     76  C   UNL A   1      39.881  28.243  28.816  1.00  0.00    -0.014 A 
ATOM     77  C   UNL A   1      39.637  26.890  29.131  1.00  0.00     0.009 A 
ATOM     78  C   UNL A   1      40.297  28.499  27.500  1.00  0.00     0.009 A 
ATOM     79  C   UNL A   1      39.877  25.852  28.223  1.00  0.00     0.001 A 
ATOM     80  C   UNL A   1      40.569  27.463  26.593  1.00  0.00     0.001 A 
ATOM     81  C   UNL A   1      40.368  26.138  26.957  1.00  0.00     0.000 A 
ENDBRANCH  62  76
BRANCH  63  82
ATOM     82  C   UNL A   1      39.051  33.916  36.368  1.00  0.00    -0.014 A 
ATOM     83  C   UNL A   1      39.582  34.814  35.429  1.00  0.00     0.009 A 
ATOM     84  C   UNL A   1      39.024  34.281  37.723  1.00  0.00     0.009 A 
ATOM     85  C   UNL A   1      40.037  36.069  35.839  1.00  0.00     0.001 A 
ATOM     86  C   UNL A   1      39.471  35.536  38.129  1.00  0.00     0.001 A 
ATOM     87  C   UNL A   1      39.980  36.426  37.188  1.00  0.00     0.000 A 
ENDBRANCH  63  82
BRANCH  75  88
ATOM     88  C   UNL A   1      35.406  32.807  30.532  1.00  0.00    -0.014 A 
ATOM     89  C   UNL A   1      34.878  34.104  30.574  1.00  0.00     0.009 A 
ATOM     90  C   UNL A   1      35.310  32.122  29.301  1.00  0.00     0.009 A 
ATOM     91  C   UNL A   1      34.228  34.662  29.465  1.00  0.00     0.001 A 
ATOM     92  C   UNL A   1      34.710  32.693  28.179  1.00  0.00     0.001 A 
ATOM     93  C   UNL A   1      34.150  33.960  28.268  1.00  0.00     0.000 A 
ENDBRANCH  75  88
ENDBRANCH  49  50
ENDBRANCH  41  44
ENDBRANCH  39  40
ENDBRANCH  38  39
ENDBRANCH  37  38
ENDBRANCH  36  37
ENDBRANCH   1  36
TORSDOF 19
ENDMDL
