MODEL 1
REMARK VINA RESULT:     -11.8      0.000      0.000
REMARK SMILES C[C@H]1Oc2ccccc2C=C1/C=C/C(=O)N[C@H](C(=O)NCCCCCCNC(=O)c1ccc(-c2c3nc(c(-c4ccccc4)c4ccc([nH]4)c(-c4ccccc4)c4nc(c(-c5ccccc5)c5ccc2[nH]5)C=C4)C=C3)cc1)c1ccccc1
REMARK SMILES IDX 23 1 22 2 21 3 20 4 18 5 19 6 17 8 16 9 14 10 15 11 13 13
REMARK SMILES IDX 12 14 11 15 1 16 2 17 3 18 4 19 10 20 5 21 9 22 6 23 8 24
REMARK SMILES IDX 7 25 78 26 79 27 83 28 80 29 82 30 81 31 24 32 25 33 26 34
REMARK SMILES IDX 27 35 28 36 29 38 30 39 31 40 77 41 32 42 76 43 33 44 34 45
REMARK SMILES IDX 35 46 70 47 36 48 75 49 69 50 71 51 37 52 74 53 68 54 67 55
REMARK SMILES IDX 38 57 60 58 45 59 59 60 46 61 49 62 58 63 72 64 47 65 48 66
REMARK SMILES IDX 57 68 73 69 50 70 39 71 40 72 44 73 41 74 43 75 42 76 61 77
REMARK SMILES IDX 62 78 66 79 63 80 65 81 64 82 51 83 52 84 56 85 53 86 55 87
REMARK SMILES IDX 54 88
REMARK H PARENT 20 7 16 12 27 37 71 56 49 67
REMARK Flexibility Score: inf
ROOT
ATOM      1  C   UNL A   1      31.006  29.727  24.621  1.00  0.00     0.002 C 
ENDROOT
BRANCH   1   2
ATOM      2  C   UNL A   1      31.646  29.034  23.409  1.00  0.00     0.021 C 
BRANCH   2   3
ATOM      3  C   UNL A   1      30.726  28.001  22.752  1.00  0.00     0.116 C 
BRANCH   3   4
ATOM      4  N   UNL A   1      29.571  27.795  23.595  1.00  0.00    -0.354 N 
ATOM      5  C   UNL A   1      29.283  26.545  24.096  1.00  0.00     0.247 C 
ATOM      6  O   UNL A   1      28.203  26.044  23.785  1.00  0.00    -0.272 OA
ATOM      7  H   UNL A   1      28.985  28.555  23.815  1.00  0.00     0.163 HD
BRANCH   5   8
ATOM      8  C   UNL A   1      30.359  25.869  24.985  1.00  0.00     0.202 C 
BRANCH   8   9
ATOM      9  N   UNL A   1      29.805  24.986  26.019  1.00  0.00    -0.337 N 
ATOM     10  C   UNL A   1      30.176  23.899  26.725  1.00  0.00     0.244 C 
ATOM     11  O   UNL A   1      29.356  23.467  27.541  1.00  0.00    -0.270 OA
ATOM     12  H   UNL A   1      28.896  25.271  26.272  1.00  0.00     0.164 HD
BRANCH  10  13
ATOM     13  C   UNL A   1      31.470  23.178  26.632  1.00  0.00     0.071 C 
ATOM     14  C   UNL A   1      31.835  22.234  25.760  1.00  0.00     0.013 C 
BRANCH  14  15
ATOM     15  C   UNL A   1      33.122  21.582  25.571  1.00  0.00    -0.007 C 
ATOM     16  C   UNL A   1      32.512  20.102  23.576  1.00  0.00     0.058 C 
ATOM     17  C   UNL A   1      33.051  20.155  25.010  1.00  0.00     0.200 C 
ATOM     18  O   UNL A   1      34.281  19.408  25.016  1.00  0.00    -0.485 OA
ATOM     19  C   UNL A   1      35.446  20.113  25.081  1.00  0.00     0.127 A 
ATOM     20  C   UNL A   1      34.299  22.172  25.818  1.00  0.00     0.019 C 
ATOM     21  C   UNL A   1      36.604  19.412  24.746  1.00  0.00     0.047 A 
ATOM     22  C   UNL A   1      35.517  21.445  25.490  1.00  0.00     0.017 A 
ATOM     23  C   UNL A   1      37.845  20.043  24.816  1.00  0.00     0.004 A 
ATOM     24  C   UNL A   1      36.765  22.070  25.576  1.00  0.00     0.012 A 
ATOM     25  C   UNL A   1      37.926  21.369  25.236  1.00  0.00     0.001 A 
ENDBRANCH  14  15
ENDBRANCH  10  13
ENDBRANCH   8   9
BRANCH   8  26
ATOM     26  C   UNL A   1      31.637  25.438  24.287  1.00  0.00    -0.016 A 
ATOM     27  C   UNL A   1      31.528  24.582  23.169  1.00  0.00     0.006 A 
ATOM     28  C   UNL A   1      32.921  25.808  24.694  1.00  0.00     0.006 A 
ATOM     29  C   UNL A   1      32.657  24.112  22.498  1.00  0.00     0.000 A 
ATOM     30  C   UNL A   1      34.055  25.310  24.043  1.00  0.00     0.000 A 
ATOM     31  C   UNL A   1      33.924  24.466  22.946  1.00  0.00     0.000 A 
ENDBRANCH   8  26
ENDBRANCH   5   8
ENDBRANCH   3   4
ENDBRANCH   2   3
ENDBRANCH   1   2
BRANCH   1  32
ATOM     32  C   UNL A   1      31.994  30.091  25.737  1.00  0.00     0.002 C 
BRANCH  32  33
ATOM     33  C   UNL A   1      33.170  29.125  25.874  1.00  0.00     0.021 C 
BRANCH  33  34
ATOM     34  C   UNL A   1      33.767  29.088  27.271  1.00  0.00     0.116 C 
BRANCH  34  35
ATOM     35  N   UNL A   1      33.763  30.399  27.896  1.00  0.00    -0.352 N 
ATOM     36  C   UNL A   1      34.750  30.968  28.662  1.00  0.00     0.251 C 
ATOM     37  H   UNL A   1      32.956  30.946  27.753  1.00  0.00     0.163 HD
ATOM     38  O   UNL A   1      34.546  31.993  29.303  1.00  0.00    -0.269 OA
BRANCH  36  39
ATOM     39  C   UNL A   1      36.063  30.294  28.722  1.00  0.00     0.039 A 
ATOM     40  C   UNL A   1      36.466  29.667  29.904  1.00  0.00     0.014 A 
ATOM     41  C   UNL A   1      36.919  30.363  27.622  1.00  0.00     0.014 A 
ATOM     42  C   UNL A   1      37.783  29.252  30.040  1.00  0.00     0.010 A 
ATOM     43  C   UNL A   1      38.215  29.854  27.732  1.00  0.00     0.010 A 
ATOM     44  C   UNL A   1      38.671  29.333  28.954  1.00  0.00    -0.014 A 
BRANCH  44  45
ATOM     45  C   UNL A   1      40.065  28.849  29.116  1.00  0.00     0.031 A 
ATOM     46  C   UNL A   1      40.463  27.467  28.677  1.00  0.00     0.074 A 
ATOM     47  C   UNL A   1      40.986  29.689  29.626  1.00  0.00     0.049 A 
ATOM     48  N   UNL A   1      41.636  26.892  28.745  1.00  0.00    -0.248 NA
ATOM     49  C   UNL A   1      39.414  26.619  28.086  1.00  0.00     0.031 C 
ATOM     50  C   UNL A   1      40.722  31.063  30.062  1.00  0.00     0.029 A 
ATOM     51  N   UNL A   1      42.332  29.527  29.837  1.00  0.00    -0.354 N 
ATOM     52  C   UNL A   1      41.464  25.613  28.229  1.00  0.00     0.074 A 
ATOM     53  C   UNL A   1      40.068  25.484  27.874  1.00  0.00     0.031 C 
ATOM     54  C   UNL A   1      41.877  31.636  30.430  1.00  0.00     0.029 A 
ATOM     55  C   UNL A   1      42.946  30.650  30.336  1.00  0.00     0.049 A 
ATOM     56  H   UNL A   1      42.811  28.687  29.650  1.00  0.00     0.167 HD
ATOM     57  C   UNL A   1      42.392  24.641  28.059  1.00  0.00     0.031 A 
ATOM     58  C   UNL A   1      44.225  30.865  30.699  1.00  0.00     0.031 A 
ATOM     59  C   UNL A   1      43.782  24.782  28.406  1.00  0.00     0.049 A 
ATOM     60  C   UNL A   1      45.220  29.750  30.555  1.00  0.00     0.074 A 
ATOM     61  C   UNL A   1      44.801  23.858  28.252  1.00  0.00     0.029 A 
ATOM     62  N   UNL A   1      44.349  25.914  28.972  1.00  0.00    -0.354 N 
ATOM     63  N   UNL A   1      45.041  28.550  30.059  1.00  0.00    -0.248 NA
ATOM     64  C   UNL A   1      46.588  30.014  31.022  1.00  0.00     0.031 C 
ATOM     65  C   UNL A   1      45.969  24.404  28.786  1.00  0.00     0.029 A 
ATOM     66  C   UNL A   1      45.697  25.699  29.202  1.00  0.00     0.049 A 
ATOM     67  H   UNL A   1      43.866  26.745  29.180  1.00  0.00     0.167 HD
ATOM     68  C   UNL A   1      46.275  27.919  30.140  1.00  0.00     0.074 A 
ATOM     69  C   UNL A   1      47.198  28.877  30.713  1.00  0.00     0.031 C 
ATOM     70  C   UNL A   1      46.607  26.658  29.775  1.00  0.00     0.031 A 
BRANCH  57  71
ATOM     71  C   UNL A   1      41.947  23.323  27.485  1.00  0.00    -0.014 A 
ATOM     72  C   UNL A   1      41.375  22.355  28.328  1.00  0.00     0.009 A 
ATOM     73  C   UNL A   1      42.194  22.992  26.144  1.00  0.00     0.009 A 
ATOM     74  C   UNL A   1      41.075  21.079  27.845  1.00  0.00     0.001 A 
ATOM     75  C   UNL A   1      41.866  21.724  25.657  1.00  0.00     0.001 A 
ATOM     76  C   UNL A   1      41.318  20.767  26.510  1.00  0.00     0.000 A 
ENDBRANCH  57  71
BRANCH  58  77
ATOM     77  C   UNL A   1      44.615  32.197  31.230  1.00  0.00    -0.014 A 
ATOM     78  C   UNL A   1      45.107  33.193  30.369  1.00  0.00     0.009 A 
ATOM     79  C   UNL A   1      44.568  32.458  32.607  1.00  0.00     0.009 A 
ATOM     80  C   UNL A   1      45.577  34.406  30.877  1.00  0.00     0.001 A 
ATOM     81  C   UNL A   1      45.008  33.686  33.109  1.00  0.00     0.001 A 
ATOM     82  C   UNL A   1      45.523  34.652  32.247  1.00  0.00     0.000 A 
ENDBRANCH  58  77
BRANCH  70  83
ATOM     83  C   UNL A   1      48.033  26.223  29.966  1.00  0.00    -0.014 A 
ATOM     84  C   UNL A   1      48.445  25.711  31.206  1.00  0.00     0.009 A 
ATOM     85  C   UNL A   1      48.993  26.426  28.962  1.00  0.00     0.009 A 
ATOM     86  C   UNL A   1      49.790  25.432  31.448  1.00  0.00     0.001 A 
ATOM     87  C   UNL A   1      50.333  26.115  29.195  1.00  0.00     0.001 A 
ATOM     88  C   UNL A   1      50.732  25.630  30.440  1.00  0.00     0.000 A 
ENDBRANCH  70  83
ENDBRANCH  44  45
ENDBRANCH  36  39
ENDBRANCH  34  35
ENDBRANCH  33  34
ENDBRANCH  32  33
ENDBRANCH   1  32
TORSDOF 17
ENDMDL
MODEL 2
REMARK VINA RESULT:     -11.7      0.301      5.646
REMARK SMILES C[C@H]1Oc2ccccc2C=C1/C=C/C(=O)N[C@H](C(=O)NCCCCCCNC(=O)c1ccc(-c2c3nc(c(-c4ccccc4)c4ccc([nH]4)c(-c4ccccc4)c4nc(c(-c5ccccc5)c5ccc2[nH]5)C=C4)C=C3)cc1)c1ccccc1
REMARK SMILES IDX 23 1 22 2 21 3 20 4 18 5 19 6 17 8 16 9 14 10 15 11 13 13
REMARK SMILES IDX 12 14 11 15 1 16 2 17 3 18 4 19 10 20 5 21 9 22 6 23 8 24
REMARK SMILES IDX 7 25 78 26 79 27 83 28 80 29 82 30 81 31 24 32 25 33 26 34
REMARK SMILES IDX 27 35 28 36 29 38 30 39 31 40 77 41 32 42 76 43 33 44 34 45
REMARK SMILES IDX 35 46 70 47 36 48 75 49 69 50 71 51 37 52 74 53 68 54 67 55
REMARK SMILES IDX 38 57 60 58 45 59 59 60 46 61 49 62 58 63 72 64 47 65 48 66
REMARK SMILES IDX 57 68 73 69 50 70 39 71 40 72 44 73 41 74 43 75 42 76 61 77
REMARK SMILES IDX 62 78 66 79 63 80 65 81 64 82 51 83 52 84 56 85 53 86 55 87
REMARK SMILES IDX 54 88
REMARK H PARENT 20 7 16 12 27 37 71 56 49 67
REMARK Flexibility Score: inf
ROOT
ATOM      1  C   UNL A   1      31.132  29.572  24.588  1.00  0.00     0.002 C 
ENDROOT
BRANCH   1   2
ATOM      2  C   UNL A   1      31.137  29.305  23.075  1.00  0.00     0.021 C 
BRANCH   2   3
ATOM      3  C   UNL A   1      30.495  27.966  22.699  1.00  0.00     0.116 C 
BRANCH   3   4
ATOM      4  N   UNL A   1      29.364  27.726  23.565  1.00  0.00    -0.354 N 
ATOM      5  C   UNL A   1      29.123  26.468  24.069  1.00  0.00     0.247 C 
ATOM      6  O   UNL A   1      28.051  25.936  23.780  1.00  0.00    -0.272 OA
ATOM      7  H   UNL A   1      28.760  28.468  23.798  1.00  0.00     0.163 HD
BRANCH   5   8
ATOM      8  C   UNL A   1      30.236  25.822  24.936  1.00  0.00     0.202 C 
BRANCH   8   9
ATOM      9  N   UNL A   1      29.727  24.961  26.010  1.00  0.00    -0.337 N 
ATOM     10  C   UNL A   1      30.142  23.910  26.746  1.00  0.00     0.244 C 
ATOM     11  O   UNL A   1      29.350  23.484  27.593  1.00  0.00    -0.270 OA
ATOM     12  H   UNL A   1      28.816  25.230  26.271  1.00  0.00     0.164 HD
BRANCH  10  13
ATOM     13  C   UNL A   1      31.453  23.221  26.651  1.00  0.00     0.071 C 
ATOM     14  C   UNL A   1      31.843  22.292  25.774  1.00  0.00     0.013 C 
BRANCH  14  15
ATOM     15  C   UNL A   1      33.146  21.673  25.584  1.00  0.00    -0.007 C 
ATOM     16  C   UNL A   1      32.595  20.242  23.538  1.00  0.00     0.058 C 
ATOM     17  C   UNL A   1      33.114  20.263  24.980  1.00  0.00     0.200 C 
ATOM     18  O   UNL A   1      34.359  19.542  24.981  1.00  0.00    -0.485 OA
ATOM     19  C   UNL A   1      35.508  20.269  25.084  1.00  0.00     0.127 A 
ATOM     20  C   UNL A   1      34.307  22.280  25.865  1.00  0.00     0.019 C 
ATOM     21  C   UNL A   1      36.684  19.603  24.744  1.00  0.00     0.047 A 
ATOM     22  C   UNL A   1      35.545  21.589  25.533  1.00  0.00     0.017 A 
ATOM     23  C   UNL A   1      37.911  20.257  24.851  1.00  0.00     0.004 A 
ATOM     24  C   UNL A   1      36.778  22.237  25.655  1.00  0.00     0.012 A 
ATOM     25  C   UNL A   1      37.958  21.571  25.311  1.00  0.00     0.001 A 
ENDBRANCH  14  15
ENDBRANCH  10  13
ENDBRANCH   8   9
BRANCH   8  26
ATOM     26  C   UNL A   1      31.491  25.384  24.202  1.00  0.00    -0.016 A 
ATOM     27  C   UNL A   1      31.353  24.468  23.136  1.00  0.00     0.006 A 
ATOM     28  C   UNL A   1      32.783  25.802  24.530  1.00  0.00     0.006 A 
ATOM     29  C   UNL A   1      32.462  23.988  22.439  1.00  0.00     0.000 A 
ATOM     30  C   UNL A   1      33.898  25.296  23.855  1.00  0.00     0.000 A 
ATOM     31  C   UNL A   1      33.739  24.393  22.809  1.00  0.00     0.000 A 
ENDBRANCH   8  26
ENDBRANCH   5   8
ENDBRANCH   3   4
ENDBRANCH   2   3
ENDBRANCH   1   2
BRANCH   1  32
ATOM     32  C   UNL A   1      32.498  29.411  25.264  1.00  0.00     0.002 C 
BRANCH  32  33
ATOM     33  C   UNL A   1      32.455  28.668  26.599  1.00  0.00     0.021 C 
BRANCH  33  34
ATOM     34  C   UNL A   1      33.654  28.948  27.490  1.00  0.00     0.116 C 
BRANCH  34  35
ATOM     35  N   UNL A   1      33.681  30.327  27.944  1.00  0.00    -0.352 N 
ATOM     36  C   UNL A   1      34.707  30.983  28.578  1.00  0.00     0.251 C 
ATOM     37  H   UNL A   1      32.867  30.855  27.776  1.00  0.00     0.163 HD
ATOM     38  O   UNL A   1      34.535  32.082  29.095  1.00  0.00    -0.269 OA
BRANCH  36  39
ATOM     39  C   UNL A   1      36.022  30.316  28.653  1.00  0.00     0.039 A 
ATOM     40  C   UNL A   1      36.426  29.711  29.845  1.00  0.00     0.014 A 
ATOM     41  C   UNL A   1      36.881  30.370  27.553  1.00  0.00     0.014 A 
ATOM     42  C   UNL A   1      37.744  29.304  29.991  1.00  0.00     0.010 A 
ATOM     43  C   UNL A   1      38.179  29.869  27.674  1.00  0.00     0.010 A 
ATOM     44  C   UNL A   1      38.634  29.371  28.906  1.00  0.00    -0.014 A 
BRANCH  44  45
ATOM     45  C   UNL A   1      40.030  28.896  29.079  1.00  0.00     0.031 A 
ATOM     46  C   UNL A   1      41.069  29.763  29.735  1.00  0.00     0.074 A 
ATOM     47  C   UNL A   1      40.345  27.650  28.675  1.00  0.00     0.049 A 
ATOM     48  N   UNL A   1      42.330  29.499  29.965  1.00  0.00    -0.248 NA
ATOM     49  C   UNL A   1      40.644  31.097  30.192  1.00  0.00     0.031 C 
ATOM     50  C   UNL A   1      39.413  26.708  28.050  1.00  0.00     0.029 A 
ATOM     51  N   UNL A   1      41.521  26.949  28.756  1.00  0.00    -0.354 N 
ATOM     52  C   UNL A   1      42.853  30.636  30.572  1.00  0.00     0.074 A 
ATOM     53  C   UNL A   1      41.781  31.603  30.652  1.00  0.00     0.031 C 
ATOM     54  C   UNL A   1      40.035  25.536  27.860  1.00  0.00     0.029 A 
ATOM     55  C   UNL A   1      41.427  25.667  28.272  1.00  0.00     0.049 A 
ATOM     56  H   UNL A   1      42.351  27.328  29.125  1.00  0.00     0.167 HD
ATOM     57  C   UNL A   1      44.110  30.845  31.028  1.00  0.00     0.031 A 
ATOM     58  C   UNL A   1      42.359  24.702  28.152  1.00  0.00     0.031 A 
ATOM     59  C   UNL A   1      45.168  29.871  30.953  1.00  0.00     0.049 A 
ATOM     60  C   UNL A   1      43.760  24.982  28.611  1.00  0.00     0.074 A 
ATOM     61  C   UNL A   1      46.471  29.986  31.406  1.00  0.00     0.029 A 
ATOM     62  N   UNL A   1      45.048  28.608  30.392  1.00  0.00    -0.354 N 
ATOM     63  N   UNL A   1      44.235  26.059  29.188  1.00  0.00    -0.248 NA
ATOM     64  C   UNL A   1      44.754  23.920  28.402  1.00  0.00     0.031 C 
ATOM     65  C   UNL A   1      47.157  28.821  31.061  1.00  0.00     0.029 A 
ATOM     66  C   UNL A   1      46.263  27.946  30.462  1.00  0.00     0.049 A 
ATOM     67  H   UNL A   1      44.224  28.238  30.004  1.00  0.00     0.167 HD
ATOM     68  C   UNL A   1      45.578  25.801  29.424  1.00  0.00     0.074 A 
ATOM     69  C   UNL A   1      45.837  24.459  28.947  1.00  0.00     0.031 C 
ATOM     70  C   UNL A   1      46.510  26.611  29.982  1.00  0.00     0.031 A 
BRANCH  57  71
ATOM     71  C   UNL A   1      44.435  32.180  31.640  1.00  0.00    -0.014 A 
ATOM     72  C   UNL A   1      45.018  33.185  30.849  1.00  0.00     0.009 A 
ATOM     73  C   UNL A   1      44.272  32.410  33.015  1.00  0.00     0.009 A 
ATOM     74  C   UNL A   1      45.446  34.384  31.423  1.00  0.00     0.001 A 
ATOM     75  C   UNL A   1      44.675  33.622  33.581  1.00  0.00     0.001 A 
ATOM     76  C   UNL A   1      45.271  34.602  32.788  1.00  0.00     0.000 A 
ENDBRANCH  57  71
BRANCH  58  77
ATOM     77  C   UNL A   1      41.975  23.390  27.569  1.00  0.00    -0.014 A 
ATOM     78  C   UNL A   1      41.457  22.370  28.385  1.00  0.00     0.009 A 
ATOM     79  C   UNL A   1      42.191  23.123  26.209  1.00  0.00     0.009 A 
ATOM     80  C   UNL A   1      41.198  21.102  27.862  1.00  0.00     0.001 A 
ATOM     81  C   UNL A   1      41.898  21.862  25.681  1.00  0.00     0.001 A 
ATOM     82  C   UNL A   1      41.416  20.850  26.510  1.00  0.00     0.000 A 
ENDBRANCH  58  77
BRANCH  70  83
ATOM     83  C   UNL A   1      47.908  26.076  30.128  1.00  0.00    -0.014 A 
ATOM     84  C   UNL A   1      48.343  25.599  31.375  1.00  0.00     0.009 A 
ATOM     85  C   UNL A   1      48.826  26.150  29.070  1.00  0.00     0.009 A 
ATOM     86  C   UNL A   1      49.674  25.228  31.567  1.00  0.00     0.001 A 
ATOM     87  C   UNL A   1      50.150  25.748  29.256  1.00  0.00     0.001 A 
ATOM     88  C   UNL A   1      50.575  25.299  30.506  1.00  0.00     0.000 A 
ENDBRANCH  70  83
ENDBRANCH  44  45
ENDBRANCH  36  39
ENDBRANCH  34  35
ENDBRANCH  33  34
ENDBRANCH  32  33
ENDBRANCH   1  32
TORSDOF 17
ENDMDL
MODEL 3
REMARK VINA RESULT:     -11.7      2.044      7.927
REMARK SMILES C[C@H]1Oc2ccccc2C=C1/C=C/C(=O)N[C@H](C(=O)NCCCCCCNC(=O)c1ccc(-c2c3nc(c(-c4ccccc4)c4ccc([nH]4)c(-c4ccccc4)c4nc(c(-c5ccccc5)c5ccc2[nH]5)C=C4)C=C3)cc1)c1ccccc1
REMARK SMILES IDX 23 1 22 2 21 3 20 4 18 5 19 6 17 8 16 9 14 10 15 11 13 13
REMARK SMILES IDX 12 14 11 15 1 16 2 17 3 18 4 19 10 20 5 21 9 22 6 23 8 24
REMARK SMILES IDX 7 25 78 26 79 27 83 28 80 29 82 30 81 31 24 32 25 33 26 34
REMARK SMILES IDX 27 35 28 36 29 38 30 39 31 40 77 41 32 42 76 43 33 44 34 45
REMARK SMILES IDX 35 46 70 47 36 48 75 49 69 50 71 51 37 52 74 53 68 54 67 55
REMARK SMILES IDX 38 57 60 58 45 59 59 60 46 61 49 62 58 63 72 64 47 65 48 66
REMARK SMILES IDX 57 68 73 69 50 70 39 71 40 72 44 73 41 74 43 75 42 76 61 77
REMARK SMILES IDX 62 78 66 79 63 80 65 81 64 82 51 83 52 84 56 85 53 86 55 87
REMARK SMILES IDX 54 88
REMARK H PARENT 20 7 16 12 27 37 71 56 49 67
REMARK Flexibility Score: inf
ROOT
ATOM      1  C   UNL A   1      36.455  22.312  25.269  1.00  0.00     0.002 C 
ENDROOT
BRANCH   1   2
ATOM      2  C   UNL A   1      35.684  23.439  24.565  1.00  0.00     0.021 C 
BRANCH   2   3
ATOM      3  C   UNL A   1      35.086  23.009  23.221  1.00  0.00     0.116 C 
BRANCH   3   4
ATOM      4  N   UNL A   1      33.680  23.341  23.204  1.00  0.00    -0.354 N 
ATOM      5  C   UNL A   1      32.726  22.348  23.231  1.00  0.00     0.247 C 
ATOM      6  O   UNL A   1      31.948  22.282  22.280  1.00  0.00    -0.272 OA
ATOM      7  H   UNL A   1      33.400  24.284  23.174  1.00  0.00     0.163 HD
BRANCH   5   8
ATOM      8  C   UNL A   1      32.736  21.384  24.447  1.00  0.00     0.202 C 
BRANCH   8   9
ATOM      9  N   UNL A   1      31.671  21.647  25.421  1.00  0.00    -0.337 N 
ATOM     10  C   UNL A   1      30.889  22.675  25.812  1.00  0.00     0.244 C 
ATOM     11  O   UNL A   1      30.077  22.437  26.711  1.00  0.00    -0.270 OA
ATOM     12  H   UNL A   1      31.466  20.837  25.943  1.00  0.00     0.164 HD
BRANCH  10  13
ATOM     13  C   UNL A   1      30.897  24.055  25.265  1.00  0.00     0.071 C 
ATOM     14  C   UNL A   1      30.206  24.544  24.232  1.00  0.00     0.013 C 
BRANCH  14  15
ATOM     15  C   UNL A   1      30.108  25.908  23.735  1.00  0.00    -0.007 C 
ATOM     16  C   UNL A   1      31.786  25.736  21.812  1.00  0.00     0.058 C 
ATOM     17  C   UNL A   1      31.391  26.464  23.103  1.00  0.00     0.200 C 
ATOM     18  O   UNL A   1      31.393  27.870  22.800  1.00  0.00    -0.485 OA
ATOM     19  C   UNL A   1      30.186  28.489  22.670  1.00  0.00     0.127 A 
ATOM     20  C   UNL A   1      28.983  26.635  23.772  1.00  0.00     0.019 C 
ATOM     21  C   UNL A   1      30.202  29.739  22.053  1.00  0.00     0.047 A 
ATOM     22  C   UNL A   1      28.990  27.950  23.148  1.00  0.00     0.017 A 
ATOM     23  C   UNL A   1      29.018  30.460  21.908  1.00  0.00     0.004 A 
ATOM     24  C   UNL A   1      27.807  28.683  23.015  1.00  0.00     0.012 A 
ATOM     25  C   UNL A   1      27.822  29.935  22.393  1.00  0.00     0.001 A 
ENDBRANCH  14  15
ENDBRANCH  10  13
ENDBRANCH   8   9
BRANCH   8  26
ATOM     26  C   UNL A   1      33.098  19.938  24.156  1.00  0.00    -0.016 A 
ATOM     27  C   UNL A   1      34.278  19.419  24.733  1.00  0.00     0.006 A 
ATOM     28  C   UNL A   1      32.358  19.091  23.328  1.00  0.00     0.006 A 
ATOM     29  C   UNL A   1      34.699  18.113  24.481  1.00  0.00     0.000 A 
ATOM     30  C   UNL A   1      32.796  17.792  23.049  1.00  0.00     0.000 A 
ATOM     31  C   UNL A   1      33.963  17.303  23.626  1.00  0.00     0.000 A 
ENDBRANCH   8  26
ENDBRANCH   5   8
ENDBRANCH   3   4
ENDBRANCH   2   3
ENDBRANCH   1   2
BRANCH   1  32
ATOM     32  C   UNL A   1      37.398  21.522  24.353  1.00  0.00     0.002 C 
BRANCH  32  33
ATOM     33  C   UNL A   1      37.972  20.255  24.985  1.00  0.00     0.021 C 
BRANCH  33  34
ATOM     34  C   UNL A   1      39.115  20.520  25.951  1.00  0.00     0.116 C 
BRANCH  34  35
ATOM     35  N   UNL A   1      40.121  19.474  25.900  1.00  0.00    -0.352 N 
ATOM     36  C   UNL A   1      41.477  19.603  26.069  1.00  0.00     0.251 C 
ATOM     37  H   UNL A   1      39.790  18.563  25.722  1.00  0.00     0.163 HD
ATOM     38  O   UNL A   1      42.242  18.683  25.799  1.00  0.00    -0.269 OA
BRANCH  36  39
ATOM     39  C   UNL A   1      42.000  20.895  26.557  1.00  0.00     0.039 A 
ATOM     40  C   UNL A   1      42.060  21.144  27.930  1.00  0.00     0.014 A 
ATOM     41  C   UNL A   1      42.349  21.884  25.636  1.00  0.00     0.014 A 
ATOM     42  C   UNL A   1      42.315  22.432  28.379  1.00  0.00     0.010 A 
ATOM     43  C   UNL A   1      42.700  23.154  26.098  1.00  0.00     0.010 A 
ATOM     44  C   UNL A   1      42.646  23.450  27.469  1.00  0.00    -0.014 A 
BRANCH  44  45
ATOM     45  C   UNL A   1      42.948  24.811  27.979  1.00  0.00     0.031 A 
ATOM     46  C   UNL A   1      41.851  25.812  28.217  1.00  0.00     0.074 A 
ATOM     47  C   UNL A   1      44.226  25.125  28.270  1.00  0.00     0.049 A 
ATOM     48  N   UNL A   1      41.944  27.040  28.660  1.00  0.00    -0.248 NA
ATOM     49  C   UNL A   1      40.473  25.387  27.920  1.00  0.00     0.031 C 
ATOM     50  C   UNL A   1      45.370  24.225  28.105  1.00  0.00     0.029 A 
ATOM     51  N   UNL A   1      44.775  26.269  28.791  1.00  0.00    -0.354 N 
ATOM     52  C   UNL A   1      40.647  27.539  28.676  1.00  0.00     0.074 A 
ATOM     53  C   UNL A   1      39.785  26.493  28.174  1.00  0.00     0.031 C 
ATOM     54  C   UNL A   1      46.473  24.828  28.572  1.00  0.00     0.029 A 
ATOM     55  C   UNL A   1      46.130  26.182  28.992  1.00  0.00     0.049 A 
ATOM     56  H   UNL A   1      44.248  27.074  29.000  1.00  0.00     0.167 HD
ATOM     57  C   UNL A   1      40.218  28.757  29.083  1.00  0.00     0.031 A 
ATOM     58  C   UNL A   1      47.013  27.092  29.445  1.00  0.00     0.031 A 
ATOM     59  C   UNL A   1      41.083  29.790  29.592  1.00  0.00     0.049 A 
ATOM     60  C   UNL A   1      46.517  28.455  29.833  1.00  0.00     0.074 A 
ATOM     61  C   UNL A   1      40.736  31.050  30.047  1.00  0.00     0.029 A 
ATOM     62  N   UNL A   1      42.461  29.684  29.715  1.00  0.00    -0.354 N 
ATOM     63  N   UNL A   1      45.287  28.907  29.848  1.00  0.00    -0.248 NA
ATOM     64  C   UNL A   1      47.526  29.432  30.263  1.00  0.00     0.031 C 
ATOM     65  C   UNL A   1      41.908  31.730  30.382  1.00  0.00     0.029 A 
ATOM     66  C   UNL A   1      42.980  30.868  30.210  1.00  0.00     0.049 A 
ATOM     67  H   UNL A   1      42.989  28.886  29.485  1.00  0.00     0.167 HD
ATOM     68  C   UNL A   1      45.370  30.217  30.301  1.00  0.00     0.074 A 
ATOM     69  C   UNL A   1      46.769  30.478  30.570  1.00  0.00     0.031 C 
ATOM     70  C   UNL A   1      44.374  31.118  30.472  1.00  0.00     0.031 A 
BRANCH  57  71
ATOM     71  C   UNL A   1      38.748  29.065  28.987  1.00  0.00    -0.014 A 
ATOM     72  C   UNL A   1      38.228  29.617  27.805  1.00  0.00     0.009 A 
ATOM     73  C   UNL A   1      37.900  28.917  30.095  1.00  0.00     0.009 A 
ATOM     74  C   UNL A   1      36.896  30.030  27.738  1.00  0.00     0.001 A 
ATOM     75  C   UNL A   1      36.560  29.304  30.016  1.00  0.00     0.001 A 
ATOM     76  C   UNL A   1      36.062  29.870  28.842  1.00  0.00     0.000 A 
ENDBRANCH  57  71
BRANCH  58  77
ATOM     77  C   UNL A   1      48.449  26.724  29.549  1.00  0.00    -0.014 A 
ATOM     78  C   UNL A   1      49.304  26.863  28.443  1.00  0.00     0.009 A 
ATOM     79  C   UNL A   1      48.957  26.163  30.730  1.00  0.00     0.009 A 
ATOM     80  C   UNL A   1      50.625  26.417  28.503  1.00  0.00     0.001 A 
ATOM     81  C   UNL A   1      50.290  25.749  30.798  1.00  0.00     0.001 A 
ATOM     82  C   UNL A   1      51.118  25.863  29.683  1.00  0.00     0.000 A 
ENDBRANCH  58  77
BRANCH  70  83
ATOM     83  C   UNL A   1      44.742  32.482  30.988  1.00  0.00    -0.014 A 
ATOM     84  C   UNL A   1      44.717  32.733  32.370  1.00  0.00     0.009 A 
ATOM     85  C   UNL A   1      44.998  33.545  30.109  1.00  0.00     0.009 A 
ATOM     86  C   UNL A   1      44.920  34.023  32.860  1.00  0.00     0.001 A 
ATOM     87  C   UNL A   1      45.233  34.829  30.604  1.00  0.00     0.001 A 
ATOM     88  C   UNL A   1      45.182  35.069  31.976  1.00  0.00     0.000 A 
ENDBRANCH  70  83
ENDBRANCH  44  45
ENDBRANCH  36  39
ENDBRANCH  34  35
ENDBRANCH  33  34
ENDBRANCH  32  33
ENDBRANCH   1  32
TORSDOF 17
ENDMDL
