MODEL 1
REMARK VINA RESULT:     -10.3      0.000      0.000
REMARK SMILES CCC[C@@H]1SC[C@@H](C(=O)NCCCCCCNC(=O)c2ccc(-c3c4nc(c(-c5ccccc5)c5ccc([nH]5)c(-c5ccccc5)c5nc(c(-c6ccccc6)c6ccc3[nH]6)C=C5)C=C4)cc2)N1C(=O)C1C(C)(C)C1(C)C
REMARK SMILES IDX 13 1 12 2 11 3 10 4 8 5 9 6 7 8 4 9 5 10 68 11 6 12 3 13
REMARK SMILES IDX 2 14 1 15 69 16 70 17 71 18 72 19 75 20 73 21 74 22 76 23
REMARK SMILES IDX 77 24 14 25 15 26 16 27 17 28 18 29 19 31 20 32 21 33 67 34
REMARK SMILES IDX 22 35 66 36 23 37 24 38 25 39 60 40 26 41 65 42 59 43 61 44
REMARK SMILES IDX 27 45 64 46 58 47 57 48 28 50 50 51 35 52 49 53 36 54 39 55
REMARK SMILES IDX 48 56 62 57 37 58 38 59 47 61 63 62 40 63 29 64 30 65 34 66
REMARK SMILES IDX 31 67 33 68 32 69 51 70 52 71 56 72 53 73 55 74 54 75 41 76
REMARK SMILES IDX 42 77 46 78 43 79 45 80 44 81
REMARK H PARENT 10 7 17 30 61 49 39 60
REMARK Flexibility Score: inf
ROOT
ATOM      1  C   UNL A   1      33.430  30.268  27.257  1.00  0.00     0.002 C 
ENDROOT
BRANCH   1   2
ATOM      2  C   UNL A   1      34.171  29.279  26.349  1.00  0.00     0.021 C 
BRANCH   2   3
ATOM      3  C   UNL A   1      33.304  28.745  25.215  1.00  0.00     0.116 C 
BRANCH   3   4
ATOM      4  N   UNL A   1      34.024  28.674  23.966  1.00  0.00    -0.354 N 
ATOM      5  C   UNL A   1      33.729  28.042  22.793  1.00  0.00     0.243 C 
ATOM      6  O   UNL A   1      34.375  28.418  21.807  1.00  0.00    -0.273 OA
ATOM      7  H   UNL A   1      34.877  29.167  23.959  1.00  0.00     0.163 HD
BRANCH   5   8
ATOM      8  C   UNL A   1      32.504  27.097  22.611  1.00  0.00     0.185 C 
ATOM      9  C   UNL A   1      31.330  25.693  24.292  1.00  0.00     0.144 C 
ATOM     10  S   UNL A   1      30.063  26.822  23.598  1.00  0.00    -0.134 SA
ATOM     11  N   UNL A   1      32.490  25.787  23.344  1.00  0.00    -0.318 N 
ATOM     12  C   UNL A   1      31.272  27.948  22.918  1.00  0.00     0.107 C 
BRANCH   9  13
ATOM     13  C   UNL A   1      30.585  24.406  24.678  1.00  0.00     0.036 C 
BRANCH  13  14
ATOM     14  C   UNL A   1      30.387  24.194  26.192  1.00  0.00    -0.000 C 
ATOM     15  C   UNL A   1      31.023  22.939  26.750  1.00  0.00     0.004 C 
ENDBRANCH  13  14
ENDBRANCH   9  13
BRANCH  11  16
ATOM     16  C   UNL A   1      33.569  24.951  22.922  1.00  0.00     0.228 C 
ATOM     17  O   UNL A   1      33.680  24.743  21.708  1.00  0.00    -0.274 OA
BRANCH  16  18
ATOM     18  C   UNL A   1      34.659  24.227  23.706  1.00  0.00     0.091 C 
ATOM     19  C   UNL A   1      34.854  24.131  25.195  1.00  0.00    -0.017 C 
ATOM     20  C   UNL A   1      34.489  22.834  24.288  1.00  0.00    -0.017 C 
ATOM     21  C   UNL A   1      36.272  24.123  25.787  1.00  0.00     0.012 C 
ATOM     22  C   UNL A   1      34.060  25.115  26.016  1.00  0.00     0.012 C 
ATOM     23  C   UNL A   1      33.201  22.126  23.919  1.00  0.00     0.012 C 
ATOM     24  C   UNL A   1      35.617  21.799  24.200  1.00  0.00     0.012 C 
ENDBRANCH  16  18
ENDBRANCH  11  16
ENDBRANCH   5   8
ENDBRANCH   3   4
ENDBRANCH   2   3
ENDBRANCH   1   2
BRANCH   1  25
ATOM     25  C   UNL A   1      31.957  30.504  26.891  1.00  0.00     0.002 C 
BRANCH  25  26
ATOM     26  C   UNL A   1      31.475  31.952  27.010  1.00  0.00     0.021 C 
BRANCH  26  27
ATOM     27  C   UNL A   1      32.555  33.001  26.764  1.00  0.00     0.116 C 
BRANCH  27  28
ATOM     28  N   UNL A   1      32.406  34.149  27.645  1.00  0.00    -0.352 N 
ATOM     29  C   UNL A   1      33.115  34.483  28.770  1.00  0.00     0.251 C 
ATOM     30  H   UNL A   1      31.691  34.779  27.399  1.00  0.00     0.163 HD
ATOM     31  O   UNL A   1      32.702  35.366  29.522  1.00  0.00    -0.269 OA
BRANCH  29  32
ATOM     32  C   UNL A   1      34.373  33.779  29.089  1.00  0.00     0.039 A 
ATOM     33  C   UNL A   1      35.530  34.100  28.375  1.00  0.00     0.014 A 
ATOM     34  C   UNL A   1      34.407  32.790  30.075  1.00  0.00     0.014 A 
ATOM     35  C   UNL A   1      36.734  33.468  28.692  1.00  0.00     0.010 A 
ATOM     36  C   UNL A   1      35.622  32.215  30.440  1.00  0.00     0.010 A 
ATOM     37  C   UNL A   1      36.797  32.546  29.750  1.00  0.00    -0.014 A 
BRANCH  37  38
ATOM     38  C   UNL A   1      38.081  31.914  30.144  1.00  0.00     0.031 A 
ATOM     39  C   UNL A   1      39.018  32.624  31.085  1.00  0.00     0.074 A 
ATOM     40  C   UNL A   1      38.429  30.724  29.615  1.00  0.00     0.049 A 
ATOM     41  N   UNL A   1      40.209  32.264  31.491  1.00  0.00    -0.248 NA
ATOM     42  C   UNL A   1      38.564  33.917  31.625  1.00  0.00     0.031 C 
ATOM     43  C   UNL A   1      37.625  29.946  28.670  1.00  0.00     0.029 A 
ATOM     44  N   UNL A   1      39.556  29.962  29.795  1.00  0.00    -0.354 N 
ATOM     45  C   UNL A   1      40.645  33.283  32.330  1.00  0.00     0.074 A 
ATOM     46  C   UNL A   1      39.620  34.303  32.324  1.00  0.00     0.031 C 
ATOM     47  C   UNL A   1      38.273  28.808  28.373  1.00  0.00     0.029 A 
ATOM     48  C   UNL A   1      39.555  28.796  29.068  1.00  0.00     0.049 A 
ATOM     49  H   UNL A   1      40.296  30.225  30.390  1.00  0.00     0.167 HD
ATOM     50  C   UNL A   1      41.782  33.352  33.061  1.00  0.00     0.031 A 
ATOM     51  C   UNL A   1      40.488  27.830  28.963  1.00  0.00     0.031 A 
ATOM     52  C   UNL A   1      42.804  32.339  33.065  1.00  0.00     0.049 A 
ATOM     53  C   UNL A   1      41.766  27.958  29.747  1.00  0.00     0.074 A 
ATOM     54  C   UNL A   1      43.986  32.309  33.787  1.00  0.00     0.029 A 
ATOM     55  N   UNL A   1      42.765  31.176  32.313  1.00  0.00    -0.354 N 
ATOM     56  N   UNL A   1      42.138  28.905  30.575  1.00  0.00    -0.248 NA
ATOM     57  C   UNL A   1      42.748  26.876  29.591  1.00  0.00     0.031 C 
ATOM     58  C   UNL A   1      44.683  31.150  33.435  1.00  0.00     0.029 A 
ATOM     59  C   UNL A   1      43.908  30.429  32.541  1.00  0.00     0.049 A 
ATOM     60  H   UNL A   1      42.033  30.919  31.707  1.00  0.00     0.167 HD
ATOM     61  C   UNL A   1      43.378  28.513  31.064  1.00  0.00     0.074 A 
ATOM     62  C   UNL A   1      43.685  27.236  30.456  1.00  0.00     0.031 C 
ATOM     63  C   UNL A   1      44.192  29.154  31.937  1.00  0.00     0.031 A 
BRANCH  50  64
ATOM     64  C   UNL A   1      41.978  34.564  33.929  1.00  0.00    -0.014 A 
ATOM     65  C   UNL A   1      42.535  35.743  33.405  1.00  0.00     0.009 A 
ATOM     66  C   UNL A   1      41.557  34.550  35.267  1.00  0.00     0.009 A 
ATOM     67  C   UNL A   1      42.694  36.871  34.212  1.00  0.00     0.001 A 
ATOM     68  C   UNL A   1      41.688  35.689  36.063  1.00  0.00     0.001 A 
ATOM     69  C   UNL A   1      42.264  36.845  35.538  1.00  0.00     0.000 A 
ENDBRANCH  50  64
BRANCH  51  70
ATOM     70  C   UNL A   1      40.265  26.657  28.075  1.00  0.00    -0.014 A 
ATOM     71  C   UNL A   1      39.581  25.525  28.544  1.00  0.00     0.009 A 
ATOM     72  C   UNL A   1      40.778  26.644  26.768  1.00  0.00     0.009 A 
ATOM     73  C   UNL A   1      39.455  24.389  27.741  1.00  0.00     0.001 A 
ATOM     74  C   UNL A   1      40.619  25.520  25.955  1.00  0.00     0.001 A 
ATOM     75  C   UNL A   1      39.972  24.388  26.446  1.00  0.00     0.000 A 
ENDBRANCH  51  70
BRANCH  63  76
ATOM     76  C   UNL A   1      45.469  28.460  32.325  1.00  0.00    -0.014 A 
ATOM     77  C   UNL A   1      45.513  27.553  33.396  1.00  0.00     0.009 A 
ATOM     78  C   UNL A   1      46.636  28.691  31.582  1.00  0.00     0.009 A 
ATOM     79  C   UNL A   1      46.712  26.923  33.737  1.00  0.00     0.001 A 
ATOM     80  C   UNL A   1      47.824  28.036  31.904  1.00  0.00     0.001 A 
ATOM     81  C   UNL A   1      47.863  27.160  32.988  1.00  0.00     0.000 A 
ENDBRANCH  63  76
ENDBRANCH  37  38
ENDBRANCH  29  32
ENDBRANCH  27  28
ENDBRANCH  26  27
ENDBRANCH  25  26
ENDBRANCH   1  25
TORSDOF 17
ENDMDL
MODEL 2
REMARK VINA RESULT:     -10.1      4.024      9.170
REMARK SMILES CCC[C@@H]1SC[C@@H](C(=O)NCCCCCCNC(=O)c2ccc(-c3c4nc(c(-c5ccccc5)c5ccc([nH]5)c(-c5ccccc5)c5nc(c(-c6ccccc6)c6ccc3[nH]6)C=C5)C=C4)cc2)N1C(=O)C1C(C)(C)C1(C)C
REMARK SMILES IDX 13 1 12 2 11 3 10 4 8 5 9 6 7 8 4 9 5 10 68 11 6 12 3 13
REMARK SMILES IDX 2 14 1 15 69 16 70 17 71 18 72 19 75 20 73 21 74 22 76 23
REMARK SMILES IDX 77 24 14 25 15 26 16 27 17 28 18 29 19 31 20 32 21 33 67 34
REMARK SMILES IDX 22 35 66 36 23 37 24 38 25 39 60 40 26 41 65 42 59 43 61 44
REMARK SMILES IDX 27 45 64 46 58 47 57 48 28 50 50 51 35 52 49 53 36 54 39 55
REMARK SMILES IDX 48 56 62 57 37 58 38 59 47 61 63 62 40 63 29 64 30 65 34 66
REMARK SMILES IDX 31 67 33 68 32 69 51 70 52 71 56 72 53 73 55 74 54 75 41 76
REMARK SMILES IDX 42 77 46 78 43 79 45 80 44 81
REMARK H PARENT 10 7 17 30 61 49 39 60
REMARK Flexibility Score: inf
ROOT
ATOM      1  C   UNL A   1      37.358  21.732  24.450  1.00  0.00     0.002 C 
ENDROOT
BRANCH   1   2
ATOM      2  C   UNL A   1      36.251  22.688  23.993  1.00  0.00     0.021 C 
BRANCH   2   3
ATOM      3  C   UNL A   1      35.772  23.621  25.099  1.00  0.00     0.116 C 
BRANCH   3   4
ATOM      4  N   UNL A   1      35.428  22.906  26.305  1.00  0.00    -0.354 N 
ATOM      5  C   UNL A   1      34.287  22.251  26.667  1.00  0.00     0.243 C 
ATOM      6  O   UNL A   1      34.399  21.473  27.622  1.00  0.00    -0.273 OA
ATOM      7  H   UNL A   1      36.140  22.889  26.985  1.00  0.00     0.163 HD
BRANCH   5   8
ATOM      8  C   UNL A   1      32.986  22.256  25.811  1.00  0.00     0.185 C 
ATOM      9  C   UNL A   1      32.423  23.606  23.802  1.00  0.00     0.144 C 
ATOM     10  S   UNL A   1      32.280  21.851  23.292  1.00  0.00    -0.134 SA
ATOM     11  N   UNL A   1      32.465  23.569  25.301  1.00  0.00    -0.318 N 
ATOM     12  C   UNL A   1      33.221  21.249  24.686  1.00  0.00     0.107 C 
BRANCH   9  13
ATOM     13  C   UNL A   1      31.407  24.379  22.948  1.00  0.00     0.036 C 
BRANCH  13  14
ATOM     14  C   UNL A   1      32.019  25.388  21.955  1.00  0.00    -0.000 C 
ATOM     15  C   UNL A   1      31.420  26.777  22.005  1.00  0.00     0.004 C 
ENDBRANCH  13  14
ENDBRANCH   9  13
BRANCH  11  16
ATOM     16  C   UNL A   1      32.108  24.435  26.382  1.00  0.00     0.228 C 
ATOM     17  O   UNL A   1      31.362  23.973  27.252  1.00  0.00    -0.274 OA
BRANCH  16  18
ATOM     18  C   UNL A   1      32.480  25.883  26.687  1.00  0.00     0.091 C 
ATOM     19  C   UNL A   1      33.239  26.868  25.841  1.00  0.00    -0.017 C 
ATOM     20  C   UNL A   1      31.671  27.075  26.206  1.00  0.00    -0.017 C 
ATOM     21  C   UNL A   1      34.191  27.876  26.501  1.00  0.00     0.012 C 
ATOM     22  C   UNL A   1      33.993  26.274  24.677  1.00  0.00     0.012 C 
ATOM     23  C   UNL A   1      30.366  26.741  25.512  1.00  0.00     0.012 C 
ATOM     24  C   UNL A   1      31.399  28.269  27.130  1.00  0.00     0.012 C 
ENDBRANCH  16  18
ENDBRANCH  11  16
ENDBRANCH   5   8
ENDBRANCH   3   4
ENDBRANCH   2   3
ENDBRANCH   1   2
BRANCH   1  25
ATOM     25  C   UNL A   1      36.904  20.286  24.697  1.00  0.00     0.002 C 
BRANCH  25  26
ATOM     26  C   UNL A   1      38.025  19.288  25.002  1.00  0.00     0.021 C 
BRANCH  26  27
ATOM     27  C   UNL A   1      39.179  19.862  25.817  1.00  0.00     0.116 C 
BRANCH  27  28
ATOM     28  N   UNL A   1      40.288  18.927  25.918  1.00  0.00    -0.352 N 
ATOM     29  C   UNL A   1      41.629  19.176  26.060  1.00  0.00     0.251 C 
ATOM     30  H   UNL A   1      40.041  17.975  25.880  1.00  0.00     0.163 HD
ATOM     31  O   UNL A   1      42.447  18.270  25.895  1.00  0.00    -0.269 OA
BRANCH  29  32
ATOM     32  C   UNL A   1      42.099  20.533  26.401  1.00  0.00     0.039 A 
ATOM     33  C   UNL A   1      42.474  21.400  25.372  1.00  0.00     0.014 A 
ATOM     34  C   UNL A   1      42.187  20.944  27.734  1.00  0.00     0.014 A 
ATOM     35  C   UNL A   1      42.885  22.699  25.678  1.00  0.00     0.010 A 
ATOM     36  C   UNL A   1      42.526  22.261  28.032  1.00  0.00     0.010 A 
ATOM     37  C   UNL A   1      42.881  23.151  27.008  1.00  0.00    -0.014 A 
BRANCH  37  38
ATOM     38  C   UNL A   1      43.252  24.548  27.346  1.00  0.00     0.031 A 
ATOM     39  C   UNL A   1      44.696  24.972  27.336  1.00  0.00     0.074 A 
ATOM     40  C   UNL A   1      42.294  25.423  27.711  1.00  0.00     0.049 A 
ATOM     41  N   UNL A   1      45.220  26.126  27.666  1.00  0.00    -0.248 NA
ATOM     42  C   UNL A   1      45.683  23.962  26.921  1.00  0.00     0.031 C 
ATOM     43  C   UNL A   1      40.861  25.130  27.790  1.00  0.00     0.029 A 
ATOM     44  N   UNL A   1      42.383  26.739  28.091  1.00  0.00    -0.354 N 
ATOM     45  C   UNL A   1      46.591  25.979  27.498  1.00  0.00     0.074 A 
ATOM     46  C   UNL A   1      46.825  24.609  27.100  1.00  0.00     0.031 C 
ATOM     47  C   UNL A   1      40.205  26.239  28.168  1.00  0.00     0.029 A 
ATOM     48  C   UNL A   1      41.171  27.306  28.404  1.00  0.00     0.049 A 
ATOM     49  H   UNL A   1      43.235  27.230  28.135  1.00  0.00     0.167 HD
ATOM     50  C   UNL A   1      47.567  26.908  27.635  1.00  0.00     0.031 A 
ATOM     51  C   UNL A   1      40.872  28.543  28.843  1.00  0.00     0.031 A 
ATOM     52  C   UNL A   1      47.337  28.271  28.035  1.00  0.00     0.049 A 
ATOM     53  C   UNL A   1      41.983  29.540  29.037  1.00  0.00     0.074 A 
ATOM     54  C   UNL A   1      48.259  29.292  28.185  1.00  0.00     0.029 A 
ATOM     55  N   UNL A   1      46.095  28.803  28.344  1.00  0.00    -0.354 N 
ATOM     56  N   UNL A   1      43.269  29.397  28.824  1.00  0.00    -0.248 NA
ATOM     57  C   UNL A   1      41.597  30.873  29.520  1.00  0.00     0.031 C 
ATOM     58  C   UNL A   1      47.581  30.431  28.631  1.00  0.00     0.029 A 
ATOM     59  C   UNL A   1      46.230  30.134  28.700  1.00  0.00     0.049 A 
ATOM     60  H   UNL A   1      45.245  28.308  28.315  1.00  0.00     0.167 HD
ATOM     61  C   UNL A   1      43.838  30.631  29.113  1.00  0.00     0.074 A 
ATOM     62  C   UNL A   1      42.757  31.514  29.496  1.00  0.00     0.031 C 
ATOM     63  C   UNL A   1      45.141  31.001  29.067  1.00  0.00     0.031 A 
BRANCH  50  64
ATOM     64  C   UNL A   1      48.979  26.481  27.342  1.00  0.00    -0.014 A 
ATOM     65  C   UNL A   1      49.816  26.006  28.365  1.00  0.00     0.009 A 
ATOM     66  C   UNL A   1      49.463  26.503  26.026  1.00  0.00     0.009 A 
ATOM     67  C   UNL A   1      51.118  25.591  28.081  1.00  0.00     0.001 A 
ATOM     68  C   UNL A   1      50.755  26.058  25.739  1.00  0.00     0.001 A 
ATOM     69  C   UNL A   1      51.584  25.612  26.767  1.00  0.00     0.000 A 
ENDBRANCH  50  64
BRANCH  51  70
ATOM     70  C   UNL A   1      39.464  28.919  29.144  1.00  0.00    -0.014 A 
ATOM     71  C   UNL A   1      38.921  28.697  30.419  1.00  0.00     0.009 A 
ATOM     72  C   UNL A   1      38.640  29.458  28.142  1.00  0.00     0.009 A 
ATOM     73  C   UNL A   1      37.573  28.963  30.672  1.00  0.00     0.001 A 
ATOM     74  C   UNL A   1      37.303  29.757  28.409  1.00  0.00     0.001 A 
ATOM     75  C   UNL A   1      36.765  29.495  29.667  1.00  0.00     0.000 A 
ENDBRANCH  51  70
BRANCH  63  76
ATOM     76  C   UNL A   1      45.461  32.435  29.391  1.00  0.00    -0.014 A 
ATOM     77  C   UNL A   1      45.789  32.836  30.695  1.00  0.00     0.009 A 
ATOM     78  C   UNL A   1      45.470  33.390  28.364  1.00  0.00     0.009 A 
ATOM     79  C   UNL A   1      46.080  34.174  30.970  1.00  0.00     0.001 A 
ATOM     80  C   UNL A   1      45.794  34.720  28.634  1.00  0.00     0.001 A 
ATOM     81  C   UNL A   1      46.088  35.112  29.938  1.00  0.00     0.000 A 
ENDBRANCH  63  76
ENDBRANCH  37  38
ENDBRANCH  29  32
ENDBRANCH  27  28
ENDBRANCH  26  27
ENDBRANCH  25  26
ENDBRANCH   1  25
TORSDOF 17
ENDMDL
MODEL 3
REMARK VINA RESULT:     -10.0      4.306      9.035
REMARK SMILES CCC[C@@H]1SC[C@@H](C(=O)NCCCCCCNC(=O)c2ccc(-c3c4nc(c(-c5ccccc5)c5ccc([nH]5)c(-c5ccccc5)c5nc(c(-c6ccccc6)c6ccc3[nH]6)C=C5)C=C4)cc2)N1C(=O)C1C(C)(C)C1(C)C
REMARK SMILES IDX 13 1 12 2 11 3 10 4 8 5 9 6 7 8 4 9 5 10 68 11 6 12 3 13
REMARK SMILES IDX 2 14 1 15 69 16 70 17 71 18 72 19 75 20 73 21 74 22 76 23
REMARK SMILES IDX 77 24 14 25 15 26 16 27 17 28 18 29 19 31 20 32 21 33 67 34
REMARK SMILES IDX 22 35 66 36 23 37 24 38 25 39 60 40 26 41 65 42 59 43 61 44
REMARK SMILES IDX 27 45 64 46 58 47 57 48 28 50 50 51 35 52 49 53 36 54 39 55
REMARK SMILES IDX 48 56 62 57 37 58 38 59 47 61 63 62 40 63 29 64 30 65 34 66
REMARK SMILES IDX 31 67 33 68 32 69 51 70 52 71 56 72 53 73 55 74 54 75 41 76
REMARK SMILES IDX 42 77 46 78 43 79 45 80 44 81
REMARK H PARENT 10 7 17 30 61 49 39 60
REMARK Flexibility Score: inf
ROOT
ATOM      1  C   UNL A   1      37.404  21.950  24.537  1.00  0.00     0.002 C 
ENDROOT
BRANCH   1   2
ATOM      2  C   UNL A   1      36.307  22.903  24.048  1.00  0.00     0.021 C 
BRANCH   2   3
ATOM      3  C   UNL A   1      35.740  23.781  25.158  1.00  0.00     0.116 C 
BRANCH   3   4
ATOM      4  N   UNL A   1      35.395  23.019  26.334  1.00  0.00    -0.354 N 
ATOM      5  C   UNL A   1      34.257  22.341  26.664  1.00  0.00     0.243 C 
ATOM      6  O   UNL A   1      34.371  21.528  27.590  1.00  0.00    -0.273 OA
ATOM      7  H   UNL A   1      36.103  22.981  27.017  1.00  0.00     0.163 HD
BRANCH   5   8
ATOM      8  C   UNL A   1      32.961  22.367  25.801  1.00  0.00     0.185 C 
ATOM      9  C   UNL A   1      32.428  23.733  23.794  1.00  0.00     0.144 C 
ATOM     10  S   UNL A   1      32.264  21.982  23.277  1.00  0.00    -0.134 SA
ATOM     11  N   UNL A   1      32.461  23.690  25.294  1.00  0.00    -0.318 N 
ATOM     12  C   UNL A   1      33.188  21.362  24.674  1.00  0.00     0.107 C 
BRANCH   9  13
ATOM     13  C   UNL A   1      31.427  24.523  22.938  1.00  0.00     0.036 C 
BRANCH  13  14
ATOM     14  C   UNL A   1      32.059  25.521  21.947  1.00  0.00    -0.000 C 
ATOM     15  C   UNL A   1      31.503  26.928  22.015  1.00  0.00     0.004 C 
ENDBRANCH  13  14
ENDBRANCH   9  13
BRANCH  11  16
ATOM     16  C   UNL A   1      32.110  24.555  26.376  1.00  0.00     0.228 C 
ATOM     17  O   UNL A   1      31.370  24.093  27.251  1.00  0.00    -0.274 OA
BRANCH  16  18
ATOM     18  C   UNL A   1      32.482  26.004  26.677  1.00  0.00     0.091 C 
ATOM     19  C   UNL A   1      33.256  26.982  25.835  1.00  0.00    -0.017 C 
ATOM     20  C   UNL A   1      31.683  27.196  26.179  1.00  0.00    -0.017 C 
ATOM     21  C   UNL A   1      34.203  27.991  26.502  1.00  0.00     0.012 C 
ATOM     22  C   UNL A   1      34.024  26.379  24.686  1.00  0.00     0.012 C 
ATOM     23  C   UNL A   1      30.387  26.862  25.469  1.00  0.00     0.012 C 
ATOM     24  C   UNL A   1      31.404  28.396  27.092  1.00  0.00     0.012 C 
ENDBRANCH  16  18
ENDBRANCH  11  16
ENDBRANCH   5   8
ENDBRANCH   3   4
ENDBRANCH   2   3
ENDBRANCH   1   2
BRANCH   1  25
ATOM     25  C   UNL A   1      36.946  20.504  24.777  1.00  0.00     0.002 C 
BRANCH  25  26
ATOM     26  C   UNL A   1      38.069  19.486  24.994  1.00  0.00     0.021 C 
BRANCH  26  27
ATOM     27  C   UNL A   1      39.255  20.014  25.796  1.00  0.00     0.116 C 
BRANCH  27  28
ATOM     28  N   UNL A   1      40.288  19.004  25.964  1.00  0.00    -0.352 N 
ATOM     29  C   UNL A   1      41.640  19.157  26.131  1.00  0.00     0.251 C 
ATOM     30  H   UNL A   1      39.970  18.072  25.957  1.00  0.00     0.163 HD
ATOM     31  O   UNL A   1      42.390  18.187  26.024  1.00  0.00    -0.269 OA
BRANCH  29  32
ATOM     32  C   UNL A   1      42.203  20.489  26.429  1.00  0.00     0.039 A 
ATOM     33  C   UNL A   1      42.680  21.275  25.378  1.00  0.00     0.014 A 
ATOM     34  C   UNL A   1      42.278  20.953  27.745  1.00  0.00     0.014 A 
ATOM     35  C   UNL A   1      43.180  22.551  25.642  1.00  0.00     0.010 A 
ATOM     36  C   UNL A   1      42.709  22.253  27.998  1.00  0.00     0.010 A 
ATOM     37  C   UNL A   1      43.167  23.064  26.950  1.00  0.00    -0.014 A 
BRANCH  37  38
ATOM     38  C   UNL A   1      43.634  24.443  27.240  1.00  0.00     0.031 A 
ATOM     39  C   UNL A   1      42.650  25.505  27.652  1.00  0.00     0.074 A 
ATOM     40  C   UNL A   1      44.937  24.753  27.083  1.00  0.00     0.049 A 
ATOM     41  N   UNL A   1      42.857  26.777  27.882  1.00  0.00    -0.248 NA
ATOM     42  C   UNL A   1      41.247  25.088  27.808  1.00  0.00     0.031 C 
ATOM     43  C   UNL A   1      45.987  23.824  26.660  1.00  0.00     0.029 A 
ATOM     44  N   UNL A   1      45.599  25.943  27.256  1.00  0.00    -0.354 N 
ATOM     45  C   UNL A   1      41.615  27.308  28.207  1.00  0.00     0.074 A 
ATOM     46  C   UNL A   1      40.651  26.238  28.082  1.00  0.00     0.031 C 
ATOM     47  C   UNL A   1      47.162  24.472  26.631  1.00  0.00     0.029 A 
ATOM     48  C   UNL A   1      46.944  25.869  26.987  1.00  0.00     0.049 A 
ATOM     49  H   UNL A   1      45.152  26.771  27.546  1.00  0.00     0.167 HD
ATOM     50  C   UNL A   1      41.307  28.567  28.600  1.00  0.00     0.031 A 
ATOM     51  C   UNL A   1      47.894  26.824  27.011  1.00  0.00     0.031 A 
ATOM     52  C   UNL A   1      42.263  29.634  28.720  1.00  0.00     0.049 A 
ATOM     53  C   UNL A   1      47.513  28.226  27.402  1.00  0.00     0.074 A 
ATOM     54  C   UNL A   1      42.052  30.940  29.129  1.00  0.00     0.029 A 
ATOM     55  N   UNL A   1      43.615  29.518  28.435  1.00  0.00    -0.354 N 
ATOM     56  N   UNL A   1      46.342  28.698  27.755  1.00  0.00    -0.248 NA
ATOM     57  C   UNL A   1      48.591  29.226  27.409  1.00  0.00     0.031 C 
ATOM     58  C   UNL A   1      43.267  31.627  29.045  1.00  0.00     0.029 A 
ATOM     59  C   UNL A   1      44.246  30.733  28.644  1.00  0.00     0.049 A 
ATOM     60  H   UNL A   1      44.059  28.694  28.130  1.00  0.00     0.167 HD
ATOM     61  C   UNL A   1      46.551  30.037  28.060  1.00  0.00     0.074 A 
ATOM     62  C   UNL A   1      47.961  30.297  27.870  1.00  0.00     0.031 C 
ATOM     63  C   UNL A   1      45.654  30.971  28.461  1.00  0.00     0.031 A 
BRANCH  50  64
ATOM     64  C   UNL A   1      39.871  28.857  28.939  1.00  0.00    -0.014 A 
ATOM     65  C   UNL A   1      38.968  29.281  27.949  1.00  0.00     0.009 A 
ATOM     66  C   UNL A   1      39.399  28.656  30.245  1.00  0.00     0.009 A 
ATOM     67  C   UNL A   1      37.631  29.527  28.267  1.00  0.00     0.001 A 
ATOM     68  C   UNL A   1      38.055  28.874  30.554  1.00  0.00     0.001 A 
ATOM     69  C   UNL A   1      37.175  29.317  29.568  1.00  0.00     0.000 A 
ENDBRANCH  50  64
BRANCH  51  70
ATOM     70  C   UNL A   1      49.300  26.500  26.647  1.00  0.00    -0.014 A 
ATOM     71  C   UNL A   1      49.764  26.698  25.337  1.00  0.00     0.009 A 
ATOM     72  C   UNL A   1      50.173  25.946  27.596  1.00  0.00     0.009 A 
ATOM     73  C   UNL A   1      51.054  26.306  24.974  1.00  0.00     0.001 A 
ATOM     74  C   UNL A   1      51.475  25.588  27.240  1.00  0.00     0.001 A 
ATOM     75  C   UNL A   1      51.910  25.753  25.927  1.00  0.00     0.000 A 
ENDBRANCH  51  70
BRANCH  63  76
ATOM     76  C   UNL A   1      46.181  32.345  28.769  1.00  0.00    -0.014 A 
ATOM     77  C   UNL A   1      46.224  33.350  27.790  1.00  0.00     0.009 A 
ATOM     78  C   UNL A   1      46.608  32.646  30.071  1.00  0.00     0.009 A 
ATOM     79  C   UNL A   1      46.720  34.618  28.101  1.00  0.00     0.001 A 
ATOM     80  C   UNL A   1      47.073  33.923  30.387  1.00  0.00     0.001 A 
ATOM     81  C   UNL A   1      47.138  34.904  29.400  1.00  0.00     0.000 A 
ENDBRANCH  63  76
ENDBRANCH  37  38
ENDBRANCH  29  32
ENDBRANCH  27  28
ENDBRANCH  26  27
ENDBRANCH  25  26
ENDBRANCH   1  25
TORSDOF 17
ENDMDL
