MODEL 1
REMARK VINA RESULT:     -12.7      0.000      0.000
REMARK SMILES O=C(NCCCCCCNC(=O)c1ccccc1Nc1cccc(S(F)(F)(F)(F)F)c1)c1ccc(-c2c3nc(c(-c4ccccc4)c4ccc([nH]4)c(-c4ccccc4)c4nc(c(-c5ccccc5)c5ccc2[nH]5)C=C4)C=C3)cc1
REMARK SMILES IDX 7 1 6 2 5 3 4 4 3 5 1 6 2 7 32 9 33 10 79 11 34 12 78 13
REMARK SMILES IDX 35 14 36 15 37 16 72 17 38 18 77 19 71 20 73 21 39 22 76 23
REMARK SMILES IDX 70 24 69 25 40 27 62 28 47 29 61 30 48 31 51 32 60 33 74 34
REMARK SMILES IDX 49 35 50 36 59 38 75 39 52 40 41 41 42 42 46 43 43 44 45 45
REMARK SMILES IDX 44 46 63 47 64 48 68 49 65 50 67 51 66 52 53 53 54 54 58 55
REMARK SMILES IDX 55 56 57 57 56 58 8 59 9 60 10 61 11 62 12 64 13 65 14 66
REMARK SMILES IDX 18 67 15 68 17 69 16 70 19 71 20 73 21 74 31 75 22 76 24 77
REMARK SMILES IDX 23 78 25 79 26 80 27 81 28 82 29 83 30 84
REMARK H PARENT 3 8 73 26 51 37 10 63 19 72
REMARK Flexibility Score: inf
ROOT
ATOM      1  C   UNL A   1      33.349  30.314  27.042  1.00  0.00     0.002 C 
ENDROOT
BRANCH   1   2
ATOM      2  C   UNL A   1      31.844  30.479  26.905  1.00  0.00     0.002 C 
BRANCH   2   3
ATOM      3  C   UNL A   1      31.511  31.949  26.716  1.00  0.00     0.021 C 
BRANCH   3   4
ATOM      4  C   UNL A   1      32.640  32.800  27.274  1.00  0.00     0.116 C 
BRANCH   4   5
ATOM      5  N   UNL A   1      32.123  34.128  27.633  1.00  0.00    -0.352 N 
ATOM      6  O   UNL A   1      32.436  36.139  28.858  1.00  0.00    -0.269 OA
ATOM      7  C   UNL A   1      32.883  34.991  28.548  1.00  0.00     0.251 C 
ATOM      8  H   UNL A   1      31.267  34.440  27.260  1.00  0.00     0.163 HD
BRANCH   7   9
ATOM      9  C   UNL A   1      34.206  34.510  29.123  1.00  0.00     0.039 A 
ATOM     10  C   UNL A   1      35.414  34.747  28.487  1.00  0.00     0.014 A 
ATOM     11  C   UNL A   1      34.136  33.739  30.202  1.00  0.00     0.014 A 
ATOM     12  C   UNL A   1      36.458  33.886  28.900  1.00  0.00     0.010 A 
ATOM     13  C   UNL A   1      35.233  33.033  30.630  1.00  0.00     0.010 A 
ATOM     14  C   UNL A   1      36.444  33.172  30.012  1.00  0.00    -0.014 A 
BRANCH  14  15
ATOM     15  C   UNL A   1      37.707  32.541  30.574  1.00  0.00     0.031 A 
ATOM     16  C   UNL A   1      38.196  33.135  31.739  1.00  0.00     0.074 A 
ATOM     17  C   UNL A   1      38.232  31.388  30.014  1.00  0.00     0.049 A 
ATOM     18  N   UNL A   1      39.192  32.705  32.516  1.00  0.00    -0.248 NA
ATOM     19  C   UNL A   1      37.663  34.378  32.315  1.00  0.00     0.031 C 
ATOM     20  C   UNL A   1      37.740  30.778  28.844  1.00  0.00     0.029 A 
ATOM     21  N   UNL A   1      39.295  30.637  30.467  1.00  0.00    -0.354 N 
ATOM     22  C   UNL A   1      39.355  33.529  33.552  1.00  0.00     0.074 A 
ATOM     23  C   UNL A   1      38.379  34.620  33.435  1.00  0.00     0.031 C 
ATOM     24  C   UNL A   1      38.501  29.682  28.588  1.00  0.00     0.029 A 
ATOM     25  C   UNL A   1      39.482  29.588  29.594  1.00  0.00     0.049 A 
ATOM     26  H   UNL A   1      39.828  30.819  31.274  1.00  0.00     0.167 HD
ATOM     27  C   UNL A   1      40.279  33.413  34.592  1.00  0.00     0.031 A 
ATOM     28  C   UNL A   1      40.448  28.597  29.654  1.00  0.00     0.031 A 
ATOM     29  C   UNL A   1      41.218  32.396  34.674  1.00  0.00     0.049 A 
ATOM     30  C   UNL A   1      41.411  28.512  30.662  1.00  0.00     0.074 A 
ATOM     31  C   UNL A   1      42.153  32.260  35.719  1.00  0.00     0.029 A 
ATOM     32  N   UNL A   1      41.422  31.361  33.789  1.00  0.00    -0.354 N 
ATOM     33  N   UNL A   1      41.549  29.313  31.720  1.00  0.00    -0.248 NA
ATOM     34  C   UNL A   1      42.460  27.485  30.718  1.00  0.00     0.031 C 
ATOM     35  C   UNL A   1      42.914  31.163  35.464  1.00  0.00     0.029 A 
ATOM     36  C   UNL A   1      42.469  30.597  34.253  1.00  0.00     0.049 A 
ATOM     37  H   UNL A   1      40.907  31.196  32.967  1.00  0.00     0.167 HD
ATOM     38  C   UNL A   1      42.572  28.907  32.474  1.00  0.00     0.074 A 
ATOM     39  C   UNL A   1      43.177  27.729  31.837  1.00  0.00     0.031 C 
ATOM     40  C   UNL A   1      43.022  29.467  33.670  1.00  0.00     0.031 A 
BRANCH  27  41
ATOM     41  C   UNL A   1      40.256  34.459  35.694  1.00  0.00    -0.014 A 
ATOM     42  C   UNL A   1      41.022  35.610  35.604  1.00  0.00     0.009 A 
ATOM     43  C   UNL A   1      39.492  34.222  36.753  1.00  0.00     0.009 A 
ATOM     44  C   UNL A   1      41.136  36.319  36.823  1.00  0.00     0.001 A 
ATOM     45  C   UNL A   1      39.557  35.035  37.859  1.00  0.00     0.001 A 
ATOM     46  C   UNL A   1      40.338  36.157  37.862  1.00  0.00     0.000 A 
ENDBRANCH  27  41
BRANCH  28  47
ATOM     47  C   UNL A   1      40.462  27.541  28.560  1.00  0.00    -0.014 A 
ATOM     48  C   UNL A   1      41.218  27.791  27.427  1.00  0.00     0.009 A 
ATOM     49  C   UNL A   1      39.776  26.411  28.695  1.00  0.00     0.009 A 
ATOM     50  C   UNL A   1      40.955  26.905  26.356  1.00  0.00     0.001 A 
ATOM     51  C   UNL A   1      39.674  25.526  27.650  1.00  0.00     0.001 A 
ATOM     52  C   UNL A   1      40.348  25.740  26.479  1.00  0.00     0.000 A 
ENDBRANCH  28  47
BRANCH  40  53
ATOM     53  C   UNL A   1      44.192  28.800  34.377  1.00  0.00    -0.014 A 
ATOM     54  C   UNL A   1      43.989  27.817  35.331  1.00  0.00     0.009 A 
ATOM     55  C   UNL A   1      45.408  29.260  34.110  1.00  0.00     0.009 A 
ATOM     56  C   UNL A   1      45.110  27.585  36.162  1.00  0.00     0.001 A 
ATOM     57  C   UNL A   1      46.482  28.886  34.880  1.00  0.00     0.001 A 
ATOM     58  C   UNL A   1      46.343  27.963  35.879  1.00  0.00     0.000 A 
ENDBRANCH  40  53
ENDBRANCH  14  15
ENDBRANCH   7   9
ENDBRANCH   4   5
ENDBRANCH   3   4
ENDBRANCH   2   3
ENDBRANCH   1   2
BRANCH   1  59
ATOM     59  C   UNL A   1      33.848  29.331  25.995  1.00  0.00     0.021 C 
BRANCH  59  60
ATOM     60  C   UNL A   1      32.866  29.283  24.835  1.00  0.00     0.116 C 
BRANCH  60  61
ATOM     61  N   UNL A   1      33.604  29.366  23.566  1.00  0.00    -0.352 N 
ATOM     62  C   UNL A   1      33.730  28.178  22.710  1.00  0.00     0.253 C 
ATOM     63  H   UNL A   1      34.013  30.218  23.290  1.00  0.00     0.163 HD
ATOM     64  O   UNL A   1      34.367  28.251  21.613  1.00  0.00    -0.269 OA
BRANCH  62  65
ATOM     65  C   UNL A   1      33.098  26.864  23.137  1.00  0.00     0.063 A 
ATOM     66  C   UNL A   1      33.788  26.026  23.998  1.00  0.00     0.016 A 
ATOM     67  C   UNL A   1      31.895  26.539  22.677  1.00  0.00     0.051 A 
ATOM     68  C   UNL A   1      33.243  24.724  24.090  1.00  0.00     0.001 A 
ATOM     69  C   UNL A   1      31.366  25.295  22.920  1.00  0.00     0.027 A 
ATOM     70  C   UNL A   1      32.021  24.394  23.714  1.00  0.00     0.002 A 
BRANCH  67  71
ATOM     71  N   UNL A   1      31.122  27.520  21.902  1.00  0.00    -0.355 N 
ATOM     72  H   UNL A   1      31.374  27.721  20.971  1.00  0.00     0.167 HD
BRANCH  71  73
ATOM     73  C   UNL A   1      29.973  28.202  22.515  1.00  0.00     0.040 A 
ATOM     74  C   UNL A   1      28.963  27.449  23.091  1.00  0.00     0.026 A 
ATOM     75  C   UNL A   1      29.917  29.529  22.493  1.00  0.00     0.050 A 
ATOM     76  C   UNL A   1      27.786  28.185  23.366  1.00  0.00     0.004 A 
ATOM     77  C   UNL A   1      28.784  30.187  22.904  1.00  0.00     0.109 A 
ATOM     78  C   UNL A   1      27.724  29.502  23.430  1.00  0.00     0.024 A 
BRANCH  77  79
ATOM     79  S   UNL A   1      28.693  31.988  22.748  1.00  0.00     0.310 S 
ATOM     80  F   UNL A   1      27.270  32.020  23.446  1.00  0.00    -0.094 F 
ATOM     81  F   UNL A   1      27.943  31.757  21.382  1.00  0.00    -0.094 F 
ATOM     82  F   UNL A   1      28.579  33.530  22.583  1.00  0.00    -0.094 F 
ATOM     83  F   UNL A   1      29.321  32.197  24.183  1.00  0.00    -0.094 F 
ATOM     84  F   UNL A   1      28.716  30.425  22.982  1.00  0.00    -0.094 F 
ENDBRANCH  77  79
ENDBRANCH  71  73
ENDBRANCH  67  71
ENDBRANCH  62  65
ENDBRANCH  60  61
ENDBRANCH  59  60
ENDBRANCH   1  59
TORSDOF 16
ENDMDL
MODEL 2
REMARK VINA RESULT:     -12.5      0.749      5.749
REMARK SMILES O=C(NCCCCCCNC(=O)c1ccccc1Nc1cccc(S(F)(F)(F)(F)F)c1)c1ccc(-c2c3nc(c(-c4ccccc4)c4ccc([nH]4)c(-c4ccccc4)c4nc(c(-c5ccccc5)c5ccc2[nH]5)C=C4)C=C3)cc1
REMARK SMILES IDX 7 1 6 2 5 3 4 4 3 5 1 6 2 7 32 9 33 10 79 11 34 12 78 13
REMARK SMILES IDX 35 14 36 15 37 16 72 17 38 18 77 19 71 20 73 21 39 22 76 23
REMARK SMILES IDX 70 24 69 25 40 27 62 28 47 29 61 30 48 31 51 32 60 33 74 34
REMARK SMILES IDX 49 35 50 36 59 38 75 39 52 40 41 41 42 42 46 43 43 44 45 45
REMARK SMILES IDX 44 46 63 47 64 48 68 49 65 50 67 51 66 52 53 53 54 54 58 55
REMARK SMILES IDX 55 56 57 57 56 58 8 59 9 60 10 61 11 62 12 64 13 65 14 66
REMARK SMILES IDX 18 67 15 68 17 69 16 70 19 71 20 73 21 74 31 75 22 76 24 77
REMARK SMILES IDX 23 78 25 79 26 80 27 81 28 82 29 83 30 84
REMARK H PARENT 3 8 73 26 51 37 10 63 19 72
REMARK Flexibility Score: inf
ROOT
ATOM      1  C   UNL A   1      33.108  30.345  27.320  1.00  0.00     0.002 C 
ENDROOT
BRANCH   1   2
ATOM      2  C   UNL A   1      31.841  30.640  26.534  1.00  0.00     0.002 C 
BRANCH   2   3
ATOM      3  C   UNL A   1      31.495  32.114  26.665  1.00  0.00     0.021 C 
BRANCH   3   4
ATOM      4  C   UNL A   1      32.663  32.854  27.296  1.00  0.00     0.116 C 
BRANCH   4   5
ATOM      5  N   UNL A   1      32.255  34.228  27.622  1.00  0.00    -0.352 N 
ATOM      6  O   UNL A   1      32.646  36.182  28.914  1.00  0.00    -0.269 OA
ATOM      7  C   UNL A   1      32.999  34.995  28.632  1.00  0.00     0.251 C 
ATOM      8  H   UNL A   1      31.485  34.634  27.165  1.00  0.00     0.163 HD
BRANCH   7   9
ATOM      9  C   UNL A   1      34.190  34.368  29.338  1.00  0.00     0.039 A 
ATOM     10  C   UNL A   1      35.486  34.528  28.875  1.00  0.00     0.014 A 
ATOM     11  C   UNL A   1      33.916  33.552  30.349  1.00  0.00     0.014 A 
ATOM     12  C   UNL A   1      36.393  33.557  29.362  1.00  0.00     0.010 A 
ATOM     13  C   UNL A   1      34.885  32.728  30.866  1.00  0.00     0.010 A 
ATOM     14  C   UNL A   1      36.175  32.790  30.416  1.00  0.00    -0.014 A 
BRANCH  14  15
ATOM     15  C   UNL A   1      37.297  32.020  31.092  1.00  0.00     0.031 A 
ATOM     16  C   UNL A   1      37.878  31.020  30.311  1.00  0.00     0.074 A 
ATOM     17  C   UNL A   1      37.763  32.396  32.341  1.00  0.00     0.049 A 
ATOM     18  N   UNL A   1      38.962  30.294  30.592  1.00  0.00    -0.248 NA
ATOM     19  C   UNL A   1      37.365  30.595  29.000  1.00  0.00     0.031 C 
ATOM     20  C   UNL A   1      37.187  33.410  33.131  1.00  0.00     0.029 A 
ATOM     21  N   UNL A   1      38.834  31.877  33.035  1.00  0.00    -0.354 N 
ATOM     22  C   UNL A   1      39.222  29.449  29.593  1.00  0.00     0.074 A 
ATOM     23  C   UNL A   1      38.196  29.626  28.558  1.00  0.00     0.031 C 
ATOM     24  C   UNL A   1      37.894  33.494  34.289  1.00  0.00     0.029 A 
ATOM     25  C   UNL A   1      38.923  32.534  34.241  1.00  0.00     0.049 A 
ATOM     26  H   UNL A   1      39.432  31.161  32.721  1.00  0.00     0.167 HD
ATOM     27  C   UNL A   1      40.277  28.538  29.504  1.00  0.00     0.031 A 
ATOM     28  C   UNL A   1      39.841  32.322  35.257  1.00  0.00     0.031 A 
ATOM     29  C   UNL A   1      41.221  28.357  30.502  1.00  0.00     0.049 A 
ATOM     30  C   UNL A   1      40.862  31.371  35.193  1.00  0.00     0.074 A 
ATOM     31  C   UNL A   1      42.295  27.449  30.426  1.00  0.00     0.029 A 
ATOM     32  N   UNL A   1      41.296  28.996  31.720  1.00  0.00    -0.354 N 
ATOM     33  N   UNL A   1      41.146  30.554  34.178  1.00  0.00    -0.248 NA
ATOM     34  C   UNL A   1      41.820  31.115  36.277  1.00  0.00     0.031 C 
ATOM     35  C   UNL A   1      43.002  27.533  31.583  1.00  0.00     0.029 A 
ATOM     36  C   UNL A   1      42.381  28.495  32.404  1.00  0.00     0.049 A 
ATOM     37  H   UNL A   1      40.681  29.692  32.045  1.00  0.00     0.167 HD
ATOM     38  C   UNL A   1      42.205  29.799  34.478  1.00  0.00     0.074 A 
ATOM     39  C   UNL A   1      42.651  30.145  35.834  1.00  0.00     0.031 C 
ATOM     40  C   UNL A   1      42.821  28.840  33.672  1.00  0.00     0.031 A 
BRANCH  27  41
ATOM     41  C   UNL A   1      40.396  27.699  28.242  1.00  0.00    -0.014 A 
ATOM     42  C   UNL A   1      39.827  26.439  28.166  1.00  0.00     0.009 A 
ATOM     43  C   UNL A   1      41.081  28.208  27.225  1.00  0.00     0.009 A 
ATOM     44  C   UNL A   1      40.283  25.669  27.070  1.00  0.00     0.001 A 
ATOM     45  C   UNL A   1      41.376  27.439  26.126  1.00  0.00     0.001 A 
ATOM     46  C   UNL A   1      40.896  26.164  26.011  1.00  0.00     0.000 A 
ENDBRANCH  27  41
BRANCH  28  47
ATOM     47  C   UNL A   1      39.732  33.173  36.513  1.00  0.00    -0.014 A 
ATOM     48  C   UNL A   1      38.940  32.703  37.546  1.00  0.00     0.009 A 
ATOM     49  C   UNL A   1      40.386  34.324  36.614  1.00  0.00     0.009 A 
ATOM     50  C   UNL A   1      38.668  33.669  38.544  1.00  0.00     0.001 A 
ATOM     51  C   UNL A   1      40.173  35.158  37.685  1.00  0.00     0.001 A 
ATOM     52  C   UNL A   1      39.356  34.783  38.716  1.00  0.00     0.000 A 
ENDBRANCH  28  47
BRANCH  40  53
ATOM     53  C   UNL A   1      44.049  28.130  34.219  1.00  0.00    -0.014 A 
ATOM     54  C   UNL A   1      45.326  28.609  33.975  1.00  0.00     0.009 A 
ATOM     55  C   UNL A   1      43.855  26.984  34.860  1.00  0.00     0.009 A 
ATOM     56  C   UNL A   1      46.347  27.656  34.196  1.00  0.00     0.001 A 
ATOM     57  C   UNL A   1      44.914  26.164  35.165  1.00  0.00     0.001 A 
ATOM     58  C   UNL A   1      46.199  26.548  34.899  1.00  0.00     0.000 A 
ENDBRANCH  40  53
ENDBRANCH  14  15
ENDBRANCH   7   9
ENDBRANCH   4   5
ENDBRANCH   3   4
ENDBRANCH   2   3
ENDBRANCH   1   2
BRANCH   1  59
ATOM     59  C   UNL A   1      34.013  29.439  26.501  1.00  0.00     0.021 C 
BRANCH  59  60
ATOM     60  C   UNL A   1      33.206  28.787  25.390  1.00  0.00     0.116 C 
BRANCH  60  61
ATOM     61  N   UNL A   1      33.858  29.042  24.097  1.00  0.00    -0.352 N 
ATOM     62  C   UNL A   1      33.825  28.019  23.042  1.00  0.00     0.253 C 
ATOM     63  H   UNL A   1      34.316  29.899  23.937  1.00  0.00     0.163 HD
ATOM     64  O   UNL A   1      34.388  28.240  21.925  1.00  0.00    -0.269 OA
BRANCH  62  65
ATOM     65  C   UNL A   1      33.118  26.696  23.289  1.00  0.00     0.063 A 
ATOM     66  C   UNL A   1      33.713  25.749  24.106  1.00  0.00     0.016 A 
ATOM     67  C   UNL A   1      31.940  26.470  22.717  1.00  0.00     0.051 A 
ATOM     68  C   UNL A   1      33.117  24.468  24.027  1.00  0.00     0.001 A 
ATOM     69  C   UNL A   1      31.351  25.232  22.795  1.00  0.00     0.027 A 
ATOM     70  C   UNL A   1      31.915  24.230  23.536  1.00  0.00     0.002 A 
BRANCH  67  71
ATOM     71  N   UNL A   1      31.261  27.556  21.995  1.00  0.00    -0.355 N 
ATOM     72  H   UNL A   1      31.597  27.847  21.115  1.00  0.00     0.167 HD
BRANCH  71  73
ATOM     73  C   UNL A   1      30.081  28.205  22.583  1.00  0.00     0.040 A 
ATOM     74  C   UNL A   1      29.075  27.424  23.127  1.00  0.00     0.026 A 
ATOM     75  C   UNL A   1      29.994  29.530  22.569  1.00  0.00     0.050 A 
ATOM     76  C   UNL A   1      27.874  28.129  23.377  1.00  0.00     0.004 A 
ATOM     77  C   UNL A   1      28.836  30.158  22.956  1.00  0.00     0.109 A 
ATOM     78  C   UNL A   1      27.779  29.444  23.449  1.00  0.00     0.024 A 
BRANCH  77  79
ATOM     79  S   UNL A   1      28.706  31.958  22.811  1.00  0.00     0.310 S 
ATOM     80  F   UNL A   1      27.278  31.954  23.501  1.00  0.00    -0.094 F 
ATOM     81  F   UNL A   1      27.970  31.720  21.439  1.00  0.00    -0.094 F 
ATOM     82  F   UNL A   1      28.559  33.498  22.656  1.00  0.00    -0.094 F 
ATOM     83  F   UNL A   1      29.320  32.171  24.251  1.00  0.00    -0.094 F 
ATOM     84  F   UNL A   1      28.762  30.394  23.035  1.00  0.00    -0.094 F 
ENDBRANCH  77  79
ENDBRANCH  71  73
ENDBRANCH  67  71
ENDBRANCH  62  65
ENDBRANCH  60  61
ENDBRANCH  59  60
ENDBRANCH   1  59
TORSDOF 16
ENDMDL
MODEL 3
REMARK VINA RESULT:     -12.3      1.710      2.331
REMARK SMILES O=C(NCCCCCCNC(=O)c1ccccc1Nc1cccc(S(F)(F)(F)(F)F)c1)c1ccc(-c2c3nc(c(-c4ccccc4)c4ccc([nH]4)c(-c4ccccc4)c4nc(c(-c5ccccc5)c5ccc2[nH]5)C=C4)C=C3)cc1
REMARK SMILES IDX 7 1 6 2 5 3 4 4 3 5 1 6 2 7 32 9 33 10 79 11 34 12 78 13
REMARK SMILES IDX 35 14 36 15 37 16 72 17 38 18 77 19 71 20 73 21 39 22 76 23
REMARK SMILES IDX 70 24 69 25 40 27 62 28 47 29 61 30 48 31 51 32 60 33 74 34
REMARK SMILES IDX 49 35 50 36 59 38 75 39 52 40 41 41 42 42 46 43 43 44 45 45
REMARK SMILES IDX 44 46 63 47 64 48 68 49 65 50 67 51 66 52 53 53 54 54 58 55
REMARK SMILES IDX 55 56 57 57 56 58 8 59 9 60 10 61 11 62 12 64 13 65 14 66
REMARK SMILES IDX 18 67 15 68 17 69 16 70 19 71 20 73 21 74 31 75 22 76 24 77
REMARK SMILES IDX 23 78 25 79 26 80 27 81 28 82 29 83 30 84
REMARK H PARENT 3 8 73 26 51 37 10 63 19 72
REMARK Flexibility Score: inf
ROOT
ATOM      1  C   UNL A   1      32.072  28.970  27.135  1.00  0.00     0.002 C 
ENDROOT
BRANCH   1   2
ATOM      2  C   UNL A   1      32.077  30.100  26.118  1.00  0.00     0.002 C 
BRANCH   2   3
ATOM      3  C   UNL A   1      31.596  31.381  26.781  1.00  0.00     0.021 C 
BRANCH   3   4
ATOM      4  C   UNL A   1      32.764  32.343  26.928  1.00  0.00     0.116 C 
BRANCH   4   5
ATOM      5  N   UNL A   1      32.261  33.668  27.318  1.00  0.00    -0.352 N 
ATOM      6  O   UNL A   1      32.548  35.605  28.662  1.00  0.00    -0.269 OA
ATOM      7  C   UNL A   1      32.982  34.461  28.324  1.00  0.00     0.251 C 
ATOM      8  H   UNL A   1      31.442  34.024  26.906  1.00  0.00     0.163 HD
BRANCH   7   9
ATOM      9  C   UNL A   1      34.248  33.911  28.960  1.00  0.00     0.039 A 
ATOM     10  C   UNL A   1      35.504  34.406  28.647  1.00  0.00     0.014 A 
ATOM     11  C   UNL A   1      34.104  32.844  29.739  1.00  0.00     0.014 A 
ATOM     12  C   UNL A   1      36.565  33.527  28.971  1.00  0.00     0.010 A 
ATOM     13  C   UNL A   1      35.197  32.111  30.130  1.00  0.00     0.010 A 
ATOM     14  C   UNL A   1      36.464  32.508  29.806  1.00  0.00    -0.014 A 
BRANCH  14  15
ATOM     15  C   UNL A   1      37.691  31.816  30.375  1.00  0.00     0.031 A 
ATOM     16  C   UNL A   1      37.992  32.143  31.698  1.00  0.00     0.074 A 
ATOM     17  C   UNL A   1      38.360  30.846  29.646  1.00  0.00     0.049 A 
ATOM     18  N   UNL A   1      38.915  31.586  32.485  1.00  0.00    -0.248 NA
ATOM     19  C   UNL A   1      37.308  33.196  32.462  1.00  0.00     0.031 C 
ATOM     20  C   UNL A   1      38.057  30.504  28.314  1.00  0.00     0.029 A 
ATOM     21  N   UNL A   1      39.410  30.055  30.056  1.00  0.00    -0.354 N 
ATOM     22  C   UNL A   1      38.894  32.154  33.692  1.00  0.00     0.074 A 
ATOM     23  C   UNL A   1      37.864  33.201  33.693  1.00  0.00     0.031 C 
ATOM     24  C   UNL A   1      38.919  29.529  27.922  1.00  0.00     0.029 A 
ATOM     25  C   UNL A   1      39.774  29.246  29.004  1.00  0.00     0.049 A 
ATOM     26  H   UNL A   1      39.827  30.067  30.947  1.00  0.00     0.167 HD
ATOM     27  C   UNL A   1      39.691  31.837  34.793  1.00  0.00     0.031 A 
ATOM     28  C   UNL A   1      40.794  28.308  28.968  1.00  0.00     0.031 A 
ATOM     29  C   UNL A   1      40.683  30.868  34.770  1.00  0.00     0.049 A 
ATOM     30  C   UNL A   1      41.631  28.031  30.051  1.00  0.00     0.074 A 
ATOM     31  C   UNL A   1      41.491  30.531  35.873  1.00  0.00     0.029 A 
ATOM     32  N   UNL A   1      41.064  30.075  33.711  1.00  0.00    -0.354 N 
ATOM     33  N   UNL A   1      41.584  28.570  31.270  1.00  0.00    -0.248 NA
ATOM     34  C   UNL A   1      42.735  27.063  30.014  1.00  0.00     0.031 C 
ATOM     35  C   UNL A   1      42.353  29.556  35.482  1.00  0.00     0.029 A 
ATOM     36  C   UNL A   1      42.098  29.268  34.127  1.00  0.00     0.049 A 
ATOM     37  H   UNL A   1      40.665  30.084  32.811  1.00  0.00     0.167 HD
ATOM     38  C   UNL A   1      42.535  28.042  32.044  1.00  0.00     0.074 A 
ATOM     39  C   UNL A   1      43.293  27.069  31.246  1.00  0.00     0.031 C 
ATOM     40  C   UNL A   1      42.796  28.328  33.384  1.00  0.00     0.031 A 
BRANCH  27  41
ATOM     41  C   UNL A   1      39.461  32.598  36.089  1.00  0.00    -0.014 A 
ATOM     42  C   UNL A   1      38.446  32.236  36.959  1.00  0.00     0.009 A 
ATOM     43  C   UNL A   1      40.252  33.632  36.346  1.00  0.00     0.009 A 
ATOM     44  C   UNL A   1      38.160  33.212  37.943  1.00  0.00     0.001 A 
ATOM     45  C   UNL A   1      39.991  34.467  37.405  1.00  0.00     0.001 A 
ATOM     46  C   UNL A   1      38.967  34.203  38.272  1.00  0.00     0.000 A 
ENDBRANCH  27  41
BRANCH  28  47
ATOM     47  C   UNL A   1      41.014  27.535  27.677  1.00  0.00    -0.014 A 
ATOM     48  C   UNL A   1      40.345  26.333  27.520  1.00  0.00     0.009 A 
ATOM     49  C   UNL A   1      41.813  28.008  26.728  1.00  0.00     0.009 A 
ATOM     50  C   UNL A   1      40.815  25.553  26.436  1.00  0.00     0.001 A 
ATOM     51  C   UNL A   1      42.122  27.244  25.628  1.00  0.00     0.001 A 
ATOM     52  C   UNL A   1      41.543  26.019  25.439  1.00  0.00     0.000 A 
ENDBRANCH  28  47
BRANCH  40  53
ATOM     53  C   UNL A   1      43.916  27.563  34.073  1.00  0.00    -0.014 A 
ATOM     54  C   UNL A   1      45.222  28.024  34.051  1.00  0.00     0.009 A 
ATOM     55  C   UNL A   1      43.608  26.391  34.615  1.00  0.00     0.009 A 
ATOM     56  C   UNL A   1      46.183  27.038  34.374  1.00  0.00     0.001 A 
ATOM     57  C   UNL A   1      44.596  25.533  35.034  1.00  0.00     0.001 A 
ATOM     58  C   UNL A   1      45.912  25.900  34.987  1.00  0.00     0.000 A 
ENDBRANCH  40  53
ENDBRANCH  14  15
ENDBRANCH   7   9
ENDBRANCH   4   5
ENDBRANCH   3   4
ENDBRANCH   2   3
ENDBRANCH   1   2
BRANCH   1  59
ATOM     59  C   UNL A   1      33.154  27.964  26.779  1.00  0.00     0.021 C 
BRANCH  59  60
ATOM     60  C   UNL A   1      32.515  26.731  26.160  1.00  0.00     0.116 C 
BRANCH  60  61
ATOM     61  N   UNL A   1      31.191  26.512  26.761  1.00  0.00    -0.352 N 
ATOM     62  C   UNL A   1      30.367  25.374  26.329  1.00  0.00     0.253 C 
ATOM     63  H   UNL A   1      30.856  27.127  27.452  1.00  0.00     0.163 HD
ATOM     64  O   UNL A   1      29.222  25.185  26.848  1.00  0.00    -0.269 OA
BRANCH  62  65
ATOM     65  C   UNL A   1      30.884  24.424  25.261  1.00  0.00     0.063 A 
ATOM     66  C   UNL A   1      31.702  23.368  25.629  1.00  0.00     0.016 A 
ATOM     67  C   UNL A   1      30.544  24.621  23.993  1.00  0.00     0.051 A 
ATOM     68  C   UNL A   1      32.350  22.738  24.541  1.00  0.00     0.001 A 
ATOM     69  C   UNL A   1      31.117  23.876  22.991  1.00  0.00     0.027 A 
ATOM     70  C   UNL A   1      31.980  22.855  23.279  1.00  0.00     0.002 A 
BRANCH  67  71
ATOM     71  N   UNL A   1      29.545  25.646  23.658  1.00  0.00    -0.355 N 
ATOM     72  H   UNL A   1      28.584  25.439  23.728  1.00  0.00     0.167 HD
BRANCH  71  73
ATOM     73  C   UNL A   1      29.979  26.980  23.219  1.00  0.00     0.040 A 
ATOM     74  C   UNL A   1      31.291  27.172  22.818  1.00  0.00     0.026 A 
ATOM     75  C   UNL A   1      29.107  27.983  23.229  1.00  0.00     0.050 A 
ATOM     76  C   UNL A   1      31.666  28.532  22.718  1.00  0.00     0.004 A 
ATOM     77  C   UNL A   1      29.521  29.270  22.988  1.00  0.00     0.109 A 
ATOM     78  C   UNL A   1      30.816  29.540  22.644  1.00  0.00     0.024 A 
BRANCH  77  79
ATOM     79  S   UNL A   1      28.333  30.629  23.129  1.00  0.00     0.310 S 
ATOM     80  F   UNL A   1      29.171  31.523  22.121  1.00  0.00    -0.094 F 
ATOM     81  F   UNL A   1      29.238  31.202  24.284  1.00  0.00    -0.094 F 
ATOM     82  F   UNL A   1      27.346  31.822  23.271  1.00  0.00    -0.094 F 
ATOM     83  F   UNL A   1      27.516  30.114  21.877  1.00  0.00    -0.094 F 
ATOM     84  F   UNL A   1      29.386  29.473  22.898  1.00  0.00    -0.094 F 
ENDBRANCH  77  79
ENDBRANCH  71  73
ENDBRANCH  67  71
ENDBRANCH  62  65
ENDBRANCH  60  61
ENDBRANCH  59  60
ENDBRANCH   1  59
TORSDOF 16
ENDMDL
