MODEL 1
REMARK VINA RESULT:      -7.5      0.000      0.000
REMARK SMILES C[C@@H](CO)CCCC[C@@H](C)C(=O)NCCCCCCNC(=O)c1ccc(-c2c3nc(c(-c4ccccc4)c4ccc([nH]4)c(-c4ccccc4)c4nc(c(-c5ccccc5)c5ccc2[nH]5)C=C4)C=C3)cc1
REMARK SMILES IDX 14 1 13 2 11 3 12 4 9 6 10 7 8 8 7 9 6 10 5 11 2 12 1 13
REMARK SMILES IDX 3 14 4 15 15 17 16 18 17 19 18 20 19 21 20 22 21 23 22 25
REMARK SMILES IDX 23 26 24 27 70 28 25 29 69 30 26 31 27 32 28 33 63 34 29 35
REMARK SMILES IDX 68 36 62 37 64 38 30 39 67 40 61 41 60 42 31 44 53 45 38 46
REMARK SMILES IDX 52 47 39 48 42 49 51 50 65 51 40 52 41 53 50 55 66 56 43 57
REMARK SMILES IDX 32 58 33 59 37 60 34 61 36 62 35 63 54 64 55 65 59 66 56 67
REMARK SMILES IDX 58 68 57 69 44 70 45 71 49 72 46 73 48 74 47 75
REMARK H PARENT 13 5 4 16 20 24 64 43 42 54
REMARK Flexibility Score: inf
ROOT
ATOM      1  C   UNL A   1      46.469  23.055  24.405  1.00  0.00     0.116 C 
ENDROOT
BRANCH   1   2
ATOM      2  N   UNL A   1      45.465  24.034  24.767  1.00  0.00    -0.356 N 
ATOM      3  C   UNL A   1      45.561  25.356  25.059  1.00  0.00     0.222 C 
ATOM      4  O   UNL A   1      44.530  25.930  25.424  1.00  0.00    -0.275 OA
ATOM      5  H   UNL A   1      44.548  23.676  24.808  1.00  0.00     0.163 HD
BRANCH   3   6
ATOM      6  C   UNL A   1      46.864  26.138  24.910  1.00  0.00     0.075 C 
ATOM      7  C   UNL A   1      47.926  25.611  25.876  1.00  0.00     0.018 C 
BRANCH   6   8
ATOM      8  C   UNL A   1      46.664  27.663  24.934  1.00  0.00     0.013 C 
BRANCH   8   9
ATOM      9  C   UNL A   1      46.551  28.276  26.335  1.00  0.00     0.001 C 
BRANCH   9  10
ATOM     10  C   UNL A   1      46.558  29.807  26.376  1.00  0.00     0.000 C 
BRANCH  10  11
ATOM     11  C   UNL A   1      45.250  30.451  26.853  1.00  0.00     0.005 C 
BRANCH  11  12
ATOM     12  C   UNL A   1      45.311  31.976  27.082  1.00  0.00     0.011 C 
ATOM     13  C   UNL A   1      46.755  32.484  27.111  1.00  0.00     0.010 C 
BRANCH  12  14
ATOM     14  C   UNL A   1      44.489  32.720  26.017  1.00  0.00     0.159 C 
BRANCH  14  15
ATOM     15  O   UNL A   1      43.818  33.852  26.552  1.00  0.00    -0.396 OA
ATOM     16  H   UNL A   1      43.076  33.557  27.102  1.00  0.00     0.210 HD
ENDBRANCH  14  15
ENDBRANCH  12  14
ENDBRANCH  11  12
ENDBRANCH  10  11
ENDBRANCH   9  10
ENDBRANCH   8   9
ENDBRANCH   6   8
ENDBRANCH   3   6
ENDBRANCH   1   2
BRANCH   1  17
ATOM     17  C   UNL A   1      46.106  21.673  24.947  1.00  0.00     0.021 C 
BRANCH  17  18
ATOM     18  C   UNL A   1      44.798  21.102  24.384  1.00  0.00     0.002 C 
BRANCH  18  19
ATOM     19  C   UNL A   1      44.858  19.631  23.958  1.00  0.00     0.002 C 
BRANCH  19  20
ATOM     20  C   UNL A   1      44.980  18.622  25.104  1.00  0.00     0.021 C 
BRANCH  20  21
ATOM     21  C   UNL A   1      44.008  18.836  26.260  1.00  0.00     0.116 C 
BRANCH  21  22
ATOM     22  N   UNL A   1      42.622  18.730  25.840  1.00  0.00    -0.352 N 
ATOM     23  C   UNL A   1      41.584  19.607  26.012  1.00  0.00     0.251 C 
ATOM     24  H   UNL A   1      42.394  17.901  25.358  1.00  0.00     0.163 HD
ATOM     25  O   UNL A   1      40.436  19.258  25.737  1.00  0.00    -0.269 OA
BRANCH  23  26
ATOM     26  C   UNL A   1      41.825  20.966  26.541  1.00  0.00     0.039 A 
ATOM     27  C   UNL A   1      41.843  21.148  27.927  1.00  0.00     0.014 A 
ATOM     28  C   UNL A   1      41.987  22.065  25.690  1.00  0.00     0.014 A 
ATOM     29  C   UNL A   1      42.070  22.419  28.460  1.00  0.00     0.010 A 
ATOM     30  C   UNL A   1      42.270  23.322  26.222  1.00  0.00     0.010 A 
ATOM     31  C   UNL A   1      42.307  23.512  27.612  1.00  0.00    -0.014 A 
BRANCH  31  32
ATOM     32  C   UNL A   1      42.604  24.852  28.177  1.00  0.00     0.031 A 
ATOM     33  C   UNL A   1      44.005  25.220  28.580  1.00  0.00     0.074 A 
ATOM     34  C   UNL A   1      41.600  25.729  28.357  1.00  0.00     0.049 A 
ATOM     35  N   UNL A   1      44.450  26.350  29.070  1.00  0.00    -0.248 NA
ATOM     36  C   UNL A   1      45.036  24.180  28.433  1.00  0.00     0.031 C 
ATOM     37  C   UNL A   1      40.189  25.477  28.054  1.00  0.00     0.029 A 
ATOM     38  N   UNL A   1      41.613  27.015  28.837  1.00  0.00    -0.354 N 
ATOM     39  C   UNL A   1      45.805  26.154  29.301  1.00  0.00     0.074 A 
ATOM     40  C   UNL A   1      46.102  24.785  28.938  1.00  0.00     0.031 C 
ATOM     41  C   UNL A   1      39.477  26.583  28.327  1.00  0.00     0.029 A 
ATOM     42  C   UNL A   1      40.375  27.611  28.844  1.00  0.00     0.049 A 
ATOM     43  H   UNL A   1      42.431  27.467  29.147  1.00  0.00     0.167 HD
ATOM     44  C   UNL A   1      46.724  27.037  29.759  1.00  0.00     0.031 A 
ATOM     45  C   UNL A   1      40.006  28.850  29.216  1.00  0.00     0.031 A 
ATOM     46  C   UNL A   1      46.437  28.403  30.108  1.00  0.00     0.049 A 
ATOM     47  C   UNL A   1      41.048  29.818  29.697  1.00  0.00     0.074 A 
ATOM     48  C   UNL A   1      47.314  29.392  30.521  1.00  0.00     0.029 A 
ATOM     49  N   UNL A   1      45.175  28.973  30.087  1.00  0.00    -0.354 N 
ATOM     50  N   UNL A   1      42.340  29.639  29.836  1.00  0.00    -0.248 NA
ATOM     51  C   UNL A   1      40.582  31.165  30.054  1.00  0.00     0.031 C 
ATOM     52  C   UNL A   1      46.576  30.550  30.786  1.00  0.00     0.029 A 
ATOM     53  C   UNL A   1      45.245  30.293  30.498  1.00  0.00     0.049 A 
ATOM     54  H   UNL A   1      44.349  28.507  29.820  1.00  0.00     0.167 HD
ATOM     55  C   UNL A   1      42.842  30.855  30.280  1.00  0.00     0.074 A 
ATOM     56  C   UNL A   1      41.721  31.768  30.364  1.00  0.00     0.031 C 
ATOM     57  C   UNL A   1      44.119  31.185  30.588  1.00  0.00     0.031 A 
BRANCH  44  58
ATOM     58  C   UNL A   1      48.137  26.546  29.910  1.00  0.00    -0.014 A 
ATOM     59  C   UNL A   1      49.100  26.791  28.918  1.00  0.00     0.009 A 
ATOM     60  C   UNL A   1      48.518  25.861  31.074  1.00  0.00     0.009 A 
ATOM     61  C   UNL A   1      50.408  26.330  29.075  1.00  0.00     0.001 A 
ATOM     62  C   UNL A   1      49.833  25.422  31.239  1.00  0.00     0.001 A 
ATOM     63  C   UNL A   1      50.775  25.649  30.236  1.00  0.00     0.000 A 
ENDBRANCH  44  58
BRANCH  45  64
ATOM     64  C   UNL A   1      38.583  29.258  29.117  1.00  0.00    -0.014 A 
ATOM     65  C   UNL A   1      38.068  29.759  27.912  1.00  0.00     0.009 A 
ATOM     66  C   UNL A   1      37.731  29.151  30.228  1.00  0.00     0.009 A 
ATOM     67  C   UNL A   1      36.737  30.167  27.827  1.00  0.00     0.001 A 
ATOM     68  C   UNL A   1      36.393  29.538  30.133  1.00  0.00     0.001 A 
ATOM     69  C   UNL A   1      35.899  30.053  28.935  1.00  0.00     0.000 A 
ENDBRANCH  45  64
BRANCH  57  70
ATOM     70  C   UNL A   1      44.367  32.598  31.031  1.00  0.00    -0.014 A 
ATOM     71  C   UNL A   1      44.617  33.616  30.098  1.00  0.00     0.009 A 
ATOM     72  C   UNL A   1      44.335  32.918  32.397  1.00  0.00     0.009 A 
ATOM     73  C   UNL A   1      44.867  34.921  30.527  1.00  0.00     0.001 A 
ATOM     74  C   UNL A   1      44.561  34.227  32.822  1.00  0.00     0.001 A 
ATOM     75  C   UNL A   1      44.836  35.226  31.888  1.00  0.00     0.000 A 
ENDBRANCH  57  70
ENDBRANCH  31  32
ENDBRANCH  23  26
ENDBRANCH  21  22
ENDBRANCH  20  21
ENDBRANCH  19  20
ENDBRANCH  18  19
ENDBRANCH  17  18
ENDBRANCH   1  17
TORSDOF 20
ENDMDL
MODEL 2
REMARK VINA RESULT:      -7.3      5.245     11.571
REMARK SMILES C[C@@H](CO)CCCC[C@@H](C)C(=O)NCCCCCCNC(=O)c1ccc(-c2c3nc(c(-c4ccccc4)c4ccc([nH]4)c(-c4ccccc4)c4nc(c(-c5ccccc5)c5ccc2[nH]5)C=C4)C=C3)cc1
REMARK SMILES IDX 14 1 13 2 11 3 12 4 9 6 10 7 8 8 7 9 6 10 5 11 2 12 1 13
REMARK SMILES IDX 3 14 4 15 15 17 16 18 17 19 18 20 19 21 20 22 21 23 22 25
REMARK SMILES IDX 23 26 24 27 70 28 25 29 69 30 26 31 27 32 28 33 63 34 29 35
REMARK SMILES IDX 68 36 62 37 64 38 30 39 67 40 61 41 60 42 31 44 53 45 38 46
REMARK SMILES IDX 52 47 39 48 42 49 51 50 65 51 40 52 41 53 50 55 66 56 43 57
REMARK SMILES IDX 32 58 33 59 37 60 34 61 36 62 35 63 54 64 55 65 59 66 56 67
REMARK SMILES IDX 58 68 57 69 44 70 45 71 49 72 46 73 48 74 47 75
REMARK H PARENT 13 5 4 16 20 24 64 43 42 54
REMARK Flexibility Score: inf
ROOT
ATOM      1  C   UNL A   1      33.344  27.805  26.754  1.00  0.00     0.116 C 
ENDROOT
BRANCH   1   2
ATOM      2  N   UNL A   1      33.880  26.872  25.785  1.00  0.00    -0.356 N 
ATOM      3  C   UNL A   1      33.463  25.640  25.395  1.00  0.00     0.222 C 
ATOM      4  O   UNL A   1      34.179  25.029  24.597  1.00  0.00    -0.275 OA
ATOM      5  H   UNL A   1      34.691  27.189  25.326  1.00  0.00     0.163 HD
BRANCH   3   6
ATOM      6  C   UNL A   1      32.148  25.029  25.873  1.00  0.00     0.075 C 
ATOM      7  C   UNL A   1      32.393  23.684  26.557  1.00  0.00     0.018 C 
BRANCH   6   8
ATOM      8  C   UNL A   1      31.055  25.019  24.790  1.00  0.00     0.013 C 
BRANCH   8   9
ATOM      9  C   UNL A   1      31.155  26.153  23.763  1.00  0.00     0.001 C 
BRANCH   9  10
ATOM     10  C   UNL A   1      30.416  27.439  24.143  1.00  0.00     0.000 C 
BRANCH  10  11
ATOM     11  C   UNL A   1      28.997  27.567  23.577  1.00  0.00     0.005 C 
BRANCH  11  12
ATOM     12  C   UNL A   1      28.783  28.732  22.587  1.00  0.00     0.011 C 
ATOM     13  C   UNL A   1      27.649  29.655  23.041  1.00  0.00     0.010 C 
BRANCH  12  14
ATOM     14  C   UNL A   1      30.087  29.521  22.385  1.00  0.00     0.159 C 
BRANCH  14  15
ATOM     15  O   UNL A   1      30.174  30.090  21.087  1.00  0.00    -0.396 OA
ATOM     16  H   UNL A   1      30.378  31.034  21.162  1.00  0.00     0.210 HD
ENDBRANCH  14  15
ENDBRANCH  12  14
ENDBRANCH  11  12
ENDBRANCH  10  11
ENDBRANCH   9  10
ENDBRANCH   8   9
ENDBRANCH   6   8
ENDBRANCH   3   6
ENDBRANCH   1   2
BRANCH   1  17
ATOM     17  C   UNL A   1      33.016  29.147  26.098  1.00  0.00     0.021 C 
BRANCH  17  18
ATOM     18  C   UNL A   1      31.774  29.840  26.673  1.00  0.00     0.002 C 
BRANCH  18  19
ATOM     19  C   UNL A   1      31.143  30.903  25.767  1.00  0.00     0.002 C 
BRANCH  19  20
ATOM     20  C   UNL A   1      31.224  32.341  26.290  1.00  0.00     0.021 C 
BRANCH  20  21
ATOM     21  C   UNL A   1      32.297  32.584  27.347  1.00  0.00     0.116 C 
BRANCH  21  22
ATOM     22  N   UNL A   1      32.344  33.972  27.773  1.00  0.00    -0.352 N 
ATOM     23  C   UNL A   1      33.240  34.608  28.591  1.00  0.00     0.251 C 
ATOM     24  H   UNL A   1      31.623  34.542  27.420  1.00  0.00     0.163 HD
ATOM     25  O   UNL A   1      33.010  35.754  28.977  1.00  0.00    -0.269 OA
BRANCH  23  26
ATOM     26  C   UNL A   1      34.476  33.925  29.032  1.00  0.00     0.039 A 
ATOM     27  C   UNL A   1      35.661  34.175  28.334  1.00  0.00     0.014 A 
ATOM     28  C   UNL A   1      34.468  33.011  30.091  1.00  0.00     0.014 A 
ATOM     29  C   UNL A   1      36.845  33.548  28.725  1.00  0.00     0.010 A 
ATOM     30  C   UNL A   1      35.661  32.429  30.518  1.00  0.00     0.010 A 
ATOM     31  C   UNL A   1      36.860  32.687  29.834  1.00  0.00    -0.014 A 
BRANCH  31  32
ATOM     32  C   UNL A   1      38.128  32.064  30.286  1.00  0.00     0.031 A 
ATOM     33  C   UNL A   1      38.961  32.712  31.357  1.00  0.00     0.074 A 
ATOM     34  C   UNL A   1      38.547  30.925  29.705  1.00  0.00     0.049 A 
ATOM     35  N   UNL A   1      40.084  32.298  31.889  1.00  0.00    -0.248 NA
ATOM     36  C   UNL A   1      38.484  33.999  31.886  1.00  0.00     0.031 C 
ATOM     37  C   UNL A   1      37.858  30.222  28.621  1.00  0.00     0.029 A 
ATOM     38  N   UNL A   1      39.656  30.154  29.949  1.00  0.00    -0.354 N 
ATOM     39  C   UNL A   1      40.453  33.277  32.802  1.00  0.00     0.074 A 
ATOM     40  C   UNL A   1      39.458  34.325  32.723  1.00  0.00     0.031 C 
ATOM     41  C   UNL A   1      38.543  29.109  28.313  1.00  0.00     0.029 A 
ATOM     42  C   UNL A   1      39.728  29.030  29.162  1.00  0.00     0.049 A 
ATOM     43  H   UNL A   1      40.335  30.383  30.625  1.00  0.00     0.167 HD
ATOM     44  C   UNL A   1      41.514  33.297  33.643  1.00  0.00     0.031 A 
ATOM     45  C   UNL A   1      40.641  28.043  29.131  1.00  0.00     0.031 A 
ATOM     46  C   UNL A   1      42.498  32.251  33.736  1.00  0.00     0.049 A 
ATOM     47  C   UNL A   1      41.795  28.075  30.091  1.00  0.00     0.074 A 
ATOM     48  C   UNL A   1      43.574  32.151  34.602  1.00  0.00     0.029 A 
ATOM     49  N   UNL A   1      42.528  31.123  32.932  1.00  0.00    -0.354 N 
ATOM     50  N   UNL A   1      42.086  28.972  31.003  1.00  0.00    -0.248 NA
ATOM     51  C   UNL A   1      42.737  26.949  30.029  1.00  0.00     0.031 C 
ATOM     52  C   UNL A   1      44.277  30.981  34.296  1.00  0.00     0.029 A 
ATOM     53  C   UNL A   1      43.614  30.332  33.267  1.00  0.00     0.049 A 
ATOM     54  H   UNL A   1      41.873  30.915  32.225  1.00  0.00     0.167 HD
ATOM     55  C   UNL A   1      43.233  28.508  31.633  1.00  0.00     0.074 A 
ATOM     56  C   UNL A   1      43.571  27.242  31.016  1.00  0.00     0.031 C 
ATOM     57  C   UNL A   1      43.943  29.081  32.635  1.00  0.00     0.031 A 
BRANCH  44  58
ATOM     58  C   UNL A   1      41.666  34.497  34.535  1.00  0.00    -0.014 A 
ATOM     59  C   UNL A   1      42.365  35.636  34.106  1.00  0.00     0.009 A 
ATOM     60  C   UNL A   1      41.072  34.501  35.807  1.00  0.00     0.009 A 
ATOM     61  C   UNL A   1      42.495  36.743  34.947  1.00  0.00     0.001 A 
ATOM     62  C   UNL A   1      41.184  35.619  36.636  1.00  0.00     0.001 A 
ATOM     63  C   UNL A   1      41.902  36.736  36.209  1.00  0.00     0.000 A 
ENDBRANCH  44  58
BRANCH  45  64
ATOM     64  C   UNL A   1      40.483  26.918  28.177  1.00  0.00    -0.014 A 
ATOM     65  C   UNL A   1      39.786  25.760  28.552  1.00  0.00     0.009 A 
ATOM     66  C   UNL A   1      41.028  26.996  26.886  1.00  0.00     0.009 A 
ATOM     67  C   UNL A   1      39.659  24.692  27.662  1.00  0.00     0.001 A 
ATOM     68  C   UNL A   1      40.879  25.936  25.990  1.00  0.00     0.001 A 
ATOM     69  C   UNL A   1      40.202  24.781  26.382  1.00  0.00     0.000 A 
ENDBRANCH  45  64
BRANCH  57  70
ATOM     70  C   UNL A   1      45.144  28.330  33.132  1.00  0.00    -0.014 A 
ATOM     71  C   UNL A   1      46.424  28.589  32.617  1.00  0.00     0.009 A 
ATOM     72  C   UNL A   1      44.996  27.363  34.138  1.00  0.00     0.009 A 
ATOM     73  C   UNL A   1      47.527  27.866  33.074  1.00  0.00     0.001 A 
ATOM     74  C   UNL A   1      46.104  26.659  34.610  1.00  0.00     0.001 A 
ATOM     75  C   UNL A   1      47.367  26.904  34.072  1.00  0.00     0.000 A 
ENDBRANCH  57  70
ENDBRANCH  31  32
ENDBRANCH  23  26
ENDBRANCH  21  22
ENDBRANCH  20  21
ENDBRANCH  19  20
ENDBRANCH  18  19
ENDBRANCH  17  18
ENDBRANCH   1  17
TORSDOF 20
ENDMDL
MODEL 3
REMARK VINA RESULT:      -7.3      6.050     11.908
REMARK SMILES C[C@@H](CO)CCCC[C@@H](C)C(=O)NCCCCCCNC(=O)c1ccc(-c2c3nc(c(-c4ccccc4)c4ccc([nH]4)c(-c4ccccc4)c4nc(c(-c5ccccc5)c5ccc2[nH]5)C=C4)C=C3)cc1
REMARK SMILES IDX 14 1 13 2 11 3 12 4 9 6 10 7 8 8 7 9 6 10 5 11 2 12 1 13
REMARK SMILES IDX 3 14 4 15 15 17 16 18 17 19 18 20 19 21 20 22 21 23 22 25
REMARK SMILES IDX 23 26 24 27 70 28 25 29 69 30 26 31 27 32 28 33 63 34 29 35
REMARK SMILES IDX 68 36 62 37 64 38 30 39 67 40 61 41 60 42 31 44 53 45 38 46
REMARK SMILES IDX 52 47 39 48 42 49 51 50 65 51 40 52 41 53 50 55 66 56 43 57
REMARK SMILES IDX 32 58 33 59 37 60 34 61 36 62 35 63 54 64 55 65 59 66 56 67
REMARK SMILES IDX 58 68 57 69 44 70 45 71 49 72 46 73 48 74 47 75
REMARK H PARENT 13 5 4 16 20 24 64 43 42 54
REMARK Flexibility Score: inf
ROOT
ATOM      1  C   UNL A   1      32.660  27.497  26.192  1.00  0.00     0.116 C 
ENDROOT
BRANCH   1   2
ATOM      2  N   UNL A   1      33.050  27.039  24.875  1.00  0.00    -0.356 N 
ATOM      3  C   UNL A   1      32.442  26.203  23.995  1.00  0.00     0.222 C 
ATOM      4  O   UNL A   1      33.060  25.920  22.965  1.00  0.00    -0.275 OA
ATOM      5  H   UNL A   1      33.911  27.400  24.560  1.00  0.00     0.163 HD
BRANCH   3   6
ATOM      6  C   UNL A   1      31.035  25.654  24.223  1.00  0.00     0.075 C 
ATOM      7  C   UNL A   1      30.847  24.325  23.491  1.00  0.00     0.018 C 
BRANCH   6   8
ATOM      8  C   UNL A   1      29.930  26.695  23.974  1.00  0.00     0.013 C 
BRANCH   8   9
ATOM      9  C   UNL A   1      30.262  27.744  22.906  1.00  0.00     0.001 C 
BRANCH   9  10
ATOM     10  C   UNL A   1      29.784  29.164  23.220  1.00  0.00     0.000 C 
BRANCH  10  11
ATOM     11  C   UNL A   1      28.865  29.791  22.164  1.00  0.00     0.005 C 
BRANCH  11  12
ATOM     12  C   UNL A   1      28.924  31.330  22.067  1.00  0.00     0.011 C 
ATOM     13  C   UNL A   1      28.116  31.850  20.875  1.00  0.00     0.010 C 
BRANCH  12  14
ATOM     14  C   UNL A   1      28.446  31.976  23.378  1.00  0.00     0.159 C 
BRANCH  14  15
ATOM     15  O   UNL A   1      27.085  31.681  23.657  1.00  0.00    -0.396 OA
ATOM     16  H   UNL A   1      26.931  30.731  23.542  1.00  0.00     0.210 HD
ENDBRANCH  14  15
ENDBRANCH  12  14
ENDBRANCH  11  12
ENDBRANCH  10  11
ENDBRANCH   9  10
ENDBRANCH   8   9
ENDBRANCH   6   8
ENDBRANCH   3   6
ENDBRANCH   1   2
BRANCH   1  17
ATOM     17  C   UNL A   1      33.095  28.945  26.418  1.00  0.00     0.021 C 
BRANCH  17  18
ATOM     18  C   UNL A   1      31.999  29.847  27.000  1.00  0.00     0.002 C 
BRANCH  18  19
ATOM     19  C   UNL A   1      31.343  30.804  25.999  1.00  0.00     0.002 C 
BRANCH  19  20
ATOM     20  C   UNL A   1      31.263  32.267  26.447  1.00  0.00     0.021 C 
BRANCH  20  21
ATOM     21  C   UNL A   1      32.470  32.768  27.236  1.00  0.00     0.116 C 
BRANCH  21  22
ATOM     22  N   UNL A   1      32.327  34.156  27.637  1.00  0.00    -0.352 N 
ATOM     23  C   UNL A   1      33.025  34.875  28.571  1.00  0.00     0.251 C 
ATOM     24  H   UNL A   1      31.621  34.657  27.167  1.00  0.00     0.163 HD
ATOM     25  O   UNL A   1      32.636  35.997  28.895  1.00  0.00    -0.269 OA
BRANCH  23  26
ATOM     26  C   UNL A   1      34.233  34.309  29.210  1.00  0.00     0.039 A 
ATOM     27  C   UNL A   1      34.084  33.599  30.405  1.00  0.00     0.014 A 
ATOM     28  C   UNL A   1      35.508  34.511  28.671  1.00  0.00     0.014 A 
ATOM     29  C   UNL A   1      35.204  33.050  31.033  1.00  0.00     0.010 A 
ATOM     30  C   UNL A   1      36.619  33.915  29.267  1.00  0.00     0.010 A 
ATOM     31  C   UNL A   1      36.478  33.185  30.457  1.00  0.00    -0.014 A 
BRANCH  31  32
ATOM     32  C   UNL A   1      37.661  32.556  31.094  1.00  0.00     0.031 A 
ATOM     33  C   UNL A   1      38.328  31.365  30.463  1.00  0.00     0.074 A 
ATOM     34  C   UNL A   1      38.118  33.040  32.263  1.00  0.00     0.049 A 
ATOM     35  N   UNL A   1      39.382  30.702  30.867  1.00  0.00    -0.248 NA
ATOM     36  C   UNL A   1      37.722  30.838  29.230  1.00  0.00     0.031 C 
ATOM     37  C   UNL A   1      37.530  34.159  33.005  1.00  0.00     0.029 A 
ATOM     38  N   UNL A   1      39.186  32.654  33.034  1.00  0.00    -0.354 N 
ATOM     39  C   UNL A   1      39.558  29.675  29.949  1.00  0.00     0.074 A 
ATOM     40  C   UNL A   1      38.479  29.776  28.990  1.00  0.00     0.031 C 
ATOM     41  C   UNL A   1      38.263  34.388  34.107  1.00  0.00     0.029 A 
ATOM     42  C   UNL A   1      39.355  33.421  34.161  1.00  0.00     0.049 A 
ATOM     43  H   UNL A   1      39.775  31.900  32.800  1.00  0.00     0.167 HD
ATOM     44  C   UNL A   1      40.537  28.741  29.897  1.00  0.00     0.031 A 
ATOM     45  C   UNL A   1      40.290  33.358  35.126  1.00  0.00     0.031 A 
ATOM     46  C   UNL A   1      41.620  28.645  30.840  1.00  0.00     0.049 A 
ATOM     47  C   UNL A   1      41.380  32.330  35.033  1.00  0.00     0.074 A 
ATOM     48  C   UNL A   1      42.695  27.772  30.834  1.00  0.00     0.029 A 
ATOM     49  N   UNL A   1      41.765  29.449  31.959  1.00  0.00    -0.354 N 
ATOM     50  N   UNL A   1      41.575  31.415  34.114  1.00  0.00    -0.248 NA
ATOM     51  C   UNL A   1      42.389  32.338  36.101  1.00  0.00     0.031 C 
ATOM     52  C   UNL A   1      43.471  28.024  31.971  1.00  0.00     0.029 A 
ATOM     53  C   UNL A   1      42.900  29.081  32.662  1.00  0.00     0.049 A 
ATOM     54  H   UNL A   1      41.150  30.175  32.216  1.00  0.00     0.167 HD
ATOM     55  C   UNL A   1      42.737  30.751  34.484  1.00  0.00     0.074 A 
ATOM     56  C   UNL A   1      43.214  31.384  35.697  1.00  0.00     0.031 C 
ATOM     57  C   UNL A   1      43.354  29.712  33.873  1.00  0.00     0.031 A 
BRANCH  44  58
ATOM     58  C   UNL A   1      40.479  27.742  28.776  1.00  0.00    -0.014 A 
ATOM     59  C   UNL A   1      41.141  27.977  27.560  1.00  0.00     0.009 A 
ATOM     60  C   UNL A   1      39.785  26.535  28.951  1.00  0.00     0.009 A 
ATOM     61  C   UNL A   1      41.078  27.037  26.529  1.00  0.00     0.001 A 
ATOM     62  C   UNL A   1      39.744  25.587  27.927  1.00  0.00     0.001 A 
ATOM     63  C   UNL A   1      40.384  25.842  26.714  1.00  0.00     0.000 A 
ENDBRANCH  44  58
BRANCH  45  64
ATOM     64  C   UNL A   1      40.256  34.324  36.253  1.00  0.00    -0.014 A 
ATOM     65  C   UNL A   1      40.869  35.580  36.131  1.00  0.00     0.009 A 
ATOM     66  C   UNL A   1      39.612  33.993  37.455  1.00  0.00     0.009 A 
ATOM     67  C   UNL A   1      40.859  36.477  37.200  1.00  0.00     0.001 A 
ATOM     68  C   UNL A   1      39.583  34.903  38.514  1.00  0.00     0.001 A 
ATOM     69  C   UNL A   1      40.214  36.141  38.389  1.00  0.00     0.000 A 
ENDBRANCH  45  64
BRANCH  57  70
ATOM     70  C   UNL A   1      44.621  29.208  34.503  1.00  0.00    -0.014 A 
ATOM     71  C   UNL A   1      44.594  28.190  35.468  1.00  0.00     0.009 A 
ATOM     72  C   UNL A   1      45.856  29.748  34.115  1.00  0.00     0.009 A 
ATOM     73  C   UNL A   1      45.779  27.748  36.060  1.00  0.00     0.001 A 
ATOM     74  C   UNL A   1      47.041  29.288  34.690  1.00  0.00     0.001 A 
ATOM     75  C   UNL A   1      47.001  28.296  35.669  1.00  0.00     0.000 A 
ENDBRANCH  57  70
ENDBRANCH  31  32
ENDBRANCH  23  26
ENDBRANCH  21  22
ENDBRANCH  20  21
ENDBRANCH  19  20
ENDBRANCH  18  19
ENDBRANCH  17  18
ENDBRANCH   1  17
TORSDOF 20
ENDMDL
