MODEL 1
REMARK VINA RESULT:     -13.4      0.000      0.000
REMARK SMILES Cc1ccc(-c2cc(C(=O)NCCCCCCNC(=O)c3ccc(-c4c5nc(c(-c6ccccc6)c6ccc([nH]6)c(-c6ccccc6)c6nc(c(-c7ccccc7)c7ccc4[nH]7)C=C6)C=C5)cc3)c3c(-c4cccc([N+](=O)[O-])c4)[nH]nc3n2)cc1
REMARK SMILES IDX 14 1 13 2 12 3 11 4 9 5 10 6 8 8 6 9 7 10 83 11 82 12 69 13
REMARK SMILES IDX 81 14 70 15 80 16 5 18 1 19 2 20 3 21 85 22 4 23 84 24 71 25
REMARK SMILES IDX 72 26 79 27 73 28 75 29 74 30 76 31 77 32 78 33 15 34 16 35
REMARK SMILES IDX 17 36 18 37 19 38 20 40 21 41 22 42 68 43 23 44 67 45 24 46
REMARK SMILES IDX 25 47 26 48 61 49 27 50 66 51 60 52 62 53 28 54 65 55 59 56
REMARK SMILES IDX 58 57 29 59 51 60 36 61 50 62 37 63 40 64 49 65 63 66 38 67
REMARK SMILES IDX 39 68 48 70 64 71 41 72 30 73 31 74 35 75 32 76 34 77 33 78
REMARK SMILES IDX 52 79 53 80 57 81 54 82 56 83 55 84 42 85 43 86 47 87 44 88
REMARK SMILES IDX 46 89 45 90
REMARK H PARENT 11 7 80 17 18 39 62 58 40 69
REMARK Flexibility Score: inf
ROOT
ATOM      1  C   UNL A   1      32.650  29.707  25.127  1.00  0.00     0.002 C 
ENDROOT
BRANCH   1   2
ATOM      2  C   UNL A   1      32.611  28.170  25.187  1.00  0.00     0.021 C 
BRANCH   2   3
ATOM      3  C   UNL A   1      32.360  27.603  26.584  1.00  0.00     0.116 C 
BRANCH   3   4
ATOM      4  N   UNL A   1      31.631  26.357  26.520  1.00  0.00    -0.352 N 
ATOM      5  C   UNL A   1      31.802  25.142  25.920  1.00  0.00     0.252 C 
ATOM      6  O   UNL A   1      31.005  24.300  26.322  1.00  0.00    -0.269 OA
ATOM      7  H   UNL A   1      30.799  26.395  27.043  1.00  0.00     0.163 HD
BRANCH   5   8
ATOM      8  C   UNL A   1      32.867  24.803  24.942  1.00  0.00     0.055 A 
ATOM      9  C   UNL A   1      35.047  23.739  24.389  1.00  0.00     0.074 A 
ATOM     10  C   UNL A   1      34.136  24.334  25.300  1.00  0.00     0.043 A 
ATOM     11  N   UNL A   1      34.899  23.684  23.044  1.00  0.00    -0.226 NA
ATOM     12  C   UNL A   1      33.748  24.270  22.624  1.00  0.00     0.182 A 
ATOM     13  C   UNL A   1      32.764  24.811  23.533  1.00  0.00     0.059 A 
ATOM     14  N   UNL A   1      33.376  24.399  21.351  1.00  0.00    -0.154 NA
ATOM     15  C   UNL A   1      31.786  25.341  22.702  1.00  0.00     0.076 A 
ATOM     16  N   UNL A   1      32.203  25.040  21.427  1.00  0.00    -0.275 N 
ATOM     17  H   UNL A   1      31.677  25.278  20.629  1.00  0.00     0.190 HD
BRANCH   9  18
ATOM     18  C   UNL A   1      36.203  23.024  24.958  1.00  0.00     0.000 A 
ATOM     19  C   UNL A   1      39.917  21.210  26.238  1.00  0.00     0.044 C 
ATOM     20  C   UNL A   1      38.610  21.828  25.836  1.00  0.00    -0.051 A 
ATOM     21  C   UNL A   1      37.705  21.116  25.038  1.00  0.00     0.004 A 
ATOM     22  C   UNL A   1      38.285  23.125  26.237  1.00  0.00     0.004 A 
ATOM     23  C   UNL A   1      36.510  21.705  24.608  1.00  0.00     0.010 A 
ATOM     24  C   UNL A   1      37.094  23.711  25.807  1.00  0.00     0.010 A 
ENDBRANCH   9  18
BRANCH  15  25
ATOM     25  C   UNL A   1      30.577  26.124  22.923  1.00  0.00     0.007 A 
ATOM     26  C   UNL A   1      29.522  25.596  23.681  1.00  0.00     0.011 A 
ATOM     27  C   UNL A   1      30.517  27.454  22.481  1.00  0.00     0.096 A 
ATOM     28  C   UNL A   1      28.443  26.403  24.049  1.00  0.00     0.008 A 
ATOM     29  C   UNL A   1      29.454  28.267  22.895  1.00  0.00     0.270 A 
ATOM     30  C   UNL A   1      28.412  27.746  23.673  1.00  0.00     0.085 A 
BRANCH  29  31
ATOM     31  N   UNL A   1      29.476  29.699  22.576  1.00  0.00     0.062 N 
ATOM     32  O   UNL A   1      29.484  30.025  21.379  1.00  0.00    -0.258 OA
ATOM     33  O   UNL A   1      29.490  30.503  23.520  1.00  0.00    -0.258 OA
ENDBRANCH  29  31
ENDBRANCH  15  25
ENDBRANCH   5   8
ENDBRANCH   3   4
ENDBRANCH   2   3
ENDBRANCH   1   2
BRANCH   1  34
ATOM     34  C   UNL A   1      31.789  30.450  26.164  1.00  0.00     0.002 C 
BRANCH  34  35
ATOM     35  C   UNL A   1      32.547  31.357  27.136  1.00  0.00     0.021 C 
BRANCH  35  36
ATOM     36  C   UNL A   1      33.903  30.821  27.557  1.00  0.00     0.116 C 
BRANCH  36  37
ATOM     37  N   UNL A   1      34.620  31.706  28.462  1.00  0.00    -0.352 N 
ATOM     38  C   UNL A   1      35.801  31.502  29.158  1.00  0.00     0.251 C 
ATOM     39  H   UNL A   1      34.201  32.586  28.603  1.00  0.00     0.163 HD
ATOM     40  O   UNL A   1      36.207  32.347  29.928  1.00  0.00    -0.269 OA
BRANCH  38  41
ATOM     41  C   UNL A   1      36.646  30.324  28.824  1.00  0.00     0.039 A 
ATOM     42  C   UNL A   1      36.763  29.337  29.811  1.00  0.00     0.014 A 
ATOM     43  C   UNL A   1      37.496  30.321  27.724  1.00  0.00     0.014 A 
ATOM     44  C   UNL A   1      37.901  28.541  29.840  1.00  0.00     0.010 A 
ATOM     45  C   UNL A   1      38.676  29.614  27.809  1.00  0.00     0.010 A 
ATOM     46  C   UNL A   1      38.908  28.788  28.912  1.00  0.00    -0.014 A 
BRANCH  46  47
ATOM     47  C   UNL A   1      40.279  28.333  29.084  1.00  0.00     0.031 A 
ATOM     48  C   UNL A   1      40.705  27.037  28.531  1.00  0.00     0.074 A 
ATOM     49  C   UNL A   1      41.173  29.157  29.672  1.00  0.00     0.049 A 
ATOM     50  N   UNL A   1      41.757  26.397  28.910  1.00  0.00    -0.248 NA
ATOM     51  C   UNL A   1      39.921  26.321  27.531  1.00  0.00     0.031 C 
ATOM     52  C   UNL A   1      42.629  29.056  29.660  1.00  0.00     0.029 A 
ATOM     53  N   UNL A   1      40.902  30.154  30.608  1.00  0.00    -0.354 N 
ATOM     54  C   UNL A   1      41.951  25.366  28.022  1.00  0.00     0.074 A 
ATOM     55  C   UNL A   1      40.735  25.302  27.246  1.00  0.00     0.031 C 
ATOM     56  C   UNL A   1      43.121  29.761  30.693  1.00  0.00     0.029 A 
ATOM     57  C   UNL A   1      41.989  30.189  31.498  1.00  0.00     0.049 A 
ATOM     58  H   UNL A   1      40.103  30.728  30.638  1.00  0.00     0.167 HD
ATOM     59  C   UNL A   1      43.179  24.781  27.945  1.00  0.00     0.031 A 
ATOM     60  C   UNL A   1      41.822  29.879  32.819  1.00  0.00     0.031 A 
ATOM     61  C   UNL A   1      44.078  25.276  28.987  1.00  0.00     0.049 A 
ATOM     62  C   UNL A   1      42.638  28.687  33.272  1.00  0.00     0.074 A 
ATOM     63  C   UNL A   1      45.104  26.208  28.990  1.00  0.00     0.029 A 
ATOM     64  N   UNL A   1      43.769  25.025  30.319  1.00  0.00    -0.354 N 
ATOM     65  N   UNL A   1      43.120  27.781  32.467  1.00  0.00    -0.248 NA
ATOM     66  C   UNL A   1      42.942  28.406  34.673  1.00  0.00     0.031 C 
ATOM     67  C   UNL A   1      45.364  26.569  30.339  1.00  0.00     0.029 A 
ATOM     68  C   UNL A   1      44.519  25.832  31.151  1.00  0.00     0.049 A 
ATOM     69  H   UNL A   1      43.107  24.365  30.626  1.00  0.00     0.167 HD
ATOM     70  C   UNL A   1      43.777  26.823  33.194  1.00  0.00     0.074 A 
ATOM     71  C   UNL A   1      43.647  27.265  34.570  1.00  0.00     0.031 C 
ATOM     72  C   UNL A   1      44.362  25.742  32.598  1.00  0.00     0.031 A 
BRANCH  59  73
ATOM     73  C   UNL A   1      43.645  23.990  26.745  1.00  0.00    -0.014 A 
ATOM     74  C   UNL A   1      43.314  22.624  26.646  1.00  0.00     0.009 A 
ATOM     75  C   UNL A   1      44.463  24.494  25.721  1.00  0.00     0.009 A 
ATOM     76  C   UNL A   1      43.847  21.799  25.648  1.00  0.00     0.001 A 
ATOM     77  C   UNL A   1      45.031  23.669  24.739  1.00  0.00     0.001 A 
ATOM     78  C   UNL A   1      44.731  22.315  24.710  1.00  0.00     0.000 A 
ENDBRANCH  59  73
BRANCH  60  79
ATOM     79  C   UNL A   1      40.472  30.222  33.349  1.00  0.00    -0.014 A 
ATOM     80  C   UNL A   1      40.182  31.575  33.624  1.00  0.00     0.009 A 
ATOM     81  C   UNL A   1      39.404  29.320  33.234  1.00  0.00     0.009 A 
ATOM     82  C   UNL A   1      38.861  32.032  33.659  1.00  0.00     0.001 A 
ATOM     83  C   UNL A   1      38.083  29.781  33.288  1.00  0.00     0.001 A 
ATOM     84  C   UNL A   1      37.812  31.138  33.463  1.00  0.00     0.000 A 
ENDBRANCH  60  79
BRANCH  72  85
ATOM     85  C   UNL A   1      44.899  24.511  33.293  1.00  0.00    -0.014 A 
ATOM     86  C   UNL A   1      46.197  24.382  33.799  1.00  0.00     0.009 A 
ATOM     87  C   UNL A   1      44.005  23.452  33.582  1.00  0.00     0.009 A 
ATOM     88  C   UNL A   1      46.592  23.245  34.520  1.00  0.00     0.001 A 
ATOM     89  C   UNL A   1      44.379  22.341  34.341  1.00  0.00     0.001 A 
ATOM     90  C   UNL A   1      45.681  22.232  34.802  1.00  0.00     0.000 A 
ENDBRANCH  72  85
ENDBRANCH  46  47
ENDBRANCH  38  41
ENDBRANCH  36  37
ENDBRANCH  35  36
ENDBRANCH  34  35
ENDBRANCH   1  34
TORSDOF 16
ENDMDL
MODEL 2
REMARK VINA RESULT:     -13.3      3.313      7.897
REMARK SMILES Cc1ccc(-c2cc(C(=O)NCCCCCCNC(=O)c3ccc(-c4c5nc(c(-c6ccccc6)c6ccc([nH]6)c(-c6ccccc6)c6nc(c(-c7ccccc7)c7ccc4[nH]7)C=C6)C=C5)cc3)c3c(-c4cccc([N+](=O)[O-])c4)[nH]nc3n2)cc1
REMARK SMILES IDX 14 1 13 2 12 3 11 4 9 5 10 6 8 8 6 9 7 10 83 11 82 12 69 13
REMARK SMILES IDX 81 14 70 15 80 16 5 18 1 19 2 20 3 21 85 22 4 23 84 24 71 25
REMARK SMILES IDX 72 26 79 27 73 28 75 29 74 30 76 31 77 32 78 33 15 34 16 35
REMARK SMILES IDX 17 36 18 37 19 38 20 40 21 41 22 42 68 43 23 44 67 45 24 46
REMARK SMILES IDX 25 47 26 48 61 49 27 50 66 51 60 52 62 53 28 54 65 55 59 56
REMARK SMILES IDX 58 57 29 59 51 60 36 61 50 62 37 63 40 64 49 65 63 66 38 67
REMARK SMILES IDX 39 68 48 70 64 71 41 72 30 73 31 74 35 75 32 76 34 77 33 78
REMARK SMILES IDX 52 79 53 80 57 81 54 82 56 83 55 84 42 85 43 86 47 87 44 88
REMARK SMILES IDX 46 89 45 90
REMARK H PARENT 11 7 80 17 18 39 62 58 40 69
REMARK Flexibility Score: inf
ROOT
ATOM      1  C   UNL A   1      36.409  23.268  25.930  1.00  0.00     0.002 C 
ENDROOT
BRANCH   1   2
ATOM      2  C   UNL A   1      35.844  23.842  24.620  1.00  0.00     0.021 C 
BRANCH   2   3
ATOM      3  C   UNL A   1      35.010  25.111  24.800  1.00  0.00     0.116 C 
BRANCH   3   4
ATOM      4  N   UNL A   1      34.085  25.289  23.705  1.00  0.00    -0.352 N 
ATOM      5  C   UNL A   1      32.850  24.812  23.367  1.00  0.00     0.252 C 
ATOM      6  O   UNL A   1      32.354  25.413  22.419  1.00  0.00    -0.269 OA
ATOM      7  H   UNL A   1      34.434  25.914  23.031  1.00  0.00     0.163 HD
BRANCH   5   8
ATOM      8  C   UNL A   1      32.112  23.740  24.083  1.00  0.00     0.055 A 
ATOM      9  C   UNL A   1      31.776  21.339  24.642  1.00  0.00     0.074 A 
ATOM     10  C   UNL A   1      32.240  22.377  23.793  1.00  0.00     0.043 A 
ATOM     11  N   UNL A   1      31.015  21.505  25.751  1.00  0.00    -0.226 NA
ATOM     12  C   UNL A   1      30.726  22.810  25.993  1.00  0.00     0.182 A 
ATOM     13  C   UNL A   1      31.252  23.892  25.192  1.00  0.00     0.059 A 
ATOM     14  N   UNL A   1      29.958  23.251  26.986  1.00  0.00    -0.154 NA
ATOM     15  C   UNL A   1      30.686  25.033  25.747  1.00  0.00     0.076 A 
ATOM     16  N   UNL A   1      29.951  24.580  26.817  1.00  0.00    -0.275 N 
ATOM     17  H   UNL A   1      29.458  25.187  27.414  1.00  0.00     0.190 HD
BRANCH   9  18
ATOM     18  C   UNL A   1      32.246  19.972  24.361  1.00  0.00     0.000 A 
ATOM     19  C   UNL A   1      34.160  16.187  23.503  1.00  0.00     0.044 C 
ATOM     20  C   UNL A   1      33.459  17.475  23.818  1.00  0.00    -0.051 A 
ATOM     21  C   UNL A   1      32.759  18.164  22.819  1.00  0.00     0.004 A 
ATOM     22  C   UNL A   1      33.508  18.014  25.105  1.00  0.00     0.004 A 
ATOM     23  C   UNL A   1      32.152  19.398  23.089  1.00  0.00     0.010 A 
ATOM     24  C   UNL A   1      32.905  19.243  25.371  1.00  0.00     0.010 A 
ENDBRANCH   9  18
BRANCH  15  25
ATOM     25  C   UNL A   1      30.683  26.445  25.389  1.00  0.00     0.007 A 
ATOM     26  C   UNL A   1      31.606  27.323  25.974  1.00  0.00     0.011 A 
ATOM     27  C   UNL A   1      29.839  26.905  24.367  1.00  0.00     0.096 A 
ATOM     28  C   UNL A   1      31.731  28.634  25.505  1.00  0.00     0.008 A 
ATOM     29  C   UNL A   1      30.004  28.205  23.873  1.00  0.00     0.270 A 
ATOM     30  C   UNL A   1      30.943  29.075  24.441  1.00  0.00     0.085 A 
BRANCH  29  31
ATOM     31  N   UNL A   1      29.240  28.630  22.695  1.00  0.00     0.062 N 
ATOM     32  O   UNL A   1      28.003  28.623  22.774  1.00  0.00    -0.258 OA
ATOM     33  O   UNL A   1      29.874  28.967  21.683  1.00  0.00    -0.258 OA
ENDBRANCH  29  31
ENDBRANCH  15  25
ENDBRANCH   5   8
ENDBRANCH   3   4
ENDBRANCH   2   3
ENDBRANCH   1   2
BRANCH   1  34
ATOM     34  C   UNL A   1      37.943  23.221  26.048  1.00  0.00     0.002 C 
BRANCH  34  35
ATOM     35  C   UNL A   1      38.596  21.869  25.754  1.00  0.00     0.021 C 
BRANCH  35  36
ATOM     36  C   UNL A   1      39.782  21.545  26.645  1.00  0.00     0.116 C 
BRANCH  36  37
ATOM     37  N   UNL A   1      40.674  20.546  26.080  1.00  0.00    -0.352 N 
ATOM     38  C   UNL A   1      42.055  20.554  25.954  1.00  0.00     0.251 C 
ATOM     39  H   UNL A   1      40.230  19.740  25.731  1.00  0.00     0.163 HD
ATOM     40  O   UNL A   1      42.620  19.645  25.382  1.00  0.00    -0.269 OA
BRANCH  38  41
ATOM     41  C   UNL A   1      42.843  21.593  26.671  1.00  0.00     0.039 A 
ATOM     42  C   UNL A   1      42.735  21.611  28.066  1.00  0.00     0.014 A 
ATOM     43  C   UNL A   1      43.430  22.659  25.998  1.00  0.00     0.014 A 
ATOM     44  C   UNL A   1      42.942  22.805  28.746  1.00  0.00     0.010 A 
ATOM     45  C   UNL A   1      43.528  23.870  26.649  1.00  0.00     0.010 A 
ATOM     46  C   UNL A   1      43.203  23.953  28.006  1.00  0.00    -0.014 A 
BRANCH  46  47
ATOM     47  C   UNL A   1      43.028  25.298  28.534  1.00  0.00     0.031 A 
ATOM     48  C   UNL A   1      41.826  26.075  28.196  1.00  0.00     0.074 A 
ATOM     49  C   UNL A   1      43.936  25.780  29.411  1.00  0.00     0.049 A 
ATOM     50  N   UNL A   1      41.733  27.355  28.314  1.00  0.00    -0.248 NA
ATOM     51  C   UNL A   1      40.634  25.459  27.627  1.00  0.00     0.031 C 
ATOM     52  C   UNL A   1      43.803  26.932  30.296  1.00  0.00     0.029 A 
ATOM     53  N   UNL A   1      45.281  25.424  29.503  1.00  0.00    -0.354 N 
ATOM     54  C   UNL A   1      40.412  27.688  28.132  1.00  0.00     0.074 A 
ATOM     55  C   UNL A   1      39.790  26.493  27.612  1.00  0.00     0.031 C 
ATOM     56  C   UNL A   1      45.030  27.346  30.656  1.00  0.00     0.029 A 
ATOM     57  C   UNL A   1      45.987  26.582  29.874  1.00  0.00     0.049 A 
ATOM     58  H   UNL A   1      45.663  24.532  29.342  1.00  0.00     0.167 HD
ATOM     59  C   UNL A   1      39.964  28.894  28.583  1.00  0.00     0.031 A 
ATOM     60  C   UNL A   1      46.914  27.135  29.035  1.00  0.00     0.031 A 
ATOM     61  C   UNL A   1      41.062  29.729  29.067  1.00  0.00     0.049 A 
ATOM     62  C   UNL A   1      46.583  28.551  28.613  1.00  0.00     0.074 A 
ATOM     63  C   UNL A   1      41.541  30.025  30.334  1.00  0.00     0.029 A 
ATOM     64  N   UNL A   1      42.038  30.148  28.170  1.00  0.00    -0.354 N 
ATOM     65  N   UNL A   1      45.388  29.071  28.665  1.00  0.00    -0.248 NA
ATOM     66  C   UNL A   1      47.571  29.478  28.067  1.00  0.00     0.031 C 
ATOM     67  C   UNL A   1      42.847  30.565  30.194  1.00  0.00     0.029 A 
ATOM     68  C   UNL A   1      43.144  30.626  28.844  1.00  0.00     0.049 A 
ATOM     69  H   UNL A   1      41.953  30.109  27.191  1.00  0.00     0.167 HD
ATOM     70  C   UNL A   1      45.423  30.352  28.181  1.00  0.00     0.074 A 
ATOM     71  C   UNL A   1      46.814  30.565  27.829  1.00  0.00     0.031 C 
ATOM     72  C   UNL A   1      44.297  31.123  28.103  1.00  0.00     0.031 A 
BRANCH  59  73
ATOM     73  C   UNL A   1      38.508  29.186  28.856  1.00  0.00    -0.014 A 
ATOM     74  C   UNL A   1      37.702  29.709  27.826  1.00  0.00     0.009 A 
ATOM     75  C   UNL A   1      37.882  29.042  30.105  1.00  0.00     0.009 A 
ATOM     76  C   UNL A   1      36.393  30.152  28.056  1.00  0.00     0.001 A 
ATOM     77  C   UNL A   1      36.586  29.516  30.355  1.00  0.00     0.001 A 
ATOM     78  C   UNL A   1      35.844  30.082  29.329  1.00  0.00     0.000 A 
ENDBRANCH  59  73
BRANCH  60  79
ATOM     79  C   UNL A   1      47.606  26.140  28.166  1.00  0.00    -0.014 A 
ATOM     80  C   UNL A   1      47.254  26.081  26.802  1.00  0.00     0.009 A 
ATOM     81  C   UNL A   1      48.808  25.544  28.573  1.00  0.00     0.009 A 
ATOM     82  C   UNL A   1      48.138  25.551  25.857  1.00  0.00     0.001 A 
ATOM     83  C   UNL A   1      49.681  24.998  27.624  1.00  0.00     0.001 A 
ATOM     84  C   UNL A   1      49.363  25.035  26.266  1.00  0.00     0.000 A 
ENDBRANCH  60  79
BRANCH  72  85
ATOM     85  C   UNL A   1      44.158  32.442  27.377  1.00  0.00    -0.014 A 
ATOM     86  C   UNL A   1      44.156  32.591  25.985  1.00  0.00     0.009 A 
ATOM     87  C   UNL A   1      43.875  33.605  28.133  1.00  0.00     0.009 A 
ATOM     88  C   UNL A   1      43.922  33.837  25.383  1.00  0.00     0.001 A 
ATOM     89  C   UNL A   1      43.594  34.837  27.538  1.00  0.00     0.001 A 
ATOM     90  C   UNL A   1      43.629  34.956  26.157  1.00  0.00     0.000 A 
ENDBRANCH  72  85
ENDBRANCH  46  47
ENDBRANCH  38  41
ENDBRANCH  36  37
ENDBRANCH  35  36
ENDBRANCH  34  35
ENDBRANCH   1  34
TORSDOF 16
ENDMDL
MODEL 3
REMARK VINA RESULT:     -13.3      1.816      3.087
REMARK SMILES Cc1ccc(-c2cc(C(=O)NCCCCCCNC(=O)c3ccc(-c4c5nc(c(-c6ccccc6)c6ccc([nH]6)c(-c6ccccc6)c6nc(c(-c7ccccc7)c7ccc4[nH]7)C=C6)C=C5)cc3)c3c(-c4cccc([N+](=O)[O-])c4)[nH]nc3n2)cc1
REMARK SMILES IDX 14 1 13 2 12 3 11 4 9 5 10 6 8 8 6 9 7 10 83 11 82 12 69 13
REMARK SMILES IDX 81 14 70 15 80 16 5 18 1 19 2 20 3 21 85 22 4 23 84 24 71 25
REMARK SMILES IDX 72 26 79 27 73 28 75 29 74 30 76 31 77 32 78 33 15 34 16 35
REMARK SMILES IDX 17 36 18 37 19 38 20 40 21 41 22 42 68 43 23 44 67 45 24 46
REMARK SMILES IDX 25 47 26 48 61 49 27 50 66 51 60 52 62 53 28 54 65 55 59 56
REMARK SMILES IDX 58 57 29 59 51 60 36 61 50 62 37 63 40 64 49 65 63 66 38 67
REMARK SMILES IDX 39 68 48 70 64 71 41 72 30 73 31 74 35 75 32 76 34 77 33 78
REMARK SMILES IDX 52 79 53 80 57 81 54 82 56 83 55 84 42 85 43 86 47 87 44 88
REMARK SMILES IDX 46 89 45 90
REMARK H PARENT 11 7 80 17 18 39 62 58 40 69
REMARK Flexibility Score: inf
ROOT
ATOM      1  C   UNL A   1      33.744  28.952  27.371  1.00  0.00     0.002 C 
ENDROOT
BRANCH   1   2
ATOM      2  C   UNL A   1      33.523  28.422  25.945  1.00  0.00     0.021 C 
BRANCH   2   3
ATOM      3  C   UNL A   1      32.064  28.105  25.613  1.00  0.00     0.116 C 
BRANCH   3   4
ATOM      4  N   UNL A   1      31.676  26.817  26.137  1.00  0.00    -0.352 N 
ATOM      5  C   UNL A   1      32.099  25.526  25.999  1.00  0.00     0.252 C 
ATOM      6  O   UNL A   1      31.583  24.768  26.815  1.00  0.00    -0.269 OA
ATOM      7  H   UNL A   1      30.910  26.888  26.750  1.00  0.00     0.163 HD
BRANCH   5   8
ATOM      8  C   UNL A   1      33.126  25.051  25.037  1.00  0.00     0.055 A 
ATOM      9  C   UNL A   1      35.296  23.930  24.556  1.00  0.00     0.074 A 
ATOM     10  C   UNL A   1      34.416  24.649  25.406  1.00  0.00     0.043 A 
ATOM     11  N   UNL A   1      35.091  23.673  23.242  1.00  0.00    -0.226 NA
ATOM     12  C   UNL A   1      33.916  24.181  22.789  1.00  0.00     0.182 A 
ATOM     13  C   UNL A   1      32.965  24.847  23.649  1.00  0.00     0.059 A 
ATOM     14  N   UNL A   1      33.490  24.116  21.529  1.00  0.00    -0.154 NA
ATOM     15  C   UNL A   1      31.945  25.239  22.791  1.00  0.00     0.076 A 
ATOM     16  N   UNL A   1      32.312  24.753  21.559  1.00  0.00    -0.275 N 
ATOM     17  H   UNL A   1      31.751  24.865  20.758  1.00  0.00     0.190 HD
BRANCH   9  18
ATOM     18  C   UNL A   1      36.483  23.316  25.174  1.00  0.00     0.000 A 
ATOM     19  C   UNL A   1      40.279  21.789  26.582  1.00  0.00     0.044 C 
ATOM     20  C   UNL A   1      38.944  22.309  26.137  1.00  0.00    -0.051 A 
ATOM     21  C   UNL A   1      38.082  21.498  25.386  1.00  0.00     0.004 A 
ATOM     22  C   UNL A   1      38.550  23.611  26.449  1.00  0.00     0.004 A 
ATOM     23  C   UNL A   1      36.860  21.995  24.915  1.00  0.00     0.010 A 
ATOM     24  C   UNL A   1      37.333  24.104  25.977  1.00  0.00     0.010 A 
ENDBRANCH   9  18
BRANCH  15  25
ATOM     25  C   UNL A   1      30.737  26.038  22.945  1.00  0.00     0.007 A 
ATOM     26  C   UNL A   1      29.643  25.533  23.662  1.00  0.00     0.011 A 
ATOM     27  C   UNL A   1      30.712  27.362  22.482  1.00  0.00     0.096 A 
ATOM     28  C   UNL A   1      28.557  26.358  23.969  1.00  0.00     0.008 A 
ATOM     29  C   UNL A   1      29.641  28.193  22.834  1.00  0.00     0.270 A 
ATOM     30  C   UNL A   1      28.558  27.695  23.571  1.00  0.00     0.085 A 
BRANCH  29  31
ATOM     31  N   UNL A   1      29.693  29.620  22.495  1.00  0.00     0.062 N 
ATOM     32  O   UNL A   1      29.606  30.438  23.423  1.00  0.00    -0.258 OA
ATOM     33  O   UNL A   1      29.817  29.927  21.300  1.00  0.00    -0.258 OA
ENDBRANCH  29  31
ENDBRANCH  15  25
ENDBRANCH   5   8
ENDBRANCH   3   4
ENDBRANCH   2   3
ENDBRANCH   1   2
BRANCH   1  34
ATOM     34  C   UNL A   1      35.155  29.479  27.691  1.00  0.00     0.002 C 
BRANCH  34  35
ATOM     35  C   UNL A   1      35.218  30.755  28.533  1.00  0.00     0.021 C 
BRANCH  35  36
ATOM     36  C   UNL A   1      35.022  32.034  27.737  1.00  0.00     0.116 C 
BRANCH  36  37
ATOM     37  N   UNL A   1      34.144  32.992  28.390  1.00  0.00    -0.352 N 
ATOM     38  C   UNL A   1      34.311  33.687  29.578  1.00  0.00     0.251 C 
ATOM     39  H   UNL A   1      33.301  33.175  27.916  1.00  0.00     0.163 HD
ATOM     40  O   UNL A   1      33.422  34.398  29.997  1.00  0.00    -0.269 OA
BRANCH  38  41
ATOM     41  C   UNL A   1      35.643  33.684  30.240  1.00  0.00     0.039 A 
ATOM     42  C   UNL A   1      36.716  34.183  29.491  1.00  0.00     0.014 A 
ATOM     43  C   UNL A   1      35.875  32.978  31.415  1.00  0.00     0.014 A 
ATOM     44  C   UNL A   1      38.000  33.725  29.761  1.00  0.00     0.010 A 
ATOM     45  C   UNL A   1      37.125  32.436  31.618  1.00  0.00     0.010 A 
ATOM     46  C   UNL A   1      38.165  32.749  30.738  1.00  0.00    -0.014 A 
BRANCH  46  47
ATOM     47  C   UNL A   1      39.347  31.905  30.829  1.00  0.00     0.031 A 
ATOM     48  C   UNL A   1      39.389  30.612  30.129  1.00  0.00     0.074 A 
ATOM     49  C   UNL A   1      40.434  32.370  31.483  1.00  0.00     0.049 A 
ATOM     50  N   UNL A   1      40.210  29.661  30.413  1.00  0.00    -0.248 NA
ATOM     51  C   UNL A   1      38.443  30.264  29.076  1.00  0.00     0.031 C 
ATOM     52  C   UNL A   1      41.800  31.860  31.427  1.00  0.00     0.029 A 
ATOM     53  N   UNL A   1      40.451  33.294  32.527  1.00  0.00    -0.354 N 
ATOM     54  C   UNL A   1      40.110  28.721  29.415  1.00  0.00     0.074 A 
ATOM     55  C   UNL A   1      38.934  29.093  28.664  1.00  0.00     0.031 C 
ATOM     56  C   UNL A   1      42.464  32.277  32.519  1.00  0.00     0.029 A 
ATOM     57  C   UNL A   1      41.494  32.918  33.391  1.00  0.00     0.049 A 
ATOM     58  H   UNL A   1      39.849  34.065  32.637  1.00  0.00     0.167 HD
ATOM     59  C   UNL A   1      41.120  27.822  29.247  1.00  0.00     0.031 A 
ATOM     60  C   UNL A   1      41.233  32.526  34.674  1.00  0.00     0.031 A 
ATOM     61  C   UNL A   1      42.113  27.921  30.316  1.00  0.00     0.049 A 
ATOM     62  C   UNL A   1      41.669  31.108  34.976  1.00  0.00     0.074 A 
ATOM     63  C   UNL A   1      43.362  28.516  30.397  1.00  0.00     0.029 A 
ATOM     64  N   UNL A   1      41.733  27.625  31.620  1.00  0.00    -0.354 N 
ATOM     65  N   UNL A   1      41.879  30.196  34.068  1.00  0.00    -0.248 NA
ATOM     66  C   UNL A   1      41.866  30.599  36.332  1.00  0.00     0.031 C 
ATOM     67  C   UNL A   1      43.702  28.636  31.771  1.00  0.00     0.029 A 
ATOM     68  C   UNL A   1      42.674  28.087  32.517  1.00  0.00     0.049 A 
ATOM     69  H   UNL A   1      40.907  27.151  31.868  1.00  0.00     0.167 HD
ATOM     70  C   UNL A   1      42.227  29.017  34.672  1.00  0.00     0.074 A 
ATOM     71  C   UNL A   1      42.215  29.323  36.090  1.00  0.00     0.031 C 
ATOM     72  C   UNL A   1      42.484  27.886  33.949  1.00  0.00     0.031 A 
BRANCH  59  73
ATOM     73  C   UNL A   1      41.351  27.068  27.958  1.00  0.00    -0.014 A 
ATOM     74  C   UNL A   1      41.653  25.694  28.005  1.00  0.00     0.009 A 
ATOM     75  C   UNL A   1      41.360  27.650  26.680  1.00  0.00     0.009 A 
ATOM     76  C   UNL A   1      42.036  24.975  26.865  1.00  0.00     0.001 A 
ATOM     77  C   UNL A   1      41.776  26.950  25.539  1.00  0.00     0.001 A 
ATOM     78  C   UNL A   1      42.126  25.611  25.635  1.00  0.00     0.000 A 
ENDBRANCH  59  73
BRANCH  60  79
ATOM     79  C   UNL A   1      40.032  33.179  35.268  1.00  0.00    -0.014 A 
ATOM     80  C   UNL A   1      38.782  32.541  35.128  1.00  0.00     0.009 A 
ATOM     81  C   UNL A   1      40.166  34.180  36.241  1.00  0.00     0.009 A 
ATOM     82  C   UNL A   1      37.736  32.811  36.016  1.00  0.00     0.001 A 
ATOM     83  C   UNL A   1      39.108  34.459  37.116  1.00  0.00     0.001 A 
ATOM     84  C   UNL A   1      37.910  33.750  37.028  1.00  0.00     0.000 A 
ENDBRANCH  60  79
BRANCH  72  85
ATOM     85  C   UNL A   1      42.639  26.484  34.494  1.00  0.00    -0.014 A 
ATOM     86  C   UNL A   1      41.669  25.807  35.242  1.00  0.00     0.009 A 
ATOM     87  C   UNL A   1      43.781  25.735  34.123  1.00  0.00     0.009 A 
ATOM     88  C   UNL A   1      41.845  24.470  35.629  1.00  0.00     0.001 A 
ATOM     89  C   UNL A   1      43.939  24.390  34.464  1.00  0.00     0.001 A 
ATOM     90  C   UNL A   1      42.972  23.758  35.231  1.00  0.00     0.000 A 
ENDBRANCH  72  85
ENDBRANCH  46  47
ENDBRANCH  38  41
ENDBRANCH  36  37
ENDBRANCH  35  36
ENDBRANCH  34  35
ENDBRANCH   1  34
TORSDOF 16
ENDMDL
