MODEL 1
REMARK VINA RESULT:     -10.8      0.000      0.000
REMARK SMILES CC(C)[C@H]1C[N@@H+](CC(=O)NCCCCCCNC(=O)c2ccc(-c3c4nc(c(-c5ccccc5)c5ccc([nH]5)c(-c5ccccc5)c5nc(c(-c6ccccc6)c6ccc3[nH]6)C=C5)C=C4)cc2)C[C@@H]1NC(=O)CN(C)C(N)=O
REMARK SMILES IDX 12 1 11 2 10 3 8 4 9 5 7 7 6 8 4 9 5 10 69 11 68 12 2 14
REMARK SMILES IDX 1 15 3 16 70 17 71 18 72 20 73 21 74 22 75 23 76 24 77 25
REMARK SMILES IDX 78 26 13 29 14 30 15 31 16 32 17 33 18 34 19 36 20 37 21 38
REMARK SMILES IDX 67 39 22 40 66 41 23 42 24 43 25 44 60 45 26 46 65 47 59 48
REMARK SMILES IDX 61 49 27 50 64 51 58 52 57 53 28 55 50 56 35 57 49 58 36 59
REMARK SMILES IDX 39 60 48 61 62 62 37 63 38 64 47 66 63 67 40 68 29 69 30 70
REMARK SMILES IDX 34 71 31 72 33 73 32 74 51 75 52 76 56 77 53 78 55 79 54 80
REMARK SMILES IDX 41 81 42 82 46 83 43 84 45 85 44 86
REMARK H PARENT 10 6 6 13 70 19 77 27 77 28 17 35 61 54 39 65
REMARK Flexibility Score: inf
ROOT
ATOM      1  C   UNL A   1      35.567  24.366  25.717  1.00  0.00     0.021 C 
ENDROOT
BRANCH   1   2
ATOM      2  C   UNL A   1      34.433  25.189  25.045  1.00  0.00     0.116 C 
BRANCH   2   3
ATOM      3  N   UNL A   1      34.363  25.346  23.591  1.00  0.00    -0.351 N 
ATOM      4  C   UNL A   1      33.353  25.202  22.666  1.00  0.00     0.275 C 
ATOM      5  O   UNL A   1      33.572  25.631  21.527  1.00  0.00    -0.269 OA
ATOM      6  H   UNL A   1      35.222  25.611  23.188  1.00  0.00     0.163 HD
BRANCH   4   7
ATOM      7  C   UNL A   1      32.009  24.517  22.989  1.00  0.00     0.363 C 
BRANCH   7   8
ATOM      8  N   UNL A   1      32.044  23.051  23.070  1.00  0.00    -0.325 N 
ATOM      9  C   UNL A   1      32.093  21.550  24.939  1.00  0.00     0.075 C 
ATOM     10  C   UNL A   1      31.216  22.429  24.071  1.00  0.00     0.268 C 
ATOM     11  C   UNL A   1      33.025  21.026  23.822  1.00  0.00     0.146 C 
ATOM     12  C   UNL A   1      33.301  22.313  23.003  1.00  0.00     0.288 C 
ATOM     13  H   UNL A   1      31.633  22.958  22.141  1.00  0.00     0.348 HD
BRANCH   9  14
ATOM     14  C   UNL A   1      32.777  22.205  26.205  1.00  0.00    -0.006 C 
ATOM     15  C   UNL A   1      31.928  23.154  27.052  1.00  0.00     0.008 C 
ATOM     16  C   UNL A   1      33.547  21.290  27.183  1.00  0.00     0.008 C 
ENDBRANCH   9  14
BRANCH  11  17
ATOM     17  N   UNL A   1      32.347  19.885  23.140  1.00  0.00    -0.346 N 
ATOM     18  C   UNL A   1      32.331  18.531  23.270  1.00  0.00     0.240 C 
ATOM     19  H   UNL A   1      31.763  20.190  22.409  1.00  0.00     0.164 HD
ATOM     20  O   UNL A   1      32.146  17.886  22.226  1.00  0.00    -0.273 OA
BRANCH  18  21
ATOM     21  C   UNL A   1      32.481  17.765  24.595  1.00  0.00     0.220 C 
BRANCH  21  22
ATOM     22  N   UNL A   1      33.404  16.627  24.642  1.00  0.00    -0.319 N 
ATOM     23  C   UNL A   1      34.819  16.935  24.515  1.00  0.00     0.149 C 
BRANCH  22  24
ATOM     24  C   UNL A   1      33.123  15.393  25.184  1.00  0.00     0.314 C 
ATOM     25  N   UNL A   1      31.839  15.118  25.480  1.00  0.00    -0.351 N 
ATOM     26  O   UNL A   1      33.979  14.542  25.427  1.00  0.00    -0.249 OA
ATOM     27  H   UNL A   1      31.137  15.784  25.294  1.00  0.00     0.161 HD
ATOM     28  H   UNL A   1      31.601  14.252  25.884  1.00  0.00     0.161 HD
ENDBRANCH  22  24
ENDBRANCH  21  22
ENDBRANCH  18  21
ENDBRANCH  11  17
ENDBRANCH   7   8
ENDBRANCH   4   7
ENDBRANCH   2   3
ENDBRANCH   1   2
BRANCH   1  29
ATOM     29  C   UNL A   1      36.510  23.430  24.932  1.00  0.00     0.002 C 
BRANCH  29  30
ATOM     30  C   UNL A   1      36.401  21.934  25.193  1.00  0.00     0.002 C 
BRANCH  30  31
ATOM     31  C   UNL A   1      37.630  21.154  24.742  1.00  0.00     0.021 C 
BRANCH  31  32
ATOM     32  C   UNL A   1      38.779  21.149  25.748  1.00  0.00     0.116 C 
BRANCH  32  33
ATOM     33  N   UNL A   1      39.575  19.928  25.704  1.00  0.00    -0.352 N 
ATOM     34  C   UNL A   1      40.910  19.800  26.017  1.00  0.00     0.251 C 
ATOM     35  H   UNL A   1      39.110  19.109  25.419  1.00  0.00     0.163 HD
ATOM     36  O   UNL A   1      41.525  18.757  25.833  1.00  0.00    -0.269 OA
BRANCH  34  37
ATOM     37  C   UNL A   1      41.593  20.988  26.562  1.00  0.00     0.039 A 
ATOM     38  C   UNL A   1      42.176  21.901  25.683  1.00  0.00     0.014 A 
ATOM     39  C   UNL A   1      41.479  21.270  27.928  1.00  0.00     0.014 A 
ATOM     40  C   UNL A   1      42.577  23.147  26.165  1.00  0.00     0.010 A 
ATOM     41  C   UNL A   1      41.816  22.537  28.388  1.00  0.00     0.010 A 
ATOM     42  C   UNL A   1      42.354  23.492  27.509  1.00  0.00    -0.014 A 
BRANCH  42  43
ATOM     43  C   UNL A   1      42.644  24.857  28.015  1.00  0.00     0.031 A 
ATOM     44  C   UNL A   1      44.028  25.200  28.490  1.00  0.00     0.074 A 
ATOM     45  C   UNL A   1      41.644  25.754  28.133  1.00  0.00     0.049 A 
ATOM     46  N   UNL A   1      44.457  26.302  29.050  1.00  0.00    -0.248 NA
ATOM     47  C   UNL A   1      45.056  24.157  28.344  1.00  0.00     0.031 C 
ATOM     48  C   UNL A   1      40.247  25.525  27.756  1.00  0.00     0.029 A 
ATOM     49  N   UNL A   1      41.647  27.037  28.621  1.00  0.00    -0.354 N 
ATOM     50  C   UNL A   1      45.796  26.077  29.341  1.00  0.00     0.074 A 
ATOM     51  C   UNL A   1      46.097  24.721  28.939  1.00  0.00     0.031 C 
ATOM     52  C   UNL A   1      39.534  26.634  28.012  1.00  0.00     0.029 A 
ATOM     53  C   UNL A   1      40.410  27.636  28.609  1.00  0.00     0.049 A 
ATOM     54  H   UNL A   1      42.460  27.486  28.950  1.00  0.00     0.167 HD
ATOM     55  C   UNL A   1      46.698  26.929  29.881  1.00  0.00     0.031 A 
ATOM     56  C   UNL A   1      40.021  28.850  29.045  1.00  0.00     0.031 A 
ATOM     57  C   UNL A   1      46.402  28.282  30.262  1.00  0.00     0.049 A 
ATOM     58  C   UNL A   1      41.042  29.771  29.654  1.00  0.00     0.074 A 
ATOM     59  C   UNL A   1      47.269  29.252  30.736  1.00  0.00     0.029 A 
ATOM     60  N   UNL A   1      45.140  28.854  30.222  1.00  0.00    -0.354 N 
ATOM     61  N   UNL A   1      42.327  29.578  29.832  1.00  0.00    -0.248 NA
ATOM     62  C   UNL A   1      40.560  31.081  30.119  1.00  0.00     0.031 C 
ATOM     63  C   UNL A   1      46.520  30.394  31.038  1.00  0.00     0.029 A 
ATOM     64  C   UNL A   1      45.197  30.151  30.702  1.00  0.00     0.049 A 
ATOM     65  H   UNL A   1      44.325  28.404  29.901  1.00  0.00     0.167 HD
ATOM     66  C   UNL A   1      42.807  30.741  30.417  1.00  0.00     0.074 A 
ATOM     67  C   UNL A   1      41.683  31.646  30.540  1.00  0.00     0.031 C 
ATOM     68  C   UNL A   1      44.067  31.033  30.824  1.00  0.00     0.031 A 
BRANCH  55  69
ATOM     69  C   UNL A   1      48.095  26.418  30.097  1.00  0.00    -0.014 A 
ATOM     70  C   UNL A   1      48.471  25.818  31.309  1.00  0.00     0.009 A 
ATOM     71  C   UNL A   1      49.034  26.495  29.057  1.00  0.00     0.009 A 
ATOM     72  C   UNL A   1      49.768  25.333  31.485  1.00  0.00     0.001 A 
ATOM     73  C   UNL A   1      50.321  25.985  29.226  1.00  0.00     0.001 A 
ATOM     74  C   UNL A   1      50.689  25.412  30.442  1.00  0.00     0.000 A 
ENDBRANCH  55  69
BRANCH  56  75
ATOM     75  C   UNL A   1      38.597  29.264  28.938  1.00  0.00    -0.014 A 
ATOM     76  C   UNL A   1      37.733  29.144  30.036  1.00  0.00     0.009 A 
ATOM     77  C   UNL A   1      38.088  29.766  27.728  1.00  0.00     0.009 A 
ATOM     78  C   UNL A   1      36.384  29.491  29.919  1.00  0.00     0.001 A 
ATOM     79  C   UNL A   1      36.748  30.139  27.623  1.00  0.00     0.001 A 
ATOM     80  C   UNL A   1      35.894  29.992  28.715  1.00  0.00     0.000 A 
ENDBRANCH  56  75
BRANCH  68  81
ATOM     81  C   UNL A   1      44.297  32.386  31.433  1.00  0.00    -0.014 A 
ATOM     82  C   UNL A   1      44.605  33.495  30.630  1.00  0.00     0.009 A 
ATOM     83  C   UNL A   1      44.146  32.564  32.816  1.00  0.00     0.009 A 
ATOM     84  C   UNL A   1      44.783  34.754  31.206  1.00  0.00     0.001 A 
ATOM     85  C   UNL A   1      44.297  33.830  33.386  1.00  0.00     0.001 A 
ATOM     86  C   UNL A   1      44.620  34.921  32.581  1.00  0.00     0.000 A 
ENDBRANCH  68  81
ENDBRANCH  42  43
ENDBRANCH  34  37
ENDBRANCH  32  33
ENDBRANCH  31  32
ENDBRANCH  30  31
ENDBRANCH  29  30
ENDBRANCH   1  29
TORSDOF 19
ENDMDL
MODEL 2
REMARK VINA RESULT:     -10.6      3.591      7.976
REMARK SMILES CC(C)[C@H]1C[N@@H+](CC(=O)NCCCCCCNC(=O)c2ccc(-c3c4nc(c(-c5ccccc5)c5ccc([nH]5)c(-c5ccccc5)c5nc(c(-c6ccccc6)c6ccc3[nH]6)C=C5)C=C4)cc2)C[C@@H]1NC(=O)CN(C)C(N)=O
REMARK SMILES IDX 12 1 11 2 10 3 8 4 9 5 7 7 6 8 4 9 5 10 69 11 68 12 2 14
REMARK SMILES IDX 1 15 3 16 70 17 71 18 72 20 73 21 74 22 75 23 76 24 77 25
REMARK SMILES IDX 78 26 13 29 14 30 15 31 16 32 17 33 18 34 19 36 20 37 21 38
REMARK SMILES IDX 67 39 22 40 66 41 23 42 24 43 25 44 60 45 26 46 65 47 59 48
REMARK SMILES IDX 61 49 27 50 64 51 58 52 57 53 28 55 50 56 35 57 49 58 36 59
REMARK SMILES IDX 39 60 48 61 62 62 37 63 38 64 47 66 63 67 40 68 29 69 30 70
REMARK SMILES IDX 34 71 31 72 33 73 32 74 51 75 52 76 56 77 53 78 55 79 54 80
REMARK SMILES IDX 41 81 42 82 46 83 43 84 45 85 44 86
REMARK H PARENT 10 6 6 13 70 19 77 27 77 28 17 35 61 54 39 65
REMARK Flexibility Score: inf
ROOT
ATOM      1  C   UNL A   1      32.566  29.257  24.546  1.00  0.00     0.021 C 
ENDROOT
BRANCH   1   2
ATOM      2  C   UNL A   1      32.400  27.741  24.245  1.00  0.00     0.116 C 
BRANCH   2   3
ATOM      3  N   UNL A   1      31.615  26.870  25.122  1.00  0.00    -0.351 N 
ATOM      4  C   UNL A   1      31.943  25.861  26.000  1.00  0.00     0.275 C 
ATOM      5  O   UNL A   1      31.050  25.472  26.762  1.00  0.00    -0.269 OA
ATOM      6  H   UNL A   1      30.647  27.042  25.074  1.00  0.00     0.163 HD
BRANCH   4   7
ATOM      7  C   UNL A   1      33.336  25.202  26.042  1.00  0.00     0.363 C 
BRANCH   7   8
ATOM      8  N   UNL A   1      33.358  23.745  25.857  1.00  0.00    -0.325 N 
ATOM      9  C   UNL A   1      35.160  22.196  25.540  1.00  0.00     0.075 C 
ATOM     10  C   UNL A   1      34.382  23.010  26.553  1.00  0.00     0.268 C 
ATOM     11  C   UNL A   1      33.970  21.807  24.633  1.00  0.00     0.146 C 
ATOM     12  C   UNL A   1      33.187  23.140  24.539  1.00  0.00     0.288 C 
ATOM     13  H   UNL A   1      32.452  23.641  26.315  1.00  0.00     0.348 HD
BRANCH   9  14
ATOM     14  C   UNL A   1      36.408  22.875  24.844  1.00  0.00    -0.006 C 
ATOM     15  C   UNL A   1      37.792  22.550  25.408  1.00  0.00     0.008 C 
ATOM     16  C   UNL A   1      36.519  22.811  23.305  1.00  0.00     0.008 C 
ENDBRANCH   9  14
BRANCH  11  17
ATOM     17  N   UNL A   1      33.286  20.625  25.236  1.00  0.00    -0.346 N 
ATOM     18  C   UNL A   1      33.297  19.278  25.044  1.00  0.00     0.240 C 
ATOM     19  H   UNL A   1      32.669  20.887  25.957  1.00  0.00     0.164 HD
ATOM     20  O   UNL A   1      32.234  18.685  25.286  1.00  0.00    -0.273 OA
BRANCH  18  21
ATOM     21  C   UNL A   1      34.517  18.456  24.599  1.00  0.00     0.220 C 
BRANCH  21  22
ATOM     22  N   UNL A   1      34.340  17.021  24.354  1.00  0.00    -0.319 N 
ATOM     23  C   UNL A   1      34.049  16.629  22.985  1.00  0.00     0.149 C 
BRANCH  22  24
ATOM     24  C   UNL A   1      34.805  16.009  25.164  1.00  0.00     0.314 C 
ATOM     25  N   UNL A   1      35.981  16.199  25.790  1.00  0.00    -0.351 N 
ATOM     26  O   UNL A   1      34.216  14.941  25.329  1.00  0.00    -0.249 OA
ATOM     27  H   UNL A   1      36.470  17.047  25.672  1.00  0.00     0.161 HD
ATOM     28  H   UNL A   1      36.354  15.493  26.364  1.00  0.00     0.161 HD
ENDBRANCH  22  24
ENDBRANCH  21  22
ENDBRANCH  18  21
ENDBRANCH  11  17
ENDBRANCH   7   8
ENDBRANCH   4   7
ENDBRANCH   2   3
ENDBRANCH   1   2
BRANCH   1  29
ATOM     29  C   UNL A   1      32.980  29.802  25.929  1.00  0.00     0.002 C 
BRANCH  29  30
ATOM     30  C   UNL A   1      31.877  30.066  26.946  1.00  0.00     0.002 C 
BRANCH  30  31
ATOM     31  C   UNL A   1      31.319  31.482  26.873  1.00  0.00     0.021 C 
BRANCH  31  32
ATOM     32  C   UNL A   1      32.358  32.555  26.553  1.00  0.00     0.116 C 
BRANCH  32  33
ATOM     33  N   UNL A   1      32.178  33.777  27.327  1.00  0.00    -0.352 N 
ATOM     34  C   UNL A   1      32.998  34.251  28.327  1.00  0.00     0.251 C 
ATOM     35  H   UNL A   1      31.386  34.321  27.113  1.00  0.00     0.163 HD
ATOM     36  O   UNL A   1      32.700  35.225  29.006  1.00  0.00    -0.269 OA
BRANCH  34  37
ATOM     37  C   UNL A   1      34.251  33.516  28.577  1.00  0.00     0.039 A 
ATOM     38  C   UNL A   1      35.445  34.004  28.046  1.00  0.00     0.014 A 
ATOM     39  C   UNL A   1      34.246  32.456  29.491  1.00  0.00     0.014 A 
ATOM     40  C   UNL A   1      36.656  33.478  28.497  1.00  0.00     0.010 A 
ATOM     41  C   UNL A   1      35.455  31.985  29.988  1.00  0.00     0.010 A 
ATOM     42  C   UNL A   1      36.670  32.501  29.507  1.00  0.00    -0.014 A 
BRANCH  42  43
ATOM     43  C   UNL A   1      37.943  32.025  30.103  1.00  0.00     0.031 A 
ATOM     44  C   UNL A   1      38.588  30.770  29.584  1.00  0.00     0.074 A 
ATOM     45  C   UNL A   1      38.467  32.666  31.167  1.00  0.00     0.049 A 
ATOM     46  N   UNL A   1      39.646  30.143  30.029  1.00  0.00    -0.248 NA
ATOM     47  C   UNL A   1      37.942  30.120  28.432  1.00  0.00     0.031 C 
ATOM     48  C   UNL A   1      37.906  33.864  31.798  1.00  0.00     0.029 A 
ATOM     49  N   UNL A   1      39.581  32.389  31.920  1.00  0.00    -0.354 N 
ATOM     50  C   UNL A   1      39.779  29.017  29.228  1.00  0.00     0.074 A 
ATOM     51  C   UNL A   1      38.670  29.022  28.299  1.00  0.00     0.031 C 
ATOM     52  C   UNL A   1      38.688  34.226  32.829  1.00  0.00     0.029 A 
ATOM     53  C   UNL A   1      39.778  33.265  32.960  1.00  0.00     0.049 A 
ATOM     54  H   UNL A   1      40.183  31.631  31.731  1.00  0.00     0.167 HD
ATOM     55  C   UNL A   1      40.747  28.071  29.253  1.00  0.00     0.031 A 
ATOM     56  C   UNL A   1      40.721  33.284  33.921  1.00  0.00     0.031 A 
ATOM     57  C   UNL A   1      41.858  28.078  30.164  1.00  0.00     0.049 A 
ATOM     58  C   UNL A   1      41.777  32.213  33.933  1.00  0.00     0.074 A 
ATOM     59  C   UNL A   1      42.938  27.213  30.210  1.00  0.00     0.029 A 
ATOM     60  N   UNL A   1      42.027  28.990  31.193  1.00  0.00    -0.354 N 
ATOM     61  N   UNL A   1      41.943  31.209  33.107  1.00  0.00    -0.248 NA
ATOM     62  C   UNL A   1      42.776  32.278  35.011  1.00  0.00     0.031 C 
ATOM     63  C   UNL A   1      43.731  27.566  31.306  1.00  0.00     0.029 A 
ATOM     64  C   UNL A   1      43.173  28.683  31.908  1.00  0.00     0.049 A 
ATOM     65  H   UNL A   1      41.423  29.742  31.387  1.00  0.00     0.167 HD
ATOM     66  C   UNL A   1      43.069  30.532  33.555  1.00  0.00     0.074 A 
ATOM     67  C   UNL A   1      43.562  31.253  34.710  1.00  0.00     0.031 C 
ATOM     68  C   UNL A   1      43.642  29.408  33.058  1.00  0.00     0.031 A 
BRANCH  55  69
ATOM     69  C   UNL A   1      40.643  26.943  28.266  1.00  0.00    -0.014 A 
ATOM     70  C   UNL A   1      39.885  25.795  28.549  1.00  0.00     0.009 A 
ATOM     71  C   UNL A   1      41.271  27.050  27.015  1.00  0.00     0.009 A 
ATOM     72  C   UNL A   1      39.786  24.765  27.612  1.00  0.00     0.001 A 
ATOM     73  C   UNL A   1      41.147  26.032  26.070  1.00  0.00     0.001 A 
ATOM     74  C   UNL A   1      40.411  24.887  26.373  1.00  0.00     0.000 A 
ENDBRANCH  55  69
BRANCH  56  75
ATOM     75  C   UNL A   1      40.707  34.343  34.965  1.00  0.00    -0.014 A 
ATOM     76  C   UNL A   1      40.008  34.154  36.166  1.00  0.00     0.009 A 
ATOM     77  C   UNL A   1      41.378  35.560  34.757  1.00  0.00     0.009 A 
ATOM     78  C   UNL A   1      39.958  35.169  37.126  1.00  0.00     0.001 A 
ATOM     79  C   UNL A   1      41.351  36.560  35.729  1.00  0.00     0.001 A 
ATOM     80  C   UNL A   1      40.633  36.369  36.908  1.00  0.00     0.000 A 
ENDBRANCH  56  75
BRANCH  68  81
ATOM     81  C   UNL A   1      44.868  28.894  33.757  1.00  0.00    -0.014 A 
ATOM     82  C   UNL A   1      46.143  29.372  33.421  1.00  0.00     0.009 A 
ATOM     83  C   UNL A   1      44.739  27.966  34.802  1.00  0.00     0.009 A 
ATOM     84  C   UNL A   1      47.271  28.911  34.103  1.00  0.00     0.001 A 
ATOM     85  C   UNL A   1      45.866  27.529  35.500  1.00  0.00     0.001 A 
ATOM     86  C   UNL A   1      47.130  27.997  35.147  1.00  0.00     0.000 A 
ENDBRANCH  68  81
ENDBRANCH  42  43
ENDBRANCH  34  37
ENDBRANCH  32  33
ENDBRANCH  31  32
ENDBRANCH  30  31
ENDBRANCH  29  30
ENDBRANCH   1  29
TORSDOF 19
ENDMDL
MODEL 3
REMARK VINA RESULT:     -10.4      1.935      6.920
REMARK SMILES CC(C)[C@H]1C[N@@H+](CC(=O)NCCCCCCNC(=O)c2ccc(-c3c4nc(c(-c5ccccc5)c5ccc([nH]5)c(-c5ccccc5)c5nc(c(-c6ccccc6)c6ccc3[nH]6)C=C5)C=C4)cc2)C[C@@H]1NC(=O)CN(C)C(N)=O
REMARK SMILES IDX 12 1 11 2 10 3 8 4 9 5 7 7 6 8 4 9 5 10 69 11 68 12 2 14
REMARK SMILES IDX 1 15 3 16 70 17 71 18 72 20 73 21 74 22 75 23 76 24 77 25
REMARK SMILES IDX 78 26 13 29 14 30 15 31 16 32 17 33 18 34 19 36 20 37 21 38
REMARK SMILES IDX 67 39 22 40 66 41 23 42 24 43 25 44 60 45 26 46 65 47 59 48
REMARK SMILES IDX 61 49 27 50 64 51 58 52 57 53 28 55 50 56 35 57 49 58 36 59
REMARK SMILES IDX 39 60 48 61 62 62 37 63 38 64 47 66 63 67 40 68 29 69 30 70
REMARK SMILES IDX 34 71 31 72 33 73 32 74 51 75 52 76 56 77 53 78 55 79 54 80
REMARK SMILES IDX 41 81 42 82 46 83 43 84 45 85 44 86
REMARK H PARENT 10 6 6 13 70 19 77 27 77 28 17 35 61 54 39 65
REMARK Flexibility Score: inf
ROOT
ATOM      1  C   UNL A   1      31.491  28.679  23.682  1.00  0.00     0.021 C 
ENDROOT
BRANCH   1   2
ATOM      2  C   UNL A   1      32.816  28.433  22.909  1.00  0.00     0.116 C 
BRANCH   2   3
ATOM      3  N   UNL A   1      33.012  27.234  22.092  1.00  0.00    -0.351 N 
ATOM      4  C   UNL A   1      33.392  25.941  22.377  1.00  0.00     0.275 C 
ATOM      5  O   UNL A   1      33.243  25.104  21.478  1.00  0.00    -0.269 OA
ATOM      6  H   UNL A   1      32.835  27.383  21.135  1.00  0.00     0.163 HD
BRANCH   4   7
ATOM      7  C   UNL A   1      34.006  25.523  23.729  1.00  0.00     0.363 C 
BRANCH   7   8
ATOM      8  N   UNL A   1      33.845  24.110  24.092  1.00  0.00    -0.325 N 
ATOM      9  C   UNL A   1      35.283  22.576  25.245  1.00  0.00     0.075 C 
ATOM     10  C   UNL A   1      34.294  23.713  25.402  1.00  0.00     0.268 C 
ATOM     11  C   UNL A   1      34.579  21.854  24.074  1.00  0.00     0.146 C 
ATOM     12  C   UNL A   1      34.178  23.038  23.159  1.00  0.00     0.288 C 
ATOM     13  H   UNL A   1      32.827  24.184  24.058  1.00  0.00     0.348 HD
BRANCH   9  14
ATOM     14  C   UNL A   1      36.810  22.943  25.056  1.00  0.00    -0.006 C 
ATOM     15  C   UNL A   1      37.408  23.978  26.010  1.00  0.00     0.008 C 
ATOM     16  C   UNL A   1      37.834  21.794  24.935  1.00  0.00     0.008 C 
ENDBRANCH   9  14
BRANCH  11  17
ATOM     17  N   UNL A   1      33.495  20.994  24.634  1.00  0.00    -0.346 N 
ATOM     18  C   UNL A   1      33.213  19.663  24.667  1.00  0.00     0.240 C 
ATOM     19  H   UNL A   1      32.809  21.526  25.099  1.00  0.00     0.164 HD
ATOM     20  O   UNL A   1      32.009  19.363  24.686  1.00  0.00    -0.273 OA
BRANCH  18  21
ATOM     21  C   UNL A   1      34.257  18.537  24.723  1.00  0.00     0.220 C 
BRANCH  21  22
ATOM     22  N   UNL A   1      33.832  17.174  24.386  1.00  0.00    -0.319 N 
ATOM     23  C   UNL A   1      34.237  16.674  23.082  1.00  0.00     0.149 C 
BRANCH  22  24
ATOM     24  C   UNL A   1      33.460  16.206  25.291  1.00  0.00     0.314 C 
ATOM     25  N   UNL A   1      32.587  16.555  26.255  1.00  0.00    -0.351 N 
ATOM     26  O   UNL A   1      33.894  15.055  25.278  1.00  0.00    -0.249 OA
ATOM     27  H   UNL A   1      32.226  17.471  26.285  1.00  0.00     0.161 HD
ATOM     28  H   UNL A   1      32.309  15.895  26.931  1.00  0.00     0.161 HD
ENDBRANCH  22  24
ENDBRANCH  21  22
ENDBRANCH  18  21
ENDBRANCH  11  17
ENDBRANCH   7   8
ENDBRANCH   4   7
ENDBRANCH   2   3
ENDBRANCH   1   2
BRANCH   1  29
ATOM     29  C   UNL A   1      31.060  27.843  24.905  1.00  0.00     0.002 C 
BRANCH  29  30
ATOM     30  C   UNL A   1      32.011  27.780  26.093  1.00  0.00     0.002 C 
BRANCH  30  31
ATOM     31  C   UNL A   1      32.157  29.113  26.817  1.00  0.00     0.021 C 
BRANCH  31  32
ATOM     32  C   UNL A   1      33.582  29.438  27.260  1.00  0.00     0.116 C 
BRANCH  32  33
ATOM     33  N   UNL A   1      33.701  30.745  27.897  1.00  0.00    -0.352 N 
ATOM     34  C   UNL A   1      34.771  31.214  28.626  1.00  0.00     0.251 C 
ATOM     35  H   UNL A   1      32.935  31.355  27.796  1.00  0.00     0.163 HD
ATOM     36  O   UNL A   1      34.730  32.280  29.227  1.00  0.00    -0.269 OA
BRANCH  34  37
ATOM     37  C   UNL A   1      35.974  30.364  28.684  1.00  0.00     0.039 A 
ATOM     38  C   UNL A   1      36.847  30.345  27.596  1.00  0.00     0.014 A 
ATOM     39  C   UNL A   1      36.309  29.743  29.892  1.00  0.00     0.014 A 
ATOM     40  C   UNL A   1      38.108  29.767  27.747  1.00  0.00     0.010 A 
ATOM     41  C   UNL A   1      37.590  29.231  30.057  1.00  0.00     0.010 A 
ATOM     42  C   UNL A   1      38.505  29.251  28.992  1.00  0.00    -0.014 A 
BRANCH  42  43
ATOM     43  C   UNL A   1      39.887  28.757  29.218  1.00  0.00     0.031 A 
ATOM     44  C   UNL A   1      40.932  29.684  29.773  1.00  0.00     0.074 A 
ATOM     45  C   UNL A   1      40.222  27.507  28.839  1.00  0.00     0.049 A 
ATOM     46  N   UNL A   1      42.209  29.471  29.956  1.00  0.00    -0.248 NA
ATOM     47  C   UNL A   1      40.487  31.038  30.143  1.00  0.00     0.031 C 
ATOM     48  C   UNL A   1      39.312  26.528  28.239  1.00  0.00     0.029 A 
ATOM     49  N   UNL A   1      41.427  26.851  28.885  1.00  0.00    -0.354 N 
ATOM     50  C   UNL A   1      42.723  30.667  30.440  1.00  0.00     0.074 A 
ATOM     51  C   UNL A   1      41.631  31.613  30.481  1.00  0.00     0.031 C 
ATOM     52  C   UNL A   1      39.987  25.394  27.990  1.00  0.00     0.029 A 
ATOM     53  C   UNL A   1      41.383  25.577  28.371  1.00  0.00     0.049 A 
ATOM     54  H   UNL A   1      42.247  27.256  29.253  1.00  0.00     0.167 HD
ATOM     55  C   UNL A   1      43.988  30.946  30.830  1.00  0.00     0.031 A 
ATOM     56  C   UNL A   1      42.361  24.665  28.208  1.00  0.00     0.031 A 
ATOM     57  C   UNL A   1      45.068  29.998  30.807  1.00  0.00     0.049 A 
ATOM     58  C   UNL A   1      43.761  25.007  28.638  1.00  0.00     0.074 A 
ATOM     59  C   UNL A   1      46.364  30.158  31.265  1.00  0.00     0.029 A 
ATOM     60  N   UNL A   1      44.979  28.715  30.290  1.00  0.00    -0.354 N 
ATOM     61  N   UNL A   1      44.210  26.111  29.186  1.00  0.00    -0.248 NA
ATOM     62  C   UNL A   1      44.790  23.977  28.429  1.00  0.00     0.031 C 
ATOM     63  C   UNL A   1      47.077  28.992  30.971  1.00  0.00     0.029 A 
ATOM     64  C   UNL A   1      46.210  28.087  30.379  1.00  0.00     0.049 A 
ATOM     65  H   UNL A   1      44.163  28.311  29.915  1.00  0.00     0.167 HD
ATOM     66  C   UNL A   1      45.566  25.904  29.398  1.00  0.00     0.074 A 
ATOM     67  C   UNL A   1      45.863  24.561  28.945  1.00  0.00     0.031 C 
ATOM     68  C   UNL A   1      46.486  26.753  29.916  1.00  0.00     0.031 A 
BRANCH  55  69
ATOM     69  C   UNL A   1      44.276  32.339  31.313  1.00  0.00    -0.014 A 
ATOM     70  C   UNL A   1      44.160  32.678  32.671  1.00  0.00     0.009 A 
ATOM     71  C   UNL A   1      44.716  33.314  30.405  1.00  0.00     0.009 A 
ATOM     72  C   UNL A   1      44.449  33.974  33.103  1.00  0.00     0.001 A 
ATOM     73  C   UNL A   1      45.031  34.600  30.844  1.00  0.00     0.001 A 
ATOM     74  C   UNL A   1      44.890  34.931  32.191  1.00  0.00     0.000 A 
ENDBRANCH  55  69
BRANCH  56  75
ATOM     75  C   UNL A   1      42.060  23.344  27.597  1.00  0.00    -0.014 A 
ATOM     76  C   UNL A   1      42.263  23.127  26.225  1.00  0.00     0.009 A 
ATOM     77  C   UNL A   1      41.547  22.295  28.379  1.00  0.00     0.009 A 
ATOM     78  C   UNL A   1      41.935  21.898  25.645  1.00  0.00     0.001 A 
ATOM     79  C   UNL A   1      41.249  21.060  27.802  1.00  0.00     0.001 A 
ATOM     80  C   UNL A   1      41.433  20.865  26.434  1.00  0.00     0.000 A 
ENDBRANCH  56  75
BRANCH  68  81
ATOM     81  C   UNL A   1      47.898  26.253  30.027  1.00  0.00    -0.014 A 
ATOM     82  C   UNL A   1      48.782  26.341  28.941  1.00  0.00     0.009 A 
ATOM     83  C   UNL A   1      48.364  25.743  31.248  1.00  0.00     0.009 A 
ATOM     84  C   UNL A   1      50.102  25.905  29.069  1.00  0.00     0.001 A 
ATOM     85  C   UNL A   1      49.692  25.334  31.382  1.00  0.00     0.001 A 
ATOM     86  C   UNL A   1      50.557  25.410  30.291  1.00  0.00     0.000 A 
ENDBRANCH  68  81
ENDBRANCH  42  43
ENDBRANCH  34  37
ENDBRANCH  32  33
ENDBRANCH  31  32
ENDBRANCH  30  31
ENDBRANCH  29  30
ENDBRANCH   1  29
TORSDOF 19
ENDMDL
