MODEL 1
REMARK VINA RESULT:     -12.2      0.000      0.000
REMARK SMILES Cc1ccc([N+](=O)[O-])c(NCc2ccc(C(=O)NCCCCCCNC(=O)c3ccc(-c4c5nc(c(-c6ccccc6)c6ccc([nH]6)c(-c6ccccc6)c6nc(c(-c7ccccc7)c7ccc4[nH]7)C=C6)C=C5)cc3)cc2)c1
REMARK SMILES IDX 20 1 19 2 18 3 16 4 17 5 15 7 12 8 13 9 77 10 14 11 76 12
REMARK SMILES IDX 11 13 10 14 9 16 1 17 2 18 3 19 78 20 4 21 5 22 6 23 7 24
REMARK SMILES IDX 8 25 21 26 22 27 23 28 24 29 25 30 26 31 27 33 28 34 29 35
REMARK SMILES IDX 75 36 30 37 74 38 31 39 32 40 33 41 68 42 34 43 73 44 67 45
REMARK SMILES IDX 69 46 35 47 72 48 66 49 65 50 36 52 58 53 43 54 57 55 44 56
REMARK SMILES IDX 47 57 56 58 70 59 45 60 46 61 55 63 71 64 48 65 37 66 38 67
REMARK SMILES IDX 42 68 39 69 41 70 40 71 59 72 60 73 64 74 61 75 63 76 62 77
REMARK SMILES IDX 49 78 50 79 54 80 51 81 53 82 52 83
REMARK H PARENT 18 6 10 15 25 32 69 51 47 62
REMARK Flexibility Score: inf
ROOT
ATOM      1  C   UNL A   1      35.594  21.532  26.022  1.00  0.00     0.021 C 
ENDROOT
BRANCH   1   2
ATOM      2  C   UNL A   1      35.436  20.420  24.980  1.00  0.00     0.116 C 
BRANCH   2   3
ATOM      3  N   UNL A   1      34.284  19.593  25.269  1.00  0.00    -0.352 N 
ATOM      4  C   UNL A   1      32.934  19.817  25.191  1.00  0.00     0.251 C 
ATOM      5  O   UNL A   1      32.196  18.855  25.419  1.00  0.00    -0.269 OA
ATOM      6  H   UNL A   1      34.516  18.690  25.584  1.00  0.00     0.163 HD
BRANCH   4   7
ATOM      7  C   UNL A   1      32.315  21.125  24.821  1.00  0.00     0.039 A 
ATOM      8  C   UNL A   1      31.128  23.540  23.882  1.00  0.00    -0.029 A 
ATOM      9  C   UNL A   1      31.792  22.671  23.003  1.00  0.00     0.006 A 
ATOM     10  C   UNL A   1      31.026  23.154  25.228  1.00  0.00     0.006 A 
ATOM     11  C   UNL A   1      32.378  21.488  23.466  1.00  0.00     0.014 A 
ATOM     12  C   UNL A   1      31.607  21.958  25.690  1.00  0.00     0.014 A 
BRANCH   8  13
ATOM     13  C   UNL A   1      30.434  24.766  23.307  1.00  0.00     0.149 C 
BRANCH  13  14
ATOM     14  N   UNL A   1      30.037  25.721  24.329  1.00  0.00    -0.375 N 
ATOM     15  H   UNL A   1      29.297  25.440  24.915  1.00  0.00     0.161 HD
BRANCH  14  16
ATOM     16  C   UNL A   1      30.566  26.976  24.584  1.00  0.00     0.114 A 
ATOM     17  C   UNL A   1      33.174  28.203  27.141  1.00  0.00     0.044 C 
ATOM     18  C   UNL A   1      32.160  28.214  26.034  1.00  0.00    -0.049 A 
ATOM     19  C   UNL A   1      31.853  29.410  25.387  1.00  0.00     0.010 A 
ATOM     20  C   UNL A   1      31.519  27.028  25.629  1.00  0.00     0.036 A 
ATOM     21  C   UNL A   1      30.905  29.415  24.370  1.00  0.00     0.088 A 
ATOM     22  C   UNL A   1      30.265  28.215  23.993  1.00  0.00     0.292 A 
BRANCH  22  23
ATOM     23  N   UNL A   1      29.334  28.355  22.892  1.00  0.00     0.064 N 
ATOM     24  O   UNL A   1      28.180  27.945  23.075  1.00  0.00    -0.258 OA
ATOM     25  O   UNL A   1      29.772  28.804  21.824  1.00  0.00    -0.258 OA
ENDBRANCH  22  23
ENDBRANCH  14  16
ENDBRANCH  13  14
ENDBRANCH   8  13
ENDBRANCH   4   7
ENDBRANCH   2   3
ENDBRANCH   1   2
BRANCH   1  26
ATOM     26  C   UNL A   1      36.787  22.476  25.789  1.00  0.00     0.002 C 
BRANCH  26  27
ATOM     27  C   UNL A   1      38.118  21.820  25.376  1.00  0.00     0.002 C 
BRANCH  27  28
ATOM     28  C   UNL A   1      39.350  22.232  26.185  1.00  0.00     0.021 C 
BRANCH  28  29
ATOM     29  C   UNL A   1      40.021  21.079  26.920  1.00  0.00     0.116 C 
BRANCH  29  30
ATOM     30  N   UNL A   1      41.015  20.374  26.118  1.00  0.00    -0.352 N 
ATOM     31  C   UNL A   1      42.363  20.645  25.934  1.00  0.00     0.251 C 
ATOM     32  H   UNL A   1      40.678  19.586  25.634  1.00  0.00     0.163 HD
ATOM     33  O   UNL A   1      43.033  19.960  25.192  1.00  0.00    -0.269 OA
BRANCH  31  34
ATOM     34  C   UNL A   1      43.005  21.692  26.770  1.00  0.00     0.039 A 
ATOM     35  C   UNL A   1      42.782  21.633  28.150  1.00  0.00     0.014 A 
ATOM     36  C   UNL A   1      43.596  22.814  26.199  1.00  0.00     0.014 A 
ATOM     37  C   UNL A   1      42.896  22.795  28.905  1.00  0.00     0.010 A 
ATOM     38  C   UNL A   1      43.620  23.989  26.923  1.00  0.00     0.010 A 
ATOM     39  C   UNL A   1      43.194  23.991  28.254  1.00  0.00    -0.014 A 
BRANCH  39  40
ATOM     40  C   UNL A   1      42.938  25.297  28.843  1.00  0.00     0.031 A 
ATOM     41  C   UNL A   1      41.746  26.076  28.469  1.00  0.00     0.074 A 
ATOM     42  C   UNL A   1      43.783  25.785  29.778  1.00  0.00     0.049 A 
ATOM     43  N   UNL A   1      41.667  27.357  28.586  1.00  0.00    -0.248 NA
ATOM     44  C   UNL A   1      40.555  25.471  27.882  1.00  0.00     0.031 C 
ATOM     45  C   UNL A   1      43.575  26.926  30.665  1.00  0.00     0.029 A 
ATOM     46  N   UNL A   1      45.124  25.456  29.954  1.00  0.00    -0.354 N 
ATOM     47  C   UNL A   1      40.360  27.709  28.368  1.00  0.00     0.074 A 
ATOM     48  C   UNL A   1      39.720  26.515  27.865  1.00  0.00     0.031 C 
ATOM     49  C   UNL A   1      44.767  27.357  31.104  1.00  0.00     0.029 A 
ATOM     50  C   UNL A   1      45.793  26.607  30.401  1.00  0.00     0.049 A 
ATOM     51  H   UNL A   1      45.530  24.573  29.793  1.00  0.00     0.167 HD
ATOM     52  C   UNL A   1      39.923  28.940  28.749  1.00  0.00     0.031 A 
ATOM     53  C   UNL A   1      46.789  27.160  29.646  1.00  0.00     0.031 A 
ATOM     54  C   UNL A   1      40.987  29.770  29.306  1.00  0.00     0.049 A 
ATOM     55  C   UNL A   1      46.476  28.546  29.109  1.00  0.00     0.074 A 
ATOM     56  C   UNL A   1      41.354  30.159  30.583  1.00  0.00     0.029 A 
ATOM     57  N   UNL A   1      42.054  30.102  28.488  1.00  0.00    -0.354 N 
ATOM     58  N   UNL A   1      45.356  29.185  29.309  1.00  0.00    -0.248 NA
ATOM     59  C   UNL A   1      47.373  29.277  28.211  1.00  0.00     0.031 C 
ATOM     60  C   UNL A   1      42.652  30.743  30.517  1.00  0.00     0.029 A 
ATOM     61  C   UNL A   1      43.063  30.719  29.198  1.00  0.00     0.049 A 
ATOM     62  H   UNL A   1      42.089  29.920  27.520  1.00  0.00     0.167 HD
ATOM     63  C   UNL A   1      45.340  30.328  28.554  1.00  0.00     0.074 A 
ATOM     64  C   UNL A   1      46.630  30.350  27.893  1.00  0.00     0.031 C 
ATOM     65  C   UNL A   1      44.251  31.146  28.481  1.00  0.00     0.031 A 
BRANCH  52  66
ATOM     66  C   UNL A   1      38.463  29.291  28.812  1.00  0.00    -0.014 A 
ATOM     67  C   UNL A   1      37.805  29.746  27.656  1.00  0.00     0.009 A 
ATOM     68  C   UNL A   1      37.694  29.225  29.986  1.00  0.00     0.009 A 
ATOM     69  C   UNL A   1      36.482  30.204  27.692  1.00  0.00     0.001 A 
ATOM     70  C   UNL A   1      36.386  29.722  30.040  1.00  0.00     0.001 A 
ATOM     71  C   UNL A   1      35.783  30.222  28.893  1.00  0.00     0.000 A 
ENDBRANCH  52  66
BRANCH  53  72
ATOM     72  C   UNL A   1      47.613  26.139  28.938  1.00  0.00    -0.014 A 
ATOM     73  C   UNL A   1      47.373  25.927  27.565  1.00  0.00     0.009 A 
ATOM     74  C   UNL A   1      48.819  25.681  29.485  1.00  0.00     0.009 A 
ATOM     75  C   UNL A   1      48.361  25.381  26.742  1.00  0.00     0.001 A 
ATOM     76  C   UNL A   1      49.801  25.122  28.658  1.00  0.00     0.001 A 
ATOM     77  C   UNL A   1      49.587  25.008  27.284  1.00  0.00     0.000 A 
ENDBRANCH  53  72
BRANCH  65  78
ATOM     78  C   UNL A   1      44.195  32.414  27.673  1.00  0.00    -0.014 A 
ATOM     79  C   UNL A   1      43.967  33.670  28.250  1.00  0.00     0.009 A 
ATOM     80  C   UNL A   1      44.242  32.355  26.264  1.00  0.00     0.009 A 
ATOM     81  C   UNL A   1      43.850  34.819  27.457  1.00  0.00     0.001 A 
ATOM     82  C   UNL A   1      44.103  33.494  25.468  1.00  0.00     0.001 A 
ATOM     83  C   UNL A   1      43.918  34.731  26.068  1.00  0.00     0.000 A 
ENDBRANCH  65  78
ENDBRANCH  39  40
ENDBRANCH  31  34
ENDBRANCH  29  30
ENDBRANCH  28  29
ENDBRANCH  27  28
ENDBRANCH  26  27
ENDBRANCH   1  26
TORSDOF 17
ENDMDL
MODEL 2
REMARK VINA RESULT:     -11.4      2.910      8.782
REMARK SMILES Cc1ccc([N+](=O)[O-])c(NCc2ccc(C(=O)NCCCCCCNC(=O)c3ccc(-c4c5nc(c(-c6ccccc6)c6ccc([nH]6)c(-c6ccccc6)c6nc(c(-c7ccccc7)c7ccc4[nH]7)C=C6)C=C5)cc3)cc2)c1
REMARK SMILES IDX 20 1 19 2 18 3 16 4 17 5 15 7 12 8 13 9 77 10 14 11 76 12
REMARK SMILES IDX 11 13 10 14 9 16 1 17 2 18 3 19 78 20 4 21 5 22 6 23 7 24
REMARK SMILES IDX 8 25 21 26 22 27 23 28 24 29 25 30 26 31 27 33 28 34 29 35
REMARK SMILES IDX 75 36 30 37 74 38 31 39 32 40 33 41 68 42 34 43 73 44 67 45
REMARK SMILES IDX 69 46 35 47 72 48 66 49 65 50 36 52 58 53 43 54 57 55 44 56
REMARK SMILES IDX 47 57 56 58 70 59 45 60 46 61 55 63 71 64 48 65 37 66 38 67
REMARK SMILES IDX 42 68 39 69 41 70 40 71 59 72 60 73 64 74 61 75 63 76 62 77
REMARK SMILES IDX 49 78 50 79 54 80 51 81 53 82 52 83
REMARK H PARENT 18 6 10 15 25 32 69 51 47 62
REMARK Flexibility Score: inf
ROOT
ATOM      1  C   UNL A   1      33.976  28.449  26.110  1.00  0.00     0.021 C 
ENDROOT
BRANCH   1   2
ATOM      2  C   UNL A   1      33.817  28.586  24.592  1.00  0.00     0.116 C 
BRANCH   2   3
ATOM      3  N   UNL A   1      32.449  28.897  24.236  1.00  0.00    -0.352 N 
ATOM      4  C   UNL A   1      31.294  28.159  24.242  1.00  0.00     0.251 C 
ATOM      5  O   UNL A   1      30.250  28.756  23.969  1.00  0.00    -0.269 OA
ATOM      6  H   UNL A   1      32.322  29.823  23.928  1.00  0.00     0.163 HD
BRANCH   4   7
ATOM      7  C   UNL A   1      31.221  26.708  24.588  1.00  0.00     0.039 A 
ATOM      8  C   UNL A   1      31.194  23.894  25.037  1.00  0.00    -0.029 A 
ATOM      9  C   UNL A   1      31.368  24.419  23.748  1.00  0.00     0.006 A 
ATOM     10  C   UNL A   1      31.083  24.801  26.102  1.00  0.00     0.006 A 
ATOM     11  C   UNL A   1      31.376  25.801  23.529  1.00  0.00     0.014 A 
ATOM     12  C   UNL A   1      31.104  26.191  25.880  1.00  0.00     0.014 A 
BRANCH   8  13
ATOM     13  C   UNL A   1      31.282  22.386  25.226  1.00  0.00     0.149 C 
BRANCH  13  14
ATOM     14  N   UNL A   1      32.206  21.754  24.298  1.00  0.00    -0.375 N 
ATOM     15  H   UNL A   1      31.848  21.560  23.402  1.00  0.00     0.161 HD
BRANCH  14  16
ATOM     16  C   UNL A   1      33.525  21.390  24.514  1.00  0.00     0.114 A 
ATOM     17  C   UNL A   1      36.789  23.436  24.566  1.00  0.00     0.044 C 
ATOM     18  C   UNL A   1      35.846  22.270  24.634  1.00  0.00    -0.049 A 
ATOM     19  C   UNL A   1      36.340  20.994  24.897  1.00  0.00     0.010 A 
ATOM     20  C   UNL A   1      34.462  22.448  24.447  1.00  0.00     0.036 A 
ATOM     21  C   UNL A   1      35.463  19.917  24.948  1.00  0.00     0.088 A 
ATOM     22  C   UNL A   1      34.081  20.119  24.741  1.00  0.00     0.292 A 
BRANCH  22  23
ATOM     23  N   UNL A   1      33.277  18.920  24.866  1.00  0.00     0.064 N 
ATOM     24  O   UNL A   1      32.132  19.056  25.320  1.00  0.00    -0.258 OA
ATOM     25  O   UNL A   1      33.809  17.839  24.583  1.00  0.00    -0.258 OA
ENDBRANCH  22  23
ENDBRANCH  14  16
ENDBRANCH  13  14
ENDBRANCH   8  13
ENDBRANCH   4   7
ENDBRANCH   2   3
ENDBRANCH   1   2
BRANCH   1  26
ATOM     26  C   UNL A   1      34.172  29.776  26.864  1.00  0.00     0.002 C 
BRANCH  26  27
ATOM     27  C   UNL A   1      32.900  30.576  27.200  1.00  0.00     0.002 C 
BRANCH  27  28
ATOM     28  C   UNL A   1      33.111  32.039  27.595  1.00  0.00     0.021 C 
BRANCH  28  29
ATOM     29  C   UNL A   1      34.542  32.372  27.996  1.00  0.00     0.116 C 
BRANCH  29  30
ATOM     30  N   UNL A   1      34.731  32.498  29.437  1.00  0.00    -0.352 N 
ATOM     31  C   UNL A   1      35.481  31.719  30.307  1.00  0.00     0.251 C 
ATOM     32  H   UNL A   1      34.255  33.250  29.856  1.00  0.00     0.163 HD
ATOM     33  O   UNL A   1      35.490  31.957  31.495  1.00  0.00    -0.269 OA
BRANCH  31  34
ATOM     34  C   UNL A   1      36.385  30.683  29.744  1.00  0.00     0.039 A 
ATOM     35  C   UNL A   1      36.574  29.521  30.501  1.00  0.00     0.014 A 
ATOM     36  C   UNL A   1      37.195  30.946  28.645  1.00  0.00     0.014 A 
ATOM     37  C   UNL A   1      37.735  28.777  30.323  1.00  0.00     0.010 A 
ATOM     38  C   UNL A   1      38.391  30.268  28.527  1.00  0.00     0.010 A 
ATOM     39  C   UNL A   1      38.692  29.235  29.419  1.00  0.00    -0.014 A 
BRANCH  39  40
ATOM     40  C   UNL A   1      40.079  28.794  29.444  1.00  0.00     0.031 A 
ATOM     41  C   UNL A   1      40.481  27.526  28.813  1.00  0.00     0.074 A 
ATOM     42  C   UNL A   1      41.019  29.578  30.017  1.00  0.00     0.049 A 
ATOM     43  N   UNL A   1      41.537  26.867  29.149  1.00  0.00    -0.248 NA
ATOM     44  C   UNL A   1      39.692  26.871  27.776  1.00  0.00     0.031 C 
ATOM     45  C   UNL A   1      42.471  29.452  29.920  1.00  0.00     0.029 A 
ATOM     46  N   UNL A   1      40.825  30.540  31.004  1.00  0.00    -0.354 N 
ATOM     47  C   UNL A   1      41.720  25.881  28.214  1.00  0.00     0.074 A 
ATOM     48  C   UNL A   1      40.512  25.876  27.421  1.00  0.00     0.031 C 
ATOM     49  C   UNL A   1      43.032  30.104  30.949  1.00  0.00     0.029 A 
ATOM     50  C   UNL A   1      41.962  30.545  31.827  1.00  0.00     0.049 A 
ATOM     51  H   UNL A   1      40.031  31.113  31.106  1.00  0.00     0.167 HD
ATOM     52  C   UNL A   1      42.923  25.250  28.129  1.00  0.00     0.031 A 
ATOM     53  C   UNL A   1      41.854  30.225  33.151  1.00  0.00     0.031 A 
ATOM     54  C   UNL A   1      43.869  25.701  29.145  1.00  0.00     0.049 A 
ATOM     55  C   UNL A   1      42.576  28.951  33.553  1.00  0.00     0.074 A 
ATOM     56  C   UNL A   1      44.976  26.533  29.147  1.00  0.00     0.029 A 
ATOM     57  N   UNL A   1      43.549  25.494  30.476  1.00  0.00    -0.354 N 
ATOM     58  N   UNL A   1      43.240  28.183  32.733  1.00  0.00    -0.248 NA
ATOM     59  C   UNL A   1      42.515  28.388  34.904  1.00  0.00     0.031 C 
ATOM     60  C   UNL A   1      45.323  26.812  30.500  1.00  0.00     0.029 A 
ATOM     61  C   UNL A   1      44.435  26.136  31.316  1.00  0.00     0.049 A 
ATOM     62  H   UNL A   1      42.784  24.956  30.785  1.00  0.00     0.167 HD
ATOM     63  C   UNL A   1      43.624  27.041  33.384  1.00  0.00     0.074 A 
ATOM     64  C   UNL A   1      43.159  27.219  34.745  1.00  0.00     0.031 C 
ATOM     65  C   UNL A   1      44.246  26.006  32.749  1.00  0.00     0.031 A 
BRANCH  52  66
ATOM     66  C   UNL A   1      43.293  24.379  26.962  1.00  0.00    -0.014 A 
ATOM     67  C   UNL A   1      44.148  24.877  25.964  1.00  0.00     0.009 A 
ATOM     68  C   UNL A   1      42.804  23.075  26.776  1.00  0.00     0.009 A 
ATOM     69  C   UNL A   1      44.420  24.152  24.797  1.00  0.00     0.001 A 
ATOM     70  C   UNL A   1      43.036  22.362  25.592  1.00  0.00     0.001 A 
ATOM     71  C   UNL A   1      43.837  22.907  24.597  1.00  0.00     0.000 A 
ENDBRANCH  52  66
BRANCH  53  72
ATOM     72  C   UNL A   1      40.583  30.711  33.762  1.00  0.00    -0.014 A 
ATOM     73  C   UNL A   1      40.476  32.083  34.067  1.00  0.00     0.009 A 
ATOM     74  C   UNL A   1      39.410  29.947  33.690  1.00  0.00     0.009 A 
ATOM     75  C   UNL A   1      39.225  32.696  34.177  1.00  0.00     0.001 A 
ATOM     76  C   UNL A   1      38.159  30.564  33.815  1.00  0.00     0.001 A 
ATOM     77  C   UNL A   1      38.067  31.940  34.020  1.00  0.00     0.000 A 
ENDBRANCH  53  72
BRANCH  65  78
ATOM     78  C   UNL A   1      44.693  24.740  33.428  1.00  0.00    -0.014 A 
ATOM     79  C   UNL A   1      46.029  24.497  33.772  1.00  0.00     0.009 A 
ATOM     80  C   UNL A   1      43.778  23.684  33.623  1.00  0.00     0.009 A 
ATOM     81  C   UNL A   1      46.418  23.275  34.338  1.00  0.00     0.001 A 
ATOM     82  C   UNL A   1      44.166  22.457  34.166  1.00  0.00     0.001 A 
ATOM     83  C   UNL A   1      45.488  22.256  34.535  1.00  0.00     0.000 A 
ENDBRANCH  65  78
ENDBRANCH  39  40
ENDBRANCH  31  34
ENDBRANCH  29  30
ENDBRANCH  28  29
ENDBRANCH  27  28
ENDBRANCH  26  27
ENDBRANCH   1  26
TORSDOF 17
ENDMDL
MODEL 3
REMARK VINA RESULT:     -11.2      2.448      3.641
REMARK SMILES Cc1ccc([N+](=O)[O-])c(NCc2ccc(C(=O)NCCCCCCNC(=O)c3ccc(-c4c5nc(c(-c6ccccc6)c6ccc([nH]6)c(-c6ccccc6)c6nc(c(-c7ccccc7)c7ccc4[nH]7)C=C6)C=C5)cc3)cc2)c1
REMARK SMILES IDX 20 1 19 2 18 3 16 4 17 5 15 7 12 8 13 9 77 10 14 11 76 12
REMARK SMILES IDX 11 13 10 14 9 16 1 17 2 18 3 19 78 20 4 21 5 22 6 23 7 24
REMARK SMILES IDX 8 25 21 26 22 27 23 28 24 29 25 30 26 31 27 33 28 34 29 35
REMARK SMILES IDX 75 36 30 37 74 38 31 39 32 40 33 41 68 42 34 43 73 44 67 45
REMARK SMILES IDX 69 46 35 47 72 48 66 49 65 50 36 52 58 53 43 54 57 55 44 56
REMARK SMILES IDX 47 57 56 58 70 59 45 60 46 61 55 63 71 64 48 65 37 66 38 67
REMARK SMILES IDX 42 68 39 69 41 70 40 71 59 72 60 73 64 74 61 75 63 76 62 77
REMARK SMILES IDX 49 78 50 79 54 80 51 81 53 82 52 83
REMARK H PARENT 18 6 10 15 25 32 69 51 47 62
REMARK Flexibility Score: inf
ROOT
ATOM      1  C   UNL A   1      35.380  21.751  26.014  1.00  0.00     0.021 C 
ENDROOT
BRANCH   1   2
ATOM      2  C   UNL A   1      35.399  20.581  25.023  1.00  0.00     0.116 C 
BRANCH   2   3
ATOM      3  N   UNL A   1      34.268  19.702  25.232  1.00  0.00    -0.352 N 
ATOM      4  C   UNL A   1      32.914  19.890  25.144  1.00  0.00     0.251 C 
ATOM      5  O   UNL A   1      32.203  18.893  25.290  1.00  0.00    -0.269 OA
ATOM      6  H   UNL A   1      34.523  18.786  25.486  1.00  0.00     0.163 HD
BRANCH   4   7
ATOM      7  C   UNL A   1      32.260  21.201  24.854  1.00  0.00     0.039 A 
ATOM      8  C   UNL A   1      30.999  23.633  24.068  1.00  0.00    -0.029 A 
ATOM      9  C   UNL A   1      31.636  22.811  23.126  1.00  0.00     0.006 A 
ATOM     10  C   UNL A   1      30.962  23.192  25.400  1.00  0.00     0.006 A 
ATOM     11  C   UNL A   1      32.259  21.620  23.515  1.00  0.00     0.014 A 
ATOM     12  C   UNL A   1      31.580  21.987  25.786  1.00  0.00     0.014 A 
BRANCH   8  13
ATOM     13  C   UNL A   1      30.263  24.871  23.574  1.00  0.00     0.149 C 
BRANCH  13  14
ATOM     14  N   UNL A   1      31.162  25.898  23.073  1.00  0.00    -0.375 N 
ATOM     15  H   UNL A   1      31.186  26.007  22.095  1.00  0.00     0.161 HD
BRANCH  14  16
ATOM     16  C   UNL A   1      31.989  26.742  23.797  1.00  0.00     0.114 A 
ATOM     17  C   UNL A   1      31.784  28.086  27.402  1.00  0.00     0.044 C 
ATOM     18  C   UNL A   1      32.275  27.850  26.003  1.00  0.00    -0.049 A 
ATOM     19  C   UNL A   1      33.452  28.456  25.570  1.00  0.00     0.010 A 
ATOM     20  C   UNL A   1      31.567  27.012  25.120  1.00  0.00     0.036 A 
ATOM     21  C   UNL A   1      33.895  28.243  24.269  1.00  0.00     0.088 A 
ATOM     22  C   UNL A   1      33.159  27.411  23.398  1.00  0.00     0.292 A 
BRANCH  22  23
ATOM     23  N   UNL A   1      33.757  27.239  22.090  1.00  0.00     0.064 N 
ATOM     24  O   UNL A   1      33.670  26.116  21.575  1.00  0.00    -0.258 OA
ATOM     25  O   UNL A   1      34.374  28.199  21.609  1.00  0.00    -0.258 OA
ENDBRANCH  22  23
ENDBRANCH  14  16
ENDBRANCH  13  14
ENDBRANCH   8  13
ENDBRANCH   4   7
ENDBRANCH   2   3
ENDBRANCH   1   2
BRANCH   1  26
ATOM     26  C   UNL A   1      36.384  22.876  25.710  1.00  0.00     0.002 C 
BRANCH  26  27
ATOM     27  C   UNL A   1      37.857  22.461  25.537  1.00  0.00     0.002 C 
BRANCH  27  28
ATOM     28  C   UNL A   1      38.867  23.173  26.438  1.00  0.00     0.021 C 
BRANCH  28  29
ATOM     29  C   UNL A   1      40.143  22.379  26.686  1.00  0.00     0.116 C 
BRANCH  29  30
ATOM     30  N   UNL A   1      41.320  22.945  26.037  1.00  0.00    -0.352 N 
ATOM     31  C   UNL A   1      41.781  24.253  26.017  1.00  0.00     0.251 C 
ATOM     32  H   UNL A   1      41.870  22.300  25.538  1.00  0.00     0.163 HD
ATOM     33  O   UNL A   1      42.773  24.547  25.385  1.00  0.00    -0.269 OA
BRANCH  31  34
ATOM     34  C   UNL A   1      41.129  25.258  26.896  1.00  0.00     0.039 A 
ATOM     35  C   UNL A   1      40.690  26.443  26.296  1.00  0.00     0.014 A 
ATOM     36  C   UNL A   1      41.167  25.142  28.282  1.00  0.00     0.014 A 
ATOM     37  C   UNL A   1      40.557  27.588  27.073  1.00  0.00     0.010 A 
ATOM     38  C   UNL A   1      41.128  26.293  29.042  1.00  0.00     0.010 A 
ATOM     39  C   UNL A   1      40.901  27.525  28.422  1.00  0.00    -0.014 A 
BRANCH  39  40
ATOM     40  C   UNL A   1      41.195  28.708  29.219  1.00  0.00     0.031 A 
ATOM     41  C   UNL A   1      40.128  29.649  29.598  1.00  0.00     0.074 A 
ATOM     42  C   UNL A   1      42.456  28.923  29.655  1.00  0.00     0.049 A 
ATOM     43  N   UNL A   1      40.342  30.884  29.900  1.00  0.00    -0.248 NA
ATOM     44  C   UNL A   1      38.716  29.282  29.620  1.00  0.00     0.031 C 
ATOM     45  C   UNL A   1      42.904  29.880  30.663  1.00  0.00     0.029 A 
ATOM     46  N   UNL A   1      43.634  28.446  29.089  1.00  0.00    -0.354 N 
ATOM     47  C   UNL A   1      39.176  31.388  30.416  1.00  0.00     0.074 A 
ATOM     48  C   UNL A   1      38.175  30.379  30.157  1.00  0.00     0.031 C 
ATOM     49  C   UNL A   1      44.215  30.107  30.492  1.00  0.00     0.029 A 
ATOM     50  C   UNL A   1      44.627  29.421  29.280  1.00  0.00     0.049 A 
ATOM     51  H   UNL A   1      43.750  27.580  28.635  1.00  0.00     0.167 HD
ATOM     52  C   UNL A   1      39.201  32.554  31.118  1.00  0.00     0.031 A 
ATOM     53  C   UNL A   1      45.218  30.021  28.203  1.00  0.00     0.031 A 
ATOM     54  C   UNL A   1      40.529  33.158  31.163  1.00  0.00     0.049 A 
ATOM     55  C   UNL A   1      44.935  31.507  28.077  1.00  0.00     0.074 A 
ATOM     56  C   UNL A   1      41.526  33.253  32.120  1.00  0.00     0.029 A 
ATOM     57  N   UNL A   1      41.112  33.547  29.969  1.00  0.00    -0.354 N 
ATOM     58  N   UNL A   1      44.182  32.193  28.892  1.00  0.00    -0.248 NA
ATOM     59  C   UNL A   1      45.405  32.318  26.951  1.00  0.00     0.031 C 
ATOM     60  C   UNL A   1      42.712  33.719  31.483  1.00  0.00     0.029 A 
ATOM     61  C   UNL A   1      42.429  33.919  30.146  1.00  0.00     0.049 A 
ATOM     62  H   UNL A   1      40.645  33.558  29.102  1.00  0.00     0.167 HD
ATOM     63  C   UNL A   1      44.007  33.459  28.400  1.00  0.00     0.074 A 
ATOM     64  C   UNL A   1      44.803  33.496  27.189  1.00  0.00     0.031 C 
ATOM     65  C   UNL A   1      43.181  34.370  28.989  1.00  0.00     0.031 A 
BRANCH  52  66
ATOM     66  C   UNL A   1      38.038  33.015  31.951  1.00  0.00    -0.014 A 
ATOM     67  C   UNL A   1      37.494  32.159  32.924  1.00  0.00     0.009 A 
ATOM     68  C   UNL A   1      37.418  34.267  31.800  1.00  0.00     0.009 A 
ATOM     69  C   UNL A   1      36.335  32.493  33.635  1.00  0.00     0.001 A 
ATOM     70  C   UNL A   1      36.234  34.590  32.475  1.00  0.00     0.001 A 
ATOM     71  C   UNL A   1      35.687  33.696  33.386  1.00  0.00     0.000 A 
ENDBRANCH  52  66
BRANCH  53  72
ATOM     72  C   UNL A   1      45.406  29.089  27.054  1.00  0.00    -0.014 A 
ATOM     73  C   UNL A   1      46.648  28.435  26.927  1.00  0.00     0.009 A 
ATOM     74  C   UNL A   1      44.306  28.581  26.350  1.00  0.00     0.009 A 
ATOM     75  C   UNL A   1      46.757  27.238  26.213  1.00  0.00     0.001 A 
ATOM     76  C   UNL A   1      44.424  27.389  25.625  1.00  0.00     0.001 A 
ATOM     77  C   UNL A   1      45.635  26.700  25.588  1.00  0.00     0.000 A 
ENDBRANCH  53  72
BRANCH  65  78
ATOM     78  C   UNL A   1      42.968  35.772  28.487  1.00  0.00    -0.014 A 
ATOM     79  C   UNL A   1      43.367  36.904  29.211  1.00  0.00     0.009 A 
ATOM     80  C   UNL A   1      42.227  35.994  27.307  1.00  0.00     0.009 A 
ATOM     81  C   UNL A   1      43.088  38.195  28.744  1.00  0.00     0.001 A 
ATOM     82  C   UNL A   1      41.927  37.280  26.851  1.00  0.00     0.001 A 
ATOM     83  C   UNL A   1      42.369  38.383  27.565  1.00  0.00     0.000 A 
ENDBRANCH  65  78
ENDBRANCH  39  40
ENDBRANCH  31  34
ENDBRANCH  29  30
ENDBRANCH  28  29
ENDBRANCH  27  28
ENDBRANCH  26  27
ENDBRANCH   1  26
TORSDOF 17
ENDMDL
