MODEL 1
REMARK VINA RESULT:     -11.0      0.000      0.000
REMARK SMILES O=C(/C=C/c1ccc(NC(=O)NC2CCCC2)c(F)c1)NCCCCCCNC(=O)c1ccc(-c2c3nc(c(-c4ccccc4)c4ccc([nH]4)c(-c4ccccc4)c4nc(c(-c5ccccc5)c5ccc2[nH]5)C=C4)C=C3)cc1
REMARK SMILES IDX 24 1 23 2 22 3 21 4 1 5 2 6 3 8 4 9 5 10 6 11 20 12 7 13
REMARK SMILES IDX 18 14 8 15 19 16 9 17 10 18 11 20 12 21 13 23 14 24 17 25
REMARK SMILES IDX 15 26 16 27 25 28 26 29 27 30 28 31 29 32 30 34 31 35 32 36
REMARK SMILES IDX 78 37 33 38 77 39 34 40 35 41 36 42 71 43 37 44 76 45 70 46
REMARK SMILES IDX 72 47 38 48 75 49 69 50 68 51 39 53 61 54 46 55 60 56 47 57
REMARK SMILES IDX 50 58 59 59 73 60 48 61 49 62 58 64 74 65 51 66 40 67 41 68
REMARK SMILES IDX 45 69 42 70 44 71 43 72 62 73 63 74 67 75 64 76 66 77 65 78
REMARK SMILES IDX 52 79 53 80 57 81 54 82 56 83 55 84
REMARK H PARENT 21 7 9 19 12 22 28 33 72 52 50 63
REMARK Flexibility Score: inf
ROOT
ATOM      1  C   UNL A   1      35.084  32.878  28.028  1.00  0.00     0.002 C 
ENDROOT
BRANCH   1   2
ATOM      2  C   UNL A   1      34.749  31.380  28.027  1.00  0.00     0.021 C 
BRANCH   2   3
ATOM      3  C   UNL A   1      33.319  31.076  27.581  1.00  0.00     0.116 C 
BRANCH   3   4
ATOM      4  N   UNL A   1      33.115  29.645  27.514  1.00  0.00    -0.353 N 
ATOM      5  O   UNL A   1      33.044  29.533  25.223  1.00  0.00    -0.270 OA
ATOM      6  C   UNL A   1      32.885  29.020  26.323  1.00  0.00     0.243 C 
ATOM      7  H   UNL A   1      33.141  29.114  28.342  1.00  0.00     0.163 HD
BRANCH   6   8
ATOM      8  C   UNL A   1      32.465  27.607  26.413  1.00  0.00     0.072 C 
ATOM      9  C   UNL A   1      32.147  26.802  25.383  1.00  0.00     0.014 C 
BRANCH   9  10
ATOM     10  C   UNL A   1      31.776  25.390  25.596  1.00  0.00    -0.022 A 
ATOM     11  C   UNL A   1      31.108  24.651  24.606  1.00  0.00     0.010 A 
ATOM     12  C   UNL A   1      32.130  24.734  26.778  1.00  0.00     0.049 A 
ATOM     13  C   UNL A   1      31.028  23.262  24.679  1.00  0.00     0.030 A 
ATOM     14  C   UNL A   1      32.018  23.345  26.853  1.00  0.00     0.147 A 
ATOM     15  C   UNL A   1      31.597  22.598  25.750  1.00  0.00     0.078 A 
ATOM     16  F   UNL A   1      32.427  22.718  27.967  1.00  0.00    -0.205 F 
BRANCH  15  17
ATOM     17  N   UNL A   1      31.771  21.211  25.765  1.00  0.00    -0.305 N 
ATOM     18  C   UNL A   1      32.535  20.382  25.038  1.00  0.00     0.319 C 
ATOM     19  H   UNL A   1      31.225  20.751  26.444  1.00  0.00     0.171 HD
ATOM     20  O   UNL A   1      32.162  19.210  24.911  1.00  0.00    -0.248 OA
ATOM     21  N   UNL A   1      33.736  20.680  24.515  1.00  0.00    -0.335 N 
ATOM     22  H   UNL A   1      33.989  20.005  23.845  1.00  0.00     0.165 HD
BRANCH  21  23
ATOM     23  C   UNL A   1      34.790  21.694  24.627  1.00  0.00     0.083 C 
ATOM     24  C   UNL A   1      34.550  22.936  23.776  1.00  0.00     0.025 C 
ATOM     25  C   UNL A   1      35.284  22.132  25.998  1.00  0.00     0.025 C 
ATOM     26  C   UNL A   1      35.146  24.114  24.529  1.00  0.00     0.002 C 
ATOM     27  C   UNL A   1      35.589  23.622  25.899  1.00  0.00     0.002 C 
ENDBRANCH  21  23
ENDBRANCH  15  17
ENDBRANCH   9  10
ENDBRANCH   6   8
ENDBRANCH   3   4
ENDBRANCH   2   3
ENDBRANCH   1   2
BRANCH   1  28
ATOM     28  C   UNL A   1      34.552  33.650  29.239  1.00  0.00     0.002 C 
BRANCH  28  29
ATOM     29  C   UNL A   1      33.348  34.545  28.945  1.00  0.00     0.021 C 
BRANCH  29  30
ATOM     30  C   UNL A   1      33.457  35.951  29.526  1.00  0.00     0.116 C 
BRANCH  30  31
ATOM     31  N   UNL A   1      32.524  36.164  30.621  1.00  0.00    -0.352 N 
ATOM     32  C   UNL A   1      32.582  35.702  31.913  1.00  0.00     0.251 C 
ATOM     33  H   UNL A   1      31.740  36.719  30.406  1.00  0.00     0.163 HD
ATOM     34  O   UNL A   1      31.615  35.814  32.655  1.00  0.00    -0.269 OA
BRANCH  32  35
ATOM     35  C   UNL A   1      33.815  35.044  32.395  1.00  0.00     0.039 A 
ATOM     36  C   UNL A   1      33.737  33.735  32.875  1.00  0.00     0.014 A 
ATOM     37  C   UNL A   1      35.041  35.712  32.365  1.00  0.00     0.014 A 
ATOM     38  C   UNL A   1      34.902  33.074  33.268  1.00  0.00     0.010 A 
ATOM     39  C   UNL A   1      36.210  35.026  32.682  1.00  0.00     0.010 A 
ATOM     40  C   UNL A   1      36.151  33.701  33.140  1.00  0.00    -0.014 A 
BRANCH  40  41
ATOM     41  C   UNL A   1      37.408  32.986  33.478  1.00  0.00     0.031 A 
ATOM     42  C   UNL A   1      37.963  31.945  32.543  1.00  0.00     0.074 A 
ATOM     43  C   UNL A   1      38.023  33.236  34.650  1.00  0.00     0.049 A 
ATOM     44  N   UNL A   1      39.016  31.182  32.691  1.00  0.00    -0.248 NA
ATOM     45  C   UNL A   1      37.228  31.716  31.289  1.00  0.00     0.031 C 
ATOM     46  C   UNL A   1      37.569  34.196  35.660  1.00  0.00     0.029 A 
ATOM     47  N   UNL A   1      39.162  32.698  35.196  1.00  0.00    -0.354 N 
ATOM     48  C   UNL A   1      39.063  30.381  31.558  1.00  0.00     0.074 A 
ATOM     49  C   UNL A   1      37.905  30.708  30.758  1.00  0.00     0.031 C 
ATOM     50  C   UNL A   1      38.435  34.199  36.686  1.00  0.00     0.029 A 
ATOM     51  C   UNL A   1      39.478  33.212  36.431  1.00  0.00     0.049 A 
ATOM     52  H   UNL A   1      39.703  32.010  34.744  1.00  0.00     0.167 HD
ATOM     53  C   UNL A   1      39.999  29.467  31.202  1.00  0.00     0.031 A 
ATOM     54  C   UNL A   1      40.487  32.912  37.270  1.00  0.00     0.031 A 
ATOM     55  C   UNL A   1      41.154  29.142  31.996  1.00  0.00     0.049 A 
ATOM     56  C   UNL A   1      41.491  31.866  36.866  1.00  0.00     0.074 A 
ATOM     57  C   UNL A   1      42.181  28.262  31.701  1.00  0.00     0.029 A 
ATOM     58  N   UNL A   1      41.435  29.682  33.241  1.00  0.00    -0.354 N 
ATOM     59  N   UNL A   1      41.557  31.165  35.761  1.00  0.00    -0.248 NA
ATOM     60  C   UNL A   1      42.569  31.580  37.825  1.00  0.00     0.031 C 
ATOM     61  C   UNL A   1      43.052  28.224  32.793  1.00  0.00     0.029 A 
ATOM     62  C   UNL A   1      42.605  29.132  33.739  1.00  0.00     0.049 A 
ATOM     63  H   UNL A   1      40.885  30.354  33.704  1.00  0.00     0.167 HD
ATOM     64  C   UNL A   1      42.698  30.381  35.876  1.00  0.00     0.074 A 
ATOM     65  C   UNL A   1      43.303  30.708  37.150  1.00  0.00     0.031 C 
ATOM     66  C   UNL A   1      43.199  29.471  35.007  1.00  0.00     0.031 A 
BRANCH  53  67
ATOM     67  C   UNL A   1      39.812  28.750  29.894  1.00  0.00    -0.014 A 
ATOM     68  C   UNL A   1      40.218  29.332  28.682  1.00  0.00     0.009 A 
ATOM     69  C   UNL A   1      39.275  27.453  29.876  1.00  0.00     0.009 A 
ATOM     70  C   UNL A   1      40.063  28.642  27.478  1.00  0.00     0.001 A 
ATOM     71  C   UNL A   1      39.151  26.754  28.675  1.00  0.00     0.001 A 
ATOM     72  C   UNL A   1      39.536  27.351  27.476  1.00  0.00     0.000 A 
ENDBRANCH  53  67
BRANCH  54  73
ATOM     73  C   UNL A   1      40.606  33.603  38.582  1.00  0.00    -0.014 A 
ATOM     74  C   UNL A   1      41.384  34.764  38.712  1.00  0.00     0.009 A 
ATOM     75  C   UNL A   1      39.972  33.084  39.722  1.00  0.00     0.009 A 
ATOM     76  C   UNL A   1      41.556  35.367  39.960  1.00  0.00     0.001 A 
ATOM     77  C   UNL A   1      40.117  33.709  40.962  1.00  0.00     0.001 A 
ATOM     78  C   UNL A   1      40.920  34.841  41.084  1.00  0.00     0.000 A 
ENDBRANCH  54  73
BRANCH  66  79
ATOM     79  C   UNL A   1      44.490  28.796  35.380  1.00  0.00    -0.014 A 
ATOM     80  C   UNL A   1      45.732  29.356  35.044  1.00  0.00     0.009 A 
ATOM     81  C   UNL A   1      44.459  27.601  36.114  1.00  0.00     0.009 A 
ATOM     82  C   UNL A   1      46.918  28.709  35.404  1.00  0.00     0.001 A 
ATOM     83  C   UNL A   1      45.644  26.975  36.503  1.00  0.00     0.001 A 
ATOM     84  C   UNL A   1      46.872  27.525  36.138  1.00  0.00     0.000 A 
ENDBRANCH  66  79
ENDBRANCH  40  41
ENDBRANCH  32  35
ENDBRANCH  30  31
ENDBRANCH  29  30
ENDBRANCH  28  29
ENDBRANCH   1  28
TORSDOF 16
ENDMDL
MODEL 2
REMARK VINA RESULT:     -11.0      4.971     10.719
REMARK SMILES O=C(/C=C/c1ccc(NC(=O)NC2CCCC2)c(F)c1)NCCCCCCNC(=O)c1ccc(-c2c3nc(c(-c4ccccc4)c4ccc([nH]4)c(-c4ccccc4)c4nc(c(-c5ccccc5)c5ccc2[nH]5)C=C4)C=C3)cc1
REMARK SMILES IDX 24 1 23 2 22 3 21 4 1 5 2 6 3 8 4 9 5 10 6 11 20 12 7 13
REMARK SMILES IDX 18 14 8 15 19 16 9 17 10 18 11 20 12 21 13 23 14 24 17 25
REMARK SMILES IDX 15 26 16 27 25 28 26 29 27 30 28 31 29 32 30 34 31 35 32 36
REMARK SMILES IDX 78 37 33 38 77 39 34 40 35 41 36 42 71 43 37 44 76 45 70 46
REMARK SMILES IDX 72 47 38 48 75 49 69 50 68 51 39 53 61 54 46 55 60 56 47 57
REMARK SMILES IDX 50 58 59 59 73 60 48 61 49 62 58 64 74 65 51 66 40 67 41 68
REMARK SMILES IDX 45 69 42 70 44 71 43 72 62 73 63 74 67 75 64 76 66 77 65 78
REMARK SMILES IDX 52 79 53 80 57 81 54 82 56 83 55 84
REMARK H PARENT 21 7 9 19 12 22 28 33 72 52 50 63
REMARK Flexibility Score: inf
ROOT
ATOM      1  C   UNL A   1      37.271  32.310  31.267  1.00  0.00     0.002 C 
ENDROOT
BRANCH   1   2
ATOM      2  C   UNL A   1      37.500  32.871  32.677  1.00  0.00     0.021 C 
BRANCH   2   3
ATOM      3  C   UNL A   1      37.682  31.789  33.741  1.00  0.00     0.116 C 
BRANCH   3   4
ATOM      4  N   UNL A   1      38.899  31.049  33.493  1.00  0.00    -0.353 N 
ATOM      5  O   UNL A   1      37.881  29.002  33.283  1.00  0.00    -0.270 OA
ATOM      6  C   UNL A   1      38.890  29.688  33.394  1.00  0.00     0.243 C 
ATOM      7  H   UNL A   1      39.749  31.535  33.393  1.00  0.00     0.163 HD
BRANCH   6   8
ATOM      8  C   UNL A   1      40.216  29.039  33.371  1.00  0.00     0.072 C 
ATOM      9  C   UNL A   1      41.324  29.462  34.006  1.00  0.00     0.014 C 
BRANCH   9  10
ATOM     10  C   UNL A   1      42.588  28.706  33.938  1.00  0.00    -0.022 A 
ATOM     11  C   UNL A   1      43.716  29.096  34.677  1.00  0.00     0.010 A 
ATOM     12  C   UNL A   1      42.678  27.542  33.169  1.00  0.00     0.049 A 
ATOM     13  C   UNL A   1      44.795  28.231  34.850  1.00  0.00     0.030 A 
ATOM     14  C   UNL A   1      43.776  26.697  33.327  1.00  0.00     0.147 A 
ATOM     15  C   UNL A   1      44.767  26.975  34.273  1.00  0.00     0.078 A 
ATOM     16  F   UNL A   1      43.818  25.547  32.636  1.00  0.00    -0.205 F 
BRANCH  15  17
ATOM     17  N   UNL A   1      45.687  25.976  34.604  1.00  0.00    -0.305 N 
ATOM     18  C   UNL A   1      45.933  25.306  35.740  1.00  0.00     0.319 C 
ATOM     19  H   UNL A   1      46.270  25.712  33.855  1.00  0.00     0.171 HD
ATOM     20  O   UNL A   1      47.069  24.850  35.910  1.00  0.00    -0.248 OA
ATOM     21  N   UNL A   1      45.022  24.991  36.675  1.00  0.00    -0.335 N 
ATOM     22  H   UNL A   1      45.473  24.710  37.504  1.00  0.00     0.165 HD
BRANCH  21  23
ATOM     23  C   UNL A   1      43.567  24.932  36.853  1.00  0.00     0.083 C 
ATOM     24  C   UNL A   1      42.944  26.243  37.320  1.00  0.00     0.025 C 
ATOM     25  C   UNL A   1      42.689  24.339  35.760  1.00  0.00     0.025 C 
ATOM     26  C   UNL A   1      41.556  26.321  36.707  1.00  0.00     0.002 C 
ATOM     27  C   UNL A   1      41.401  25.155  35.741  1.00  0.00     0.002 C 
ENDBRANCH  21  23
ENDBRANCH  15  17
ENDBRANCH   9  10
ENDBRANCH   6   8
ENDBRANCH   3   4
ENDBRANCH   2   3
ENDBRANCH   1   2
BRANCH   1  28
ATOM     28  C   UNL A   1      37.216  33.368  30.161  1.00  0.00     0.002 C 
BRANCH  28  29
ATOM     29  C   UNL A   1      35.909  33.392  29.368  1.00  0.00     0.021 C 
BRANCH  29  30
ATOM     30  C   UNL A   1      34.821  32.482  29.928  1.00  0.00     0.116 C 
BRANCH  30  31
ATOM     31  N   UNL A   1      34.123  31.754  28.880  1.00  0.00    -0.352 N 
ATOM     32  C   UNL A   1      34.594  30.774  28.041  1.00  0.00     0.251 C 
ATOM     33  H   UNL A   1      33.178  32.000  28.753  1.00  0.00     0.163 HD
ATOM     34  O   UNL A   1      33.926  30.403  27.086  1.00  0.00    -0.269 OA
BRANCH  32  35
ATOM     35  C   UNL A   1      35.927  30.185  28.289  1.00  0.00     0.039 A 
ATOM     36  C   UNL A   1      36.925  30.349  27.326  1.00  0.00     0.014 A 
ATOM     37  C   UNL A   1      36.193  29.484  29.468  1.00  0.00     0.014 A 
ATOM     38  C   UNL A   1      38.209  29.860  27.574  1.00  0.00     0.010 A 
ATOM     39  C   UNL A   1      37.491  29.068  29.747  1.00  0.00     0.010 A 
ATOM     40  C   UNL A   1      38.511  29.249  28.802  1.00  0.00    -0.014 A 
BRANCH  40  41
ATOM     41  C   UNL A   1      39.890  28.796  29.115  1.00  0.00     0.031 A 
ATOM     42  C   UNL A   1      40.852  29.719  29.814  1.00  0.00     0.074 A 
ATOM     43  C   UNL A   1      40.293  27.571  28.726  1.00  0.00     0.049 A 
ATOM     44  N   UNL A   1      42.108  29.520  30.124  1.00  0.00    -0.248 NA
ATOM     45  C   UNL A   1      40.344  31.047  30.194  1.00  0.00     0.031 C 
ATOM     46  C   UNL A   1      39.469  26.592  28.010  1.00  0.00     0.029 A 
ATOM     47  N   UNL A   1      41.504  26.939  28.871  1.00  0.00    -0.354 N 
ATOM     48  C   UNL A   1      42.539  30.695  30.725  1.00  0.00     0.074 A 
ATOM     49  C   UNL A   1      41.431  31.622  30.687  1.00  0.00     0.031 C 
ATOM     50  C   UNL A   1      40.188  25.477  27.806  1.00  0.00     0.029 A 
ATOM     51  C   UNL A   1      41.535  25.675  28.331  1.00  0.00     0.049 A 
ATOM     52  H   UNL A   1      42.277  27.352  29.320  1.00  0.00     0.167 HD
ATOM     53  C   UNL A   1      43.744  30.972  31.279  1.00  0.00     0.031 A 
ATOM     54  C   UNL A   1      42.538  24.781  28.257  1.00  0.00     0.031 A 
ATOM     55  C   UNL A   1      44.847  30.049  31.320  1.00  0.00     0.049 A 
ATOM     56  C   UNL A   1      43.878  25.130  28.849  1.00  0.00     0.074 A 
ATOM     57  C   UNL A   1      46.093  30.223  31.898  1.00  0.00     0.029 A 
ATOM     58  N   UNL A   1      44.838  28.782  30.760  1.00  0.00    -0.354 N 
ATOM     59  N   UNL A   1      44.247  26.221  29.472  1.00  0.00    -0.248 NA
ATOM     60  C   UNL A   1      44.935  24.114  28.735  1.00  0.00     0.031 C 
ATOM     61  C   UNL A   1      46.858  29.083  31.636  1.00  0.00     0.029 A 
ATOM     62  C   UNL A   1      46.067  28.173  30.956  1.00  0.00     0.049 A 
ATOM     63  H   UNL A   1      44.073  28.375  30.293  1.00  0.00     0.167 HD
ATOM     64  C   UNL A   1      45.567  26.012  29.853  1.00  0.00     0.074 A 
ATOM     65  C   UNL A   1      45.924  24.681  29.409  1.00  0.00     0.031 C 
ATOM     66  C   UNL A   1      46.407  26.846  30.511  1.00  0.00     0.031 A 
BRANCH  53  67
ATOM     67  C   UNL A   1      43.935  32.334  31.888  1.00  0.00    -0.014 A 
ATOM     68  C   UNL A   1      44.373  33.420  31.113  1.00  0.00     0.009 A 
ATOM     69  C   UNL A   1      43.619  32.549  33.238  1.00  0.00     0.009 A 
ATOM     70  C   UNL A   1      44.518  34.685  31.685  1.00  0.00     0.001 A 
ATOM     71  C   UNL A   1      43.735  33.822  33.800  1.00  0.00     0.001 A 
ATOM     72  C   UNL A   1      44.192  34.886  33.026  1.00  0.00     0.000 A 
ENDBRANCH  53  67
BRANCH  54  73
ATOM     73  C   UNL A   1      42.327  23.465  27.596  1.00  0.00    -0.014 A 
ATOM     74  C   UNL A   1      41.857  22.363  28.327  1.00  0.00     0.009 A 
ATOM     75  C   UNL A   1      42.630  23.294  26.235  1.00  0.00     0.009 A 
ATOM     76  C   UNL A   1      41.733  21.110  27.721  1.00  0.00     0.001 A 
ATOM     77  C   UNL A   1      42.471  22.049  25.624  1.00  0.00     0.001 A 
ATOM     78  C   UNL A   1      42.037  20.954  26.370  1.00  0.00     0.000 A 
ENDBRANCH  54  73
BRANCH  66  79
ATOM     79  C   UNL A   1      47.783  26.328  30.833  1.00  0.00    -0.014 A 
ATOM     80  C   UNL A   1      48.053  25.671  32.043  1.00  0.00     0.009 A 
ATOM     81  C   UNL A   1      48.813  26.469  29.890  1.00  0.00     0.009 A 
ATOM     82  C   UNL A   1      49.340  25.199  32.316  1.00  0.00     0.001 A 
ATOM     83  C   UNL A   1      50.087  25.966  30.151  1.00  0.00     0.001 A 
ATOM     84  C   UNL A   1      50.352  25.341  31.369  1.00  0.00     0.000 A 
ENDBRANCH  66  79
ENDBRANCH  40  41
ENDBRANCH  32  35
ENDBRANCH  30  31
ENDBRANCH  29  30
ENDBRANCH  28  29
ENDBRANCH   1  28
TORSDOF 16
ENDMDL
MODEL 3
REMARK VINA RESULT:     -10.8      0.289      5.793
REMARK SMILES O=C(/C=C/c1ccc(NC(=O)NC2CCCC2)c(F)c1)NCCCCCCNC(=O)c1ccc(-c2c3nc(c(-c4ccccc4)c4ccc([nH]4)c(-c4ccccc4)c4nc(c(-c5ccccc5)c5ccc2[nH]5)C=C4)C=C3)cc1
REMARK SMILES IDX 24 1 23 2 22 3 21 4 1 5 2 6 3 8 4 9 5 10 6 11 20 12 7 13
REMARK SMILES IDX 18 14 8 15 19 16 9 17 10 18 11 20 12 21 13 23 14 24 17 25
REMARK SMILES IDX 15 26 16 27 25 28 26 29 27 30 28 31 29 32 30 34 31 35 32 36
REMARK SMILES IDX 78 37 33 38 77 39 34 40 35 41 36 42 71 43 37 44 76 45 70 46
REMARK SMILES IDX 72 47 38 48 75 49 69 50 68 51 39 53 61 54 46 55 60 56 47 57
REMARK SMILES IDX 50 58 59 59 73 60 48 61 49 62 58 64 74 65 51 66 40 67 41 68
REMARK SMILES IDX 45 69 42 70 44 71 43 72 62 73 63 74 67 75 64 76 66 77 65 78
REMARK SMILES IDX 52 79 53 80 57 81 54 82 56 83 55 84
REMARK H PARENT 21 7 9 19 12 22 28 33 72 52 50 63
REMARK Flexibility Score: inf
ROOT
ATOM      1  C   UNL A   1      34.984  32.631  28.201  1.00  0.00     0.002 C 
ENDROOT
BRANCH   1   2
ATOM      2  C   UNL A   1      33.996  31.468  28.366  1.00  0.00     0.021 C 
BRANCH   2   3
ATOM      3  C   UNL A   1      33.313  31.059  27.062  1.00  0.00     0.116 C 
BRANCH   3   4
ATOM      4  N   UNL A   1      33.110  29.627  27.036  1.00  0.00    -0.353 N 
ATOM      5  O   UNL A   1      32.691  29.498  24.783  1.00  0.00    -0.270 OA
ATOM      6  C   UNL A   1      32.705  28.992  25.898  1.00  0.00     0.243 C 
ATOM      7  H   UNL A   1      33.265  29.102  27.854  1.00  0.00     0.163 HD
BRANCH   6   8
ATOM      8  C   UNL A   1      32.312  27.577  26.060  1.00  0.00     0.072 C 
ATOM      9  C   UNL A   1      32.085  26.694  25.071  1.00  0.00     0.014 C 
BRANCH   9  10
ATOM     10  C   UNL A   1      31.733  25.290  25.358  1.00  0.00    -0.022 A 
ATOM     11  C   UNL A   1      31.090  24.487  24.404  1.00  0.00     0.010 A 
ATOM     12  C   UNL A   1      32.079  24.708  26.581  1.00  0.00     0.049 A 
ATOM     13  C   UNL A   1      31.030  23.103  24.554  1.00  0.00     0.030 A 
ATOM     14  C   UNL A   1      31.988  23.324  26.732  1.00  0.00     0.147 A 
ATOM     15  C   UNL A   1      31.595  22.509  25.668  1.00  0.00     0.078 A 
ATOM     16  F   UNL A   1      32.391  22.768  27.886  1.00  0.00    -0.205 F 
BRANCH  15  17
ATOM     17  N   UNL A   1      31.790  21.128  25.765  1.00  0.00    -0.305 N 
ATOM     18  C   UNL A   1      32.577  20.272  25.096  1.00  0.00     0.319 C 
ATOM     19  H   UNL A   1      31.241  20.699  26.461  1.00  0.00     0.171 HD
ATOM     20  O   UNL A   1      32.224  19.089  25.030  1.00  0.00    -0.248 OA
ATOM     21  N   UNL A   1      33.781  20.560  24.573  1.00  0.00    -0.335 N 
ATOM     22  H   UNL A   1      34.053  19.852  23.946  1.00  0.00     0.165 HD
BRANCH  21  23
ATOM     23  C   UNL A   1      34.817  21.595  24.641  1.00  0.00     0.083 C 
ATOM     24  C   UNL A   1      34.566  22.787  23.725  1.00  0.00     0.025 C 
ATOM     25  C   UNL A   1      35.290  22.112  25.992  1.00  0.00     0.025 C 
ATOM     26  C   UNL A   1      35.135  24.013  24.420  1.00  0.00     0.002 C 
ATOM     27  C   UNL A   1      35.573  23.601  25.818  1.00  0.00     0.002 C 
ENDBRANCH  21  23
ENDBRANCH  15  17
ENDBRANCH   9  10
ENDBRANCH   6   8
ENDBRANCH   3   4
ENDBRANCH   2   3
ENDBRANCH   1   2
BRANCH   1  28
ATOM     28  C   UNL A   1      34.795  33.776  29.201  1.00  0.00     0.002 C 
BRANCH  28  29
ATOM     29  C   UNL A   1      33.405  34.413  29.182  1.00  0.00     0.021 C 
BRANCH  29  30
ATOM     30  C   UNL A   1      33.397  35.907  29.487  1.00  0.00     0.116 C 
BRANCH  30  31
ATOM     31  N   UNL A   1      32.526  36.234  30.605  1.00  0.00    -0.352 N 
ATOM     32  C   UNL A   1      32.602  35.825  31.913  1.00  0.00     0.251 C 
ATOM     33  H   UNL A   1      31.774  36.834  30.393  1.00  0.00     0.163 HD
ATOM     34  O   UNL A   1      31.676  36.038  32.684  1.00  0.00    -0.269 OA
BRANCH  32  35
ATOM     35  C   UNL A   1      33.804  35.102  32.380  1.00  0.00     0.039 A 
ATOM     36  C   UNL A   1      33.662  33.799  32.862  1.00  0.00     0.014 A 
ATOM     37  C   UNL A   1      35.064  35.704  32.334  1.00  0.00     0.014 A 
ATOM     38  C   UNL A   1      34.795  33.078  33.241  1.00  0.00     0.010 A 
ATOM     39  C   UNL A   1      36.198  34.957  32.637  1.00  0.00     0.010 A 
ATOM     40  C   UNL A   1      36.075  33.637  33.096  1.00  0.00    -0.014 A 
BRANCH  40  41
ATOM     41  C   UNL A   1      37.296  32.855  33.418  1.00  0.00     0.031 A 
ATOM     42  C   UNL A   1      38.049  33.117  34.694  1.00  0.00     0.074 A 
ATOM     43  C   UNL A   1      37.756  31.946  32.538  1.00  0.00     0.049 A 
ATOM     44  N   UNL A   1      39.161  32.574  35.122  1.00  0.00    -0.248 NA
ATOM     45  C   UNL A   1      37.494  34.138  35.599  1.00  0.00     0.031 C 
ATOM     46  C   UNL A   1      37.139  31.621  31.249  1.00  0.00     0.029 A 
ATOM     47  N   UNL A   1      38.858  31.127  32.590  1.00  0.00    -0.354 N 
ATOM     48  C   UNL A   1      39.440  33.190  36.334  1.00  0.00     0.074 A 
ATOM     49  C   UNL A   1      38.415  34.187  36.550  1.00  0.00     0.031 C 
ATOM     50  C   UNL A   1      37.853  30.656  30.649  1.00  0.00     0.029 A 
ATOM     51  C   UNL A   1      39.002  30.324  31.484  1.00  0.00     0.049 A 
ATOM     52  H   UNL A   1      39.485  31.116  33.349  1.00  0.00     0.167 HD
ATOM     53  C   UNL A   1      40.447  32.936  37.204  1.00  0.00     0.031 A 
ATOM     54  C   UNL A   1      39.959  29.431  31.172  1.00  0.00     0.031 A 
ATOM     55  C   UNL A   1      41.466  31.943  36.992  1.00  0.00     0.049 A 
ATOM     56  C   UNL A   1      41.087  29.195  32.140  1.00  0.00     0.074 A 
ATOM     57  C   UNL A   1      42.503  31.582  37.835  1.00  0.00     0.029 A 
ATOM     58  N   UNL A   1      41.578  31.154  35.859  1.00  0.00    -0.354 N 
ATOM     59  N   UNL A   1      41.299  29.740  33.312  1.00  0.00    -0.248 NA
ATOM     60  C   UNL A   1      42.104  28.209  31.742  1.00  0.00     0.031 C 
ATOM     61  C   UNL A   1      43.278  30.616  37.186  1.00  0.00     0.029 A 
ATOM     62  C   UNL A   1      42.683  30.327  35.969  1.00  0.00     0.049 A 
ATOM     63  H   UNL A   1      40.964  31.179  35.090  1.00  0.00     0.167 HD
ATOM     64  C   UNL A   1      42.451  29.141  33.806  1.00  0.00     0.074 A 
ATOM     65  C   UNL A   1      42.880  28.177  32.815  1.00  0.00     0.031 C 
ATOM     66  C   UNL A   1      43.096  29.369  34.975  1.00  0.00     0.031 A 
BRANCH  53  67
ATOM     67  C   UNL A   1      40.499  33.748  38.469  1.00  0.00    -0.014 A 
ATOM     68  C   UNL A   1      41.204  34.961  38.523  1.00  0.00     0.009 A 
ATOM     69  C   UNL A   1      39.788  33.326  39.602  1.00  0.00     0.009 A 
ATOM     70  C   UNL A   1      41.220  35.719  39.696  1.00  0.00     0.001 A 
ATOM     71  C   UNL A   1      39.779  34.102  40.763  1.00  0.00     0.001 A 
ATOM     72  C   UNL A   1      40.502  35.292  40.812  1.00  0.00     0.000 A 
ENDBRANCH  53  67
BRANCH  54  73
ATOM     73  C   UNL A   1      39.904  28.688  29.884  1.00  0.00    -0.014 A 
ATOM     74  C   UNL A   1      40.347  29.284  28.693  1.00  0.00     0.009 A 
ATOM     75  C   UNL A   1      39.373  27.388  29.832  1.00  0.00     0.009 A 
ATOM     76  C   UNL A   1      40.222  28.612  27.474  1.00  0.00     0.001 A 
ATOM     77  C   UNL A   1      39.282  26.706  28.618  1.00  0.00     0.001 A 
ATOM     78  C   UNL A   1      39.694  27.323  27.438  1.00  0.00     0.000 A 
ENDBRANCH  54  73
BRANCH  66  79
ATOM     79  C   UNL A   1      44.310  28.530  35.269  1.00  0.00    -0.014 A 
ATOM     80  C   UNL A   1      44.204  27.295  35.926  1.00  0.00     0.009 A 
ATOM     81  C   UNL A   1      45.574  28.969  34.847  1.00  0.00     0.009 A 
ATOM     82  C   UNL A   1      45.347  26.534  36.186  1.00  0.00     0.001 A 
ATOM     83  C   UNL A   1      46.709  28.192  35.077  1.00  0.00     0.001 A 
ATOM     84  C   UNL A   1      46.595  26.980  35.756  1.00  0.00     0.000 A 
ENDBRANCH  66  79
ENDBRANCH  40  41
ENDBRANCH  32  35
ENDBRANCH  30  31
ENDBRANCH  29  30
ENDBRANCH  28  29
ENDBRANCH   1  28
TORSDOF 16
ENDMDL
