MODEL 1
REMARK VINA RESULT:     -12.5      0.000      0.000
REMARK SMILES NS(=O)(=O)c1ccc(-n2nc(C(=O)NCCCCCCNC(=O)c3ccc(-c4c5nc(c(-c6ccccc6)c6ccc([nH]6)c(-c6ccccc6)c6nc(c(-c7ccccc7)c7ccc4[nH]7)C=C6)C=C5)cc3)cc2-c2cc3ccccc3s2)cc1
REMARK SMILES IDX 17 1 16 2 15 3 14 4 12 5 13 6 11 8 9 9 10 10 73 11 72 12
REMARK SMILES IDX 8 13 5 14 6 15 84 16 7 17 83 18 2 19 3 20 4 21 1 22 74 25
REMARK SMILES IDX 75 26 82 27 76 28 81 29 77 30 80 31 78 32 79 33 18 34 19 35
REMARK SMILES IDX 20 36 21 37 22 38 23 40 24 41 25 42 71 43 26 44 70 45 27 46
REMARK SMILES IDX 28 47 29 48 64 49 30 50 69 51 63 52 65 53 31 54 68 55 62 56
REMARK SMILES IDX 61 57 32 59 54 60 39 61 53 62 40 63 43 64 52 65 66 66 41 67
REMARK SMILES IDX 42 68 51 70 67 71 44 72 33 73 34 74 38 75 35 76 37 77 36 78
REMARK SMILES IDX 55 79 56 80 60 81 57 82 59 83 58 84 45 85 46 86 50 87 47 88
REMARK SMILES IDX 49 89 48 90
REMARK H PARENT 14 7 1 23 1 24 21 39 65 58 43 69
REMARK Flexibility Score: inf
ROOT
ATOM      1  C   UNL A   1      40.752  20.463  26.491  1.00  0.00     0.002 C 
ENDROOT
BRANCH   1   2
ATOM      2  C   UNL A   1      39.635  19.706  25.754  1.00  0.00     0.021 C 
BRANCH   2   3
ATOM      3  C   UNL A   1      38.487  20.598  25.270  1.00  0.00     0.116 C 
BRANCH   3   4
ATOM      4  N   UNL A   1      38.666  21.979  25.701  1.00  0.00    -0.351 N 
ATOM      5  C   UNL A   1      37.830  23.083  25.719  1.00  0.00     0.271 C 
ATOM      6  O   UNL A   1      38.277  24.098  26.255  1.00  0.00    -0.267 OA
ATOM      7  H   UNL A   1      39.567  22.166  26.052  1.00  0.00     0.163 HD
BRANCH   5   8
ATOM      8  C   UNL A   1      36.456  23.009  25.182  1.00  0.00     0.151 A 
ATOM      9  N   UNL A   1      34.446  23.683  24.799  1.00  0.00    -0.231 N 
ATOM     10  N   UNL A   1      35.739  24.108  24.870  1.00  0.00    -0.162 NA
ATOM     11  C   UNL A   1      34.368  22.323  25.006  1.00  0.00     0.085 A 
ATOM     12  C   UNL A   1      35.673  21.872  24.922  1.00  0.00     0.066 A 
BRANCH   9  13
ATOM     13  C   UNL A   1      33.417  24.583  24.428  1.00  0.00     0.065 A 
ATOM     14  C   UNL A   1      31.485  26.485  23.793  1.00  0.00     0.082 A 
ATOM     15  C   UNL A   1      32.108  25.763  22.771  1.00  0.00     0.024 A 
ATOM     16  C   UNL A   1      31.807  26.252  25.132  1.00  0.00     0.024 A 
ATOM     17  C   UNL A   1      33.095  24.825  23.088  1.00  0.00     0.030 A 
ATOM     18  C   UNL A   1      32.750  25.275  25.450  1.00  0.00     0.030 A 
BRANCH  14  19
ATOM     19  S   UNL A   1      30.304  27.739  23.396  1.00  0.00     0.238 S 
ATOM     20  O   UNL A   1      30.644  28.949  24.106  1.00  0.00    -0.207 OA
ATOM     21  O   UNL A   1      28.983  27.154  23.425  1.00  0.00    -0.207 OA
BRANCH  19  22
ATOM     22  N   UNL A   1      30.628  28.081  21.780  1.00  0.00    -0.225 NA
ATOM     23  H   UNL A   1      30.617  27.216  21.240  1.00  0.00     0.137 HD
ATOM     24  H   UNL A   1      31.545  28.519  21.702  1.00  0.00     0.137 HD
ENDBRANCH  19  22
ENDBRANCH  14  19
ENDBRANCH   9  13
BRANCH  11  25
ATOM     25  C   UNL A   1      33.268  21.486  25.393  1.00  0.00     0.054 A 
ATOM     26  C   UNL A   1      32.207  21.140  24.567  1.00  0.00     0.031 A 
ATOM     27  S   UNL A   1      33.642  20.068  26.323  1.00  0.00    -0.134 S 
ATOM     28  C   UNL A   1      32.508  19.818  24.043  1.00  0.00    -0.007 A 
ATOM     29  C   UNL A   1      33.395  19.136  24.886  1.00  0.00     0.035 A 
ATOM     30  C   UNL A   1      32.165  19.216  22.811  1.00  0.00     0.009 A 
ATOM     31  C   UNL A   1      33.979  17.911  24.534  1.00  0.00     0.019 A 
ATOM     32  C   UNL A   1      32.788  18.024  22.426  1.00  0.00     0.001 A 
ATOM     33  C   UNL A   1      33.689  17.386  23.274  1.00  0.00     0.001 A 
ENDBRANCH  11  25
ENDBRANCH   5   8
ENDBRANCH   3   4
ENDBRANCH   2   3
ENDBRANCH   1   2
BRANCH   1  34
ATOM     34  C   UNL A   1      41.914  19.609  27.034  1.00  0.00     0.002 C 
BRANCH  34  35
ATOM     35  C   UNL A   1      42.488  18.545  26.089  1.00  0.00     0.021 C 
BRANCH  35  36
ATOM     36  C   UNL A   1      44.006  18.439  26.113  1.00  0.00     0.116 C 
BRANCH  36  37
ATOM     37  N   UNL A   1      44.604  18.482  24.780  1.00  0.00    -0.352 N 
ATOM     38  C   UNL A   1      44.749  19.574  23.946  1.00  0.00     0.251 C 
ATOM     39  H   UNL A   1      44.948  17.625  24.434  1.00  0.00     0.163 HD
ATOM     40  O   UNL A   1      44.925  19.430  22.742  1.00  0.00    -0.269 OA
BRANCH  38  41
ATOM     41  C   UNL A   1      44.681  20.925  24.529  1.00  0.00     0.039 A 
ATOM     42  C   UNL A   1      43.594  21.768  24.283  1.00  0.00     0.014 A 
ATOM     43  C   UNL A   1      45.718  21.335  25.362  1.00  0.00     0.014 A 
ATOM     44  C   UNL A   1      43.522  22.987  24.955  1.00  0.00     0.010 A 
ATOM     45  C   UNL A   1      45.569  22.457  26.140  1.00  0.00     0.010 A 
ATOM     46  C   UNL A   1      44.502  23.316  25.909  1.00  0.00    -0.014 A 
BRANCH  46  47
ATOM     47  C   UNL A   1      44.355  24.508  26.741  1.00  0.00     0.031 A 
ATOM     48  C   UNL A   1      45.424  25.533  26.568  1.00  0.00     0.074 A 
ATOM     49  C   UNL A   1      43.254  24.796  27.469  1.00  0.00     0.049 A 
ATOM     50  N   UNL A   1      46.289  25.924  27.444  1.00  0.00    -0.248 NA
ATOM     51  C   UNL A   1      45.616  26.122  25.232  1.00  0.00     0.031 C 
ATOM     52  C   UNL A   1      41.971  24.085  27.522  1.00  0.00     0.029 A 
ATOM     53  N   UNL A   1      43.017  25.887  28.249  1.00  0.00    -0.354 N 
ATOM     54  C   UNL A   1      47.029  26.933  26.834  1.00  0.00     0.074 A 
ATOM     55  C   UNL A   1      46.670  26.914  25.438  1.00  0.00     0.031 C 
ATOM     56  C   UNL A   1      41.032  24.884  28.075  1.00  0.00     0.029 A 
ATOM     57  C   UNL A   1      41.682  26.075  28.585  1.00  0.00     0.049 A 
ATOM     58  H   UNL A   1      43.733  26.492  28.549  1.00  0.00     0.167 HD
ATOM     59  C   UNL A   1      47.718  27.854  27.563  1.00  0.00     0.031 A 
ATOM     60  C   UNL A   1      41.150  27.146  29.222  1.00  0.00     0.031 A 
ATOM     61  C   UNL A   1      47.902  27.435  28.929  1.00  0.00     0.049 A 
ATOM     62  C   UNL A   1      42.256  27.845  29.912  1.00  0.00     0.074 A 
ATOM     63  C   UNL A   1      48.487  26.339  29.536  1.00  0.00     0.029 A 
ATOM     64  N   UNL A   1      47.086  27.992  29.885  1.00  0.00    -0.354 N 
ATOM     65  N   UNL A   1      42.898  27.346  30.927  1.00  0.00    -0.248 NA
ATOM     66  C   UNL A   1      42.940  28.911  29.199  1.00  0.00     0.031 C 
ATOM     67  C   UNL A   1      47.605  26.003  30.606  1.00  0.00     0.029 A 
ATOM     68  C   UNL A   1      46.587  26.957  30.634  1.00  0.00     0.049 A 
ATOM     69  H   UNL A   1      46.897  28.950  30.008  1.00  0.00     0.167 HD
ATOM     70  C   UNL A   1      44.220  27.703  30.715  1.00  0.00     0.074 A 
ATOM     71  C   UNL A   1      44.170  28.750  29.694  1.00  0.00     0.031 C 
ATOM     72  C   UNL A   1      45.247  26.926  31.175  1.00  0.00     0.031 A 
BRANCH  59  73
ATOM     73  C   UNL A   1      47.876  29.293  27.138  1.00  0.00    -0.014 A 
ATOM     74  C   UNL A   1      49.140  29.900  27.232  1.00  0.00     0.009 A 
ATOM     75  C   UNL A   1      46.779  30.147  26.915  1.00  0.00     0.009 A 
ATOM     76  C   UNL A   1      49.286  31.292  27.167  1.00  0.00     0.001 A 
ATOM     77  C   UNL A   1      46.924  31.532  26.807  1.00  0.00     0.001 A 
ATOM     78  C   UNL A   1      48.177  32.108  26.960  1.00  0.00     0.000 A 
ENDBRANCH  59  73
BRANCH  60  79
ATOM     79  C   UNL A   1      39.813  27.758  29.082  1.00  0.00    -0.014 A 
ATOM     80  C   UNL A   1      38.953  27.845  30.188  1.00  0.00     0.009 A 
ATOM     81  C   UNL A   1      39.500  28.525  27.946  1.00  0.00     0.009 A 
ATOM     82  C   UNL A   1      37.853  28.712  30.181  1.00  0.00     0.001 A 
ATOM     83  C   UNL A   1      38.399  29.389  27.936  1.00  0.00     0.001 A 
ATOM     84  C   UNL A   1      37.588  29.497  29.061  1.00  0.00     0.000 A 
ENDBRANCH  60  79
BRANCH  72  85
ATOM     85  C   UNL A   1      44.915  25.791  32.115  1.00  0.00    -0.014 A 
ATOM     86  C   UNL A   1      44.512  24.514  31.680  1.00  0.00     0.009 A 
ATOM     87  C   UNL A   1      45.146  25.976  33.488  1.00  0.00     0.009 A 
ATOM     88  C   UNL A   1      44.308  23.474  32.593  1.00  0.00     0.001 A 
ATOM     89  C   UNL A   1      44.964  24.931  34.396  1.00  0.00     0.001 A 
ATOM     90  C   UNL A   1      44.538  23.682  33.951  1.00  0.00     0.000 A 
ENDBRANCH  72  85
ENDBRANCH  46  47
ENDBRANCH  38  41
ENDBRANCH  36  37
ENDBRANCH  35  36
ENDBRANCH  34  35
ENDBRANCH   1  34
TORSDOF 17
ENDMDL
MODEL 2
REMARK VINA RESULT:     -12.3      3.346      8.396
REMARK SMILES NS(=O)(=O)c1ccc(-n2nc(C(=O)NCCCCCCNC(=O)c3ccc(-c4c5nc(c(-c6ccccc6)c6ccc([nH]6)c(-c6ccccc6)c6nc(c(-c7ccccc7)c7ccc4[nH]7)C=C6)C=C5)cc3)cc2-c2cc3ccccc3s2)cc1
REMARK SMILES IDX 17 1 16 2 15 3 14 4 12 5 13 6 11 8 9 9 10 10 73 11 72 12
REMARK SMILES IDX 8 13 5 14 6 15 84 16 7 17 83 18 2 19 3 20 4 21 1 22 74 25
REMARK SMILES IDX 75 26 82 27 76 28 81 29 77 30 80 31 78 32 79 33 18 34 19 35
REMARK SMILES IDX 20 36 21 37 22 38 23 40 24 41 25 42 71 43 26 44 70 45 27 46
REMARK SMILES IDX 28 47 29 48 64 49 30 50 69 51 63 52 65 53 31 54 68 55 62 56
REMARK SMILES IDX 61 57 32 59 54 60 39 61 53 62 40 63 43 64 52 65 66 66 41 67
REMARK SMILES IDX 42 68 51 70 67 71 44 72 33 73 34 74 38 75 35 76 37 77 36 78
REMARK SMILES IDX 55 79 56 80 60 81 57 82 59 83 58 84 45 85 46 86 50 87 47 88
REMARK SMILES IDX 49 89 48 90
REMARK H PARENT 14 7 1 23 1 24 21 39 65 58 43 69
REMARK Flexibility Score: inf
ROOT
ATOM      1  C   UNL A   1      37.550  30.042  29.721  1.00  0.00     0.002 C 
ENDROOT
BRANCH   1   2
ATOM      2  C   UNL A   1      36.281  29.330  29.224  1.00  0.00     0.021 C 
BRANCH   2   3
ATOM      3  C   UNL A   1      35.868  29.709  27.798  1.00  0.00     0.116 C 
BRANCH   3   4
ATOM      4  N   UNL A   1      34.875  30.776  27.795  1.00  0.00    -0.351 N 
ATOM      5  C   UNL A   1      33.550  30.837  27.395  1.00  0.00     0.271 C 
ATOM      6  O   UNL A   1      32.958  31.892  27.629  1.00  0.00    -0.267 OA
ATOM      7  H   UNL A   1      35.216  31.628  28.152  1.00  0.00     0.163 HD
BRANCH   5   8
ATOM      8  C   UNL A   1      32.882  29.671  26.784  1.00  0.00     0.151 A 
ATOM      9  N   UNL A   1      32.728  27.669  26.000  1.00  0.00    -0.231 N 
ATOM     10  N   UNL A   1      33.295  28.404  26.998  1.00  0.00    -0.162 NA
ATOM     11  C   UNL A   1      31.923  28.461  25.210  1.00  0.00     0.085 A 
ATOM     12  C   UNL A   1      31.780  29.643  25.914  1.00  0.00     0.066 A 
BRANCH   9  13
ATOM     13  C   UNL A   1      32.908  26.265  25.956  1.00  0.00     0.065 A 
ATOM     14  C   UNL A   1      33.422  23.528  25.961  1.00  0.00     0.082 A 
ATOM     15  C   UNL A   1      32.213  24.007  26.474  1.00  0.00     0.024 A 
ATOM     16  C   UNL A   1      34.370  24.406  25.428  1.00  0.00     0.024 A 
ATOM     17  C   UNL A   1      31.965  25.383  26.494  1.00  0.00     0.030 A 
ATOM     18  C   UNL A   1      34.097  25.773  25.396  1.00  0.00     0.030 A 
BRANCH  14  19
ATOM     19  S   UNL A   1      33.784  21.799  26.017  1.00  0.00     0.238 S 
ATOM     20  O   UNL A   1      34.884  21.518  25.126  1.00  0.00    -0.207 OA
ATOM     21  O   UNL A   1      32.539  21.066  25.986  1.00  0.00    -0.207 OA
BRANCH  19  22
ATOM     22  N   UNL A   1      34.415  21.584  27.563  1.00  0.00    -0.225 NA
ATOM     23  H   UNL A   1      33.686  21.758  28.255  1.00  0.00     0.137 HD
ATOM     24  H   UNL A   1      35.185  22.235  27.709  1.00  0.00     0.137 HD
ENDBRANCH  19  22
ENDBRANCH  14  19
ENDBRANCH   9  13
BRANCH  11  25
ATOM     25  C   UNL A   1      31.428  28.273  23.876  1.00  0.00     0.054 A 
ATOM     26  C   UNL A   1      32.222  28.018  22.765  1.00  0.00     0.031 A 
ATOM     27  S   UNL A   1      30.005  27.296  23.691  1.00  0.00    -0.134 S 
ATOM     28  C   UNL A   1      32.183  26.581  22.553  1.00  0.00    -0.007 A 
ATOM     29  C   UNL A   1      31.028  26.023  23.119  1.00  0.00     0.035 A 
ATOM     30  C   UNL A   1      33.151  25.703  22.015  1.00  0.00     0.009 A 
ATOM     31  C   UNL A   1      30.823  24.639  23.204  1.00  0.00     0.019 A 
ATOM     32  C   UNL A   1      32.982  24.320  22.149  1.00  0.00     0.001 A 
ATOM     33  C   UNL A   1      31.838  23.798  22.744  1.00  0.00     0.001 A 
ENDBRANCH  11  25
ENDBRANCH   5   8
ENDBRANCH   3   4
ENDBRANCH   2   3
ENDBRANCH   1   2
BRANCH   1  34
ATOM     34  C   UNL A   1      38.174  31.074  28.763  1.00  0.00     0.002 C 
BRANCH  34  35
ATOM     35  C   UNL A   1      37.802  32.545  28.995  1.00  0.00     0.021 C 
BRANCH  35  36
ATOM     36  C   UNL A   1      37.596  32.915  30.456  1.00  0.00     0.116 C 
BRANCH  36  37
ATOM     37  N   UNL A   1      38.556  33.909  30.936  1.00  0.00    -0.352 N 
ATOM     38  C   UNL A   1      39.756  33.691  31.584  1.00  0.00     0.251 C 
ATOM     39  H   UNL A   1      38.316  34.852  30.777  1.00  0.00     0.163 HD
ATOM     40  O   UNL A   1      40.286  34.574  32.247  1.00  0.00    -0.269 OA
BRANCH  38  41
ATOM     41  C   UNL A   1      40.392  32.366  31.471  1.00  0.00     0.039 A 
ATOM     42  C   UNL A   1      39.974  31.290  32.258  1.00  0.00     0.014 A 
ATOM     43  C   UNL A   1      41.407  32.202  30.532  1.00  0.00     0.014 A 
ATOM     44  C   UNL A   1      40.526  30.032  32.026  1.00  0.00     0.010 A 
ATOM     45  C   UNL A   1      41.832  30.940  30.197  1.00  0.00     0.010 A 
ATOM     46  C   UNL A   1      41.438  29.854  30.970  1.00  0.00    -0.014 A 
BRANCH  46  47
ATOM     47  C   UNL A   1      41.899  28.517  30.607  1.00  0.00     0.031 A 
ATOM     48  C   UNL A   1      42.714  27.827  31.647  1.00  0.00     0.074 A 
ATOM     49  C   UNL A   1      41.479  27.838  29.517  1.00  0.00     0.049 A 
ATOM     50  N   UNL A   1      43.956  27.477  31.571  1.00  0.00    -0.248 NA
ATOM     51  C   UNL A   1      42.104  27.585  32.965  1.00  0.00     0.031 C 
ATOM     52  C   UNL A   1      40.441  28.204  28.545  1.00  0.00     0.029 A 
ATOM     53  N   UNL A   1      41.830  26.586  29.113  1.00  0.00    -0.354 N 
ATOM     54  C   UNL A   1      44.246  26.816  32.760  1.00  0.00     0.074 A 
ATOM     55  C   UNL A   1      43.120  27.035  33.633  1.00  0.00     0.031 C 
ATOM     56  C   UNL A   1      40.078  27.112  27.836  1.00  0.00     0.029 A 
ATOM     57  C   UNL A   1      40.981  26.027  28.165  1.00  0.00     0.049 A 
ATOM     58  H   UNL A   1      42.620  26.115  29.463  1.00  0.00     0.167 HD
ATOM     59  C   UNL A   1      45.294  25.951  32.860  1.00  0.00     0.031 A 
ATOM     60  C   UNL A   1      41.010  24.755  27.701  1.00  0.00     0.031 A 
ATOM     61  C   UNL A   1      46.233  26.113  31.780  1.00  0.00     0.049 A 
ATOM     62  C   UNL A   1      42.352  24.207  27.997  1.00  0.00     0.074 A 
ATOM     63  C   UNL A   1      46.991  27.167  31.306  1.00  0.00     0.029 A 
ATOM     64  N   UNL A   1      46.194  25.198  30.755  1.00  0.00    -0.354 N 
ATOM     65  N   UNL A   1      43.440  24.623  27.418  1.00  0.00    -0.248 NA
ATOM     66  C   UNL A   1      42.539  23.498  29.252  1.00  0.00     0.031 C 
ATOM     67  C   UNL A   1      46.909  27.061  29.885  1.00  0.00     0.029 A 
ATOM     68  C   UNL A   1      46.178  25.912  29.584  1.00  0.00     0.049 A 
ATOM     69  H   UNL A   1      46.179  24.218  30.845  1.00  0.00     0.167 HD
ATOM     70  C   UNL A   1      44.390  24.635  28.428  1.00  0.00     0.074 A 
ATOM     71  C   UNL A   1      43.806  23.837  29.506  1.00  0.00     0.031 C 
ATOM     72  C   UNL A   1      45.433  25.518  28.409  1.00  0.00     0.031 A 
BRANCH  59  73
ATOM     73  C   UNL A   1      45.258  24.707  33.713  1.00  0.00    -0.014 A 
ATOM     74  C   UNL A   1      44.446  23.629  33.317  1.00  0.00     0.009 A 
ATOM     75  C   UNL A   1      45.772  24.665  35.023  1.00  0.00     0.009 A 
ATOM     76  C   UNL A   1      44.120  22.599  34.209  1.00  0.00     0.001 A 
ATOM     77  C   UNL A   1      45.483  23.618  35.902  1.00  0.00     0.001 A 
ATOM     78  C   UNL A   1      44.634  22.597  35.503  1.00  0.00     0.000 A 
ENDBRANCH  59  73
BRANCH  60  79
ATOM     79  C   UNL A   1      39.902  23.890  27.250  1.00  0.00    -0.014 A 
ATOM     80  C   UNL A   1      38.659  24.448  26.912  1.00  0.00     0.009 A 
ATOM     81  C   UNL A   1      40.151  22.561  26.863  1.00  0.00     0.009 A 
ATOM     82  C   UNL A   1      37.722  23.725  26.163  1.00  0.00     0.001 A 
ATOM     83  C   UNL A   1      39.214  21.836  26.118  1.00  0.00     0.001 A 
ATOM     84  C   UNL A   1      38.009  22.425  25.750  1.00  0.00     0.000 A 
ENDBRANCH  60  79
BRANCH  72  85
ATOM     85  C   UNL A   1      45.659  26.328  27.154  1.00  0.00    -0.014 A 
ATOM     86  C   UNL A   1      44.987  27.533  26.876  1.00  0.00     0.009 A 
ATOM     87  C   UNL A   1      46.684  25.929  26.282  1.00  0.00     0.009 A 
ATOM     88  C   UNL A   1      45.305  28.289  25.741  1.00  0.00     0.001 A 
ATOM     89  C   UNL A   1      47.016  26.695  25.162  1.00  0.00     0.001 A 
ATOM     90  C   UNL A   1      46.322  27.870  24.887  1.00  0.00     0.000 A 
ENDBRANCH  72  85
ENDBRANCH  46  47
ENDBRANCH  38  41
ENDBRANCH  36  37
ENDBRANCH  35  36
ENDBRANCH  34  35
ENDBRANCH   1  34
TORSDOF 17
ENDMDL
MODEL 3
REMARK VINA RESULT:     -12.1      3.278      9.021
REMARK SMILES NS(=O)(=O)c1ccc(-n2nc(C(=O)NCCCCCCNC(=O)c3ccc(-c4c5nc(c(-c6ccccc6)c6ccc([nH]6)c(-c6ccccc6)c6nc(c(-c7ccccc7)c7ccc4[nH]7)C=C6)C=C5)cc3)cc2-c2cc3ccccc3s2)cc1
REMARK SMILES IDX 17 1 16 2 15 3 14 4 12 5 13 6 11 8 9 9 10 10 73 11 72 12
REMARK SMILES IDX 8 13 5 14 6 15 84 16 7 17 83 18 2 19 3 20 4 21 1 22 74 25
REMARK SMILES IDX 75 26 82 27 76 28 81 29 77 30 80 31 78 32 79 33 18 34 19 35
REMARK SMILES IDX 20 36 21 37 22 38 23 40 24 41 25 42 71 43 26 44 70 45 27 46
REMARK SMILES IDX 28 47 29 48 64 49 30 50 69 51 63 52 65 53 31 54 68 55 62 56
REMARK SMILES IDX 61 57 32 59 54 60 39 61 53 62 40 63 43 64 52 65 66 66 41 67
REMARK SMILES IDX 42 68 51 70 67 71 44 72 33 73 34 74 38 75 35 76 37 77 36 78
REMARK SMILES IDX 55 79 56 80 60 81 57 82 59 83 58 84 45 85 46 86 50 87 47 88
REMARK SMILES IDX 49 89 48 90
REMARK H PARENT 14 7 1 23 1 24 21 39 65 58 43 69
REMARK Flexibility Score: inf
ROOT
ATOM      1  C   UNL A   1      31.670  28.185  27.271  1.00  0.00     0.002 C 
ENDROOT
BRANCH   1   2
ATOM      2  C   UNL A   1      31.735  26.794  26.619  1.00  0.00     0.021 C 
BRANCH   2   3
ATOM      3  C   UNL A   1      30.419  26.340  25.977  1.00  0.00     0.116 C 
BRANCH   3   4
ATOM      4  N   UNL A   1      29.789  25.276  26.748  1.00  0.00    -0.351 N 
ATOM      5  C   UNL A   1      29.823  23.894  26.662  1.00  0.00     0.271 C 
ATOM      6  O   UNL A   1      29.241  23.276  27.555  1.00  0.00    -0.267 OA
ATOM      7  H   UNL A   1      29.222  25.608  27.482  1.00  0.00     0.163 HD
BRANCH   5   8
ATOM      8  C   UNL A   1      30.579  23.215  25.590  1.00  0.00     0.151 A 
ATOM      9  N   UNL A   1      31.931  21.770  24.737  1.00  0.00    -0.231 N 
ATOM     10  N   UNL A   1      30.953  21.921  25.674  1.00  0.00    -0.162 NA
ATOM     11  C   UNL A   1      32.120  22.942  24.038  1.00  0.00     0.085 A 
ATOM     12  C   UNL A   1      31.038  23.737  24.370  1.00  0.00     0.066 A 
BRANCH   9  13
ATOM     13  C   UNL A   1      32.514  20.500  24.512  1.00  0.00     0.065 A 
ATOM     14  C   UNL A   1      33.588  17.945  24.230  1.00  0.00     0.082 A 
ATOM     15  C   UNL A   1      32.799  18.482  23.208  1.00  0.00     0.024 A 
ATOM     16  C   UNL A   1      33.859  18.682  25.385  1.00  0.00     0.024 A 
ATOM     17  C   UNL A   1      32.240  19.754  23.360  1.00  0.00     0.030 A 
ATOM     18  C   UNL A   1      33.349  19.974  25.510  1.00  0.00     0.030 A 
BRANCH  14  19
ATOM     19  S   UNL A   1      34.220  16.301  24.088  1.00  0.00     0.238 S 
ATOM     20  O   UNL A   1      35.292  16.124  25.038  1.00  0.00    -0.207 OA
ATOM     21  O   UNL A   1      34.349  15.976  22.686  1.00  0.00    -0.207 OA
BRANCH  19  22
ATOM     22  N   UNL A   1      32.962  15.348  24.674  1.00  0.00    -0.225 NA
ATOM     23  H   UNL A   1      33.199  14.363  24.557  1.00  0.00     0.137 HD
ATOM     24  H   UNL A   1      32.108  15.557  24.157  1.00  0.00     0.137 HD
ENDBRANCH  19  22
ENDBRANCH  14  19
ENDBRANCH   9  13
BRANCH  11  25
ATOM     25  C   UNL A   1      33.227  23.406  23.250  1.00  0.00     0.054 A 
ATOM     26  C   UNL A   1      33.111  24.097  22.051  1.00  0.00     0.031 A 
ATOM     27  S   UNL A   1      34.555  24.129  24.101  1.00  0.00    -0.134 S 
ATOM     28  C   UNL A   1      33.266  25.506  22.372  1.00  0.00    -0.007 A 
ATOM     29  C   UNL A   1      33.978  25.670  23.568  1.00  0.00     0.035 A 
ATOM     30  C   UNL A   1      32.715  26.656  21.763  1.00  0.00     0.009 A 
ATOM     31  C   UNL A   1      34.124  26.917  24.193  1.00  0.00     0.019 A 
ATOM     32  C   UNL A   1      32.805  27.893  22.409  1.00  0.00     0.001 A 
ATOM     33  C   UNL A   1      33.493  28.018  23.613  1.00  0.00     0.001 A 
ENDBRANCH  11  25
ENDBRANCH   5   8
ENDBRANCH   3   4
ENDBRANCH   2   3
ENDBRANCH   1   2
BRANCH   1  34
ATOM     34  C   UNL A   1      32.972  29.007  27.260  1.00  0.00     0.002 C 
BRANCH  34  35
ATOM     35  C   UNL A   1      32.824  30.534  27.295  1.00  0.00     0.021 C 
BRANCH  35  36
ATOM     36  C   UNL A   1      34.131  31.285  27.504  1.00  0.00     0.116 C 
BRANCH  36  37
ATOM     37  N   UNL A   1      34.155  32.057  28.745  1.00  0.00    -0.352 N 
ATOM     38  C   UNL A   1      35.029  31.934  29.808  1.00  0.00     0.251 C 
ATOM     39  H   UNL A   1      33.462  32.752  28.834  1.00  0.00     0.163 HD
ATOM     40  O   UNL A   1      34.740  32.367  30.917  1.00  0.00    -0.269 OA
BRANCH  38  41
ATOM     41  C   UNL A   1      36.321  31.260  29.589  1.00  0.00     0.039 A 
ATOM     42  C   UNL A   1      37.512  31.985  29.499  1.00  0.00     0.014 A 
ATOM     43  C   UNL A   1      36.332  29.871  29.501  1.00  0.00     0.014 A 
ATOM     44  C   UNL A   1      38.717  31.291  29.412  1.00  0.00     0.010 A 
ATOM     45  C   UNL A   1      37.522  29.190  29.575  1.00  0.00     0.010 A 
ATOM     46  C   UNL A   1      38.720  29.886  29.480  1.00  0.00    -0.014 A 
BRANCH  46  47
ATOM     47  C   UNL A   1      39.980  29.151  29.557  1.00  0.00     0.031 A 
ATOM     48  C   UNL A   1      40.461  28.869  30.940  1.00  0.00     0.074 A 
ATOM     49  C   UNL A   1      40.590  28.574  28.499  1.00  0.00     0.049 A 
ATOM     50  N   UNL A   1      41.534  29.314  31.507  1.00  0.00    -0.248 NA
ATOM     51  C   UNL A   1      39.597  28.078  31.832  1.00  0.00     0.031 C 
ATOM     52  C   UNL A   1      40.118  28.458  27.113  1.00  0.00     0.029 A 
ATOM     53  N   UNL A   1      41.744  27.852  28.477  1.00  0.00    -0.354 N 
ATOM     54  C   UNL A   1      41.579  28.726  32.767  1.00  0.00     0.074 A 
ATOM     55  C   UNL A   1      40.299  28.093  32.966  1.00  0.00     0.031 C 
ATOM     56  C   UNL A   1      40.837  27.513  26.467  1.00  0.00     0.029 A 
ATOM     57  C   UNL A   1      41.932  27.100  27.325  1.00  0.00     0.049 A 
ATOM     58  H   UNL A   1      42.392  27.862  29.218  1.00  0.00     0.167 HD
ATOM     59  C   UNL A   1      42.744  28.616  33.463  1.00  0.00     0.031 A 
ATOM     60  C   UNL A   1      42.909  26.189  27.101  1.00  0.00     0.031 A 
ATOM     61  C   UNL A   1      43.768  29.487  32.945  1.00  0.00     0.049 A 
ATOM     62  C   UNL A   1      43.997  26.462  28.065  1.00  0.00     0.074 A 
ATOM     63  C   UNL A   1      43.872  30.851  32.750  1.00  0.00     0.029 A 
ATOM     64  N   UNL A   1      44.743  28.928  32.154  1.00  0.00    -0.354 N 
ATOM     65  N   UNL A   1      44.744  27.526  28.021  1.00  0.00    -0.248 NA
ATOM     66  C   UNL A   1      43.971  25.766  29.341  1.00  0.00     0.031 C 
ATOM     67  C   UNL A   1      44.522  30.989  31.488  1.00  0.00     0.029 A 
ATOM     68  C   UNL A   1      44.843  29.710  31.031  1.00  0.00     0.049 A 
ATOM     69  H   UNL A   1      45.269  28.120  32.354  1.00  0.00     0.167 HD
ATOM     70  C   UNL A   1      44.917  27.887  29.348  1.00  0.00     0.074 A 
ATOM     71  C   UNL A   1      44.506  26.712  30.116  1.00  0.00     0.031 C 
ATOM     72  C   UNL A   1      45.107  29.193  29.708  1.00  0.00     0.031 A 
BRANCH  59  73
ATOM     73  C   UNL A   1      43.065  27.441  34.353  1.00  0.00    -0.014 A 
ATOM     74  C   UNL A   1      43.369  26.200  33.766  1.00  0.00     0.009 A 
ATOM     75  C   UNL A   1      42.809  27.440  35.738  1.00  0.00     0.009 A 
ATOM     76  C   UNL A   1      43.354  25.017  34.517  1.00  0.00     0.001 A 
ATOM     77  C   UNL A   1      42.835  26.269  36.498  1.00  0.00     0.001 A 
ATOM     78  C   UNL A   1      43.082  25.052  35.881  1.00  0.00     0.000 A 
ENDBRANCH  59  73
BRANCH  60  79
ATOM     79  C   UNL A   1      42.878  24.950  26.298  1.00  0.00    -0.014 A 
ATOM     80  C   UNL A   1      43.789  24.764  25.246  1.00  0.00     0.009 A 
ATOM     81  C   UNL A   1      42.160  23.829  26.750  1.00  0.00     0.009 A 
ATOM     82  C   UNL A   1      44.018  23.491  24.707  1.00  0.00     0.001 A 
ATOM     83  C   UNL A   1      42.385  22.558  26.209  1.00  0.00     0.001 A 
ATOM     84  C   UNL A   1      43.329  22.387  25.202  1.00  0.00     0.000 A 
ENDBRANCH  60  79
BRANCH  72  85
ATOM     85  C   UNL A   1      45.350  30.206  28.614  1.00  0.00    -0.014 A 
ATOM     86  C   UNL A   1      46.620  30.464  28.062  1.00  0.00     0.009 A 
ATOM     87  C   UNL A   1      44.238  30.827  28.025  1.00  0.00     0.009 A 
ATOM     88  C   UNL A   1      46.771  31.345  26.986  1.00  0.00     0.001 A 
ATOM     89  C   UNL A   1      44.387  31.689  26.937  1.00  0.00     0.001 A 
ATOM     90  C   UNL A   1      45.652  31.955  26.421  1.00  0.00     0.000 A 
ENDBRANCH  72  85
ENDBRANCH  46  47
ENDBRANCH  38  41
ENDBRANCH  36  37
ENDBRANCH  35  36
ENDBRANCH  34  35
ENDBRANCH   1  34
TORSDOF 17
ENDMDL
