MODEL 1
REMARK VINA RESULT:      -9.9      0.000      0.000
REMARK SMILES CC(C)(C)C(=O)C[N@H+]1CCCC[C@H]1C(=O)NCCCCCCNC(=O)c1ccc(-c2c3nc(c(-c4ccccc4)c4ccc([nH]4)c(-c4ccccc4)c4nc(c(-c5ccccc5)c5ccc2[nH]5)C=C4)C=C3)cc1
REMARK SMILES IDX 19 1 18 2 17 3 16 4 14 5 15 6 13 8 8 9 9 10 10 12 12 13
REMARK SMILES IDX 11 14 7 15 5 16 6 17 2 18 1 19 3 20 4 21 20 22 21 23 22 24
REMARK SMILES IDX 23 25 24 26 25 28 26 29 27 30 73 31 28 32 72 33 29 34 30 35
REMARK SMILES IDX 31 36 66 37 32 38 71 39 65 40 67 41 33 42 70 43 64 44 63 45
REMARK SMILES IDX 34 47 56 48 41 49 55 50 42 51 45 52 54 53 68 54 43 55 44 56
REMARK SMILES IDX 53 58 69 59 46 60 35 61 36 62 40 63 37 64 39 65 38 66 57 67
REMARK SMILES IDX 58 68 62 69 59 70 61 71 60 72 47 73 48 74 52 75 49 76 51 77
REMARK SMILES IDX 50 78
REMARK H PARENT 16 7 8 11 23 27 67 46 45 57
REMARK Flexibility Score: inf
ROOT
ATOM      1  C   UNL A   1      30.979  27.711  24.451  1.00  0.00     0.002 C 
ENDROOT
BRANCH   1   2
ATOM      2  C   UNL A   1      31.770  27.153  23.263  1.00  0.00     0.021 C 
BRANCH   2   3
ATOM      3  C   UNL A   1      33.191  26.653  23.566  1.00  0.00     0.116 C 
BRANCH   3   4
ATOM      4  N   UNL A   1      33.508  25.484  22.770  1.00  0.00    -0.351 N 
ATOM      5  C   UNL A   1      33.538  24.147  22.936  1.00  0.00     0.278 C 
ATOM      6  O   UNL A   1      33.936  23.549  21.919  1.00  0.00    -0.268 OA
ATOM      7  H   UNL A   1      33.774  25.736  21.857  1.00  0.00     0.163 HD
BRANCH   5   8
ATOM      8  C   UNL A   1      33.109  23.282  24.145  1.00  0.00     0.274 C 
ATOM      9  N   UNL A   1      33.463  23.654  25.521  1.00  0.00    -0.319 N 
ATOM     10  C   UNL A   1      32.516  24.397  26.327  1.00  0.00     0.263 C 
ATOM     11  H   UNL A   1      33.227  22.782  25.994  1.00  0.00     0.349 HD
ATOM     12  C   UNL A   1      31.045  24.056  26.099  1.00  0.00     0.062 C 
ATOM     13  C   UNL A   1      31.616  22.925  23.990  1.00  0.00     0.076 C 
ATOM     14  C   UNL A   1      30.710  23.966  24.624  1.00  0.00     0.012 C 
BRANCH   9  15
ATOM     15  C   UNL A   1      34.889  23.702  25.847  1.00  0.00     0.340 C 
BRANCH  15  16
ATOM     16  C   UNL A   1      35.597  22.340  25.728  1.00  0.00     0.192 C 
ATOM     17  O   UNL A   1      35.100  21.341  26.266  1.00  0.00    -0.293 OA
BRANCH  16  18
ATOM     18  C   UNL A   1      36.949  22.205  24.970  1.00  0.00     0.026 C 
ATOM     19  C   UNL A   1      37.338  20.716  24.944  1.00  0.00     0.019 C 
ATOM     20  C   UNL A   1      38.046  22.984  25.715  1.00  0.00     0.019 C 
ATOM     21  C   UNL A   1      36.912  22.689  23.525  1.00  0.00     0.019 C 
ENDBRANCH  16  18
ENDBRANCH  15  16
ENDBRANCH   9  15
ENDBRANCH   5   8
ENDBRANCH   3   4
ENDBRANCH   2   3
ENDBRANCH   1   2
BRANCH   1  22
ATOM     22  C   UNL A   1      31.713  28.647  25.417  1.00  0.00     0.002 C 
BRANCH  22  23
ATOM     23  C   UNL A   1      32.253  28.040  26.715  1.00  0.00     0.021 C 
BRANCH  23  24
ATOM     24  C   UNL A   1      33.596  28.574  27.217  1.00  0.00     0.116 C 
BRANCH  24  25
ATOM     25  N   UNL A   1      33.543  29.983  27.566  1.00  0.00    -0.352 N 
ATOM     26  C   UNL A   1      34.463  30.782  28.191  1.00  0.00     0.251 C 
ATOM     27  H   UNL A   1      32.708  30.437  27.312  1.00  0.00     0.163 HD
ATOM     28  O   UNL A   1      34.131  31.923  28.531  1.00  0.00    -0.269 OA
BRANCH  26  29
ATOM     29  C   UNL A   1      35.840  30.323  28.482  1.00  0.00     0.039 A 
ATOM     30  C   UNL A   1      36.794  30.388  27.458  1.00  0.00     0.014 A 
ATOM     31  C   UNL A   1      36.187  29.745  29.708  1.00  0.00     0.014 A 
ATOM     32  C   UNL A   1      38.093  29.916  27.669  1.00  0.00     0.010 A 
ATOM     33  C   UNL A   1      37.498  29.311  29.933  1.00  0.00     0.010 A 
ATOM     34  C   UNL A   1      38.463  29.384  28.914  1.00  0.00    -0.014 A 
BRANCH  34  35
ATOM     35  C   UNL A   1      39.847  28.896  29.154  1.00  0.00     0.031 A 
ATOM     36  C   UNL A   1      40.880  29.796  29.774  1.00  0.00     0.074 A 
ATOM     37  C   UNL A   1      40.194  27.651  28.777  1.00  0.00     0.049 A 
ATOM     38  N   UNL A   1      42.145  29.556  30.021  1.00  0.00    -0.248 NA
ATOM     39  C   UNL A   1      40.441  31.149  30.151  1.00  0.00     0.031 C 
ATOM     40  C   UNL A   1      39.303  26.679  28.143  1.00  0.00     0.029 A 
ATOM     41  N   UNL A   1      41.397  26.994  28.865  1.00  0.00    -0.354 N 
ATOM     42  C   UNL A   1      42.656  30.728  30.562  1.00  0.00     0.074 A 
ATOM     43  C   UNL A   1      41.573  31.690  30.580  1.00  0.00     0.031 C 
ATOM     44  C   UNL A   1      39.987  25.547  27.906  1.00  0.00     0.029 A 
ATOM     45  C   UNL A   1      41.369  25.722  28.347  1.00  0.00     0.049 A 
ATOM     46  H   UNL A   1      42.203  27.397  29.263  1.00  0.00     0.167 HD
ATOM     47  C   UNL A   1      43.908  30.983  31.016  1.00  0.00     0.031 A 
ATOM     48  C   UNL A   1      42.343  24.801  28.231  1.00  0.00     0.031 A 
ATOM     49  C   UNL A   1      44.987  30.031  31.017  1.00  0.00     0.049 A 
ATOM     50  C   UNL A   1      43.725  25.106  28.738  1.00  0.00     0.074 A 
ATOM     51  C   UNL A   1      46.271  30.185  31.515  1.00  0.00     0.029 A 
ATOM     52  N   UNL A   1      44.913  28.751  30.494  1.00  0.00    -0.354 N 
ATOM     53  N   UNL A   1      44.173  26.200  29.305  1.00  0.00    -0.248 NA
ATOM     54  C   UNL A   1      44.732  24.044  28.598  1.00  0.00     0.031 C 
ATOM     55  C   UNL A   1      46.985  29.009  31.256  1.00  0.00     0.029 A 
ATOM     56  C   UNL A   1      46.133  28.112  30.635  1.00  0.00     0.049 A 
ATOM     57  H   UNL A   1      44.111  28.355  30.083  1.00  0.00     0.167 HD
ATOM     58  C   UNL A   1      45.505  25.950  29.607  1.00  0.00     0.074 A 
ATOM     59  C   UNL A   1      45.791  24.598  29.172  1.00  0.00     0.031 C 
ATOM     60  C   UNL A   1      46.409  26.770  30.195  1.00  0.00     0.031 A 
BRANCH  47  61
ATOM     61  C   UNL A   1      44.182  32.363  31.541  1.00  0.00    -0.014 A 
ATOM     62  C   UNL A   1      44.568  33.404  30.682  1.00  0.00     0.009 A 
ATOM     63  C   UNL A   1      44.018  32.634  32.908  1.00  0.00     0.009 A 
ATOM     64  C   UNL A   1      44.819  34.681  31.188  1.00  0.00     0.001 A 
ATOM     65  C   UNL A   1      44.248  33.918  33.408  1.00  0.00     0.001 A 
ATOM     66  C   UNL A   1      44.658  34.937  32.549  1.00  0.00     0.000 A 
ENDBRANCH  47  61
BRANCH  48  67
ATOM     67  C   UNL A   1      42.044  23.487  27.610  1.00  0.00    -0.014 A 
ATOM     68  C   UNL A   1      42.348  23.252  26.261  1.00  0.00     0.009 A 
ATOM     69  C   UNL A   1      41.453  22.462  28.364  1.00  0.00     0.009 A 
ATOM     70  C   UNL A   1      42.051  22.020  25.675  1.00  0.00     0.001 A 
ATOM     71  C   UNL A   1      41.178  21.224  27.782  1.00  0.00     0.001 A 
ATOM     72  C   UNL A   1      41.470  21.006  26.436  1.00  0.00     0.000 A 
ENDBRANCH  48  67
BRANCH  60  73
ATOM     73  C   UNL A   1      47.787  26.220  30.424  1.00  0.00    -0.014 A 
ATOM     74  C   UNL A   1      48.150  25.666  31.662  1.00  0.00     0.009 A 
ATOM     75  C   UNL A   1      48.721  26.222  29.377  1.00  0.00     0.009 A 
ATOM     76  C   UNL A   1      49.434  25.150  31.853  1.00  0.00     0.001 A 
ATOM     77  C   UNL A   1      49.996  25.685  29.566  1.00  0.00     0.001 A 
ATOM     78  C   UNL A   1      50.353  25.156  30.804  1.00  0.00     0.000 A 
ENDBRANCH  60  73
ENDBRANCH  34  35
ENDBRANCH  26  29
ENDBRANCH  24  25
ENDBRANCH  23  24
ENDBRANCH  22  23
ENDBRANCH   1  22
TORSDOF 16
ENDMDL
MODEL 2
REMARK VINA RESULT:      -9.9      1.498      2.441
REMARK SMILES CC(C)(C)C(=O)C[N@H+]1CCCC[C@H]1C(=O)NCCCCCCNC(=O)c1ccc(-c2c3nc(c(-c4ccccc4)c4ccc([nH]4)c(-c4ccccc4)c4nc(c(-c5ccccc5)c5ccc2[nH]5)C=C4)C=C3)cc1
REMARK SMILES IDX 19 1 18 2 17 3 16 4 14 5 15 6 13 8 8 9 9 10 10 12 12 13
REMARK SMILES IDX 11 14 7 15 5 16 6 17 2 18 1 19 3 20 4 21 20 22 21 23 22 24
REMARK SMILES IDX 23 25 24 26 25 28 26 29 27 30 73 31 28 32 72 33 29 34 30 35
REMARK SMILES IDX 31 36 66 37 32 38 71 39 65 40 67 41 33 42 70 43 64 44 63 45
REMARK SMILES IDX 34 47 56 48 41 49 55 50 42 51 45 52 54 53 68 54 43 55 44 56
REMARK SMILES IDX 53 58 69 59 46 60 35 61 36 62 40 63 37 64 39 65 38 66 57 67
REMARK SMILES IDX 58 68 62 69 59 70 61 71 60 72 47 73 48 74 52 75 49 76 51 77
REMARK SMILES IDX 50 78
REMARK H PARENT 16 7 8 11 23 27 67 46 45 57
REMARK Flexibility Score: inf
ROOT
ATOM      1  C   UNL A   1      31.071  26.354  26.000  1.00  0.00     0.002 C 
ENDROOT
BRANCH   1   2
ATOM      2  C   UNL A   1      30.697  25.521  24.768  1.00  0.00     0.021 C 
BRANCH   2   3
ATOM      3  C   UNL A   1      30.969  24.012  24.858  1.00  0.00     0.116 C 
BRANCH   3   4
ATOM      4  N   UNL A   1      31.368  23.639  26.201  1.00  0.00    -0.351 N 
ATOM      5  C   UNL A   1      32.487  23.223  26.826  1.00  0.00     0.278 C 
ATOM      6  O   UNL A   1      32.297  22.982  28.033  1.00  0.00    -0.268 OA
ATOM      7  H   UNL A   1      30.614  23.709  26.829  1.00  0.00     0.163 HD
BRANCH   5   8
ATOM      8  C   UNL A   1      33.929  23.065  26.289  1.00  0.00     0.274 C 
ATOM      9  N   UNL A   1      34.277  22.023  25.314  1.00  0.00    -0.319 N 
ATOM     10  C   UNL A   1      34.299  22.344  23.902  1.00  0.00     0.263 C 
ATOM     11  H   UNL A   1      35.295  22.076  25.372  1.00  0.00     0.349 HD
ATOM     12  C   UNL A   1      34.774  23.753  23.552  1.00  0.00     0.062 C 
ATOM     13  C   UNL A   1      34.461  24.457  25.889  1.00  0.00     0.076 C 
ATOM     14  C   UNL A   1      34.137  24.799  24.444  1.00  0.00     0.012 C 
BRANCH   9  15
ATOM     15  C   UNL A   1      34.104  20.634  25.742  1.00  0.00     0.340 C 
BRANCH  15  16
ATOM     16  C   UNL A   1      32.891  19.935  25.101  1.00  0.00     0.192 C 
ATOM     17  O   UNL A   1      31.787  20.497  25.106  1.00  0.00    -0.293 OA
BRANCH  16  18
ATOM     18  C   UNL A   1      33.024  18.516  24.477  1.00  0.00     0.026 C 
ATOM     19  C   UNL A   1      34.522  18.210  24.297  1.00  0.00     0.019 C 
ATOM     20  C   UNL A   1      32.351  18.488  23.094  1.00  0.00     0.019 C 
ATOM     21  C   UNL A   1      32.431  17.397  25.324  1.00  0.00     0.019 C 
ENDBRANCH  16  18
ENDBRANCH  15  16
ENDBRANCH   9  15
ENDBRANCH   5   8
ENDBRANCH   3   4
ENDBRANCH   2   3
ENDBRANCH   1   2
BRANCH   1  22
ATOM     22  C   UNL A   1      31.424  27.828  25.779  1.00  0.00     0.002 C 
BRANCH  22  23
ATOM     23  C   UNL A   1      32.907  28.209  25.789  1.00  0.00     0.021 C 
BRANCH  23  24
ATOM     24  C   UNL A   1      33.549  28.441  27.158  1.00  0.00     0.116 C 
BRANCH  24  25
ATOM     25  N   UNL A   1      33.538  29.840  27.551  1.00  0.00    -0.352 N 
ATOM     26  C   UNL A   1      34.502  30.606  28.151  1.00  0.00     0.251 C 
ATOM     27  H   UNL A   1      32.699  30.314  27.355  1.00  0.00     0.163 HD
ATOM     28  O   UNL A   1      34.207  31.741  28.542  1.00  0.00    -0.269 OA
BRANCH  26  29
ATOM     29  C   UNL A   1      35.885  30.117  28.355  1.00  0.00     0.039 A 
ATOM     30  C   UNL A   1      36.237  29.625  29.619  1.00  0.00     0.014 A 
ATOM     31  C   UNL A   1      36.863  30.218  27.361  1.00  0.00     0.014 A 
ATOM     32  C   UNL A   1      37.545  29.201  29.875  1.00  0.00     0.010 A 
ATOM     33  C   UNL A   1      38.161  29.756  27.604  1.00  0.00     0.010 A 
ATOM     34  C   UNL A   1      38.518  29.249  28.865  1.00  0.00    -0.014 A 
BRANCH  34  35
ATOM     35  C   UNL A   1      39.907  28.786  29.121  1.00  0.00     0.031 A 
ATOM     36  C   UNL A   1      40.915  29.700  29.763  1.00  0.00     0.074 A 
ATOM     37  C   UNL A   1      40.284  27.550  28.739  1.00  0.00     0.049 A 
ATOM     38  N   UNL A   1      42.180  29.482  30.026  1.00  0.00    -0.248 NA
ATOM     39  C   UNL A   1      40.444  31.041  30.143  1.00  0.00     0.031 C 
ATOM     40  C   UNL A   1      39.421  26.566  28.085  1.00  0.00     0.029 A 
ATOM     41  N   UNL A   1      41.497  26.916  28.840  1.00  0.00    -0.354 N 
ATOM     42  C   UNL A   1      42.661  30.659  30.584  1.00  0.00     0.074 A 
ATOM     43  C   UNL A   1      41.560  31.600  30.593  1.00  0.00     0.031 C 
ATOM     44  C   UNL A   1      40.130  25.450  27.850  1.00  0.00     0.029 A 
ATOM     45  C   UNL A   1      41.501  25.648  28.312  1.00  0.00     0.049 A 
ATOM     46  H   UNL A   1      42.290  27.331  29.252  1.00  0.00     0.167 HD
ATOM     47  C   UNL A   1      43.901  30.934  31.057  1.00  0.00     0.031 A 
ATOM     48  C   UNL A   1      42.495  24.746  28.203  1.00  0.00     0.031 A 
ATOM     49  C   UNL A   1      44.997  30.003  31.067  1.00  0.00     0.049 A 
ATOM     50  C   UNL A   1      43.863  25.073  28.732  1.00  0.00     0.074 A 
ATOM     51  C   UNL A   1      46.271  30.177  31.585  1.00  0.00     0.029 A 
ATOM     52  N   UNL A   1      44.955  28.726  30.533  1.00  0.00    -0.354 N 
ATOM     53  N   UNL A   1      44.281  26.171  29.314  1.00  0.00    -0.248 NA
ATOM     54  C   UNL A   1      44.892  24.031  28.599  1.00  0.00     0.031 C 
ATOM     55  C   UNL A   1      47.011  29.017  31.328  1.00  0.00     0.029 A 
ATOM     56  C   UNL A   1      46.186  28.109  30.687  1.00  0.00     0.049 A 
ATOM     57  H   UNL A   1      44.167  28.318  30.108  1.00  0.00     0.167 HD
ATOM     58  C   UNL A   1      45.614  25.944  29.634  1.00  0.00     0.074 A 
ATOM     59  C   UNL A   1      45.931  24.601  29.193  1.00  0.00     0.031 C 
ATOM     60  C   UNL A   1      46.493  26.776  30.241  1.00  0.00     0.031 A 
BRANCH  47  61
ATOM     61  C   UNL A   1      44.141  32.316  31.597  1.00  0.00    -0.014 A 
ATOM     62  C   UNL A   1      43.932  32.612  32.953  1.00  0.00     0.009 A 
ATOM     63  C   UNL A   1      44.615  33.325  30.744  1.00  0.00     0.009 A 
ATOM     64  C   UNL A   1      44.158  33.902  33.437  1.00  0.00     0.001 A 
ATOM     65  C   UNL A   1      44.862  34.608  31.237  1.00  0.00     0.001 A 
ATOM     66  C   UNL A   1      44.625  34.898  32.580  1.00  0.00     0.000 A 
ENDBRANCH  47  61
BRANCH  48  67
ATOM     67  C   UNL A   1      42.229  23.431  27.568  1.00  0.00    -0.014 A 
ATOM     68  C   UNL A   1      42.569  23.209  26.226  1.00  0.00     0.009 A 
ATOM     69  C   UNL A   1      41.637  22.394  28.303  1.00  0.00     0.009 A 
ATOM     70  C   UNL A   1      42.303  21.976  25.626  1.00  0.00     0.001 A 
ATOM     71  C   UNL A   1      41.393  21.155  27.707  1.00  0.00     0.001 A 
ATOM     72  C   UNL A   1      41.720  20.949  26.367  1.00  0.00     0.000 A 
ENDBRANCH  48  67
BRANCH  60  73
ATOM     73  C   UNL A   1      47.878  26.251  30.485  1.00  0.00    -0.014 A 
ATOM     74  C   UNL A   1      48.865  26.315  29.488  1.00  0.00     0.009 A 
ATOM     75  C   UNL A   1      48.211  25.720  31.741  1.00  0.00     0.009 A 
ATOM     76  C   UNL A   1      50.151  25.831  29.737  1.00  0.00     0.001 A 
ATOM     77  C   UNL A   1      49.504  25.257  31.993  1.00  0.00     0.001 A 
ATOM     78  C   UNL A   1      50.470  25.308  30.989  1.00  0.00     0.000 A 
ENDBRANCH  60  73
ENDBRANCH  34  35
ENDBRANCH  26  29
ENDBRANCH  24  25
ENDBRANCH  23  24
ENDBRANCH  22  23
ENDBRANCH   1  22
TORSDOF 16
ENDMDL
MODEL 3
REMARK VINA RESULT:      -9.8      3.286      5.680
REMARK SMILES CC(C)(C)C(=O)C[N@H+]1CCCC[C@H]1C(=O)NCCCCCCNC(=O)c1ccc(-c2c3nc(c(-c4ccccc4)c4ccc([nH]4)c(-c4ccccc4)c4nc(c(-c5ccccc5)c5ccc2[nH]5)C=C4)C=C3)cc1
REMARK SMILES IDX 19 1 18 2 17 3 16 4 14 5 15 6 13 8 8 9 9 10 10 12 12 13
REMARK SMILES IDX 11 14 7 15 5 16 6 17 2 18 1 19 3 20 4 21 20 22 21 23 22 24
REMARK SMILES IDX 23 25 24 26 25 28 26 29 27 30 73 31 28 32 72 33 29 34 30 35
REMARK SMILES IDX 31 36 66 37 32 38 71 39 65 40 67 41 33 42 70 43 64 44 63 45
REMARK SMILES IDX 34 47 56 48 41 49 55 50 42 51 45 52 54 53 68 54 43 55 44 56
REMARK SMILES IDX 53 58 69 59 46 60 35 61 36 62 40 63 37 64 39 65 38 66 57 67
REMARK SMILES IDX 58 68 62 69 59 70 61 71 60 72 47 73 48 74 52 75 49 76 51 77
REMARK SMILES IDX 50 78
REMARK H PARENT 16 7 8 11 23 27 67 46 45 57
REMARK Flexibility Score: inf
ROOT
ATOM      1  C   UNL A   1      35.253  31.310  28.398  1.00  0.00     0.002 C 
ENDROOT
BRANCH   1   2
ATOM      2  C   UNL A   1      34.710  30.328  27.352  1.00  0.00     0.021 C 
BRANCH   2   3
ATOM      3  C   UNL A   1      33.251  30.534  26.917  1.00  0.00     0.116 C 
BRANCH   3   4
ATOM      4  N   UNL A   1      32.395  29.508  27.478  1.00  0.00    -0.351 N 
ATOM      5  C   UNL A   1      31.697  28.445  27.035  1.00  0.00     0.278 C 
ATOM      6  O   UNL A   1      31.059  27.881  27.944  1.00  0.00    -0.268 OA
ATOM      7  H   UNL A   1      32.297  29.619  28.451  1.00  0.00     0.163 HD
BRANCH   5   8
ATOM      8  C   UNL A   1      31.626  27.816  25.623  1.00  0.00     0.274 C 
ATOM      9  N   UNL A   1      31.665  28.643  24.410  1.00  0.00    -0.319 N 
ATOM     10  C   UNL A   1      32.926  28.854  23.729  1.00  0.00     0.263 C 
ATOM     11  H   UNL A   1      31.378  27.943  23.724  1.00  0.00     0.349 HD
ATOM     12  C   UNL A   1      33.892  27.672  23.747  1.00  0.00     0.062 C 
ATOM     13  C   UNL A   1      32.606  26.625  25.565  1.00  0.00     0.076 C 
ATOM     14  C   UNL A   1      33.997  27.051  25.125  1.00  0.00     0.012 C 
BRANCH   9  15
ATOM     15  C   UNL A   1      30.569  29.595  24.224  1.00  0.00     0.340 C 
BRANCH  15  16
ATOM     16  C   UNL A   1      29.749  29.353  22.943  1.00  0.00     0.192 C 
ATOM     17  O   UNL A   1      30.226  28.666  22.030  1.00  0.00    -0.293 OA
BRANCH  16  18
ATOM     18  C   UNL A   1      28.340  29.989  22.766  1.00  0.00     0.026 C 
ATOM     19  C   UNL A   1      28.195  30.430  21.298  1.00  0.00     0.019 C 
ATOM     20  C   UNL A   1      28.210  31.230  23.664  1.00  0.00     0.019 C 
ATOM     21  C   UNL A   1      27.181  29.047  23.072  1.00  0.00     0.019 C 
ENDBRANCH  16  18
ENDBRANCH  15  16
ENDBRANCH   9  15
ENDBRANCH   5   8
ENDBRANCH   3   4
ENDBRANCH   2   3
ENDBRANCH   1   2
BRANCH   1  22
ATOM     22  C   UNL A   1      35.786  32.656  27.897  1.00  0.00     0.002 C 
BRANCH  22  23
ATOM     23  C   UNL A   1      34.876  33.877  28.050  1.00  0.00     0.021 C 
BRANCH  23  24
ATOM     24  C   UNL A   1      33.588  33.680  28.851  1.00  0.00     0.116 C 
BRANCH  24  25
ATOM     25  N   UNL A   1      33.476  34.602  29.967  1.00  0.00    -0.352 N 
ATOM     26  C   UNL A   1      34.165  34.662  31.149  1.00  0.00     0.251 C 
ATOM     27  H   UNL A   1      32.791  35.300  29.856  1.00  0.00     0.163 HD
ATOM     28  O   UNL A   1      33.783  35.444  32.027  1.00  0.00    -0.269 OA
BRANCH  26  29
ATOM     29  C   UNL A   1      35.350  33.813  31.415  1.00  0.00     0.039 A 
ATOM     30  C   UNL A   1      36.610  34.292  31.035  1.00  0.00     0.014 A 
ATOM     31  C   UNL A   1      35.236  32.523  31.943  1.00  0.00     0.014 A 
ATOM     32  C   UNL A   1      37.752  33.505  31.217  1.00  0.00     0.010 A 
ATOM     33  C   UNL A   1      36.383  31.752  32.164  1.00  0.00     0.010 A 
ATOM     34  C   UNL A   1      37.651  32.231  31.797  1.00  0.00    -0.014 A 
BRANCH  34  35
ATOM     35  C   UNL A   1      38.861  31.393  32.010  1.00  0.00     0.031 A 
ATOM     36  C   UNL A   1      39.772  31.647  33.180  1.00  0.00     0.074 A 
ATOM     37  C   UNL A   1      39.170  30.423  31.128  1.00  0.00     0.049 A 
ATOM     38  N   UNL A   1      40.891  31.045  33.502  1.00  0.00    -0.248 NA
ATOM     39  C   UNL A   1      39.386  32.730  34.098  1.00  0.00     0.031 C 
ATOM     40  C   UNL A   1      38.392  30.082  29.938  1.00  0.00     0.029 A 
ATOM     41  N   UNL A   1      40.230  29.552  31.096  1.00  0.00    -0.354 N 
ATOM     42  C   UNL A   1      41.351  31.685  34.646  1.00  0.00     0.074 A 
ATOM     43  C   UNL A   1      40.407  32.742  34.944  1.00  0.00     0.031 C 
ATOM     44  C   UNL A   1      38.996  29.069  29.295  1.00  0.00     0.029 A 
ATOM     45  C   UNL A   1      40.216  28.708  30.012  1.00  0.00     0.049 A 
ATOM     46  H   UNL A   1      40.935  29.533  31.784  1.00  0.00     0.167 HD
ATOM     47  C   UNL A   1      42.452  31.415  35.390  1.00  0.00     0.031 A 
ATOM     48  C   UNL A   1      41.087  27.755  29.631  1.00  0.00     0.031 A 
ATOM     49  C   UNL A   1      43.387  30.358  35.112  1.00  0.00     0.049 A 
ATOM     50  C   UNL A   1      42.302  27.474  30.470  1.00  0.00     0.074 A 
ATOM     51  C   UNL A   1      44.496  29.973  35.848  1.00  0.00     0.029 A 
ATOM     52  N   UNL A   1      43.329  29.520  34.011  1.00  0.00    -0.354 N 
ATOM     53  N   UNL A   1      42.687  28.049  31.583  1.00  0.00    -0.248 NA
ATOM     54  C   UNL A   1      43.197  26.404  30.003  1.00  0.00     0.031 C 
ATOM     55  C   UNL A   1      45.131  28.926  35.170  1.00  0.00     0.029 A 
ATOM     56  C   UNL A   1      44.394  28.635  34.034  1.00  0.00     0.049 A 
ATOM     57  H   UNL A   1      42.634  29.549  33.315  1.00  0.00     0.167 HD
ATOM     58  C   UNL A   1      43.854  27.398  31.960  1.00  0.00     0.074 A 
ATOM     59  C   UNL A   1      44.110  26.377  30.964  1.00  0.00     0.031 C 
ATOM     60  C   UNL A   1      44.642  27.627  33.038  1.00  0.00     0.031 A 
BRANCH  47  61
ATOM     61  C   UNL A   1      42.710  32.294  36.580  1.00  0.00    -0.014 A 
ATOM     62  C   UNL A   1      43.465  33.472  36.463  1.00  0.00     0.009 A 
ATOM     63  C   UNL A   1      42.163  31.956  37.828  1.00  0.00     0.009 A 
ATOM     64  C   UNL A   1      43.696  34.276  37.581  1.00  0.00     0.001 A 
ATOM     65  C   UNL A   1      42.377  32.775  38.939  1.00  0.00     0.001 A 
ATOM     66  C   UNL A   1      43.151  33.929  38.816  1.00  0.00     0.000 A 
ENDBRANCH  47  61
BRANCH  48  67
ATOM     67  C   UNL A   1      40.837  26.983  28.388  1.00  0.00    -0.014 A 
ATOM     68  C   UNL A   1      40.032  25.835  28.415  1.00  0.00     0.009 A 
ATOM     69  C   UNL A   1      41.401  27.393  27.171  1.00  0.00     0.009 A 
ATOM     70  C   UNL A   1      39.811  25.101  27.247  1.00  0.00     0.001 A 
ATOM     71  C   UNL A   1      41.161  26.670  26.001  1.00  0.00     0.001 A 
ATOM     72  C   UNL A   1      40.372  25.521  26.041  1.00  0.00     0.000 A 
ENDBRANCH  48  67
BRANCH  60  73
ATOM     73  C   UNL A   1      45.844  26.743  33.210  1.00  0.00    -0.014 A 
ATOM     74  C   UNL A   1      45.760  25.537  33.925  1.00  0.00     0.009 A 
ATOM     75  C   UNL A   1      47.064  27.101  32.618  1.00  0.00     0.009 A 
ATOM     76  C   UNL A   1      46.885  24.723  34.067  1.00  0.00     0.001 A 
ATOM     77  C   UNL A   1      48.181  26.273  32.743  1.00  0.00     0.001 A 
ATOM     78  C   UNL A   1      48.092  25.089  33.472  1.00  0.00     0.000 A 
ENDBRANCH  60  73
ENDBRANCH  34  35
ENDBRANCH  26  29
ENDBRANCH  24  25
ENDBRANCH  23  24
ENDBRANCH  22  23
ENDBRANCH   1  22
TORSDOF 16
ENDMDL
