MODEL 1
REMARK VINA RESULT:     -10.5      0.000      0.000
REMARK SMILES C[C@@H](C(=O)NCCCCCCNC(=O)c1ccc(-c2c3nc(c(-c4ccccc4)c4ccc([nH]4)c(-c4ccccc4)c4nc(c(-c5ccccc5)c5ccc2[nH]5)C=C4)C=C3)cc1)[C@H]1CCOC2(CCCCC2)C1
REMARK SMILES IDX 9 1 8 2 7 3 6 4 5 5 3 6 4 7 2 9 1 10 63 11 64 12 73 13 65 14
REMARK SMILES IDX 67 15 66 16 68 17 72 18 69 19 71 20 70 21 10 22 11 23 12 24
REMARK SMILES IDX 13 25 14 27 15 28 16 29 62 30 17 31 61 32 18 33 19 34 20 35
REMARK SMILES IDX 55 36 21 37 60 38 54 39 56 40 22 41 59 42 53 43 52 44 23 46
REMARK SMILES IDX 45 47 30 48 44 49 31 50 34 51 43 52 57 53 32 54 33 55 42 57
REMARK SMILES IDX 58 58 35 59 24 60 25 61 29 62 26 63 28 64 27 65 46 66 47 67
REMARK SMILES IDX 51 68 48 69 50 70 49 71 36 72 37 73 41 74 38 75 40 76 39 77
REMARK H PARENT 5 8 12 26 56 45 34 56
REMARK Flexibility Score: inf
ROOT
ATOM      1  C   UNL A   1      34.889  24.249  25.186  1.00  0.00     0.002 C 
ENDROOT
BRANCH   1   2
ATOM      2  C   UNL A   1      33.783  24.590  26.188  1.00  0.00     0.002 C 
BRANCH   2   3
ATOM      3  C   UNL A   1      32.973  23.382  26.682  1.00  0.00     0.021 C 
BRANCH   3   4
ATOM      4  C   UNL A   1      31.482  23.472  26.351  1.00  0.00     0.116 C 
BRANCH   4   5
ATOM      5  N   UNL A   1      31.300  23.528  24.918  1.00  0.00    -0.356 N 
ATOM      6  C   UNL A   1      30.624  24.432  24.161  1.00  0.00     0.223 C 
ATOM      7  O   UNL A   1      30.407  24.123  22.991  1.00  0.00    -0.275 OA
ATOM      8  H   UNL A   1      31.733  22.800  24.414  1.00  0.00     0.163 HD
BRANCH   6   9
ATOM      9  C   UNL A   1      30.208  25.772  24.776  1.00  0.00     0.078 C 
ATOM     10  C   UNL A   1      29.003  26.383  24.045  1.00  0.00     0.018 C 
BRANCH   9  11
ATOM     11  C   UNL A   1      31.358  26.816  24.848  1.00  0.00     0.006 C 
ATOM     12  C   UNL A   1      31.698  27.473  23.503  1.00  0.00     0.033 C 
ATOM     13  C   UNL A   1      31.142  27.909  25.906  1.00  0.00     0.040 C 
ATOM     14  C   UNL A   1      32.845  28.468  23.656  1.00  0.00     0.161 C 
ATOM     15  C   UNL A   1      32.336  28.875  25.990  1.00  0.00     0.069 C 
ATOM     16  O   UNL A   1      32.606  29.421  24.690  1.00  0.00    -0.375 OA
ATOM     17  C   UNL A   1      33.583  28.182  26.585  1.00  0.00     0.035 C 
ATOM     18  C   UNL A   1      31.934  30.056  26.904  1.00  0.00     0.035 C 
ATOM     19  C   UNL A   1      34.737  29.158  26.804  1.00  0.00     0.003 C 
ATOM     20  C   UNL A   1      33.085  31.027  27.159  1.00  0.00     0.003 C 
ATOM     21  C   UNL A   1      34.317  30.313  27.705  1.00  0.00     0.000 C 
ENDBRANCH   9  11
ENDBRANCH   6   9
ENDBRANCH   4   5
ENDBRANCH   3   4
ENDBRANCH   2   3
ENDBRANCH   1   2
BRANCH   1  22
ATOM     22  C   UNL A   1      36.083  23.505  25.787  1.00  0.00     0.021 C 
BRANCH  22  23
ATOM     23  C   UNL A   1      37.353  23.588  24.949  1.00  0.00     0.116 C 
BRANCH  23  24
ATOM     24  N   UNL A   1      38.369  22.659  25.417  1.00  0.00    -0.352 N 
ATOM     25  C   UNL A   1      39.497  22.914  26.154  1.00  0.00     0.251 C 
ATOM     26  H   UNL A   1      38.227  21.716  25.171  1.00  0.00     0.163 HD
ATOM     27  O   UNL A   1      40.367  22.057  26.279  1.00  0.00    -0.269 OA
BRANCH  25  28
ATOM     28  C   UNL A   1      39.669  24.239  26.781  1.00  0.00     0.039 A 
ATOM     29  C   UNL A   1      39.123  24.467  28.046  1.00  0.00     0.014 A 
ATOM     30  C   UNL A   1      40.385  25.246  26.127  1.00  0.00     0.014 A 
ATOM     31  C   UNL A   1      39.356  25.685  28.686  1.00  0.00     0.010 A 
ATOM     32  C   UNL A   1      40.677  26.430  26.795  1.00  0.00     0.010 A 
ATOM     33  C   UNL A   1      40.168  26.660  28.084  1.00  0.00    -0.014 A 
BRANCH  33  34
ATOM     34  C   UNL A   1      40.520  27.916  28.791  1.00  0.00     0.031 A 
ATOM     35  C   UNL A   1      41.844  28.046  29.491  1.00  0.00     0.074 A 
ATOM     36  C   UNL A   1      39.611  28.908  28.872  1.00  0.00     0.049 A 
ATOM     37  N   UNL A   1      42.292  29.030  30.229  1.00  0.00    -0.248 NA
ATOM     38  C   UNL A   1      42.777  26.914  29.367  1.00  0.00     0.031 C 
ATOM     39  C   UNL A   1      38.276  28.887  28.269  1.00  0.00     0.029 A 
ATOM     40  N   UNL A   1      39.667  30.123  29.508  1.00  0.00    -0.354 N 
ATOM     41  C   UNL A   1      43.546  28.628  30.672  1.00  0.00     0.074 A 
ATOM     42  C   UNL A   1      43.771  27.295  30.156  1.00  0.00     0.031 C 
ATOM     43  C   UNL A   1      37.650  30.041  28.547  1.00  0.00     0.029 A 
ATOM     44  C   UNL A   1      38.515  30.862  29.388  1.00  0.00     0.049 A 
ATOM     45  H   UNL A   1      40.459  30.436  30.003  1.00  0.00     0.167 HD
ATOM     46  C   UNL A   1      44.435  29.313  31.429  1.00  0.00     0.031 A 
ATOM     47  C   UNL A   1      38.183  32.057  29.911  1.00  0.00     0.031 A 
ATOM     48  C   UNL A   1      44.213  30.642  31.931  1.00  0.00     0.049 A 
ATOM     49  C   UNL A   1      39.179  32.783  30.773  1.00  0.00     0.074 A 
ATOM     50  C   UNL A   1      45.084  31.448  32.645  1.00  0.00     0.029 A 
ATOM     51  N   UNL A   1      43.036  31.357  31.784  1.00  0.00    -0.354 N 
ATOM     52  N   UNL A   1      40.395  32.426  31.109  1.00  0.00    -0.248 NA
ATOM     53  C   UNL A   1      38.759  34.079  31.323  1.00  0.00     0.031 C 
ATOM     54  C   UNL A   1      44.409  32.623  32.988  1.00  0.00     0.029 A 
ATOM     55  C   UNL A   1      43.142  32.578  32.430  1.00  0.00     0.049 A 
ATOM     56  H   UNL A   1      42.242  31.045  31.292  1.00  0.00     0.167 HD
ATOM     57  C   UNL A   1      40.893  33.463  31.887  1.00  0.00     0.074 A 
ATOM     58  C   UNL A   1      39.856  34.472  31.956  1.00  0.00     0.031 C 
ATOM     59  C   UNL A   1      42.101  33.571  32.491  1.00  0.00     0.031 A 
BRANCH  46  60
ATOM     60  C   UNL A   1      45.729  28.630  31.778  1.00  0.00    -0.014 A 
ATOM     61  C   UNL A   1      45.838  27.799  32.905  1.00  0.00     0.009 A 
ATOM     62  C   UNL A   1      46.840  28.776  30.932  1.00  0.00     0.009 A 
ATOM     63  C   UNL A   1      47.044  27.156  33.194  1.00  0.00     0.001 A 
ATOM     64  C   UNL A   1      48.034  28.107  31.208  1.00  0.00     0.001 A 
ATOM     65  C   UNL A   1      48.137  27.305  32.343  1.00  0.00     0.000 A 
ENDBRANCH  46  60
BRANCH  47  66
ATOM     66  C   UNL A   1      36.840  32.642  29.651  1.00  0.00    -0.014 A 
ATOM     67  C   UNL A   1      36.598  33.391  28.489  1.00  0.00     0.009 A 
ATOM     68  C   UNL A   1      35.797  32.471  30.575  1.00  0.00     0.009 A 
ATOM     69  C   UNL A   1      35.351  33.985  28.276  1.00  0.00     0.001 A 
ATOM     70  C   UNL A   1      34.541  33.036  30.344  1.00  0.00     0.001 A 
ATOM     71  C   UNL A   1      34.323  33.804  29.200  1.00  0.00     0.000 A 
ENDBRANCH  47  66
BRANCH  59  72
ATOM     72  C   UNL A   1      42.381  34.832  33.258  1.00  0.00    -0.014 A 
ATOM     73  C   UNL A   1      43.096  35.893  32.681  1.00  0.00     0.009 A 
ATOM     74  C   UNL A   1      41.869  34.983  34.557  1.00  0.00     0.009 A 
ATOM     75  C   UNL A   1      43.318  37.069  33.402  1.00  0.00     0.001 A 
ATOM     76  C   UNL A   1      42.065  36.171  35.262  1.00  0.00     0.001 A 
ATOM     77  C   UNL A   1      42.796  37.209  34.688  1.00  0.00     0.000 A 
ENDBRANCH  59  72
ENDBRANCH  33  34
ENDBRANCH  25  28
ENDBRANCH  23  24
ENDBRANCH  22  23
ENDBRANCH   1  22
TORSDOF 14
ENDMDL
MODEL 2
REMARK VINA RESULT:     -10.5      3.087      7.552
REMARK SMILES C[C@@H](C(=O)NCCCCCCNC(=O)c1ccc(-c2c3nc(c(-c4ccccc4)c4ccc([nH]4)c(-c4ccccc4)c4nc(c(-c5ccccc5)c5ccc2[nH]5)C=C4)C=C3)cc1)[C@H]1CCOC2(CCCCC2)C1
REMARK SMILES IDX 9 1 8 2 7 3 6 4 5 5 3 6 4 7 2 9 1 10 63 11 64 12 73 13 65 14
REMARK SMILES IDX 67 15 66 16 68 17 72 18 69 19 71 20 70 21 10 22 11 23 12 24
REMARK SMILES IDX 13 25 14 27 15 28 16 29 62 30 17 31 61 32 18 33 19 34 20 35
REMARK SMILES IDX 55 36 21 37 60 38 54 39 56 40 22 41 59 42 53 43 52 44 23 46
REMARK SMILES IDX 45 47 30 48 44 49 31 50 34 51 43 52 57 53 32 54 33 55 42 57
REMARK SMILES IDX 58 58 35 59 24 60 25 61 29 62 26 63 28 64 27 65 46 66 47 67
REMARK SMILES IDX 51 68 48 69 50 70 49 71 36 72 37 73 41 74 38 75 40 76 39 77
REMARK H PARENT 5 8 12 26 56 45 34 56
REMARK Flexibility Score: inf
ROOT
ATOM      1  C   UNL A   1      31.777  30.672  26.262  1.00  0.00     0.002 C 
ENDROOT
BRANCH   1   2
ATOM      2  C   UNL A   1      32.499  29.751  27.250  1.00  0.00     0.002 C 
BRANCH   2   3
ATOM      3  C   UNL A   1      33.919  29.347  26.828  1.00  0.00     0.021 C 
BRANCH   3   4
ATOM      4  C   UNL A   1      33.958  28.124  25.910  1.00  0.00     0.116 C 
BRANCH   4   5
ATOM      5  N   UNL A   1      34.025  28.551  24.530  1.00  0.00    -0.356 N 
ATOM      6  C   UNL A   1      33.354  28.087  23.443  1.00  0.00     0.223 C 
ATOM      7  O   UNL A   1      33.768  28.445  22.341  1.00  0.00    -0.275 OA
ATOM      8  H   UNL A   1      34.653  29.289  24.351  1.00  0.00     0.163 HD
BRANCH   6   9
ATOM      9  C   UNL A   1      32.122  27.196  23.638  1.00  0.00     0.078 C 
ATOM     10  C   UNL A   1      32.286  25.840  22.936  1.00  0.00     0.018 C 
BRANCH   9  11
ATOM     11  C   UNL A   1      30.789  27.858  23.190  1.00  0.00     0.006 C 
ATOM     12  C   UNL A   1      29.530  27.089  23.617  1.00  0.00     0.033 C 
ATOM     13  C   UNL A   1      30.651  29.329  23.610  1.00  0.00     0.040 C 
ATOM     14  C   UNL A   1      28.268  27.793  23.125  1.00  0.00     0.161 C 
ATOM     15  C   UNL A   1      29.351  29.961  23.085  1.00  0.00     0.069 C 
ATOM     16  O   UNL A   1      28.228  29.168  23.502  1.00  0.00    -0.375 OA
ATOM     17  C   UNL A   1      29.385  30.133  21.549  1.00  0.00     0.035 C 
ATOM     18  C   UNL A   1      29.194  31.351  23.743  1.00  0.00     0.035 C 
ATOM     19  C   UNL A   1      28.163  30.881  21.024  1.00  0.00     0.003 C 
ATOM     20  C   UNL A   1      27.992  32.128  23.207  1.00  0.00     0.003 C 
ATOM     21  C   UNL A   1      28.028  32.246  21.687  1.00  0.00     0.000 C 
ENDBRANCH   9  11
ENDBRANCH   6   9
ENDBRANCH   4   5
ENDBRANCH   3   4
ENDBRANCH   2   3
ENDBRANCH   1   2
BRANCH   1  22
ATOM     22  C   UNL A   1      31.491  32.076  26.797  1.00  0.00     0.021 C 
BRANCH  22  23
ATOM     23  C   UNL A   1      32.717  32.787  27.358  1.00  0.00     0.116 C 
BRANCH  23  24
ATOM     24  N   UNL A   1      32.449  34.192  27.626  1.00  0.00    -0.352 N 
ATOM     25  C   UNL A   1      33.008  35.010  28.574  1.00  0.00     0.251 C 
ATOM     26  H   UNL A   1      31.774  34.613  27.047  1.00  0.00     0.163 HD
ATOM     27  O   UNL A   1      32.516  36.109  28.817  1.00  0.00    -0.269 OA
BRANCH  25  28
ATOM     28  C   UNL A   1      34.197  34.551  29.319  1.00  0.00     0.039 A 
ATOM     29  C   UNL A   1      34.030  33.999  30.591  1.00  0.00     0.014 A 
ATOM     30  C   UNL A   1      35.471  34.651  28.753  1.00  0.00     0.014 A 
ATOM     31  C   UNL A   1      35.136  33.481  31.267  1.00  0.00     0.010 A 
ATOM     32  C   UNL A   1      36.559  34.070  29.395  1.00  0.00     0.010 A 
ATOM     33  C   UNL A   1      36.401  33.475  30.657  1.00  0.00    -0.014 A 
BRANCH  33  34
ATOM     34  C   UNL A   1      37.569  32.832  31.309  1.00  0.00     0.031 A 
ATOM     35  C   UNL A   1      38.230  31.642  30.673  1.00  0.00     0.074 A 
ATOM     36  C   UNL A   1      37.980  33.271  32.515  1.00  0.00     0.049 A 
ATOM     37  N   UNL A   1      39.204  30.898  31.133  1.00  0.00    -0.248 NA
ATOM     38  C   UNL A   1      37.715  31.214  29.362  1.00  0.00     0.031 C 
ATOM     39  C   UNL A   1      37.395  34.393  33.255  1.00  0.00     0.029 A 
ATOM     40  N   UNL A   1      38.978  32.816  33.340  1.00  0.00    -0.354 N 
ATOM     41  C   UNL A   1      39.404  29.907  30.180  1.00  0.00     0.074 A 
ATOM     42  C   UNL A   1      38.423  30.118  29.137  1.00  0.00     0.031 C 
ATOM     43  C   UNL A   1      38.057  34.550  34.411  1.00  0.00     0.029 A 
ATOM     44  C   UNL A   1      39.078  33.513  34.521  1.00  0.00     0.049 A 
ATOM     45  H   UNL A   1      39.567  32.063  33.107  1.00  0.00     0.167 HD
ATOM     46  C   UNL A   1      40.329  28.918  30.168  1.00  0.00     0.031 A 
ATOM     47  C   UNL A   1      39.886  33.327  35.581  1.00  0.00     0.031 A 
ATOM     48  C   UNL A   1      41.310  28.718  31.201  1.00  0.00     0.049 A 
ATOM     49  C   UNL A   1      40.886  32.203  35.553  1.00  0.00     0.074 A 
ATOM     50  C   UNL A   1      42.336  27.790  31.244  1.00  0.00     0.029 A 
ATOM     51  N   UNL A   1      41.380  29.447  32.377  1.00  0.00    -0.354 N 
ATOM     52  N   UNL A   1      41.119  31.329  34.605  1.00  0.00    -0.248 NA
ATOM     53  C   UNL A   1      41.736  32.043  36.742  1.00  0.00     0.031 C 
ATOM     54  C   UNL A   1      42.985  27.913  32.476  1.00  0.00     0.029 A 
ATOM     55  C   UNL A   1      42.407  28.962  33.171  1.00  0.00     0.049 A 
ATOM     56  H   UNL A   1      40.790  30.199  32.613  1.00  0.00     0.167 HD
ATOM     57  C   UNL A   1      42.158  30.534  35.071  1.00  0.00     0.074 A 
ATOM     58  C   UNL A   1      42.524  31.041  36.376  1.00  0.00     0.031 C 
ATOM     59  C   UNL A   1      42.757  29.477  34.470  1.00  0.00     0.031 A 
BRANCH  46  60
ATOM     60  C   UNL A   1      40.317  27.962  29.008  1.00  0.00    -0.014 A 
ATOM     61  C   UNL A   1      41.010  28.242  27.820  1.00  0.00     0.009 A 
ATOM     62  C   UNL A   1      39.647  26.733  29.129  1.00  0.00     0.009 A 
ATOM     63  C   UNL A   1      41.004  27.326  26.766  1.00  0.00     0.001 A 
ATOM     64  C   UNL A   1      39.670  25.807  28.085  1.00  0.00     0.001 A 
ATOM     65  C   UNL A   1      40.341  26.107  26.901  1.00  0.00     0.000 A 
ENDBRANCH  46  60
BRANCH  47  66
ATOM     66  C   UNL A   1      39.778  34.215  36.770  1.00  0.00    -0.014 A 
ATOM     67  C   UNL A   1      40.480  35.429  36.823  1.00  0.00     0.009 A 
ATOM     68  C   UNL A   1      38.990  33.841  37.869  1.00  0.00     0.009 A 
ATOM     69  C   UNL A   1      40.419  36.233  37.964  1.00  0.00     0.001 A 
ATOM     70  C   UNL A   1      38.903  34.662  38.995  1.00  0.00     0.001 A 
ATOM     71  C   UNL A   1      39.628  35.852  39.047  1.00  0.00     0.000 A 
ENDBRANCH  47  66
BRANCH  59  72
ATOM     72  C   UNL A   1      43.887  28.813  35.205  1.00  0.00    -0.014 A 
ATOM     73  C   UNL A   1      43.658  27.736  36.075  1.00  0.00     0.009 A 
ATOM     74  C   UNL A   1      45.207  29.234  34.976  1.00  0.00     0.009 A 
ATOM     75  C   UNL A   1      44.726  27.114  36.724  1.00  0.00     0.001 A 
ATOM     76  C   UNL A   1      46.275  28.590  35.602  1.00  0.00     0.001 A 
ATOM     77  C   UNL A   1      46.033  27.536  36.481  1.00  0.00     0.000 A 
ENDBRANCH  59  72
ENDBRANCH  33  34
ENDBRANCH  25  28
ENDBRANCH  23  24
ENDBRANCH  22  23
ENDBRANCH   1  22
TORSDOF 14
ENDMDL
MODEL 3
REMARK VINA RESULT:     -10.4      3.353      8.246
REMARK SMILES C[C@@H](C(=O)NCCCCCCNC(=O)c1ccc(-c2c3nc(c(-c4ccccc4)c4ccc([nH]4)c(-c4ccccc4)c4nc(c(-c5ccccc5)c5ccc2[nH]5)C=C4)C=C3)cc1)[C@H]1CCOC2(CCCCC2)C1
REMARK SMILES IDX 9 1 8 2 7 3 6 4 5 5 3 6 4 7 2 9 1 10 63 11 64 12 73 13 65 14
REMARK SMILES IDX 67 15 66 16 68 17 72 18 69 19 71 20 70 21 10 22 11 23 12 24
REMARK SMILES IDX 13 25 14 27 15 28 16 29 62 30 17 31 61 32 18 33 19 34 20 35
REMARK SMILES IDX 55 36 21 37 60 38 54 39 56 40 22 41 59 42 53 43 52 44 23 46
REMARK SMILES IDX 45 47 30 48 44 49 31 50 34 51 43 52 57 53 32 54 33 55 42 57
REMARK SMILES IDX 58 58 35 59 24 60 25 61 29 62 26 63 28 64 27 65 46 66 47 67
REMARK SMILES IDX 51 68 48 69 50 70 49 71 36 72 37 73 41 74 38 75 40 76 39 77
REMARK H PARENT 5 8 12 26 56 45 34 56
REMARK Flexibility Score: inf
ROOT
ATOM      1  C   UNL A   1      36.542  21.818  24.453  1.00  0.00     0.002 C 
ENDROOT
BRANCH   1   2
ATOM      2  C   UNL A   1      36.412  22.856  25.570  1.00  0.00     0.002 C 
BRANCH   2   3
ATOM      3  C   UNL A   1      35.176  22.685  26.464  1.00  0.00     0.021 C 
BRANCH   3   4
ATOM      4  C   UNL A   1      34.071  23.704  26.179  1.00  0.00     0.116 C 
BRANCH   4   5
ATOM      5  N   UNL A   1      32.777  23.096  26.394  1.00  0.00    -0.356 N 
ATOM      6  C   UNL A   1      31.972  22.433  25.522  1.00  0.00     0.223 C 
ATOM      7  O   UNL A   1      30.814  22.229  25.883  1.00  0.00    -0.275 OA
ATOM      8  H   UNL A   1      32.426  23.174  27.311  1.00  0.00     0.163 HD
BRANCH   6   9
ATOM      9  C   UNL A   1      32.541  21.950  24.184  1.00  0.00     0.078 C 
ATOM     10  C   UNL A   1      31.855  22.638  22.995  1.00  0.00     0.018 C 
BRANCH   9  11
ATOM     11  C   UNL A   1      32.488  20.408  23.996  1.00  0.00     0.006 C 
ATOM     12  C   UNL A   1      32.192  19.958  22.559  1.00  0.00     0.033 C 
ATOM     13  C   UNL A   1      33.737  19.675  24.509  1.00  0.00     0.040 C 
ATOM     14  C   UNL A   1      32.140  18.436  22.463  1.00  0.00     0.161 C 
ATOM     15  C   UNL A   1      33.610  18.148  24.368  1.00  0.00     0.069 C 
ATOM     16  O   UNL A   1      33.304  17.815  23.005  1.00  0.00    -0.375 OA
ATOM     17  C   UNL A   1      32.556  17.576  25.343  1.00  0.00     0.035 C 
ATOM     18  C   UNL A   1      34.985  17.521  24.691  1.00  0.00     0.035 C 
ATOM     19  C   UNL A   1      32.511  16.051  25.316  1.00  0.00     0.003 C 
ATOM     20  C   UNL A   1      34.953  15.993  24.698  1.00  0.00     0.003 C 
ATOM     21  C   UNL A   1      33.877  15.455  25.634  1.00  0.00     0.000 C 
ENDBRANCH   9  11
ENDBRANCH   6   9
ENDBRANCH   4   5
ENDBRANCH   3   4
ENDBRANCH   2   3
ENDBRANCH   1   2
BRANCH   1  22
ATOM     22  C   UNL A   1      37.400  20.603  24.813  1.00  0.00     0.021 C 
BRANCH  22  23
ATOM     23  C   UNL A   1      38.589  20.927  25.710  1.00  0.00     0.116 C 
BRANCH  23  24
ATOM     24  N   UNL A   1      39.553  19.839  25.741  1.00  0.00    -0.352 N 
ATOM     25  C   UNL A   1      40.893  19.882  26.030  1.00  0.00     0.251 C 
ATOM     26  H   UNL A   1      39.194  18.948  25.524  1.00  0.00     0.163 HD
ATOM     27  O   UNL A   1      41.612  18.914  25.798  1.00  0.00    -0.269 OA
BRANCH  25  28
ATOM     28  C   UNL A   1      41.472  21.112  26.607  1.00  0.00     0.039 A 
ATOM     29  C   UNL A   1      42.021  22.069  25.751  1.00  0.00     0.014 A 
ATOM     30  C   UNL A   1      41.454  21.324  27.988  1.00  0.00     0.014 A 
ATOM     31  C   UNL A   1      42.490  23.274  26.277  1.00  0.00     0.010 A 
ATOM     32  C   UNL A   1      41.854  22.552  28.502  1.00  0.00     0.010 A 
ATOM     33  C   UNL A   1      42.372  23.542  27.651  1.00  0.00    -0.014 A 
BRANCH  33  34
ATOM     34  C   UNL A   1      42.762  24.857  28.216  1.00  0.00     0.031 A 
ATOM     35  C   UNL A   1      41.726  25.922  28.440  1.00  0.00     0.074 A 
ATOM     36  C   UNL A   1      44.063  25.119  28.451  1.00  0.00     0.049 A 
ATOM     37  N   UNL A   1      41.887  27.156  28.844  1.00  0.00    -0.248 NA
ATOM     38  C   UNL A   1      40.328  25.564  28.148  1.00  0.00     0.031 C 
ATOM     39  C   UNL A   1      45.169  24.181  28.237  1.00  0.00     0.029 A 
ATOM     40  N   UNL A   1      44.679  26.258  28.906  1.00  0.00    -0.354 N 
ATOM     41  C   UNL A   1      40.620  27.725  28.836  1.00  0.00     0.074 A 
ATOM     42  C   UNL A   1      39.706  26.716  28.346  1.00  0.00     0.031 C 
ATOM     43  C   UNL A   1      46.322  24.776  28.580  1.00  0.00     0.029 A 
ATOM     44  C   UNL A   1      46.046  26.150  28.989  1.00  0.00     0.049 A 
ATOM     45  H   UNL A   1      44.186  27.074  29.152  1.00  0.00     0.167 HD
ATOM     46  C   UNL A   1      40.249  28.971  29.213  1.00  0.00     0.031 A 
ATOM     47  C   UNL A   1      46.976  27.059  29.336  1.00  0.00     0.031 A 
ATOM     48  C   UNL A   1      41.159  29.969  29.710  1.00  0.00     0.049 A 
ATOM     49  C   UNL A   1      46.539  28.445  29.724  1.00  0.00     0.074 A 
ATOM     50  C   UNL A   1      40.869  31.235  30.188  1.00  0.00     0.029 A 
ATOM     51  N   UNL A   1      42.534  29.819  29.783  1.00  0.00    -0.354 N 
ATOM     52  N   UNL A   1      45.326  28.939  29.793  1.00  0.00    -0.248 NA
ATOM     53  C   UNL A   1      47.598  29.398  30.085  1.00  0.00     0.031 C 
ATOM     54  C   UNL A   1      42.075  31.876  30.486  1.00  0.00     0.029 A 
ATOM     55  C   UNL A   1      43.111  30.986  30.257  1.00  0.00     0.049 A 
ATOM     56  H   UNL A   1      43.028  29.004  29.535  1.00  0.00     0.167 HD
ATOM     57  C   UNL A   1      45.476  30.249  30.231  1.00  0.00     0.074 A 
ATOM     58  C   UNL A   1      46.894  30.467  30.429  1.00  0.00     0.031 C 
ATOM     59  C   UNL A   1      44.524  31.188  30.448  1.00  0.00     0.031 A 
BRANCH  46  60
ATOM     60  C   UNL A   1      38.796  29.337  29.090  1.00  0.00    -0.014 A 
ATOM     61  C   UNL A   1      38.259  29.809  27.881  1.00  0.00     0.009 A 
ATOM     62  C   UNL A   1      37.938  29.151  30.186  1.00  0.00     0.009 A 
ATOM     63  C   UNL A   1      36.901  30.118  27.784  1.00  0.00     0.001 A 
ATOM     64  C   UNL A   1      36.575  29.432  30.076  1.00  0.00     0.001 A 
ATOM     65  C   UNL A   1      36.059  29.923  28.878  1.00  0.00     0.000 A 
ENDBRANCH  46  60
BRANCH  47  66
ATOM     66  C   UNL A   1      48.420  26.698  29.318  1.00  0.00    -0.014 A 
ATOM     67  C   UNL A   1      49.197  26.911  28.169  1.00  0.00     0.009 A 
ATOM     68  C   UNL A   1      49.023  26.117  30.445  1.00  0.00     0.009 A 
ATOM     69  C   UNL A   1      50.538  26.520  28.139  1.00  0.00     0.001 A 
ATOM     70  C   UNL A   1      50.372  25.759  30.424  1.00  0.00     0.001 A 
ATOM     71  C   UNL A   1      51.126  25.949  29.266  1.00  0.00     0.000 A 
ENDBRANCH  47  66
BRANCH  59  72
ATOM     72  C   UNL A   1      44.978  32.529  30.951  1.00  0.00    -0.014 A 
ATOM     73  C   UNL A   1      45.129  32.781  32.323  1.00  0.00     0.009 A 
ATOM     74  C   UNL A   1      45.314  33.537  30.033  1.00  0.00     0.009 A 
ATOM     75  C   UNL A   1      45.582  34.025  32.767  1.00  0.00     0.001 A 
ATOM     76  C   UNL A   1      45.797  34.768  30.478  1.00  0.00     0.001 A 
ATOM     77  C   UNL A   1      45.922  35.014  31.844  1.00  0.00     0.000 A 
ENDBRANCH  59  72
ENDBRANCH  33  34
ENDBRANCH  25  28
ENDBRANCH  23  24
ENDBRANCH  22  23
ENDBRANCH   1  22
TORSDOF 14
ENDMDL
