MODEL 1
REMARK VINA RESULT:      -8.6      0.000      0.000
REMARK SMILES [NH3+][C@H](Cc1cc(F)c(F)c(F)c1)C(=O)NCCCCCCNC(=O)c1ccc(-c2c3nc(c(-c4ccccc4)c4ccc([nH]4)c(-c4ccccc4)c4nc(c(-c5ccccc5)c5ccc2[nH]5)C=C4)C=C3)cc1
REMARK SMILES IDX 18 1 17 2 16 3 15 4 13 5 14 6 2 8 1 9 3 13 4 14 5 15 12 16
REMARK SMILES IDX 6 17 10 18 7 19 8 20 11 21 9 22 19 23 20 24 21 25 22 26
REMARK SMILES IDX 23 27 24 29 25 30 26 31 72 32 27 33 71 34 28 35 29 36 30 37
REMARK SMILES IDX 65 38 31 39 70 40 64 41 66 42 32 43 69 44 63 45 62 46 33 48
REMARK SMILES IDX 55 49 40 50 54 51 41 52 44 53 53 54 67 55 42 56 43 57 52 59
REMARK SMILES IDX 68 60 45 61 34 62 35 63 39 64 36 65 38 66 37 67 56 68 57 69
REMARK SMILES IDX 61 70 58 71 60 72 59 73 46 74 47 75 51 76 48 77 50 78 49 79
REMARK H PARENT 15 7 1 10 1 11 1 12 22 28 66 47 44 58
REMARK Flexibility Score: inf
ROOT
ATOM      1  C   UNL A   1      34.994  35.048  33.224  1.00  0.00     0.002 C 
ENDROOT
BRANCH   1   2
ATOM      2  C   UNL A   1      35.277  34.257  34.504  1.00  0.00     0.021 C 
BRANCH   2   3
ATOM      3  C   UNL A   1      36.743  33.935  34.783  1.00  0.00     0.116 C 
BRANCH   3   4
ATOM      4  N   UNL A   1      36.996  33.675  36.186  1.00  0.00    -0.351 N 
ATOM      5  C   UNL A   1      37.564  32.636  36.852  1.00  0.00     0.278 C 
ATOM      6  O   UNL A   1      37.530  32.691  38.087  1.00  0.00    -0.268 OA
ATOM      7  H   UNL A   1      36.694  34.401  36.779  1.00  0.00     0.163 HD
BRANCH   5   8
ATOM      8  C   UNL A   1      38.215  31.426  36.153  1.00  0.00     0.275 C 
BRANCH   8   9
ATOM      9  N   UNL A   1      37.960  30.186  36.930  1.00  0.00    -0.347 N 
ATOM     10  H   UNL A   1      36.982  29.918  36.833  1.00  0.00     0.345 HD
ATOM     11  H   UNL A   1      38.172  30.354  37.915  1.00  0.00     0.345 HD
ATOM     12  H   UNL A   1      38.556  29.436  36.578  1.00  0.00     0.345 HD
ENDBRANCH   8   9
BRANCH   8  13
ATOM     13  C   UNL A   1      39.670  31.534  35.631  1.00  0.00     0.111 C 
BRANCH  13  14
ATOM     14  C   UNL A   1      40.437  30.339  35.113  1.00  0.00    -0.036 A 
ATOM     15  C   UNL A   1      41.613  29.853  35.704  1.00  0.00     0.046 A 
ATOM     16  C   UNL A   1      39.958  29.686  33.958  1.00  0.00     0.046 A 
ATOM     17  C   UNL A   1      42.204  28.676  35.232  1.00  0.00     0.162 A 
ATOM     18  C   UNL A   1      40.572  28.524  33.490  1.00  0.00     0.162 A 
ATOM     19  F   UNL A   1      43.268  28.177  35.876  1.00  0.00    -0.204 F 
ATOM     20  C   UNL A   1      41.679  28.002  34.139  1.00  0.00     0.194 A 
ATOM     21  F   UNL A   1      40.047  27.890  32.432  1.00  0.00    -0.204 F 
ATOM     22  F   UNL A   1      42.220  26.846  33.729  1.00  0.00    -0.200 F 
ENDBRANCH  13  14
ENDBRANCH   8  13
ENDBRANCH   5   8
ENDBRANCH   3   4
ENDBRANCH   2   3
ENDBRANCH   1   2
BRANCH   1  23
ATOM     23  C   UNL A   1      33.541  34.999  32.752  1.00  0.00     0.002 C 
BRANCH  23  24
ATOM     24  C   UNL A   1      33.088  36.214  31.939  1.00  0.00     0.021 C 
BRANCH  24  25
ATOM     25  C   UNL A   1      33.613  36.260  30.507  1.00  0.00     0.116 C 
BRANCH  25  26
ATOM     26  N   UNL A   1      32.788  35.483  29.595  1.00  0.00    -0.352 N 
ATOM     27  C   UNL A   1      33.155  34.390  28.847  1.00  0.00     0.251 C 
ATOM     28  H   UNL A   1      31.853  35.775  29.504  1.00  0.00     0.163 HD
ATOM     29  O   UNL A   1      32.423  33.944  27.970  1.00  0.00    -0.269 OA
BRANCH  27  30
ATOM     30  C   UNL A   1      34.469  33.768  29.106  1.00  0.00     0.039 A 
ATOM     31  C   UNL A   1      35.575  34.166  28.355  1.00  0.00     0.014 A 
ATOM     32  C   UNL A   1      34.601  32.832  30.136  1.00  0.00     0.014 A 
ATOM     33  C   UNL A   1      36.838  33.664  28.677  1.00  0.00     0.010 A 
ATOM     34  C   UNL A   1      35.869  32.383  30.493  1.00  0.00     0.010 A 
ATOM     35  C   UNL A   1      36.999  32.792  29.766  1.00  0.00    -0.014 A 
BRANCH  35  36
ATOM     36  C   UNL A   1      38.333  32.272  30.156  1.00  0.00     0.031 A 
ATOM     37  C   UNL A   1      38.813  30.963  29.591  1.00  0.00     0.074 A 
ATOM     38  C   UNL A   1      39.073  32.925  31.073  1.00  0.00     0.049 A 
ATOM     39  N   UNL A   1      39.890  30.279  29.888  1.00  0.00    -0.248 NA
ATOM     40  C   UNL A   1      37.955  30.322  28.579  1.00  0.00     0.031 C 
ATOM     41  C   UNL A   1      38.708  34.187  31.721  1.00  0.00     0.029 A 
ATOM     42  N   UNL A   1      40.286  32.606  31.632  1.00  0.00    -0.354 N 
ATOM     43  C   UNL A   1      39.821  29.120  29.126  1.00  0.00     0.074 A 
ATOM     44  C   UNL A   1      38.584  29.172  28.381  1.00  0.00     0.031 C 
ATOM     45  C   UNL A   1      39.682  34.541  32.576  1.00  0.00     0.029 A 
ATOM     46  C   UNL A   1      40.719  33.515  32.568  1.00  0.00     0.049 A 
ATOM     47  H   UNL A   1      40.798  31.802  31.386  1.00  0.00     0.167 HD
ATOM     48  C   UNL A   1      40.717  28.109  29.042  1.00  0.00     0.031 A 
ATOM     49  C   UNL A   1      41.822  33.513  33.342  1.00  0.00     0.031 A 
ATOM     50  C   UNL A   1      41.964  28.073  29.756  1.00  0.00     0.049 A 
ATOM     51  C   UNL A   1      42.800  32.374  33.226  1.00  0.00     0.074 A 
ATOM     52  C   UNL A   1      42.970  27.125  29.680  1.00  0.00     0.029 A 
ATOM     53  N   UNL A   1      42.378  29.028  30.669  1.00  0.00    -0.354 N 
ATOM     54  N   UNL A   1      42.754  31.321  32.448  1.00  0.00    -0.248 NA
ATOM     55  C   UNL A   1      43.989  32.431  34.090  1.00  0.00     0.031 C 
ATOM     56  C   UNL A   1      43.974  27.483  30.584  1.00  0.00     0.029 A 
ATOM     57  C   UNL A   1      43.615  28.681  31.181  1.00  0.00     0.049 A 
ATOM     58  H   UNL A   1      41.868  29.832  30.917  1.00  0.00     0.167 HD
ATOM     59  C   UNL A   1      43.922  30.612  32.699  1.00  0.00     0.074 A 
ATOM     60  C   UNL A   1      44.661  31.360  33.695  1.00  0.00     0.031 C 
ATOM     61  C   UNL A   1      44.346  29.449  32.153  1.00  0.00     0.031 A 
BRANCH  48  62
ATOM     62  C   UNL A   1      40.382  26.950  28.146  1.00  0.00    -0.014 A 
ATOM     63  C   UNL A   1      40.890  26.869  26.840  1.00  0.00     0.009 A 
ATOM     64  C   UNL A   1      39.602  25.893  28.640  1.00  0.00     0.009 A 
ATOM     65  C   UNL A   1      40.601  25.764  26.038  1.00  0.00     0.001 A 
ATOM     66  C   UNL A   1      39.336  24.777  27.845  1.00  0.00     0.001 A 
ATOM     67  C   UNL A   1      39.830  24.717  26.542  1.00  0.00     0.000 A 
ENDBRANCH  48  62
BRANCH  49  68
ATOM     68  C   UNL A   1      42.077  34.622  34.299  1.00  0.00    -0.014 A 
ATOM     69  C   UNL A   1      42.746  35.784  33.883  1.00  0.00     0.009 A 
ATOM     70  C   UNL A   1      41.694  34.508  35.645  1.00  0.00     0.009 A 
ATOM     71  C   UNL A   1      43.062  36.788  34.800  1.00  0.00     0.001 A 
ATOM     72  C   UNL A   1      41.984  35.528  36.554  1.00  0.00     0.001 A 
ATOM     73  C   UNL A   1      42.680  36.661  36.134  1.00  0.00     0.000 A 
ENDBRANCH  49  68
BRANCH  61  74
ATOM     74  C   UNL A   1      45.695  28.937  32.572  1.00  0.00    -0.014 A 
ATOM     75  C   UNL A   1      46.872  29.394  31.962  1.00  0.00     0.009 A 
ATOM     76  C   UNL A   1      45.786  28.028  33.639  1.00  0.00     0.009 A 
ATOM     77  C   UNL A   1      48.115  28.929  32.396  1.00  0.00     0.001 A 
ATOM     78  C   UNL A   1      47.031  27.588  34.089  1.00  0.00     0.001 A 
ATOM     79  C   UNL A   1      48.194  28.033  33.461  1.00  0.00     0.000 A 
ENDBRANCH  61  74
ENDBRANCH  35  36
ENDBRANCH  27  30
ENDBRANCH  25  26
ENDBRANCH  24  25
ENDBRANCH  23  24
ENDBRANCH   1  23
TORSDOF 16
ENDMDL
MODEL 2
REMARK VINA RESULT:      -8.3      5.503      8.628
REMARK SMILES [NH3+][C@H](Cc1cc(F)c(F)c(F)c1)C(=O)NCCCCCCNC(=O)c1ccc(-c2c3nc(c(-c4ccccc4)c4ccc([nH]4)c(-c4ccccc4)c4nc(c(-c5ccccc5)c5ccc2[nH]5)C=C4)C=C3)cc1
REMARK SMILES IDX 18 1 17 2 16 3 15 4 13 5 14 6 2 8 1 9 3 13 4 14 5 15 12 16
REMARK SMILES IDX 6 17 10 18 7 19 8 20 11 21 9 22 19 23 20 24 21 25 22 26
REMARK SMILES IDX 23 27 24 29 25 30 26 31 72 32 27 33 71 34 28 35 29 36 30 37
REMARK SMILES IDX 65 38 31 39 70 40 64 41 66 42 32 43 69 44 63 45 62 46 33 48
REMARK SMILES IDX 55 49 40 50 54 51 41 52 44 53 53 54 67 55 42 56 43 57 52 59
REMARK SMILES IDX 68 60 45 61 34 62 35 63 39 64 36 65 38 66 37 67 56 68 57 69
REMARK SMILES IDX 61 70 58 71 60 72 59 73 46 74 47 75 51 76 48 77 50 78 49 79
REMARK H PARENT 15 7 1 10 1 11 1 12 22 28 66 47 44 58
REMARK Flexibility Score: inf
ROOT
ATOM      1  C   UNL A   1      31.842  29.299  27.052  1.00  0.00     0.002 C 
ENDROOT
BRANCH   1   2
ATOM      2  C   UNL A   1      32.308  28.006  26.378  1.00  0.00     0.021 C 
BRANCH   2   3
ATOM      3  C   UNL A   1      31.206  27.092  25.848  1.00  0.00     0.116 C 
BRANCH   3   4
ATOM      4  N   UNL A   1      31.559  26.472  24.587  1.00  0.00    -0.351 N 
ATOM      5  C   UNL A   1      31.522  26.901  23.298  1.00  0.00     0.278 C 
ATOM      6  O   UNL A   1      31.806  26.064  22.433  1.00  0.00    -0.268 OA
ATOM      7  H   UNL A   1      31.895  25.552  24.683  1.00  0.00     0.163 HD
BRANCH   5   8
ATOM      8  C   UNL A   1      31.140  28.336  22.884  1.00  0.00     0.275 C 
BRANCH   8   9
ATOM      9  N   UNL A   1      32.335  29.216  22.921  1.00  0.00    -0.347 N 
ATOM     10  H   UNL A   1      33.049  28.847  22.293  1.00  0.00     0.345 HD
ATOM     11  H   UNL A   1      32.703  29.251  23.872  1.00  0.00     0.345 HD
ATOM     12  H   UNL A   1      32.074  30.157  22.623  1.00  0.00     0.345 HD
ENDBRANCH   8   9
BRANCH   8  13
ATOM     13  C   UNL A   1      29.875  28.996  23.488  1.00  0.00     0.111 C 
BRANCH  13  14
ATOM     14  C   UNL A   1      29.223  30.214  22.874  1.00  0.00    -0.036 A 
ATOM     15  C   UNL A   1      29.211  31.479  23.480  1.00  0.00     0.046 A 
ATOM     16  C   UNL A   1      28.572  30.069  21.631  1.00  0.00     0.046 A 
ATOM     17  C   UNL A   1      28.683  32.581  22.798  1.00  0.00     0.162 A 
ATOM     18  C   UNL A   1      28.034  31.176  20.974  1.00  0.00     0.162 A 
ATOM     19  F   UNL A   1      28.774  33.797  23.356  1.00  0.00    -0.204 F 
ATOM     20  C   UNL A   1      28.111  32.437  21.543  1.00  0.00     0.194 A 
ATOM     21  F   UNL A   1      27.486  31.013  19.762  1.00  0.00    -0.204 F 
ATOM     22  F   UNL A   1      27.659  33.508  20.875  1.00  0.00    -0.200 F 
ENDBRANCH  13  14
ENDBRANCH   8  13
ENDBRANCH   5   8
ENDBRANCH   3   4
ENDBRANCH   2   3
ENDBRANCH   1   2
BRANCH   1  23
ATOM     23  C   UNL A   1      31.879  30.536  26.155  1.00  0.00     0.002 C 
BRANCH  23  24
ATOM     24  C   UNL A   1      31.569  31.856  26.865  1.00  0.00     0.021 C 
BRANCH  24  25
ATOM     25  C   UNL A   1      32.794  32.650  27.309  1.00  0.00     0.116 C 
BRANCH  25  26
ATOM     26  N   UNL A   1      32.476  34.046  27.567  1.00  0.00    -0.352 N 
ATOM     27  C   UNL A   1      33.016  34.872  28.523  1.00  0.00     0.251 C 
ATOM     28  H   UNL A   1      31.793  34.449  26.984  1.00  0.00     0.163 HD
ATOM     29  O   UNL A   1      32.526  35.970  28.768  1.00  0.00    -0.269 OA
BRANCH  27  30
ATOM     30  C   UNL A   1      34.196  34.402  29.275  1.00  0.00     0.039 A 
ATOM     31  C   UNL A   1      34.015  33.723  30.481  1.00  0.00     0.014 A 
ATOM     32  C   UNL A   1      35.477  34.592  28.746  1.00  0.00     0.014 A 
ATOM     33  C   UNL A   1      35.123  33.177  31.133  1.00  0.00     0.010 A 
ATOM     34  C   UNL A   1      36.569  33.993  29.366  1.00  0.00     0.010 A 
ATOM     35  C   UNL A   1      36.404  33.283  30.566  1.00  0.00    -0.014 A 
BRANCH  35  36
ATOM     36  C   UNL A   1      37.594  32.681  31.216  1.00  0.00     0.031 A 
ATOM     37  C   UNL A   1      38.267  31.495  30.580  1.00  0.00     0.074 A 
ATOM     38  C   UNL A   1      38.020  33.141  32.410  1.00  0.00     0.049 A 
ATOM     39  N   UNL A   1      39.243  30.753  31.040  1.00  0.00    -0.248 NA
ATOM     40  C   UNL A   1      37.755  31.067  29.267  1.00  0.00     0.031 C 
ATOM     41  C   UNL A   1      37.437  34.264  33.148  1.00  0.00     0.029 A 
ATOM     42  N   UNL A   1      39.039  32.706  33.221  1.00  0.00    -0.354 N 
ATOM     43  C   UNL A   1      39.439  29.759  30.090  1.00  0.00     0.074 A 
ATOM     44  C   UNL A   1      38.459  29.967  29.047  1.00  0.00     0.031 C 
ATOM     45  C   UNL A   1      38.116  34.438  34.293  1.00  0.00     0.029 A 
ATOM     46  C   UNL A   1      39.154  33.417  34.392  1.00  0.00     0.049 A 
ATOM     47  H   UNL A   1      39.631  31.955  32.986  1.00  0.00     0.167 HD
ATOM     48  C   UNL A   1      40.362  28.770  30.079  1.00  0.00     0.031 A 
ATOM     49  C   UNL A   1      39.994  33.255  35.432  1.00  0.00     0.031 A 
ATOM     50  C   UNL A   1      41.359  28.583  31.098  1.00  0.00     0.049 A 
ATOM     51  C   UNL A   1      41.011  32.145  35.392  1.00  0.00     0.074 A 
ATOM     52  C   UNL A   1      42.383  27.653  31.138  1.00  0.00     0.029 A 
ATOM     53  N   UNL A   1      41.460  29.344  32.251  1.00  0.00    -0.354 N 
ATOM     54  N   UNL A   1      41.228  31.257  34.453  1.00  0.00    -0.248 NA
ATOM     55  C   UNL A   1      41.905  32.023  36.553  1.00  0.00     0.031 C 
ATOM     56  C   UNL A   1      43.076  27.821  32.339  1.00  0.00     0.029 A 
ATOM     57  C   UNL A   1      42.516  28.890  33.020  1.00  0.00     0.049 A 
ATOM     58  H   UNL A   1      40.868  30.095  32.487  1.00  0.00     0.167 HD
ATOM     59  C   UNL A   1      42.306  30.498  34.891  1.00  0.00     0.074 A 
ATOM     60  C   UNL A   1      42.703  31.035  36.175  1.00  0.00     0.031 C 
ATOM     61  C   UNL A   1      42.913  29.452  34.283  1.00  0.00     0.031 A 
BRANCH  48  62
ATOM     62  C   UNL A   1      40.340  27.804  28.928  1.00  0.00    -0.014 A 
ATOM     63  C   UNL A   1      41.064  28.056  27.753  1.00  0.00     0.009 A 
ATOM     64  C   UNL A   1      39.637  26.595  29.049  1.00  0.00     0.009 A 
ATOM     65  C   UNL A   1      41.063  27.127  26.711  1.00  0.00     0.001 A 
ATOM     66  C   UNL A   1      39.660  25.656  28.017  1.00  0.00     0.001 A 
ATOM     67  C   UNL A   1      40.367  25.926  26.846  1.00  0.00     0.000 A 
ENDBRANCH  48  62
BRANCH  49  68
ATOM     68  C   UNL A   1      39.924  34.161  36.610  1.00  0.00    -0.014 A 
ATOM     69  C   UNL A   1      39.033  33.895  37.661  1.00  0.00     0.009 A 
ATOM     70  C   UNL A   1      40.714  35.320  36.669  1.00  0.00     0.009 A 
ATOM     71  C   UNL A   1      38.905  34.790  38.726  1.00  0.00     0.001 A 
ATOM     72  C   UNL A   1      40.605  36.198  37.750  1.00  0.00     0.001 A 
ATOM     73  C   UNL A   1      39.691  35.939  38.771  1.00  0.00     0.000 A 
ENDBRANCH  49  68
BRANCH  61  74
ATOM     74  C   UNL A   1      44.109  28.852  34.966  1.00  0.00    -0.014 A 
ATOM     75  C   UNL A   1      45.401  29.353  34.751  1.00  0.00     0.009 A 
ATOM     76  C   UNL A   1      43.925  27.809  35.887  1.00  0.00     0.009 A 
ATOM     77  C   UNL A   1      46.491  28.801  35.427  1.00  0.00     0.001 A 
ATOM     78  C   UNL A   1      45.012  27.279  36.583  1.00  0.00     0.001 A 
ATOM     79  C   UNL A   1      46.295  27.770  36.346  1.00  0.00     0.000 A 
ENDBRANCH  61  74
ENDBRANCH  35  36
ENDBRANCH  27  30
ENDBRANCH  25  26
ENDBRANCH  24  25
ENDBRANCH  23  24
ENDBRANCH   1  23
TORSDOF 16
ENDMDL
MODEL 3
REMARK VINA RESULT:      -8.2      6.827     12.422
REMARK SMILES [NH3+][C@H](Cc1cc(F)c(F)c(F)c1)C(=O)NCCCCCCNC(=O)c1ccc(-c2c3nc(c(-c4ccccc4)c4ccc([nH]4)c(-c4ccccc4)c4nc(c(-c5ccccc5)c5ccc2[nH]5)C=C4)C=C3)cc1
REMARK SMILES IDX 18 1 17 2 16 3 15 4 13 5 14 6 2 8 1 9 3 13 4 14 5 15 12 16
REMARK SMILES IDX 6 17 10 18 7 19 8 20 11 21 9 22 19 23 20 24 21 25 22 26
REMARK SMILES IDX 23 27 24 29 25 30 26 31 72 32 27 33 71 34 28 35 29 36 30 37
REMARK SMILES IDX 65 38 31 39 70 40 64 41 66 42 32 43 69 44 63 45 62 46 33 48
REMARK SMILES IDX 55 49 40 50 54 51 41 52 44 53 53 54 67 55 42 56 43 57 52 59
REMARK SMILES IDX 68 60 45 61 34 62 35 63 39 64 36 65 38 66 37 67 56 68 57 69
REMARK SMILES IDX 61 70 58 71 60 72 59 73 46 74 47 75 51 76 48 77 50 78 49 79
REMARK H PARENT 15 7 1 10 1 11 1 12 22 28 66 47 44 58
REMARK Flexibility Score: inf
ROOT
ATOM      1  C   UNL A   1      36.991  22.289  25.594  1.00  0.00     0.002 C 
ENDROOT
BRANCH   1   2
ATOM      2  C   UNL A   1      35.572  22.719  25.977  1.00  0.00     0.021 C 
BRANCH   2   3
ATOM      3  C   UNL A   1      35.058  23.996  25.316  1.00  0.00     0.116 C 
BRANCH   3   4
ATOM      4  N   UNL A   1      34.779  23.816  23.906  1.00  0.00    -0.351 N 
ATOM      5  C   UNL A   1      33.752  23.241  23.227  1.00  0.00     0.278 C 
ATOM      6  O   UNL A   1      33.879  23.167  21.999  1.00  0.00    -0.268 OA
ATOM      7  H   UNL A   1      35.477  24.187  23.319  1.00  0.00     0.163 HD
BRANCH   5   8
ATOM      8  C   UNL A   1      32.485  22.684  23.905  1.00  0.00     0.275 C 
BRANCH   8   9
ATOM      9  N   UNL A   1      31.709  23.786  24.528  1.00  0.00    -0.347 N 
ATOM     10  H   UNL A   1      31.225  23.436  25.355  1.00  0.00     0.345 HD
ATOM     11  H   UNL A   1      31.026  24.141  23.859  1.00  0.00     0.345 HD
ATOM     12  H   UNL A   1      32.344  24.538  24.798  1.00  0.00     0.345 HD
ENDBRANCH   8   9
BRANCH   8  13
ATOM     13  C   UNL A   1      32.586  21.423  24.800  1.00  0.00     0.111 C 
BRANCH  13  14
ATOM     14  C   UNL A   1      32.895  20.053  24.241  1.00  0.00    -0.036 A 
ATOM     15  C   UNL A   1      32.152  19.443  23.220  1.00  0.00     0.046 A 
ATOM     16  C   UNL A   1      33.980  19.336  24.789  1.00  0.00     0.046 A 
ATOM     17  C   UNL A   1      32.567  18.220  22.681  1.00  0.00     0.162 A 
ATOM     18  C   UNL A   1      34.368  18.109  24.251  1.00  0.00     0.162 A 
ATOM     19  F   UNL A   1      31.898  17.706  21.639  1.00  0.00    -0.204 F 
ATOM     20  C   UNL A   1      33.680  17.561  23.182  1.00  0.00     0.194 A 
ATOM     21  F   UNL A   1      35.447  17.490  24.751  1.00  0.00    -0.204 F 
ATOM     22  F   UNL A   1      34.102  16.418  22.621  1.00  0.00    -0.200 F 
ENDBRANCH  13  14
ENDBRANCH   8  13
ENDBRANCH   5   8
ENDBRANCH   3   4
ENDBRANCH   2   3
ENDBRANCH   1   2
BRANCH   1  23
ATOM     23  C   UNL A   1      37.060  21.152  24.574  1.00  0.00     0.002 C 
BRANCH  23  24
ATOM     24  C   UNL A   1      37.909  19.954  25.002  1.00  0.00     0.021 C 
BRANCH  24  25
ATOM     25  C   UNL A   1      39.185  20.308  25.760  1.00  0.00     0.116 C 
BRANCH  25  26
ATOM     26  N   UNL A   1      40.107  19.185  25.836  1.00  0.00    -0.352 N 
ATOM     27  C   UNL A   1      41.468  19.221  26.019  1.00  0.00     0.251 C 
ATOM     28  H   UNL A   1      39.706  18.291  25.747  1.00  0.00     0.163 HD
ATOM     29  O   UNL A   1      42.158  18.218  25.869  1.00  0.00    -0.269 OA
BRANCH  27  30
ATOM     30  C   UNL A   1      42.097  20.506  26.382  1.00  0.00     0.039 A 
ATOM     31  C   UNL A   1      42.546  21.359  25.372  1.00  0.00     0.014 A 
ATOM     32  C   UNL A   1      42.184  20.880  27.726  1.00  0.00     0.014 A 
ATOM     33  C   UNL A   1      43.034  22.623  25.710  1.00  0.00     0.010 A 
ATOM     34  C   UNL A   1      42.611  22.163  28.053  1.00  0.00     0.010 A 
ATOM     35  C   UNL A   1      43.043  23.046  27.050  1.00  0.00    -0.014 A 
BRANCH  35  36
ATOM     36  C   UNL A   1      43.520  24.397  27.436  1.00  0.00     0.031 A 
ATOM     37  C   UNL A   1      42.525  25.440  27.867  1.00  0.00     0.074 A 
ATOM     38  C   UNL A   1      44.826  24.713  27.321  1.00  0.00     0.049 A 
ATOM     39  N   UNL A   1      42.719  26.707  28.133  1.00  0.00    -0.248 NA
ATOM     40  C   UNL A   1      41.122  25.009  27.986  1.00  0.00     0.031 C 
ATOM     41  C   UNL A   1      45.888  23.804  26.885  1.00  0.00     0.029 A 
ATOM     42  N   UNL A   1      45.479  25.900  27.549  1.00  0.00    -0.354 N 
ATOM     43  C   UNL A   1      41.463  27.227  28.419  1.00  0.00     0.074 A 
ATOM     44  C   UNL A   1      40.510  26.152  28.260  1.00  0.00     0.031 C 
ATOM     45  C   UNL A   1      47.059  24.461  26.893  1.00  0.00     0.029 A 
ATOM     46  C   UNL A   1      46.828  25.844  27.293  1.00  0.00     0.049 A 
ATOM     47  H   UNL A   1      45.024  26.713  27.867  1.00  0.00     0.167 HD
ATOM     48  C   UNL A   1      41.134  28.484  28.797  1.00  0.00     0.031 A 
ATOM     49  C   UNL A   1      47.769  26.806  27.361  1.00  0.00     0.031 A 
ATOM     50  C   UNL A   1      42.085  29.545  28.990  1.00  0.00     0.049 A 
ATOM     51  C   UNL A   1      47.373  28.196  27.784  1.00  0.00     0.074 A 
ATOM     52  C   UNL A   1      41.855  30.833  29.441  1.00  0.00     0.029 A 
ATOM     53  N   UNL A   1      43.444  29.438  28.749  1.00  0.00    -0.354 N 
ATOM     54  N   UNL A   1      46.192  28.652  28.119  1.00  0.00    -0.248 NA
ATOM     55  C   UNL A   1      48.445  29.200  27.846  1.00  0.00     0.031 C 
ATOM     56  C   UNL A   1      43.071  31.522  29.429  1.00  0.00     0.029 A 
ATOM     57  C   UNL A   1      44.063  30.645  29.022  1.00  0.00     0.049 A 
ATOM     58  H   UNL A   1      43.901  28.626  28.432  1.00  0.00     0.167 HD
ATOM     59  C   UNL A   1      46.384  29.982  28.470  1.00  0.00     0.074 A 
ATOM     60  C   UNL A   1      47.797  30.257  28.315  1.00  0.00     0.031 C 
ATOM     61  C   UNL A   1      45.474  30.894  28.885  1.00  0.00     0.031 A 
BRANCH  48  62
ATOM     62  C   UNL A   1      39.681  28.789  29.026  1.00  0.00    -0.014 A 
ATOM     63  C   UNL A   1      39.092  28.621  30.289  1.00  0.00     0.009 A 
ATOM     64  C   UNL A   1      38.907  29.313  27.979  1.00  0.00     0.009 A 
ATOM     65  C   UNL A   1      37.750  28.949  30.491  1.00  0.00     0.001 A 
ATOM     66  C   UNL A   1      37.573  29.664  28.190  1.00  0.00     0.001 A 
ATOM     67  C   UNL A   1      36.994  29.475  29.445  1.00  0.00     0.000 A 
ENDBRANCH  48  62
BRANCH  49  68
ATOM     68  C   UNL A   1      49.186  26.503  27.025  1.00  0.00    -0.014 A 
ATOM     69  C   UNL A   1      49.651  26.641  25.707  1.00  0.00     0.009 A 
ATOM     70  C   UNL A   1      50.070  26.031  28.008  1.00  0.00     0.009 A 
ATOM     71  C   UNL A   1      50.957  26.275  25.374  1.00  0.00     0.001 A 
ATOM     72  C   UNL A   1      51.384  25.695  27.678  1.00  0.00     0.001 A 
ATOM     73  C   UNL A   1      51.823  25.804  26.358  1.00  0.00     0.000 A 
ENDBRANCH  49  68
BRANCH  61  74
ATOM     74  C   UNL A   1      45.979  32.258  29.259  1.00  0.00    -0.014 A 
ATOM     75  C   UNL A   1      45.950  33.324  28.348  1.00  0.00     0.009 A 
ATOM     76  C   UNL A   1      46.433  32.489  30.568  1.00  0.00     0.009 A 
ATOM     77  C   UNL A   1      46.392  34.590  28.734  1.00  0.00     0.001 A 
ATOM     78  C   UNL A   1      46.847  33.763  30.958  1.00  0.00     0.001 A 
ATOM     79  C   UNL A   1      46.833  34.811  30.038  1.00  0.00     0.000 A 
ENDBRANCH  61  74
ENDBRANCH  35  36
ENDBRANCH  27  30
ENDBRANCH  25  26
ENDBRANCH  24  25
ENDBRANCH  23  24
ENDBRANCH   1  23
TORSDOF 16
ENDMDL
