MODEL 1
REMARK VINA RESULT:     -10.9      0.000      0.000
REMARK SMILES CSc1ncc(Cl)c(C(=O)Nc2ccsc2C(=O)NCCCCCCNC(=O)c2ccc(-c3c4nc(c(-c5ccccc5)c5ccc([nH]5)c(-c5ccccc5)c5nc(c(-c6ccccc6)c6ccc3[nH]6)C=C5)C=C4)cc2)n1
REMARK SMILES IDX 22 1 21 2 20 3 19 4 17 5 18 6 16 8 12 9 13 10 14 11 15 12
REMARK SMILES IDX 11 13 9 14 10 15 8 17 3 18 4 19 77 20 5 21 6 22 7 23 2 24
REMARK SMILES IDX 1 25 23 26 24 27 25 28 26 29 27 30 28 32 29 33 30 34 76 35
REMARK SMILES IDX 31 36 75 37 32 38 33 39 34 40 69 41 35 42 74 43 68 44 70 45
REMARK SMILES IDX 36 46 73 47 67 48 66 49 37 51 59 52 44 53 58 54 45 55 48 56
REMARK SMILES IDX 57 57 71 58 46 59 47 60 56 62 72 63 49 64 38 65 39 66 43 67
REMARK SMILES IDX 40 68 42 69 41 70 60 71 61 72 65 73 62 74 64 75 63 76 50 77
REMARK SMILES IDX 51 78 55 79 52 80 54 81 53 82
REMARK H PARENT 19 7 11 16 26 31 70 50 48 61
REMARK Flexibility Score: inf
ROOT
ATOM      1  C   UNL A   1      32.347  29.615  27.250  1.00  0.00     0.002 C 
ENDROOT
BRANCH   1   2
ATOM      2  C   UNL A   1      31.764  28.203  27.291  1.00  0.00     0.021 C 
BRANCH   2   3
ATOM      3  C   UNL A   1      31.840  27.381  26.010  1.00  0.00     0.116 C 
BRANCH   3   4
ATOM      4  N   UNL A   1      30.722  27.476  25.107  1.00  0.00    -0.351 N 
ATOM      5  C   UNL A   1      30.328  26.699  24.032  1.00  0.00     0.263 C 
ATOM      6  O   UNL A   1      29.257  27.071  23.535  1.00  0.00    -0.268 OA
ATOM      7  H   UNL A   1      30.126  28.238  25.289  1.00  0.00     0.163 HD
BRANCH   5   8
ATOM      8  C   UNL A   1      31.101  25.572  23.476  1.00  0.00     0.115 A 
ATOM      9  C   UNL A   1      31.285  24.224  23.786  1.00  0.00     0.065 A 
ATOM     10  C   UNL A   1      32.261  23.582  22.959  1.00  0.00     0.038 A 
ATOM     11  C   UNL A   1      32.798  24.431  22.026  1.00  0.00     0.068 A 
ATOM     12  S   UNL A   1      32.131  25.991  22.132  1.00  0.00    -0.137 S 
BRANCH   9  13
ATOM     13  N   UNL A   1      30.583  23.555  24.762  1.00  0.00    -0.319 N 
ATOM     14  C   UNL A   1      30.921  22.429  25.486  1.00  0.00     0.276 C 
ATOM     15  O   UNL A   1      30.119  22.078  26.359  1.00  0.00    -0.267 OA
ATOM     16  H   UNL A   1      29.701  23.939  24.977  1.00  0.00     0.170 HD
BRANCH  14  17
ATOM     17  C   UNL A   1      32.209  21.666  25.348  1.00  0.00     0.151 A 
ATOM     18  C   UNL A   1      33.056  19.629  24.654  1.00  0.00     0.188 A 
ATOM     19  N   UNL A   1      34.306  19.960  24.997  1.00  0.00    -0.230 NA
ATOM     20  N   UNL A   1      32.011  20.458  24.750  1.00  0.00    -0.216 NA
ATOM     21  C   UNL A   1      34.466  21.149  25.603  1.00  0.00     0.137 A 
ATOM     22  C   UNL A   1      33.436  22.023  25.879  1.00  0.00     0.090 A 
ATOM     23  Cl  UNL A   1      33.794  23.295  26.972  1.00  0.00    -0.080 Cl
BRANCH  18  24
ATOM     24  S   UNL A   1      32.724  17.950  24.194  1.00  0.00    -0.090 SA
ATOM     25  C   UNL A   1      34.381  17.240  24.396  1.00  0.00     0.094 C 
ENDBRANCH  18  24
ENDBRANCH  14  17
ENDBRANCH   9  13
ENDBRANCH   5   8
ENDBRANCH   3   4
ENDBRANCH   2   3
ENDBRANCH   1   2
BRANCH   1  26
ATOM     26  C   UNL A   1      31.668  30.640  26.339  1.00  0.00     0.002 C 
BRANCH  26  27
ATOM     27  C   UNL A   1      31.443  32.050  26.887  1.00  0.00     0.021 C 
BRANCH  27  28
ATOM     28  C   UNL A   1      32.640  32.995  26.891  1.00  0.00     0.116 C 
BRANCH  28  29
ATOM     29  N   UNL A   1      32.445  34.170  27.721  1.00  0.00    -0.352 N 
ATOM     30  C   UNL A   1      33.155  34.624  28.801  1.00  0.00     0.251 C 
ATOM     31  H   UNL A   1      31.679  34.733  27.465  1.00  0.00     0.163 HD
ATOM     32  O   UNL A   1      32.746  35.618  29.408  1.00  0.00    -0.269 OA
BRANCH  30  33
ATOM     33  C   UNL A   1      34.383  33.943  29.277  1.00  0.00     0.039 A 
ATOM     34  C   UNL A   1      34.240  32.889  30.187  1.00  0.00     0.014 A 
ATOM     35  C   UNL A   1      35.665  34.354  28.901  1.00  0.00     0.014 A 
ATOM     36  C   UNL A   1      35.368  32.231  30.688  1.00  0.00     0.010 A 
ATOM     37  C   UNL A   1      36.789  33.652  29.347  1.00  0.00     0.010 A 
ATOM     38  C   UNL A   1      36.654  32.595  30.260  1.00  0.00    -0.014 A 
BRANCH  38  39
ATOM     39  C   UNL A   1      37.854  31.897  30.792  1.00  0.00     0.031 A 
ATOM     40  C   UNL A   1      38.385  32.231  32.161  1.00  0.00     0.074 A 
ATOM     41  C   UNL A   1      38.477  30.965  30.043  1.00  0.00     0.049 A 
ATOM     42  N   UNL A   1      39.405  31.715  32.801  1.00  0.00    -0.248 NA
ATOM     43  C   UNL A   1      37.689  33.294  32.903  1.00  0.00     0.031 C 
ATOM     44  C   UNL A   1      38.086  30.565  28.690  1.00  0.00     0.029 A 
ATOM     45  N   UNL A   1      39.567  30.179  30.321  1.00  0.00    -0.354 N 
ATOM     46  C   UNL A   1      39.476  32.393  34.012  1.00  0.00     0.074 A 
ATOM     47  C   UNL A   1      38.430  33.394  33.997  1.00  0.00     0.031 C 
ATOM     48  C   UNL A   1      38.902  29.583  28.271  1.00  0.00     0.029 A 
ATOM     49  C   UNL A   1      39.889  29.306  29.311  1.00  0.00     0.049 A 
ATOM     50  H   UNL A   1      40.071  30.236  31.165  1.00  0.00     0.167 HD
ATOM     51  C   UNL A   1      40.315  32.189  35.055  1.00  0.00     0.031 A 
ATOM     52  C   UNL A   1      40.864  28.382  29.231  1.00  0.00     0.031 A 
ATOM     53  C   UNL A   1      41.352  31.192  35.083  1.00  0.00     0.049 A 
ATOM     54  C   UNL A   1      41.797  28.189  30.396  1.00  0.00     0.074 A 
ATOM     55  C   UNL A   1      42.228  30.886  36.110  1.00  0.00     0.029 A 
ATOM     56  N   UNL A   1      41.652  30.340  34.033  1.00  0.00    -0.354 N 
ATOM     57  N   UNL A   1      41.809  28.798  31.556  1.00  0.00    -0.248 NA
ATOM     58  C   UNL A   1      42.844  27.169  30.239  1.00  0.00     0.031 C 
ATOM     59  C   UNL A   1      43.085  29.872  35.666  1.00  0.00     0.029 A 
ATOM     60  C   UNL A   1      42.711  29.518  34.380  1.00  0.00     0.049 A 
ATOM     61  H   UNL A   1      41.182  30.320  33.169  1.00  0.00     0.167 HD
ATOM     62  C   UNL A   1      42.844  28.218  32.277  1.00  0.00     0.074 A 
ATOM     63  C   UNL A   1      43.424  27.195  31.430  1.00  0.00     0.031 C 
ATOM     64  C   UNL A   1      43.276  28.505  33.529  1.00  0.00     0.031 A 
BRANCH  51  65
ATOM     65  C   UNL A   1      40.140  33.067  36.263  1.00  0.00    -0.014 A 
ATOM     66  C   UNL A   1      39.272  32.698  37.305  1.00  0.00     0.009 A 
ATOM     67  C   UNL A   1      40.871  34.260  36.378  1.00  0.00     0.009 A 
ATOM     68  C   UNL A   1      39.115  33.524  38.421  1.00  0.00     0.001 A 
ATOM     69  C   UNL A   1      40.732  35.069  37.508  1.00  0.00     0.001 A 
ATOM     70  C   UNL A   1      39.847  34.705  38.523  1.00  0.00     0.000 A 
ENDBRANCH  51  65
BRANCH  52  71
ATOM     71  C   UNL A   1      41.001  27.538  28.015  1.00  0.00    -0.014 A 
ATOM     72  C   UNL A   1      41.787  27.970  26.936  1.00  0.00     0.009 A 
ATOM     73  C   UNL A   1      40.325  26.313  27.915  1.00  0.00     0.009 A 
ATOM     74  C   UNL A   1      41.869  27.207  25.770  1.00  0.00     0.001 A 
ATOM     75  C   UNL A   1      40.431  25.539  26.757  1.00  0.00     0.001 A 
ATOM     76  C   UNL A   1      41.194  25.992  25.682  1.00  0.00     0.000 A 
ENDBRANCH  52  71
BRANCH  64  77
ATOM     77  C   UNL A   1      44.412  27.680  34.066  1.00  0.00    -0.014 A 
ATOM     78  C   UNL A   1      45.746  28.080  33.897  1.00  0.00     0.009 A 
ATOM     79  C   UNL A   1      44.138  26.497  34.771  1.00  0.00     0.009 A 
ATOM     80  C   UNL A   1      46.787  27.292  34.393  1.00  0.00     0.001 A 
ATOM     81  C   UNL A   1      45.180  25.726  35.290  1.00  0.00     0.001 A 
ATOM     82  C   UNL A   1      46.502  26.118  35.090  1.00  0.00     0.000 A 
ENDBRANCH  64  77
ENDBRANCH  38  39
ENDBRANCH  30  33
ENDBRANCH  28  29
ENDBRANCH  27  28
ENDBRANCH  26  27
ENDBRANCH   1  26
TORSDOF 16
ENDMDL
MODEL 2
REMARK VINA RESULT:     -10.8      2.016      2.562
REMARK SMILES CSc1ncc(Cl)c(C(=O)Nc2ccsc2C(=O)NCCCCCCNC(=O)c2ccc(-c3c4nc(c(-c5ccccc5)c5ccc([nH]5)c(-c5ccccc5)c5nc(c(-c6ccccc6)c6ccc3[nH]6)C=C5)C=C4)cc2)n1
REMARK SMILES IDX 22 1 21 2 20 3 19 4 17 5 18 6 16 8 12 9 13 10 14 11 15 12
REMARK SMILES IDX 11 13 9 14 10 15 8 17 3 18 4 19 77 20 5 21 6 22 7 23 2 24
REMARK SMILES IDX 1 25 23 26 24 27 25 28 26 29 27 30 28 32 29 33 30 34 76 35
REMARK SMILES IDX 31 36 75 37 32 38 33 39 34 40 69 41 35 42 74 43 68 44 70 45
REMARK SMILES IDX 36 46 73 47 67 48 66 49 37 51 59 52 44 53 58 54 45 55 48 56
REMARK SMILES IDX 57 57 71 58 46 59 47 60 56 62 72 63 49 64 38 65 39 66 43 67
REMARK SMILES IDX 40 68 42 69 41 70 60 71 61 72 65 73 62 74 64 75 63 76 50 77
REMARK SMILES IDX 51 78 55 79 52 80 54 81 53 82
REMARK H PARENT 19 7 11 16 26 31 70 50 48 61
REMARK Flexibility Score: inf
ROOT
ATOM      1  C   UNL A   1      34.886  30.359  27.576  1.00  0.00     0.002 C 
ENDROOT
BRANCH   1   2
ATOM      2  C   UNL A   1      33.582  29.803  27.006  1.00  0.00     0.021 C 
BRANCH   2   3
ATOM      3  C   UNL A   1      33.338  28.307  27.155  1.00  0.00     0.116 C 
BRANCH   3   4
ATOM      4  N   UNL A   1      33.879  27.452  26.129  1.00  0.00    -0.351 N 
ATOM      5  C   UNL A   1      33.310  26.866  25.013  1.00  0.00     0.263 C 
ATOM      6  O   UNL A   1      34.127  26.240  24.327  1.00  0.00    -0.268 OA
ATOM      7  H   UNL A   1      34.834  27.246  26.245  1.00  0.00     0.163 HD
BRANCH   5   8
ATOM      8  C   UNL A   1      31.875  26.918  24.671  1.00  0.00     0.115 A 
ATOM      9  C   UNL A   1      30.711  26.285  25.106  1.00  0.00     0.065 A 
ATOM     10  C   UNL A   1      29.555  26.636  24.337  1.00  0.00     0.038 A 
ATOM     11  C   UNL A   1      29.841  27.537  23.343  1.00  0.00     0.068 A 
ATOM     12  S   UNL A   1      31.486  27.967  23.333  1.00  0.00    -0.137 S 
BRANCH   9  13
ATOM     13  N   UNL A   1      30.653  25.431  26.184  1.00  0.00    -0.319 N 
ATOM     14  C   UNL A   1      31.253  24.203  26.378  1.00  0.00     0.276 C 
ATOM     15  O   UNL A   1      31.081  23.679  27.484  1.00  0.00    -0.267 OA
ATOM     16  H   UNL A   1      30.097  25.746  26.933  1.00  0.00     0.170 HD
BRANCH  14  17
ATOM     17  C   UNL A   1      32.151  23.513  25.389  1.00  0.00     0.151 A 
ATOM     18  C   UNL A   1      34.351  22.879  25.058  1.00  0.00     0.188 A 
ATOM     19  N   UNL A   1      34.090  22.380  23.844  1.00  0.00    -0.230 NA
ATOM     20  N   UNL A   1      33.419  23.384  25.873  1.00  0.00    -0.216 NA
ATOM     21  C   UNL A   1      32.836  22.541  23.387  1.00  0.00     0.137 A 
ATOM     22  C   UNL A   1      31.831  23.174  24.086  1.00  0.00     0.090 A 
ATOM     23  Cl  UNL A   1      30.433  23.596  23.189  1.00  0.00    -0.080 Cl
BRANCH  18  24
ATOM     24  S   UNL A   1      36.042  23.029  25.564  1.00  0.00    -0.090 SA
ATOM     25  C   UNL A   1      36.859  22.919  23.948  1.00  0.00     0.094 C 
ENDBRANCH  18  24
ENDBRANCH  14  17
ENDBRANCH   9  13
ENDBRANCH   5   8
ENDBRANCH   3   4
ENDBRANCH   2   3
ENDBRANCH   1   2
BRANCH   1  26
ATOM     26  C   UNL A   1      34.924  31.841  27.955  1.00  0.00     0.002 C 
BRANCH  26  27
ATOM     27  C   UNL A   1      33.592  32.585  28.078  1.00  0.00     0.021 C 
BRANCH  27  28
ATOM     28  C   UNL A   1      33.652  34.102  28.222  1.00  0.00     0.116 C 
BRANCH  28  29
ATOM     29  N   UNL A   1      33.237  34.575  29.530  1.00  0.00    -0.352 N 
ATOM     30  C   UNL A   1      33.800  34.386  30.765  1.00  0.00     0.251 C 
ATOM     31  H   UNL A   1      32.417  35.121  29.529  1.00  0.00     0.163 HD
ATOM     32  O   UNL A   1      33.213  34.821  31.760  1.00  0.00    -0.269 OA
BRANCH  30  33
ATOM     33  C   UNL A   1      35.077  33.654  30.943  1.00  0.00     0.039 A 
ATOM     34  C   UNL A   1      35.053  32.455  31.665  1.00  0.00     0.014 A 
ATOM     35  C   UNL A   1      36.298  34.147  30.474  1.00  0.00     0.014 A 
ATOM     36  C   UNL A   1      36.234  31.740  31.886  1.00  0.00     0.010 A 
ATOM     37  C   UNL A   1      37.468  33.398  30.634  1.00  0.00     0.010 A 
ATOM     38  C   UNL A   1      37.451  32.195  31.357  1.00  0.00    -0.014 A 
BRANCH  38  39
ATOM     39  C   UNL A   1      38.708  31.437  31.591  1.00  0.00     0.031 A 
ATOM     40  C   UNL A   1      39.588  31.764  32.769  1.00  0.00     0.074 A 
ATOM     41  C   UNL A   1      39.070  30.455  30.741  1.00  0.00     0.049 A 
ATOM     42  N   UNL A   1      40.708  31.199  33.147  1.00  0.00    -0.248 NA
ATOM     43  C   UNL A   1      39.162  32.881  33.627  1.00  0.00     0.031 C 
ATOM     44  C   UNL A   1      38.326  30.054  29.545  1.00  0.00     0.029 A 
ATOM     45  N   UNL A   1      40.151  29.610  30.760  1.00  0.00    -0.354 N 
ATOM     46  C   UNL A   1      41.121  31.895  34.277  1.00  0.00     0.074 A 
ATOM     47  C   UNL A   1      40.162  32.956  34.493  1.00  0.00     0.031 C 
ATOM     48  C   UNL A   1      38.955  29.016  28.966  1.00  0.00     0.029 A 
ATOM     49  C   UNL A   1      40.158  28.701  29.731  1.00  0.00     0.049 A 
ATOM     50  H   UNL A   1      40.856  29.652  31.446  1.00  0.00     0.167 HD
ATOM     51  C   UNL A   1      42.187  31.660  35.079  1.00  0.00     0.031 A 
ATOM     52  C   UNL A   1      41.029  27.717  29.438  1.00  0.00     0.031 A 
ATOM     53  C   UNL A   1      43.142  30.603  34.877  1.00  0.00     0.049 A 
ATOM     54  C   UNL A   1      42.216  27.491  30.334  1.00  0.00     0.074 A 
ATOM     55  C   UNL A   1      44.233  30.264  35.659  1.00  0.00     0.029 A 
ATOM     56  N   UNL A   1      43.118  29.715  33.814  1.00  0.00    -0.354 N 
ATOM     57  N   UNL A   1      42.556  28.120  31.432  1.00  0.00    -0.248 NA
ATOM     58  C   UNL A   1      43.133  26.407  29.952  1.00  0.00     0.031 C 
ATOM     59  C   UNL A   1      44.893  29.192  35.046  1.00  0.00     0.029 A 
ATOM     60  C   UNL A   1      44.185  28.837  33.910  1.00  0.00     0.049 A 
ATOM     61  H   UNL A   1      42.443  29.707  33.099  1.00  0.00     0.167 HD
ATOM     62  C   UNL A   1      43.708  27.492  31.887  1.00  0.00     0.074 A 
ATOM     63  C   UNL A   1      43.997  26.421  30.956  1.00  0.00     0.031 C 
ATOM     64  C   UNL A   1      44.460  27.776  32.977  1.00  0.00     0.031 A 
BRANCH  51  65
ATOM     65  C   UNL A   1      42.372  32.570  36.262  1.00  0.00    -0.014 A 
ATOM     66  C   UNL A   1      43.147  33.739  36.161  1.00  0.00     0.009 A 
ATOM     67  C   UNL A   1      41.743  32.276  37.482  1.00  0.00     0.009 A 
ATOM     68  C   UNL A   1      43.315  34.574  37.268  1.00  0.00     0.001 A 
ATOM     69  C   UNL A   1      41.891  33.128  38.578  1.00  0.00     0.001 A 
ATOM     70  C   UNL A   1      42.684  34.271  38.473  1.00  0.00     0.000 A 
ENDBRANCH  51  65
BRANCH  52  71
ATOM     71  C   UNL A   1      40.806  26.844  28.256  1.00  0.00    -0.014 A 
ATOM     72  C   UNL A   1      41.399  27.154  27.022  1.00  0.00     0.009 A 
ATOM     73  C   UNL A   1      39.979  25.714  28.347  1.00  0.00     0.009 A 
ATOM     74  C   UNL A   1      41.142  26.369  25.896  1.00  0.00     0.001 A 
ATOM     75  C   UNL A   1      39.747  24.915  27.226  1.00  0.00     0.001 A 
ATOM     76  C   UNL A   1      40.320  25.249  25.999  1.00  0.00     0.000 A 
ENDBRANCH  52  71
BRANCH  64  77
ATOM     77  C   UNL A   1      45.649  26.895  33.237  1.00  0.00    -0.014 A 
ATOM     78  C   UNL A   1      45.532  25.719  33.995  1.00  0.00     0.009 A 
ATOM     79  C   UNL A   1      46.898  27.236  32.696  1.00  0.00     0.009 A 
ATOM     80  C   UNL A   1      46.652  24.921  34.236  1.00  0.00     0.001 A 
ATOM     81  C   UNL A   1      48.011  26.421  32.915  1.00  0.00     0.001 A 
ATOM     82  C   UNL A   1      47.888  25.271  33.694  1.00  0.00     0.000 A 
ENDBRANCH  64  77
ENDBRANCH  38  39
ENDBRANCH  30  33
ENDBRANCH  28  29
ENDBRANCH  27  28
ENDBRANCH  26  27
ENDBRANCH   1  26
TORSDOF 16
ENDMDL
MODEL 3
REMARK VINA RESULT:     -10.8      2.080      2.558
REMARK SMILES CSc1ncc(Cl)c(C(=O)Nc2ccsc2C(=O)NCCCCCCNC(=O)c2ccc(-c3c4nc(c(-c5ccccc5)c5ccc([nH]5)c(-c5ccccc5)c5nc(c(-c6ccccc6)c6ccc3[nH]6)C=C5)C=C4)cc2)n1
REMARK SMILES IDX 22 1 21 2 20 3 19 4 17 5 18 6 16 8 12 9 13 10 14 11 15 12
REMARK SMILES IDX 11 13 9 14 10 15 8 17 3 18 4 19 77 20 5 21 6 22 7 23 2 24
REMARK SMILES IDX 1 25 23 26 24 27 25 28 26 29 27 30 28 32 29 33 30 34 76 35
REMARK SMILES IDX 31 36 75 37 32 38 33 39 34 40 69 41 35 42 74 43 68 44 70 45
REMARK SMILES IDX 36 46 73 47 67 48 66 49 37 51 59 52 44 53 58 54 45 55 48 56
REMARK SMILES IDX 57 57 71 58 46 59 47 60 56 62 72 63 49 64 38 65 39 66 43 67
REMARK SMILES IDX 40 68 42 69 41 70 60 71 61 72 65 73 62 74 64 75 63 76 50 77
REMARK SMILES IDX 51 78 55 79 52 80 54 81 53 82
REMARK H PARENT 19 7 11 16 26 31 70 50 48 61
REMARK Flexibility Score: inf
ROOT
ATOM      1  C   UNL A   1      32.984  28.891  26.223  1.00  0.00     0.002 C 
ENDROOT
BRANCH   1   2
ATOM      2  C   UNL A   1      32.621  27.439  25.914  1.00  0.00     0.021 C 
BRANCH   2   3
ATOM      3  C   UNL A   1      33.772  26.466  25.690  1.00  0.00     0.116 C 
BRANCH   3   4
ATOM      4  N   UNL A   1      33.983  26.004  24.342  1.00  0.00    -0.351 N 
ATOM      5  C   UNL A   1      34.388  24.783  23.832  1.00  0.00     0.263 C 
ATOM      6  O   UNL A   1      34.390  24.754  22.595  1.00  0.00    -0.268 OA
ATOM      7  H   UNL A   1      33.806  26.685  23.655  1.00  0.00     0.163 HD
BRANCH   5   8
ATOM      8  C   UNL A   1      34.826  23.632  24.644  1.00  0.00     0.115 A 
ATOM      9  C   UNL A   1      34.247  22.785  25.590  1.00  0.00     0.065 A 
ATOM     10  C   UNL A   1      35.178  21.866  26.170  1.00  0.00     0.038 A 
ATOM     11  C   UNL A   1      36.443  22.006  25.658  1.00  0.00     0.068 A 
ATOM     12  S   UNL A   1      36.515  23.228  24.479  1.00  0.00    -0.137 S 
BRANCH   9  13
ATOM     13  N   UNL A   1      32.911  22.796  25.920  1.00  0.00    -0.319 N 
ATOM     14  C   UNL A   1      31.891  21.956  25.522  1.00  0.00     0.276 C 
ATOM     15  O   UNL A   1      30.783  22.160  26.033  1.00  0.00    -0.267 OA
ATOM     16  H   UNL A   1      32.642  23.517  26.536  1.00  0.00     0.170 HD
BRANCH  14  17
ATOM     17  C   UNL A   1      32.048  20.783  24.595  1.00  0.00     0.151 A 
ATOM     18  C   UNL A   1      32.436  18.503  24.589  1.00  0.00     0.188 A 
ATOM     19  N   UNL A   1      32.437  18.442  23.253  1.00  0.00    -0.230 NA
ATOM     20  N   UNL A   1      32.186  19.617  25.287  1.00  0.00    -0.216 NA
ATOM     21  C   UNL A   1      32.319  19.612  22.601  1.00  0.00     0.137 A 
ATOM     22  C   UNL A   1      32.197  20.837  23.220  1.00  0.00     0.090 A 
ATOM     23  Cl  UNL A   1      32.431  22.215  22.229  1.00  0.00    -0.080 Cl
BRANCH  18  24
ATOM     24  S   UNL A   1      32.948  17.072  25.500  1.00  0.00    -0.090 SA
ATOM     25  C   UNL A   1      33.810  16.163  24.188  1.00  0.00     0.094 C 
ENDBRANCH  18  24
ENDBRANCH  14  17
ENDBRANCH   9  13
ENDBRANCH   5   8
ENDBRANCH   3   4
ENDBRANCH   2   3
ENDBRANCH   1   2
BRANCH   1  26
ATOM     26  C   UNL A   1      31.837  29.874  26.469  1.00  0.00     0.002 C 
BRANCH  26  27
ATOM     27  C   UNL A   1      32.130  31.127  27.297  1.00  0.00     0.021 C 
BRANCH  27  28
ATOM     28  C   UNL A   1      32.384  32.423  26.534  1.00  0.00     0.116 C 
BRANCH  28  29
ATOM     29  N   UNL A   1      32.199  33.614  27.342  1.00  0.00    -0.352 N 
ATOM     30  C   UNL A   1      32.994  34.162  28.314  1.00  0.00     0.251 C 
ATOM     31  H   UNL A   1      31.367  34.110  27.161  1.00  0.00     0.163 HD
ATOM     32  O   UNL A   1      32.585  35.150  28.932  1.00  0.00    -0.269 OA
BRANCH  30  33
ATOM     33  C   UNL A   1      34.317  33.591  28.662  1.00  0.00     0.039 A 
ATOM     34  C   UNL A   1      34.406  32.785  29.803  1.00  0.00     0.014 A 
ATOM     35  C   UNL A   1      35.475  33.877  27.934  1.00  0.00     0.014 A 
ATOM     36  C   UNL A   1      35.636  32.245  30.192  1.00  0.00     0.010 A 
ATOM     37  C   UNL A   1      36.691  33.281  28.281  1.00  0.00     0.010 A 
ATOM     38  C   UNL A   1      36.788  32.473  29.424  1.00  0.00    -0.014 A 
BRANCH  38  39
ATOM     39  C   UNL A   1      38.097  31.899  29.835  1.00  0.00     0.031 A 
ATOM     40  C   UNL A   1      38.982  32.639  30.804  1.00  0.00     0.074 A 
ATOM     41  C   UNL A   1      38.499  30.715  29.333  1.00  0.00     0.049 A 
ATOM     42  N   UNL A   1      40.145  32.287  31.295  1.00  0.00    -0.248 NA
ATOM     43  C   UNL A   1      38.506  33.950  31.272  1.00  0.00     0.031 C 
ATOM     44  C   UNL A   1      37.755  29.908  28.365  1.00  0.00     0.029 A 
ATOM     45  N   UNL A   1      39.633  29.981  29.577  1.00  0.00    -0.354 N 
ATOM     46  C   UNL A   1      40.540  33.333  32.120  1.00  0.00     0.074 A 
ATOM     47  C   UNL A   1      39.520  34.355  32.023  1.00  0.00     0.031 C 
ATOM     48  C   UNL A   1      38.434  28.773  28.126  1.00  0.00     0.029 A 
ATOM     49  C   UNL A   1      39.673  28.787  28.898  1.00  0.00     0.049 A 
ATOM     50  H   UNL A   1      40.350  30.281  30.181  1.00  0.00     0.167 HD
ATOM     51  C   UNL A   1      41.638  33.430  32.908  1.00  0.00     0.031 A 
ATOM     52  C   UNL A   1      40.598  27.810  28.901  1.00  0.00     0.031 A 
ATOM     53  C   UNL A   1      42.653  32.416  33.016  1.00  0.00     0.049 A 
ATOM     54  C   UNL A   1      41.819  27.951  29.769  1.00  0.00     0.074 A 
ATOM     55  C   UNL A   1      43.783  32.409  33.817  1.00  0.00     0.029 A 
ATOM     56  N   UNL A   1      42.661  31.231  32.300  1.00  0.00    -0.354 N 
ATOM     57  N   UNL A   1      42.145  28.920  30.589  1.00  0.00    -0.248 NA
ATOM     58  C   UNL A   1      42.794  26.851  29.718  1.00  0.00     0.031 C 
ATOM     59  C   UNL A   1      44.495  31.232  33.555  1.00  0.00     0.029 A 
ATOM     60  C   UNL A   1      43.784  30.490  32.628  1.00  0.00     0.049 A 
ATOM     61  H   UNL A   1      41.970  30.955  31.656  1.00  0.00     0.167 HD
ATOM     62  C   UNL A   1      43.345  28.536  31.171  1.00  0.00     0.074 A 
ATOM     63  C   UNL A   1      43.680  27.237  30.625  1.00  0.00     0.031 C 
ATOM     64  C   UNL A   1      44.104  29.199  32.077  1.00  0.00     0.031 A 
BRANCH  51  65
ATOM     65  C   UNL A   1      41.793  34.684  33.723  1.00  0.00    -0.014 A 
ATOM     66  C   UNL A   1      41.204  34.797  34.994  1.00  0.00     0.009 A 
ATOM     67  C   UNL A   1      42.561  35.751  33.233  1.00  0.00     0.009 A 
ATOM     68  C   UNL A   1      41.352  35.968  35.740  1.00  0.00     0.001 A 
ATOM     69  C   UNL A   1      42.730  36.910  33.994  1.00  0.00     0.001 A 
ATOM     70  C   UNL A   1      42.117  37.021  35.242  1.00  0.00     0.000 A 
ENDBRANCH  51  65
BRANCH  52  71
ATOM     71  C   UNL A   1      40.403  26.589  28.076  1.00  0.00    -0.014 A 
ATOM     72  C   UNL A   1      40.975  26.497  26.798  1.00  0.00     0.009 A 
ATOM     73  C   UNL A   1      39.623  25.523  28.549  1.00  0.00     0.009 A 
ATOM     74  C   UNL A   1      40.743  25.377  25.997  1.00  0.00     0.001 A 
ATOM     75  C   UNL A   1      39.417  24.391  27.758  1.00  0.00     0.001 A 
ATOM     76  C   UNL A   1      39.967  24.324  26.479  1.00  0.00     0.000 A 
ENDBRANCH  52  71
BRANCH  64  77
ATOM     77  C   UNL A   1      45.353  28.514  32.556  1.00  0.00    -0.014 A 
ATOM     78  C   UNL A   1      46.611  28.842  32.027  1.00  0.00     0.009 A 
ATOM     79  C   UNL A   1      45.269  27.543  33.566  1.00  0.00     0.009 A 
ATOM     80  C   UNL A   1      47.757  28.185  32.476  1.00  0.00     0.001 A 
ATOM     81  C   UNL A   1      46.421  26.907  34.032  1.00  0.00     0.001 A 
ATOM     82  C   UNL A   1      47.662  27.220  33.480  1.00  0.00     0.000 A 
ENDBRANCH  64  77
ENDBRANCH  38  39
ENDBRANCH  30  33
ENDBRANCH  28  29
ENDBRANCH  27  28
ENDBRANCH  26  27
ENDBRANCH   1  26
TORSDOF 16
ENDMDL
