MODEL 1
REMARK VINA RESULT:     -10.7      0.000      0.000
REMARK SMILES Cc1cc(C(=O)N[C@H](CC(C)C)C(=O)NCCCCCCNC(=O)c2ccc(-c3c4nc(c(-c5ccccc5)c5ccc([nH]5)c(-c5ccccc5)c5nc(c(-c6ccccc6)c6ccc3[nH]6)C=C5)C=C4)cc2)sc1Br
REMARK SMILES IDX 18 1 17 2 16 3 15 4 13 5 14 6 8 8 7 9 5 10 6 11 4 13 1 14
REMARK SMILES IDX 2 15 3 16 74 17 73 18 75 19 9 20 10 21 11 22 12 23 19 24
REMARK SMILES IDX 20 25 21 26 22 27 23 28 24 30 25 31 26 32 72 33 27 34 71 35
REMARK SMILES IDX 28 36 29 37 30 38 65 39 31 40 70 41 64 42 66 43 32 44 69 45
REMARK SMILES IDX 63 46 62 47 33 49 55 50 40 51 54 52 41 53 44 54 53 55 67 56
REMARK SMILES IDX 42 57 43 58 52 60 68 61 45 62 34 63 35 64 39 65 36 66 38 67
REMARK SMILES IDX 37 68 56 69 57 70 61 71 58 72 60 73 59 74 46 75 47 76 51 77
REMARK SMILES IDX 48 78 50 79 49 80
REMARK H PARENT 15 7 7 12 22 29 66 48 44 59
REMARK Flexibility Score: inf
ROOT
ATOM      1  C   UNL A   1      34.139  28.879  26.221  1.00  0.00     0.002 C 
ENDROOT
BRANCH   1   2
ATOM      2  C   UNL A   1      32.885  29.340  25.465  1.00  0.00     0.021 C 
BRANCH   2   3
ATOM      3  C   UNL A   1      33.026  29.310  23.940  1.00  0.00     0.116 C 
BRANCH   3   4
ATOM      4  N   UNL A   1      31.732  29.290  23.286  1.00  0.00    -0.354 N 
ATOM      5  C   UNL A   1      30.974  28.268  22.810  1.00  0.00     0.242 C 
ATOM      6  O   UNL A   1      29.994  28.566  22.121  1.00  0.00    -0.273 OA
ATOM      7  H   UNL A   1      31.327  30.180  23.165  1.00  0.00     0.163 HD
BRANCH   5   8
ATOM      8  C   UNL A   1      31.321  26.793  23.080  1.00  0.00     0.171 C 
BRANCH   8   9
ATOM      9  N   UNL A   1      31.850  26.228  21.831  1.00  0.00    -0.340 N 
ATOM     10  C   UNL A   1      32.803  25.262  21.590  1.00  0.00     0.262 C 
ATOM     11  O   UNL A   1      33.090  25.127  20.396  1.00  0.00    -0.268 OA
ATOM     12  H   UNL A   1      31.451  26.609  21.016  1.00  0.00     0.164 HD
BRANCH  10  13
ATOM     13  C   UNL A   1      33.445  24.503  22.658  1.00  0.00     0.093 A 
ATOM     14  C   UNL A   1      35.720  23.962  25.618  1.00  0.00     0.046 C 
ATOM     15  C   UNL A   1      34.748  23.768  24.502  1.00  0.00    -0.025 A 
ATOM     16  C   UNL A   1      34.252  24.869  23.719  1.00  0.00     0.030 A 
ATOM     17  C   UNL A   1      34.180  22.597  24.060  1.00  0.00     0.074 A 
ATOM     18  S   UNL A   1      33.176  22.797  22.710  1.00  0.00    -0.123 S 
ATOM     19  Br  UNL A   1      34.455  20.912  24.844  1.00  0.00    -0.039 Br
ENDBRANCH  10  13
ENDBRANCH   8   9
BRANCH   8  20
ATOM     20  C   UNL A   1      30.151  25.946  23.610  1.00  0.00     0.038 C 
BRANCH  20  21
ATOM     21  C   UNL A   1      30.242  25.400  25.057  1.00  0.00    -0.015 C 
ATOM     22  C   UNL A   1      30.736  23.961  25.201  1.00  0.00     0.007 C 
ATOM     23  C   UNL A   1      31.160  26.327  25.868  1.00  0.00     0.007 C 
ENDBRANCH  20  21
ENDBRANCH   8  20
ENDBRANCH   5   8
ENDBRANCH   3   4
ENDBRANCH   2   3
ENDBRANCH   1   2
BRANCH   1  24
ATOM     24  C   UNL A   1      34.441  29.657  27.508  1.00  0.00     0.002 C 
BRANCH  24  25
ATOM     25  C   UNL A   1      33.749  31.020  27.639  1.00  0.00     0.021 C 
BRANCH  25  26
ATOM     26  C   UNL A   1      34.706  32.163  27.933  1.00  0.00     0.116 C 
BRANCH  26  27
ATOM     27  N   UNL A   1      34.598  32.633  29.313  1.00  0.00    -0.352 N 
ATOM     28  C   UNL A   1      35.226  32.122  30.427  1.00  0.00     0.251 C 
ATOM     29  H   UNL A   1      34.009  33.406  29.464  1.00  0.00     0.163 HD
ATOM     30  O   UNL A   1      34.767  32.306  31.556  1.00  0.00    -0.269 OA
BRANCH  28  31
ATOM     31  C   UNL A   1      36.475  31.369  30.251  1.00  0.00     0.039 A 
ATOM     32  C   UNL A   1      37.683  32.008  29.954  1.00  0.00     0.014 A 
ATOM     33  C   UNL A   1      36.416  29.983  30.390  1.00  0.00     0.014 A 
ATOM     34  C   UNL A   1      38.839  31.238  29.854  1.00  0.00     0.010 A 
ATOM     35  C   UNL A   1      37.571  29.252  30.454  1.00  0.00     0.010 A 
ATOM     36  C   UNL A   1      38.772  29.860  30.114  1.00  0.00    -0.014 A 
BRANCH  36  37
ATOM     37  C   UNL A   1      39.969  29.034  30.143  1.00  0.00     0.031 A 
ATOM     38  C   UNL A   1      40.532  28.844  31.500  1.00  0.00     0.074 A 
ATOM     39  C   UNL A   1      40.395  28.323  29.076  1.00  0.00     0.049 A 
ATOM     40  N   UNL A   1      41.603  29.378  31.980  1.00  0.00    -0.248 NA
ATOM     41  C   UNL A   1      39.732  28.107  32.493  1.00  0.00     0.031 C 
ATOM     42  C   UNL A   1      39.739  28.176  27.768  1.00  0.00     0.029 A 
ATOM     43  N   UNL A   1      41.461  27.485  28.970  1.00  0.00    -0.354 N 
ATOM     44  C   UNL A   1      41.740  28.859  33.263  1.00  0.00     0.074 A 
ATOM     45  C   UNL A   1      40.471  28.265  33.595  1.00  0.00     0.031 C 
ATOM     46  C   UNL A   1      40.290  27.140  27.097  1.00  0.00     0.029 A 
ATOM     47  C   UNL A   1      41.447  26.678  27.838  1.00  0.00     0.049 A 
ATOM     48  H   UNL A   1      42.182  27.453  29.639  1.00  0.00     0.167 HD
ATOM     49  C   UNL A   1      42.975  28.688  33.812  1.00  0.00     0.031 A 
ATOM     50  C   UNL A   1      42.330  25.700  27.527  1.00  0.00     0.031 A 
ATOM     51  C   UNL A   1      43.985  29.355  33.026  1.00  0.00     0.049 A 
ATOM     52  C   UNL A   1      43.562  25.966  28.297  1.00  0.00     0.074 A 
ATOM     53  C   UNL A   1      44.313  30.656  32.720  1.00  0.00     0.029 A 
ATOM     54  N   UNL A   1      44.575  28.555  32.078  1.00  0.00    -0.354 N 
ATOM     55  N   UNL A   1      44.321  27.001  28.083  1.00  0.00    -0.248 NA
ATOM     56  C   UNL A   1      43.761  25.298  29.574  1.00  0.00     0.031 C 
ATOM     57  C   UNL A   1      44.834  30.615  31.391  1.00  0.00     0.029 A 
ATOM     58  C   UNL A   1      44.865  29.287  30.959  1.00  0.00     0.049 A 
ATOM     59  H   UNL A   1      44.763  27.594  32.187  1.00  0.00     0.167 HD
ATOM     60  C   UNL A   1      44.745  27.383  29.344  1.00  0.00     0.074 A 
ATOM     61  C   UNL A   1      44.523  26.211  30.185  1.00  0.00     0.031 C 
ATOM     62  C   UNL A   1      44.947  28.702  29.637  1.00  0.00     0.031 A 
BRANCH  49  63
ATOM     63  C   UNL A   1      43.346  27.527  34.711  1.00  0.00    -0.014 A 
ATOM     64  C   UNL A   1      43.417  26.241  34.141  1.00  0.00     0.009 A 
ATOM     65  C   UNL A   1      43.325  27.589  36.117  1.00  0.00     0.009 A 
ATOM     66  C   UNL A   1      43.385  25.086  34.932  1.00  0.00     0.001 A 
ATOM     67  C   UNL A   1      43.331  26.438  36.912  1.00  0.00     0.001 A 
ATOM     68  C   UNL A   1      43.332  25.185  36.318  1.00  0.00     0.000 A 
ENDBRANCH  49  63
BRANCH  50  69
ATOM     69  C   UNL A   1      42.144  24.453  26.759  1.00  0.00    -0.014 A 
ATOM     70  C   UNL A   1      43.081  24.047  25.797  1.00  0.00     0.009 A 
ATOM     71  C   UNL A   1      41.191  23.511  27.189  1.00  0.00     0.009 A 
ATOM     72  C   UNL A   1      43.094  22.730  25.316  1.00  0.00     0.001 A 
ATOM     73  C   UNL A   1      41.207  22.197  26.711  1.00  0.00     0.001 A 
ATOM     74  C   UNL A   1      42.169  21.801  25.787  1.00  0.00     0.000 A 
ENDBRANCH  50  69
BRANCH  62  75
ATOM     75  C   UNL A   1      45.068  29.655  28.474  1.00  0.00    -0.014 A 
ATOM     76  C   UNL A   1      43.979  30.345  27.913  1.00  0.00     0.009 A 
ATOM     77  C   UNL A   1      46.354  29.939  27.996  1.00  0.00     0.009 A 
ATOM     78  C   UNL A   1      44.176  31.272  26.883  1.00  0.00     0.001 A 
ATOM     79  C   UNL A   1      46.552  30.880  26.985  1.00  0.00     0.001 A 
ATOM     80  C   UNL A   1      45.463  31.542  26.424  1.00  0.00     0.000 A 
ENDBRANCH  62  75
ENDBRANCH  36  37
ENDBRANCH  28  31
ENDBRANCH  26  27
ENDBRANCH  25  26
ENDBRANCH  24  25
ENDBRANCH   1  24
TORSDOF 17
ENDMDL
MODEL 2
REMARK VINA RESULT:     -10.4      3.184      8.288
REMARK SMILES Cc1cc(C(=O)N[C@H](CC(C)C)C(=O)NCCCCCCNC(=O)c2ccc(-c3c4nc(c(-c5ccccc5)c5ccc([nH]5)c(-c5ccccc5)c5nc(c(-c6ccccc6)c6ccc3[nH]6)C=C5)C=C4)cc2)sc1Br
REMARK SMILES IDX 18 1 17 2 16 3 15 4 13 5 14 6 8 8 7 9 5 10 6 11 4 13 1 14
REMARK SMILES IDX 2 15 3 16 74 17 73 18 75 19 9 20 10 21 11 22 12 23 19 24
REMARK SMILES IDX 20 25 21 26 22 27 23 28 24 30 25 31 26 32 72 33 27 34 71 35
REMARK SMILES IDX 28 36 29 37 30 38 65 39 31 40 70 41 64 42 66 43 32 44 69 45
REMARK SMILES IDX 63 46 62 47 33 49 55 50 40 51 54 52 41 53 44 54 53 55 67 56
REMARK SMILES IDX 42 57 43 58 52 60 68 61 45 62 34 63 35 64 39 65 36 66 38 67
REMARK SMILES IDX 37 68 56 69 57 70 61 71 58 72 60 73 59 74 46 75 47 76 51 77
REMARK SMILES IDX 48 78 50 79 49 80
REMARK H PARENT 15 7 7 12 22 29 66 48 44 59
REMARK Flexibility Score: inf
ROOT
ATOM      1  C   UNL A   1      39.324  22.037  26.100  1.00  0.00     0.002 C 
ENDROOT
BRANCH   1   2
ATOM      2  C   UNL A   1      38.202  21.209  25.457  1.00  0.00     0.021 C 
BRANCH   2   3
ATOM      3  C   UNL A   1      36.872  21.956  25.318  1.00  0.00     0.116 C 
BRANCH   3   4
ATOM      4  N   UNL A   1      35.945  21.591  26.371  1.00  0.00    -0.354 N 
ATOM      5  C   UNL A   1      34.588  21.533  26.401  1.00  0.00     0.242 C 
ATOM      6  O   UNL A   1      34.054  21.374  27.503  1.00  0.00    -0.273 OA
ATOM      7  H   UNL A   1      36.376  21.339  27.219  1.00  0.00     0.163 HD
BRANCH   5   8
ATOM      8  C   UNL A   1      33.730  21.685  25.132  1.00  0.00     0.171 C 
BRANCH   8   9
ATOM      9  N   UNL A   1      32.360  22.001  25.560  1.00  0.00    -0.340 N 
ATOM     10  C   UNL A   1      31.648  23.180  25.568  1.00  0.00     0.262 C 
ATOM     11  O   UNL A   1      30.548  23.099  26.123  1.00  0.00    -0.268 OA
ATOM     12  H   UNL A   1      31.858  21.227  25.906  1.00  0.00     0.164 HD
BRANCH  10  13
ATOM     13  C   UNL A   1      32.173  24.422  25.008  1.00  0.00     0.093 A 
ATOM     14  C   UNL A   1      33.392  26.735  22.288  1.00  0.00     0.046 C 
ATOM     15  C   UNL A   1      33.002  26.149  23.605  1.00  0.00    -0.025 A 
ATOM     16  C   UNL A   1      32.368  24.862  23.712  1.00  0.00     0.030 A 
ATOM     17  C   UNL A   1      33.151  26.694  24.858  1.00  0.00     0.074 A 
ATOM     18  S   UNL A   1      32.642  25.668  26.108  1.00  0.00    -0.123 S 
ATOM     19  Br  UNL A   1      33.841  28.406  25.206  1.00  0.00    -0.039 Br
ENDBRANCH  10  13
ENDBRANCH   8   9
BRANCH   8  20
ATOM     20  C   UNL A   1      33.743  20.461  24.198  1.00  0.00     0.038 C 
BRANCH  20  21
ATOM     21  C   UNL A   1      33.655  19.054  24.839  1.00  0.00    -0.015 C 
ATOM     22  C   UNL A   1      32.440  18.213  24.450  1.00  0.00     0.007 C 
ATOM     23  C   UNL A   1      34.933  18.279  24.484  1.00  0.00     0.007 C 
ENDBRANCH  20  21
ENDBRANCH   8  20
ENDBRANCH   5   8
ENDBRANCH   3   4
ENDBRANCH   2   3
ENDBRANCH   1   2
BRANCH   1  24
ATOM     24  C   UNL A   1      40.348  21.226  26.905  1.00  0.00     0.002 C 
BRANCH  24  25
ATOM     25  C   UNL A   1      41.010  20.062  26.156  1.00  0.00     0.021 C 
BRANCH  25  26
ATOM     26  C   UNL A   1      42.278  19.552  26.821  1.00  0.00     0.116 C 
BRANCH  26  27
ATOM     27  N   UNL A   1      43.394  19.454  25.881  1.00  0.00    -0.352 N 
ATOM     28  C   UNL A   1      43.955  20.463  25.132  1.00  0.00     0.251 C 
ATOM     29  H   UNL A   1      43.791  18.560  25.772  1.00  0.00     0.163 HD
ATOM     30  O   UNL A   1      44.582  20.216  24.101  1.00  0.00    -0.269 OA
BRANCH  28  31
ATOM     31  C   UNL A   1      43.815  21.850  25.598  1.00  0.00     0.039 A 
ATOM     32  C   UNL A   1      43.025  22.779  24.914  1.00  0.00     0.014 A 
ATOM     33  C   UNL A   1      44.505  22.212  26.754  1.00  0.00     0.014 A 
ATOM     34  C   UNL A   1      42.895  24.061  25.441  1.00  0.00     0.010 A 
ATOM     35  C   UNL A   1      44.246  23.414  27.356  1.00  0.00     0.010 A 
ATOM     36  C   UNL A   1      43.505  24.365  26.669  1.00  0.00    -0.014 A 
BRANCH  36  37
ATOM     37  C   UNL A   1      43.298  25.649  27.321  1.00  0.00     0.031 A 
ATOM     38  C   UNL A   1      44.286  26.682  26.934  1.00  0.00     0.074 A 
ATOM     39  C   UNL A   1      42.186  25.940  28.029  1.00  0.00     0.049 A 
ATOM     40  N   UNL A   1      45.256  27.140  27.651  1.00  0.00    -0.248 NA
ATOM     41  C   UNL A   1      44.304  27.145  25.536  1.00  0.00     0.031 C 
ATOM     42  C   UNL A   1      40.988  25.108  28.215  1.00  0.00     0.029 A 
ATOM     43  N   UNL A   1      41.842  27.099  28.653  1.00  0.00    -0.354 N 
ATOM     44  C   UNL A   1      45.866  28.121  26.877  1.00  0.00     0.074 A 
ATOM     45  C   UNL A   1      45.384  27.931  25.533  1.00  0.00     0.031 C 
ATOM     46  C   UNL A   1      39.978  25.865  28.698  1.00  0.00     0.029 A 
ATOM     47  C   UNL A   1      40.505  27.174  29.030  1.00  0.00     0.049 A 
ATOM     48  H   UNL A   1      42.484  27.825  28.822  1.00  0.00     0.167 HD
ATOM     49  C   UNL A   1      46.467  29.192  27.466  1.00  0.00     0.031 A 
ATOM     50  C   UNL A   1      39.875  28.236  29.585  1.00  0.00     0.031 A 
ATOM     51  C   UNL A   1      46.605  28.988  28.888  1.00  0.00     0.049 A 
ATOM     52  C   UNL A   1      40.918  29.095  30.181  1.00  0.00     0.074 A 
ATOM     53  C   UNL A   1      47.321  28.147  29.710  1.00  0.00     0.029 A 
ATOM     54  N   UNL A   1      45.562  29.487  29.629  1.00  0.00    -0.354 N 
ATOM     55  N   UNL A   1      41.638  28.731  31.202  1.00  0.00    -0.248 NA
ATOM     56  C   UNL A   1      41.443  30.214  29.414  1.00  0.00     0.031 C 
ATOM     57  C   UNL A   1      46.485  27.919  30.844  1.00  0.00     0.029 A 
ATOM     58  C   UNL A   1      45.319  28.676  30.704  1.00  0.00     0.049 A 
ATOM     59  H   UNL A   1      45.062  30.309  29.419  1.00  0.00     0.167 HD
ATOM     60  C   UNL A   1      42.896  29.245  30.936  1.00  0.00     0.074 A 
ATOM     61  C   UNL A   1      42.673  30.283  29.936  1.00  0.00     0.031 C 
ATOM     62  C   UNL A   1      44.017  28.572  31.331  1.00  0.00     0.031 A 
BRANCH  49  63
ATOM     63  C   UNL A   1      46.446  30.593  26.892  1.00  0.00    -0.014 A 
ATOM     64  C   UNL A   1      47.617  31.370  26.992  1.00  0.00     0.009 A 
ATOM     65  C   UNL A   1      45.267  31.279  26.545  1.00  0.00     0.009 A 
ATOM     66  C   UNL A   1      47.589  32.761  26.834  1.00  0.00     0.001 A 
ATOM     67  C   UNL A   1      45.243  32.663  26.349  1.00  0.00     0.001 A 
ATOM     68  C   UNL A   1      46.399  33.409  26.522  1.00  0.00     0.000 A 
ENDBRANCH  49  63
BRANCH  50  69
ATOM     69  C   UNL A   1      38.467  28.668  29.491  1.00  0.00    -0.014 A 
ATOM     70  C   UNL A   1      37.734  29.002  30.640  1.00  0.00     0.009 A 
ATOM     71  C   UNL A   1      37.938  29.038  28.242  1.00  0.00     0.009 A 
ATOM     72  C   UNL A   1      36.534  29.721  30.544  1.00  0.00     0.001 A 
ATOM     73  C   UNL A   1      36.744  29.759  28.147  1.00  0.00     0.001 A 
ATOM     74  C   UNL A   1      36.050  30.116  29.299  1.00  0.00     0.000 A 
ENDBRANCH  50  69
BRANCH  62  75
ATOM     75  C   UNL A   1      43.842  27.492  32.368  1.00  0.00    -0.014 A 
ATOM     76  C   UNL A   1      44.144  26.137  32.143  1.00  0.00     0.009 A 
ATOM     77  C   UNL A   1      43.452  27.882  33.656  1.00  0.00     0.009 A 
ATOM     78  C   UNL A   1      44.030  25.199  33.176  1.00  0.00     0.001 A 
ATOM     79  C   UNL A   1      43.360  26.951  34.691  1.00  0.00     0.001 A 
ATOM     80  C   UNL A   1      43.642  25.609  34.450  1.00  0.00     0.000 A 
ENDBRANCH  62  75
ENDBRANCH  36  37
ENDBRANCH  28  31
ENDBRANCH  26  27
ENDBRANCH  25  26
ENDBRANCH  24  25
ENDBRANCH   1  24
TORSDOF 17
ENDMDL
MODEL 3
REMARK VINA RESULT:     -10.3      2.505      6.438
REMARK SMILES Cc1cc(C(=O)N[C@H](CC(C)C)C(=O)NCCCCCCNC(=O)c2ccc(-c3c4nc(c(-c5ccccc5)c5ccc([nH]5)c(-c5ccccc5)c5nc(c(-c6ccccc6)c6ccc3[nH]6)C=C5)C=C4)cc2)sc1Br
REMARK SMILES IDX 18 1 17 2 16 3 15 4 13 5 14 6 8 8 7 9 5 10 6 11 4 13 1 14
REMARK SMILES IDX 2 15 3 16 74 17 73 18 75 19 9 20 10 21 11 22 12 23 19 24
REMARK SMILES IDX 20 25 21 26 22 27 23 28 24 30 25 31 26 32 72 33 27 34 71 35
REMARK SMILES IDX 28 36 29 37 30 38 65 39 31 40 70 41 64 42 66 43 32 44 69 45
REMARK SMILES IDX 63 46 62 47 33 49 55 50 40 51 54 52 41 53 44 54 53 55 67 56
REMARK SMILES IDX 42 57 43 58 52 60 68 61 45 62 34 63 35 64 39 65 36 66 38 67
REMARK SMILES IDX 37 68 56 69 57 70 61 71 58 72 60 73 59 74 46 75 47 76 51 77
REMARK SMILES IDX 48 78 50 79 49 80
REMARK H PARENT 15 7 7 12 22 29 66 48 44 59
REMARK Flexibility Score: inf
ROOT
ATOM      1  C   UNL A   1      31.894  28.678  26.051  1.00  0.00     0.002 C 
ENDROOT
BRANCH   1   2
ATOM      2  C   UNL A   1      31.531  27.459  26.912  1.00  0.00     0.021 C 
BRANCH   2   3
ATOM      3  C   UNL A   1      32.186  26.152  26.456  1.00  0.00     0.116 C 
BRANCH   3   4
ATOM      4  N   UNL A   1      31.438  24.996  26.911  1.00  0.00    -0.354 N 
ATOM      5  C   UNL A   1      31.601  23.666  26.685  1.00  0.00     0.242 C 
ATOM      6  O   UNL A   1      30.689  22.917  27.047  1.00  0.00    -0.273 OA
ATOM      7  H   UNL A   1      30.671  25.213  27.490  1.00  0.00     0.163 HD
BRANCH   5   8
ATOM      8  C   UNL A   1      32.848  23.099  25.984  1.00  0.00     0.171 C 
BRANCH   8   9
ATOM      9  N   UNL A   1      32.404  22.476  24.729  1.00  0.00    -0.340 N 
ATOM     10  C   UNL A   1      31.973  23.016  23.537  1.00  0.00     0.262 C 
ATOM     11  O   UNL A   1      31.552  22.181  22.730  1.00  0.00    -0.268 OA
ATOM     12  H   UNL A   1      32.415  21.492  24.742  1.00  0.00     0.164 HD
BRANCH  10  13
ATOM     13  C   UNL A   1      31.974  24.452  23.275  1.00  0.00     0.093 A 
ATOM     14  C   UNL A   1      30.450  27.832  22.581  1.00  0.00     0.046 C 
ATOM     15  C   UNL A   1      31.408  26.713  22.824  1.00  0.00    -0.025 A 
ATOM     16  C   UNL A   1      30.966  25.395  23.193  1.00  0.00     0.030 A 
ATOM     17  C   UNL A   1      32.781  26.737  22.761  1.00  0.00     0.074 A 
ATOM     18  S   UNL A   1      33.499  25.227  23.036  1.00  0.00    -0.123 S 
ATOM     19  Br  UNL A   1      33.810  28.270  22.411  1.00  0.00    -0.039 Br
ENDBRANCH  10  13
ENDBRANCH   8   9
BRANCH   8  20
ATOM     20  C   UNL A   1      33.663  22.104  26.830  1.00  0.00     0.038 C 
BRANCH  20  21
ATOM     21  C   UNL A   1      35.165  21.926  26.500  1.00  0.00    -0.015 C 
ATOM     22  C   UNL A   1      35.500  20.888  25.429  1.00  0.00     0.007 C 
ATOM     23  C   UNL A   1      35.732  23.287  26.071  1.00  0.00     0.007 C 
ENDBRANCH  20  21
ENDBRANCH   8  20
ENDBRANCH   5   8
ENDBRANCH   3   4
ENDBRANCH   2   3
ENDBRANCH   1   2
BRANCH   1  24
ATOM     24  C   UNL A   1      33.024  29.551  26.609  1.00  0.00     0.002 C 
BRANCH  24  25
ATOM     25  C   UNL A   1      34.216  28.794  27.208  1.00  0.00     0.021 C 
BRANCH  25  26
ATOM     26  C   UNL A   1      35.413  29.680  27.509  1.00  0.00     0.116 C 
BRANCH  26  27
ATOM     27  N   UNL A   1      35.484  30.052  28.921  1.00  0.00    -0.352 N 
ATOM     28  C   UNL A   1      36.395  29.623  29.860  1.00  0.00     0.251 C 
ATOM     29  H   UNL A   1      34.801  30.686  29.237  1.00  0.00     0.163 HD
ATOM     30  O   UNL A   1      36.132  29.658  31.063  1.00  0.00    -0.269 OA
BRANCH  28  31
ATOM     31  C   UNL A   1      37.706  29.140  29.404  1.00  0.00     0.039 A 
ATOM     32  C   UNL A   1      38.342  29.687  28.286  1.00  0.00     0.014 A 
ATOM     33  C   UNL A   1      38.298  28.108  30.129  1.00  0.00     0.014 A 
ATOM     34  C   UNL A   1      39.607  29.219  27.942  1.00  0.00     0.010 A 
ATOM     35  C   UNL A   1      39.601  27.765  29.891  1.00  0.00     0.010 A 
ATOM     36  C   UNL A   1      40.231  28.261  28.758  1.00  0.00    -0.014 A 
BRANCH  36  37
ATOM     37  C   UNL A   1      41.599  27.830  28.512  1.00  0.00     0.031 A 
ATOM     38  C   UNL A   1      41.698  26.540  27.790  1.00  0.00     0.074 A 
ATOM     39  C   UNL A   1      42.667  28.631  28.714  1.00  0.00     0.049 A 
ATOM     40  N   UNL A   1      42.052  25.401  28.279  1.00  0.00    -0.248 NA
ATOM     41  C   UNL A   1      41.193  26.469  26.409  1.00  0.00     0.031 C 
ATOM     42  C   UNL A   1      42.674  30.044  29.121  1.00  0.00     0.029 A 
ATOM     43  N   UNL A   1      43.985  28.380  28.490  1.00  0.00    -0.354 N 
ATOM     44  C   UNL A   1      42.041  24.512  27.209  1.00  0.00     0.074 A 
ATOM     45  C   UNL A   1      41.310  25.164  26.153  1.00  0.00     0.031 C 
ATOM     46  C   UNL A   1      43.895  30.578  28.895  1.00  0.00     0.029 A 
ATOM     47  C   UNL A   1      44.797  29.510  28.511  1.00  0.00     0.049 A 
ATOM     48  H   UNL A   1      44.336  27.475  28.328  1.00  0.00     0.167 HD
ATOM     49  C   UNL A   1      42.897  23.453  27.179  1.00  0.00     0.031 A 
ATOM     50  C   UNL A   1      46.122  29.564  28.236  1.00  0.00     0.031 A 
ATOM     51  C   UNL A   1      43.536  23.271  28.460  1.00  0.00     0.049 A 
ATOM     52  C   UNL A   1      46.657  28.198  28.412  1.00  0.00     0.074 A 
ATOM     53  C   UNL A   1      43.142  22.903  29.727  1.00  0.00     0.029 A 
ATOM     54  N   UNL A   1      44.741  23.918  28.582  1.00  0.00    -0.354 N 
ATOM     55  N   UNL A   1      46.712  27.603  29.568  1.00  0.00    -0.248 NA
ATOM     56  C   UNL A   1      46.778  27.327  27.254  1.00  0.00     0.031 C 
ATOM     57  C   UNL A   1      43.986  23.635  30.616  1.00  0.00     0.029 A 
ATOM     58  C   UNL A   1      44.903  24.372  29.863  1.00  0.00     0.049 A 
ATOM     59  H   UNL A   1      45.394  24.036  27.855  1.00  0.00     0.167 HD
ATOM     60  C   UNL A   1      46.412  26.281  29.288  1.00  0.00     0.074 A 
ATOM     61  C   UNL A   1      46.640  26.140  27.854  1.00  0.00     0.031 C 
ATOM     62  C   UNL A   1      45.721  25.522  30.190  1.00  0.00     0.031 A 
BRANCH  49  63
ATOM     63  C   UNL A   1      43.550  22.931  25.916  1.00  0.00    -0.014 A 
ATOM     64  C   UNL A   1      43.675  21.537  25.760  1.00  0.00     0.009 A 
ATOM     65  C   UNL A   1      44.307  23.730  25.039  1.00  0.00     0.009 A 
ATOM     66  C   UNL A   1      44.568  20.980  24.836  1.00  0.00     0.001 A 
ATOM     67  C   UNL A   1      45.172  23.178  24.089  1.00  0.00     0.001 A 
ATOM     68  C   UNL A   1      45.324  21.802  24.007  1.00  0.00     0.000 A 
ENDBRANCH  49  63
BRANCH  50  69
ATOM     69  C   UNL A   1      46.935  30.653  27.661  1.00  0.00    -0.014 A 
ATOM     70  C   UNL A   1      46.382  31.570  26.755  1.00  0.00     0.009 A 
ATOM     71  C   UNL A   1      48.180  30.965  28.237  1.00  0.00     0.009 A 
ATOM     72  C   UNL A   1      47.029  32.780  26.470  1.00  0.00     0.001 A 
ATOM     73  C   UNL A   1      48.823  32.175  27.956  1.00  0.00     0.001 A 
ATOM     74  C   UNL A   1      48.241  33.090  27.085  1.00  0.00     0.000 A 
ENDBRANCH  50  69
BRANCH  62  75
ATOM     75  C   UNL A   1      45.645  26.035  31.606  1.00  0.00    -0.014 A 
ATOM     76  C   UNL A   1      44.626  26.881  32.075  1.00  0.00     0.009 A 
ATOM     77  C   UNL A   1      46.589  25.556  32.525  1.00  0.00     0.009 A 
ATOM     78  C   UNL A   1      44.574  27.258  33.423  1.00  0.00     0.001 A 
ATOM     79  C   UNL A   1      46.525  25.914  33.871  1.00  0.00     0.001 A 
ATOM     80  C   UNL A   1      45.522  26.770  34.319  1.00  0.00     0.000 A 
ENDBRANCH  62  75
ENDBRANCH  36  37
ENDBRANCH  28  31
ENDBRANCH  26  27
ENDBRANCH  25  26
ENDBRANCH  24  25
ENDBRANCH   1  24
TORSDOF 17
ENDMDL
