MODEL 1
REMARK VINA RESULT:      -9.0      0.000      0.000
REMARK SMILES O=C(CC[NH+]1CCC([N@H+]2CCC[C@H](C(=O)NCc3cccnc3)C2)CC1)NCCCCCCNC(=O)c1ccc(-c2c3nc(c(-c4ccccc4)c4ccc([nH]4)c(-c4ccccc4)c4nc(c(-c5ccccc5)c5ccc2[nH]5)C=C4)C=C3)cc1
REMARK SMILES IDX 28 1 27 2 1 3 2 4 3 6 4 7 5 8 6 9 26 10 7 12 25 13 8 14 9 15
REMARK SMILES IDX 10 16 24 17 11 19 13 20 12 21 14 22 15 23 16 24 17 26 18 27
REMARK SMILES IDX 19 28 23 29 20 30 22 31 21 32 29 33 30 34 31 35 32 36 33 37
REMARK SMILES IDX 34 38 35 39 36 41 37 42 38 43 84 44 39 45 83 46 40 47 41 48
REMARK SMILES IDX 42 49 77 50 43 51 82 52 76 53 78 54 44 55 81 56 75 57 74 58
REMARK SMILES IDX 45 60 67 61 52 62 66 63 53 64 56 65 65 66 79 67 54 68 55 69
REMARK SMILES IDX 64 71 80 72 57 73 46 74 47 75 51 76 48 77 50 78 49 79 68 80
REMARK SMILES IDX 69 81 73 82 70 83 72 84 71 85 58 86 59 87 63 88 60 89 62 90
REMARK SMILES IDX 61 91
REMARK H PARENT 27 5 5 11 9 18 16 25 34 40 78 59 56 70
REMARK Flexibility Score: inf
ROOT
ATOM      1  C   UNL A   1      46.090  27.263  25.025  1.00  0.00     0.116 C 
ENDROOT
BRANCH   1   2
ATOM      2  N   UNL A   1      45.531  28.042  26.114  1.00  0.00    -0.356 N 
ATOM      3  O   UNL A   1      46.388  30.043  25.393  1.00  0.00    -0.275 OA
ATOM      4  C   UNL A   1      45.648  29.418  26.144  1.00  0.00     0.225 C 
ATOM      5  H   UNL A   1      45.060  27.581  26.845  1.00  0.00     0.163 HD
BRANCH   4   6
ATOM      6  C   UNL A   1      44.712  30.097  27.130  1.00  0.00     0.161 C 
BRANCH   6   7
ATOM      7  C   UNL A   1      45.462  31.075  28.056  1.00  0.00     0.272 C 
BRANCH   7   8
ATOM      8  N   UNL A   1      44.881  32.416  28.300  1.00  0.00    -0.334 N 
ATOM      9  C   UNL A   1      45.715  33.226  29.187  1.00  0.00     0.268 C 
ATOM     10  C   UNL A   1      44.489  33.125  27.078  1.00  0.00     0.268 C 
ATOM     11  H   UNL A   1      44.006  32.247  28.796  1.00  0.00     0.348 HD
ATOM     12  C   UNL A   1      45.071  34.554  29.542  1.00  0.00     0.126 C 
ATOM     13  C   UNL A   1      43.857  34.502  27.372  1.00  0.00     0.126 C 
ATOM     14  C   UNL A   1      44.797  35.341  28.254  1.00  0.00     0.195 C 
BRANCH  14  15
ATOM     15  N   UNL A   1      44.301  36.730  28.434  1.00  0.00    -0.331 N 
ATOM     16  C   UNL A   1      44.844  37.412  29.616  1.00  0.00     0.262 C 
ATOM     17  C   UNL A   1      44.554  37.520  27.217  1.00  0.00     0.275 C 
ATOM     18  H   UNL A   1      43.297  36.654  28.597  1.00  0.00     0.348 HD
ATOM     19  C   UNL A   1      44.293  38.824  29.790  1.00  0.00     0.062 C 
ATOM     20  C   UNL A   1      44.094  38.971  27.240  1.00  0.00     0.133 C 
ATOM     21  C   UNL A   1      44.417  39.691  28.545  1.00  0.00     0.025 C 
BRANCH  20  22
ATOM     22  C   UNL A   1      42.722  39.264  26.632  1.00  0.00     0.229 C 
ATOM     23  O   UNL A   1      41.829  38.412  26.713  1.00  0.00    -0.275 OA
ATOM     24  N   UNL A   1      42.376  40.389  25.971  1.00  0.00    -0.352 N 
ATOM     25  H   UNL A   1      41.485  40.339  25.555  1.00  0.00     0.163 HD
BRANCH  24  26
ATOM     26  C   UNL A   1      43.041  41.650  25.748  1.00  0.00     0.153 C 
BRANCH  26  27
ATOM     27  C   UNL A   1      42.978  42.169  24.343  1.00  0.00    -0.010 A 
ATOM     28  C   UNL A   1      41.789  42.036  23.613  1.00  0.00     0.009 A 
ATOM     29  C   UNL A   1      44.043  42.798  23.702  1.00  0.00     0.116 A 
ATOM     30  C   UNL A   1      41.703  42.542  22.320  1.00  0.00     0.020 A 
ATOM     31  N   UNL A   1      43.986  43.302  22.447  1.00  0.00    -0.264 NA
ATOM     32  C   UNL A   1      42.817  43.167  21.788  1.00  0.00     0.111 A 
ENDBRANCH  26  27
ENDBRANCH  24  26
ENDBRANCH  20  22
ENDBRANCH  14  15
ENDBRANCH   7   8
ENDBRANCH   6   7
ENDBRANCH   4   6
ENDBRANCH   1   2
BRANCH   1  33
ATOM     33  C   UNL A   1      45.827  25.764  25.186  1.00  0.00     0.021 C 
BRANCH  33  34
ATOM     34  C   UNL A   1      44.503  25.423  25.881  1.00  0.00     0.002 C 
BRANCH  34  35
ATOM     35  C   UNL A   1      43.470  24.737  24.988  1.00  0.00     0.002 C 
BRANCH  35  36
ATOM     36  C   UNL A   1      43.327  23.227  25.141  1.00  0.00     0.021 C 
BRANCH  36  37
ATOM     37  C   UNL A   1      42.460  22.765  26.307  1.00  0.00     0.116 C 
BRANCH  37  38
ATOM     38  N   UNL A   1      41.111  22.369  25.923  1.00  0.00    -0.352 N 
ATOM     39  C   UNL A   1      39.914  23.017  26.137  1.00  0.00     0.251 C 
ATOM     40  H   UNL A   1      41.046  21.513  25.441  1.00  0.00     0.163 HD
ATOM     41  O   UNL A   1      38.853  22.470  25.859  1.00  0.00    -0.269 OA
BRANCH  39  42
ATOM     42  C   UNL A   1      39.910  24.361  26.753  1.00  0.00     0.039 A 
ATOM     43  C   UNL A   1      39.492  24.500  28.080  1.00  0.00     0.014 A 
ATOM     44  C   UNL A   1      40.377  25.468  26.046  1.00  0.00     0.014 A 
ATOM     45  C   UNL A   1      39.658  25.726  28.730  1.00  0.00     0.010 A 
ATOM     46  C   UNL A   1      40.641  26.652  26.722  1.00  0.00     0.010 A 
ATOM     47  C   UNL A   1      40.294  26.792  28.075  1.00  0.00    -0.014 A 
BRANCH  47  48
ATOM     48  C   UNL A   1      40.623  28.060  28.775  1.00  0.00     0.031 A 
ATOM     49  C   UNL A   1      41.972  28.231  29.418  1.00  0.00     0.074 A 
ATOM     50  C   UNL A   1      39.679  29.012  28.918  1.00  0.00     0.049 A 
ATOM     51  N   UNL A   1      42.406  29.200  30.184  1.00  0.00    -0.248 NA
ATOM     52  C   UNL A   1      42.951  27.151  29.205  1.00  0.00     0.031 C 
ATOM     53  C   UNL A   1      38.314  28.946  28.390  1.00  0.00     0.029 A 
ATOM     54  N   UNL A   1      39.722  30.221  29.566  1.00  0.00    -0.354 N 
ATOM     55  C   UNL A   1      43.690  28.831  30.564  1.00  0.00     0.074 A 
ATOM     56  C   UNL A   1      43.946  27.528  29.995  1.00  0.00     0.031 C 
ATOM     57  C   UNL A   1      37.662  30.077  28.709  1.00  0.00     0.029 A 
ATOM     58  C   UNL A   1      38.544  30.927  29.501  1.00  0.00     0.049 A 
ATOM     59  H   UNL A   1      40.523  30.554  30.034  1.00  0.00     0.167 HD
ATOM     60  C   UNL A   1      44.590  29.527  31.299  1.00  0.00     0.031 A 
ATOM     61  C   UNL A   1      38.210  32.120  30.026  1.00  0.00     0.031 A 
ATOM     62  C   UNL A   1      44.348  30.838  31.837  1.00  0.00     0.049 A 
ATOM     63  C   UNL A   1      39.231  32.878  30.828  1.00  0.00     0.074 A 
ATOM     64  C   UNL A   1      45.215  31.651  32.546  1.00  0.00     0.029 A 
ATOM     65  N   UNL A   1      43.155  31.531  31.716  1.00  0.00    -0.354 N 
ATOM     66  N   UNL A   1      40.462  32.540  31.128  1.00  0.00    -0.248 NA
ATOM     67  C   UNL A   1      38.820  34.187  31.355  1.00  0.00     0.031 C 
ATOM     68  C   UNL A   1      44.532  32.823  32.886  1.00  0.00     0.029 A 
ATOM     69  C   UNL A   1      43.258  32.758  32.346  1.00  0.00     0.049 A 
ATOM     70  H   UNL A   1      42.353  31.199  31.249  1.00  0.00     0.167 HD
ATOM     71  C   UNL A   1      40.981  33.606  31.851  1.00  0.00     0.074 A 
ATOM     72  C   UNL A   1      39.938  34.608  31.929  1.00  0.00     0.031 C 
ATOM     73  C   UNL A   1      42.211  33.743  32.403  1.00  0.00     0.031 A 
BRANCH  60  74
ATOM     74  C   UNL A   1      45.924  28.884  31.551  1.00  0.00    -0.014 A 
ATOM     75  C   UNL A   1      47.028  29.160  30.729  1.00  0.00     0.009 A 
ATOM     76  C   UNL A   1      46.091  28.018  32.643  1.00  0.00     0.009 A 
ATOM     77  C   UNL A   1      48.263  28.556  30.974  1.00  0.00     0.001 A 
ATOM     78  C   UNL A   1      47.334  27.439  32.903  1.00  0.00     0.001 A 
ATOM     79  C   UNL A   1      48.416  27.701  32.063  1.00  0.00     0.000 A 
ENDBRANCH  60  74
BRANCH  61  80
ATOM     80  C   UNL A   1      36.853  32.688  29.804  1.00  0.00    -0.014 A 
ATOM     81  C   UNL A   1      36.574  33.427  28.642  1.00  0.00     0.009 A 
ATOM     82  C   UNL A   1      35.839  32.519  30.758  1.00  0.00     0.009 A 
ATOM     83  C   UNL A   1      35.320  34.014  28.459  1.00  0.00     0.001 A 
ATOM     84  C   UNL A   1      34.576  33.082  30.559  1.00  0.00     0.001 A 
ATOM     85  C   UNL A   1      34.320  33.839  29.416  1.00  0.00     0.000 A 
ENDBRANCH  61  80
BRANCH  73  86
ATOM     86  C   UNL A   1      42.508  35.040  33.101  1.00  0.00    -0.014 A 
ATOM     87  C   UNL A   1      43.203  36.073  32.454  1.00  0.00     0.009 A 
ATOM     88  C   UNL A   1      42.044  35.243  34.410  1.00  0.00     0.009 A 
ATOM     89  C   UNL A   1      43.455  37.274  33.119  1.00  0.00     0.001 A 
ATOM     90  C   UNL A   1      42.272  36.455  35.061  1.00  0.00     0.001 A 
ATOM     91  C   UNL A   1      42.986  37.466  34.418  1.00  0.00     0.000 A 
ENDBRANCH  73  86
ENDBRANCH  47  48
ENDBRANCH  39  42
ENDBRANCH  37  38
ENDBRANCH  36  37
ENDBRANCH  35  36
ENDBRANCH  34  35
ENDBRANCH  33  34
ENDBRANCH   1  33
TORSDOF 19
ENDMDL
MODEL 2
REMARK VINA RESULT:      -8.9      1.866      2.891
REMARK SMILES O=C(CC[NH+]1CCC([N@H+]2CCC[C@H](C(=O)NCc3cccnc3)C2)CC1)NCCCCCCNC(=O)c1ccc(-c2c3nc(c(-c4ccccc4)c4ccc([nH]4)c(-c4ccccc4)c4nc(c(-c5ccccc5)c5ccc2[nH]5)C=C4)C=C3)cc1
REMARK SMILES IDX 28 1 27 2 1 3 2 4 3 6 4 7 5 8 6 9 26 10 7 12 25 13 8 14 9 15
REMARK SMILES IDX 10 16 24 17 11 19 13 20 12 21 14 22 15 23 16 24 17 26 18 27
REMARK SMILES IDX 19 28 23 29 20 30 22 31 21 32 29 33 30 34 31 35 32 36 33 37
REMARK SMILES IDX 34 38 35 39 36 41 37 42 38 43 84 44 39 45 83 46 40 47 41 48
REMARK SMILES IDX 42 49 77 50 43 51 82 52 76 53 78 54 44 55 81 56 75 57 74 58
REMARK SMILES IDX 45 60 67 61 52 62 66 63 53 64 56 65 65 66 79 67 54 68 55 69
REMARK SMILES IDX 64 71 80 72 57 73 46 74 47 75 51 76 48 77 50 78 49 79 68 80
REMARK SMILES IDX 69 81 73 82 70 83 72 84 71 85 58 86 59 87 63 88 60 89 62 90
REMARK SMILES IDX 61 91
REMARK H PARENT 27 5 5 11 9 18 16 25 34 40 78 59 56 70
REMARK Flexibility Score: inf
ROOT
ATOM      1  C   UNL A   1      46.169  27.200  25.221  1.00  0.00     0.116 C 
ENDROOT
BRANCH   1   2
ATOM      2  N   UNL A   1      45.386  27.966  26.173  1.00  0.00    -0.356 N 
ATOM      3  O   UNL A   1      46.659  29.866  26.001  1.00  0.00    -0.275 OA
ATOM      4  C   UNL A   1      45.648  29.302  26.406  1.00  0.00     0.225 C 
ATOM      5  H   UNL A   1      44.654  27.525  26.661  1.00  0.00     0.163 HD
BRANCH   4   6
ATOM      6  C   UNL A   1      44.532  30.034  27.132  1.00  0.00     0.161 C 
BRANCH   6   7
ATOM      7  C   UNL A   1      45.073  31.167  28.026  1.00  0.00     0.272 C 
BRANCH   7   8
ATOM      8  N   UNL A   1      44.426  32.498  27.964  1.00  0.00    -0.334 N 
ATOM      9  C   UNL A   1      44.873  33.382  29.040  1.00  0.00     0.268 C 
ATOM     10  C   UNL A   1      44.492  33.129  26.642  1.00  0.00     0.268 C 
ATOM     11  H   UNL A   1      43.433  32.326  28.121  1.00  0.00     0.348 HD
ATOM     12  C   UNL A   1      44.126  34.703  29.058  1.00  0.00     0.126 C 
ATOM     13  C   UNL A   1      43.778  34.497  26.605  1.00  0.00     0.126 C 
ATOM     14  C   UNL A   1      44.326  35.413  27.712  1.00  0.00     0.195 C 
BRANCH  14  15
ATOM     15  N   UNL A   1      43.780  36.791  27.618  1.00  0.00    -0.331 N 
ATOM     16  C   UNL A   1      42.562  36.901  26.804  1.00  0.00     0.262 C 
ATOM     17  C   UNL A   1      43.553  37.338  28.967  1.00  0.00     0.275 C 
ATOM     18  H   UNL A   1      44.486  37.344  27.133  1.00  0.00     0.348 HD
ATOM     19  C   UNL A   1      42.045  38.332  26.703  1.00  0.00     0.062 C 
ATOM     20  C   UNL A   1      43.000  38.755  29.043  1.00  0.00     0.133 C 
ATOM     21  C   UNL A   1      41.873  39.021  28.049  1.00  0.00     0.025 C 
BRANCH  20  22
ATOM     22  C   UNL A   1      44.019  39.879  29.221  1.00  0.00     0.229 C 
ATOM     23  O   UNL A   1      45.099  39.820  28.620  1.00  0.00    -0.275 OA
ATOM     24  N   UNL A   1      43.869  40.963  30.013  1.00  0.00    -0.352 N 
ATOM     25  H   UNL A   1      44.684  41.511  30.081  1.00  0.00     0.163 HD
BRANCH  24  26
ATOM     26  C   UNL A   1      42.763  41.481  30.779  1.00  0.00     0.153 C 
BRANCH  26  27
ATOM     27  C   UNL A   1      43.037  42.756  31.521  1.00  0.00    -0.010 A 
ATOM     28  C   UNL A   1      42.302  43.053  32.675  1.00  0.00     0.009 A 
ATOM     29  C   UNL A   1      44.003  43.682  31.134  1.00  0.00     0.116 A 
ATOM     30  C   UNL A   1      42.568  44.215  33.393  1.00  0.00     0.020 A 
ATOM     31  N   UNL A   1      44.284  44.819  31.814  1.00  0.00    -0.264 NA
ATOM     32  C   UNL A   1      43.564  45.055  32.930  1.00  0.00     0.111 A 
ENDBRANCH  26  27
ENDBRANCH  24  26
ENDBRANCH  20  22
ENDBRANCH  14  15
ENDBRANCH   7   8
ENDBRANCH   6   7
ENDBRANCH   4   6
ENDBRANCH   1   2
BRANCH   1  33
ATOM     33  C   UNL A   1      45.820  25.711  25.244  1.00  0.00     0.021 C 
BRANCH  33  34
ATOM     34  C   UNL A   1      44.557  25.367  26.044  1.00  0.00     0.002 C 
BRANCH  34  35
ATOM     35  C   UNL A   1      43.415  24.778  25.217  1.00  0.00     0.002 C 
BRANCH  35  36
ATOM     36  C   UNL A   1      43.242  23.264  25.269  1.00  0.00     0.021 C 
BRANCH  36  37
ATOM     37  C   UNL A   1      42.364  22.744  26.403  1.00  0.00     0.116 C 
BRANCH  37  38
ATOM     38  N   UNL A   1      41.021  22.360  25.985  1.00  0.00    -0.352 N 
ATOM     39  C   UNL A   1      39.827  23.024  26.163  1.00  0.00     0.251 C 
ATOM     40  H   UNL A   1      40.959  21.502  25.506  1.00  0.00     0.163 HD
ATOM     41  O   UNL A   1      38.768  22.488  25.860  1.00  0.00    -0.269 OA
BRANCH  39  42
ATOM     42  C   UNL A   1      39.822  24.372  26.771  1.00  0.00     0.039 A 
ATOM     43  C   UNL A   1      39.414  24.517  28.100  1.00  0.00     0.014 A 
ATOM     44  C   UNL A   1      40.279  25.476  26.053  1.00  0.00     0.014 A 
ATOM     45  C   UNL A   1      39.581  25.748  28.741  1.00  0.00     0.010 A 
ATOM     46  C   UNL A   1      40.544  26.666  26.720  1.00  0.00     0.010 A 
ATOM     47  C   UNL A   1      40.208  26.812  28.074  1.00  0.00    -0.014 A 
BRANCH  47  48
ATOM     48  C   UNL A   1      40.537  28.087  28.764  1.00  0.00     0.031 A 
ATOM     49  C   UNL A   1      41.885  28.261  29.407  1.00  0.00     0.074 A 
ATOM     50  C   UNL A   1      39.594  29.041  28.897  1.00  0.00     0.049 A 
ATOM     51  N   UNL A   1      42.319  29.236  30.165  1.00  0.00    -0.248 NA
ATOM     52  C   UNL A   1      42.863  27.178  29.205  1.00  0.00     0.031 C 
ATOM     53  C   UNL A   1      38.229  28.972  28.368  1.00  0.00     0.029 A 
ATOM     54  N   UNL A   1      39.638  30.255  29.535  1.00  0.00    -0.354 N 
ATOM     55  C   UNL A   1      43.602  28.869  30.551  1.00  0.00     0.074 A 
ATOM     56  C   UNL A   1      43.857  27.561  29.993  1.00  0.00     0.031 C 
ATOM     57  C   UNL A   1      37.579  30.106  28.676  1.00  0.00     0.029 A 
ATOM     58  C   UNL A   1      38.460  30.962  29.462  1.00  0.00     0.049 A 
ATOM     59  H   UNL A   1      40.438  30.591  30.001  1.00  0.00     0.167 HD
ATOM     60  C   UNL A   1      44.502  29.571  31.281  1.00  0.00     0.031 A 
ATOM     61  C   UNL A   1      38.126  32.159  29.976  1.00  0.00     0.031 A 
ATOM     62  C   UNL A   1      44.261  30.886  31.807  1.00  0.00     0.049 A 
ATOM     63  C   UNL A   1      39.148  32.923  30.773  1.00  0.00     0.074 A 
ATOM     64  C   UNL A   1      45.128  31.704  32.510  1.00  0.00     0.029 A 
ATOM     65  N   UNL A   1      43.069  31.579  31.678  1.00  0.00    -0.354 N 
ATOM     66  N   UNL A   1      40.378  32.586  31.078  1.00  0.00    -0.248 NA
ATOM     67  C   UNL A   1      38.738  34.237  31.288  1.00  0.00     0.031 C 
ATOM     68  C   UNL A   1      44.445  32.880  32.839  1.00  0.00     0.029 A 
ATOM     69  C   UNL A   1      43.172  32.812  32.298  1.00  0.00     0.049 A 
ATOM     70  H   UNL A   1      42.267  31.245  31.213  1.00  0.00     0.167 HD
ATOM     71  C   UNL A   1      40.897  33.658  31.792  1.00  0.00     0.074 A 
ATOM     72  C   UNL A   1      39.855  34.662  31.860  1.00  0.00     0.031 C 
ATOM     73  C   UNL A   1      42.126  33.799  32.345  1.00  0.00     0.031 A 
BRANCH  60  74
ATOM     74  C   UNL A   1      45.835  28.928  31.540  1.00  0.00    -0.014 A 
ATOM     75  C   UNL A   1      46.046  28.133  32.678  1.00  0.00     0.009 A 
ATOM     76  C   UNL A   1      46.882  29.088  30.620  1.00  0.00     0.009 A 
ATOM     77  C   UNL A   1      47.290  27.540  32.907  1.00  0.00     0.001 A 
ATOM     78  C   UNL A   1      48.115  28.470  30.837  1.00  0.00     0.001 A 
ATOM     79  C   UNL A   1      48.321  27.705  31.984  1.00  0.00     0.000 A 
ENDBRANCH  60  74
BRANCH  61  80
ATOM     80  C   UNL A   1      36.771  32.728  29.747  1.00  0.00    -0.014 A 
ATOM     81  C   UNL A   1      36.486  33.432  28.566  1.00  0.00     0.009 A 
ATOM     82  C   UNL A   1      35.764  32.593  30.714  1.00  0.00     0.009 A 
ATOM     83  C   UNL A   1      35.234  34.018  28.374  1.00  0.00     0.001 A 
ATOM     84  C   UNL A   1      34.502  33.156  30.508  1.00  0.00     0.001 A 
ATOM     85  C   UNL A   1      34.241  33.878  29.344  1.00  0.00     0.000 A 
ENDBRANCH  61  80
BRANCH  73  86
ATOM     86  C   UNL A   1      42.424  35.101  33.032  1.00  0.00    -0.014 A 
ATOM     87  C   UNL A   1      41.977  35.355  34.337  1.00  0.00     0.009 A 
ATOM     88  C   UNL A   1      43.201  36.068  32.376  1.00  0.00     0.009 A 
ATOM     89  C   UNL A   1      42.277  36.567  34.960  1.00  0.00     0.001 A 
ATOM     90  C   UNL A   1      43.525  37.266  33.012  1.00  0.00     0.001 A 
ATOM     91  C   UNL A   1      43.054  37.519  34.300  1.00  0.00     0.000 A 
ENDBRANCH  73  86
ENDBRANCH  47  48
ENDBRANCH  39  42
ENDBRANCH  37  38
ENDBRANCH  36  37
ENDBRANCH  35  36
ENDBRANCH  34  35
ENDBRANCH  33  34
ENDBRANCH   1  33
TORSDOF 19
ENDMDL
MODEL 3
REMARK VINA RESULT:      -8.9      3.606      8.772
REMARK SMILES O=C(CC[NH+]1CCC([N@H+]2CCC[C@H](C(=O)NCc3cccnc3)C2)CC1)NCCCCCCNC(=O)c1ccc(-c2c3nc(c(-c4ccccc4)c4ccc([nH]4)c(-c4ccccc4)c4nc(c(-c5ccccc5)c5ccc2[nH]5)C=C4)C=C3)cc1
REMARK SMILES IDX 28 1 27 2 1 3 2 4 3 6 4 7 5 8 6 9 26 10 7 12 25 13 8 14 9 15
REMARK SMILES IDX 10 16 24 17 11 19 13 20 12 21 14 22 15 23 16 24 17 26 18 27
REMARK SMILES IDX 19 28 23 29 20 30 22 31 21 32 29 33 30 34 31 35 32 36 33 37
REMARK SMILES IDX 34 38 35 39 36 41 37 42 38 43 84 44 39 45 83 46 40 47 41 48
REMARK SMILES IDX 42 49 77 50 43 51 82 52 76 53 78 54 44 55 81 56 75 57 74 58
REMARK SMILES IDX 45 60 67 61 52 62 66 63 53 64 56 65 65 66 79 67 54 68 55 69
REMARK SMILES IDX 64 71 80 72 57 73 46 74 47 75 51 76 48 77 50 78 49 79 68 80
REMARK SMILES IDX 69 81 73 82 70 83 72 84 71 85 58 86 59 87 63 88 60 89 62 90
REMARK SMILES IDX 61 91
REMARK H PARENT 27 5 5 11 9 18 16 25 34 40 78 59 56 70
REMARK Flexibility Score: inf
ROOT
ATOM      1  C   UNL A   1      43.619  22.532  24.301  1.00  0.00     0.116 C 
ENDROOT
BRANCH   1   2
ATOM      2  N   UNL A   1      42.672  23.360  25.025  1.00  0.00    -0.356 N 
ATOM      3  O   UNL A   1      41.774  21.631  26.235  1.00  0.00    -0.275 OA
ATOM      4  C   UNL A   1      41.885  22.835  26.030  1.00  0.00     0.225 C 
ATOM      5  H   UNL A   1      42.592  24.314  24.796  1.00  0.00     0.163 HD
BRANCH   4   6
ATOM      6  C   UNL A   1      41.234  23.883  26.918  1.00  0.00     0.161 C 
BRANCH   6   7
ATOM      7  C   UNL A   1      41.704  25.308  26.568  1.00  0.00     0.272 C 
BRANCH   7   8
ATOM      8  N   UNL A   1      41.190  26.447  27.364  1.00  0.00    -0.334 N 
ATOM      9  C   UNL A   1      40.945  27.631  26.541  1.00  0.00     0.268 C 
ATOM     10  C   UNL A   1      40.053  26.105  28.224  1.00  0.00     0.268 C 
ATOM     11  H   UNL A   1      41.942  26.689  28.009  1.00  0.00     0.348 HD
ATOM     12  C   UNL A   1      40.536  28.839  27.365  1.00  0.00     0.126 C 
ATOM     13  C   UNL A   1      39.566  27.304  29.064  1.00  0.00     0.126 C 
ATOM     14  C   UNL A   1      39.262  28.504  28.151  1.00  0.00     0.195 C 
BRANCH  14  15
ATOM     15  N   UNL A   1      38.644  29.630  28.896  1.00  0.00    -0.331 N 
ATOM     16  C   UNL A   1      39.609  30.489  29.595  1.00  0.00     0.262 C 
ATOM     17  C   UNL A   1      37.796  30.429  27.995  1.00  0.00     0.275 C 
ATOM     18  H   UNL A   1      38.072  29.208  29.628  1.00  0.00     0.348 HD
ATOM     19  C   UNL A   1      38.942  31.618  30.374  1.00  0.00     0.062 C 
ATOM     20  C   UNL A   1      37.081  31.623  28.612  1.00  0.00     0.133 C 
ATOM     21  C   UNL A   1      37.964  32.442  29.548  1.00  0.00     0.025 C 
BRANCH  20  22
ATOM     22  C   UNL A   1      35.642  31.396  29.072  1.00  0.00     0.229 C 
ATOM     23  O   UNL A   1      34.740  31.323  28.229  1.00  0.00    -0.275 OA
ATOM     24  N   UNL A   1      35.231  31.284  30.354  1.00  0.00    -0.352 N 
ATOM     25  H   UNL A   1      34.251  31.258  30.449  1.00  0.00     0.163 HD
BRANCH  24  26
ATOM     26  C   UNL A   1      35.931  31.195  31.612  1.00  0.00     0.153 C 
BRANCH  26  27
ATOM     27  C   UNL A   1      35.658  32.310  32.579  1.00  0.00    -0.010 A 
ATOM     28  C   UNL A   1      36.618  32.632  33.546  1.00  0.00     0.009 A 
ATOM     29  C   UNL A   1      34.491  33.069  32.572  1.00  0.00     0.116 A 
ATOM     30  C   UNL A   1      36.395  33.685  34.428  1.00  0.00     0.020 A 
ATOM     31  N   UNL A   1      34.249  34.101  33.416  1.00  0.00    -0.264 NA
ATOM     32  C   UNL A   1      35.208  34.387  34.320  1.00  0.00     0.111 A 
ENDBRANCH  26  27
ENDBRANCH  24  26
ENDBRANCH  20  22
ENDBRANCH  14  15
ENDBRANCH   7   8
ENDBRANCH   6   7
ENDBRANCH   4   6
ENDBRANCH   1   2
BRANCH   1  33
ATOM     33  C   UNL A   1      45.071  22.931  24.573  1.00  0.00     0.021 C 
BRANCH  33  34
ATOM     34  C   UNL A   1      45.264  23.814  25.812  1.00  0.00     0.002 C 
BRANCH  34  35
ATOM     35  C   UNL A   1      46.706  24.253  26.067  1.00  0.00     0.002 C 
BRANCH  35  36
ATOM     36  C   UNL A   1      47.556  24.558  24.839  1.00  0.00     0.021 C 
BRANCH  36  37
ATOM     37  C   UNL A   1      48.419  25.811  24.933  1.00  0.00     0.116 C 
BRANCH  37  38
ATOM     38  N   UNL A   1      48.008  26.884  24.036  1.00  0.00    -0.352 N 
ATOM     39  C   UNL A   1      47.105  27.904  24.249  1.00  0.00     0.251 C 
ATOM     40  H   UNL A   1      48.438  26.880  23.151  1.00  0.00     0.163 HD
ATOM     41  O   UNL A   1      46.781  28.647  23.329  1.00  0.00    -0.269 OA
BRANCH  39  42
ATOM     42  C   UNL A   1      46.486  28.068  25.581  1.00  0.00     0.039 A 
ATOM     43  C   UNL A   1      47.204  28.719  26.589  1.00  0.00     0.014 A 
ATOM     44  C   UNL A   1      45.180  27.640  25.815  1.00  0.00     0.014 A 
ATOM     45  C   UNL A   1      46.566  29.045  27.789  1.00  0.00     0.010 A 
ATOM     46  C   UNL A   1      44.517  28.058  26.962  1.00  0.00     0.010 A 
ATOM     47  C   UNL A   1      45.199  28.774  27.957  1.00  0.00    -0.014 A 
BRANCH  47  48
ATOM     48  C   UNL A   1      44.449  29.235  29.154  1.00  0.00     0.031 A 
ATOM     49  C   UNL A   1      43.911  30.639  29.204  1.00  0.00     0.074 A 
ATOM     50  C   UNL A   1      44.340  28.429  30.229  1.00  0.00     0.049 A 
ATOM     51  N   UNL A   1      43.348  31.273  30.201  1.00  0.00    -0.248 NA
ATOM     52  C   UNL A   1      44.060  31.451  27.984  1.00  0.00     0.031 C 
ATOM     53  C   UNL A   1      44.866  27.065  30.331  1.00  0.00     0.029 A 
ATOM     54  N   UNL A   1      43.760  28.649  31.454  1.00  0.00    -0.354 N 
ATOM     55  C   UNL A   1      43.105  32.560  29.738  1.00  0.00     0.074 A 
ATOM     56  C   UNL A   1      43.631  32.636  28.394  1.00  0.00     0.031 C 
ATOM     57  C   UNL A   1      44.557  26.561  31.537  1.00  0.00     0.029 A 
ATOM     58  C   UNL A   1      43.853  27.577  32.311  1.00  0.00     0.049 A 
ATOM     59  H   UNL A   1      43.316  29.494  31.697  1.00  0.00     0.167 HD
ATOM     60  C   UNL A   1      42.475  33.582  30.365  1.00  0.00     0.031 A 
ATOM     61  C   UNL A   1      43.428  27.433  33.579  1.00  0.00     0.031 A 
ATOM     62  C   UNL A   1      41.923  33.497  31.689  1.00  0.00     0.049 A 
ATOM     63  C   UNL A   1      42.720  28.580  34.247  1.00  0.00     0.074 A 
ATOM     64  C   UNL A   1      41.215  34.457  32.390  1.00  0.00     0.029 A 
ATOM     65  N   UNL A   1      42.007  32.382  32.507  1.00  0.00    -0.354 N 
ATOM     66  N   UNL A   1      42.446  29.771  33.773  1.00  0.00    -0.248 NA
ATOM     67  C   UNL A   1      42.253  28.357  35.623  1.00  0.00     0.031 C 
ATOM     68  C   UNL A   1      40.903  33.935  33.649  1.00  0.00     0.029 A 
ATOM     69  C   UNL A   1      41.374  32.633  33.711  1.00  0.00     0.049 A 
ATOM     70  H   UNL A   1      42.451  31.536  32.266  1.00  0.00     0.167 HD
ATOM     71  C   UNL A   1      41.749  30.428  34.779  1.00  0.00     0.074 A 
ATOM     72  C   UNL A   1      41.628  29.497  35.882  1.00  0.00     0.031 C 
ATOM     73  C   UNL A   1      41.256  31.689  34.790  1.00  0.00     0.031 A 
BRANCH  60  74
ATOM     74  C   UNL A   1      42.341  34.877  29.614  1.00  0.00    -0.014 A 
ATOM     75  C   UNL A   1      43.296  35.897  29.754  1.00  0.00     0.009 A 
ATOM     76  C   UNL A   1      41.270  35.068  28.729  1.00  0.00     0.009 A 
ATOM     77  C   UNL A   1      43.160  37.096  29.051  1.00  0.00     0.001 A 
ATOM     78  C   UNL A   1      41.153  36.255  28.004  1.00  0.00     0.001 A 
ATOM     79  C   UNL A   1      42.093  37.271  28.172  1.00  0.00     0.000 A 
ENDBRANCH  60  74
BRANCH  61  80
ATOM     80  C   UNL A   1      43.640  26.153  34.306  1.00  0.00    -0.014 A 
ATOM     81  C   UNL A   1      44.758  25.986  35.139  1.00  0.00     0.009 A 
ATOM     82  C   UNL A   1      42.746  25.083  34.152  1.00  0.00     0.009 A 
ATOM     83  C   UNL A   1      44.994  24.765  35.774  1.00  0.00     0.001 A 
ATOM     84  C   UNL A   1      42.967  23.872  34.812  1.00  0.00     0.001 A 
ATOM     85  C   UNL A   1      44.097  23.709  35.613  1.00  0.00     0.000 A 
ENDBRANCH  61  80
BRANCH  73  86
ATOM     86  C   UNL A   1      40.502  32.119  36.016  1.00  0.00    -0.014 A 
ATOM     87  C   UNL A   1      39.115  31.937  36.119  1.00  0.00     0.009 A 
ATOM     88  C   UNL A   1      41.201  32.674  37.099  1.00  0.00     0.009 A 
ATOM     89  C   UNL A   1      38.438  32.332  37.274  1.00  0.00     0.001 A 
ATOM     90  C   UNL A   1      40.526  33.042  38.263  1.00  0.00     0.001 A 
ATOM     91  C   UNL A   1      39.143  32.879  38.346  1.00  0.00     0.000 A 
ENDBRANCH  73  86
ENDBRANCH  47  48
ENDBRANCH  39  42
ENDBRANCH  37  38
ENDBRANCH  36  37
ENDBRANCH  35  36
ENDBRANCH  34  35
ENDBRANCH  33  34
ENDBRANCH   1  33
TORSDOF 19
ENDMDL
