MODEL 1
REMARK VINA RESULT:     -10.0      0.000      0.000
REMARK SMILES O=C(Cc1cccn(C(F)F)c1=O)NCCCCCCNC(=O)c1ccc(-c2c3nc(c(-c4ccccc4)c4ccc([nH]4)c(-c4ccccc4)c4nc(c(-c5ccccc5)c5ccc2[nH]5)C=C4)C=C3)cc1
REMARK SMILES IDX 17 1 16 2 15 3 14 4 1 5 2 6 3 8 4 9 5 10 12 11 6 12 8 13
REMARK SMILES IDX 13 14 7 15 9 16 10 17 11 18 18 19 19 20 20 21 21 22 22 23
REMARK SMILES IDX 23 25 24 26 25 27 71 28 26 29 70 30 27 31 28 32 29 33 64 34
REMARK SMILES IDX 30 35 69 36 63 37 65 38 31 39 68 40 62 41 61 42 32 44 54 45
REMARK SMILES IDX 39 46 53 47 40 48 43 49 52 50 66 51 41 52 42 53 51 55 67 56
REMARK SMILES IDX 44 57 33 58 34 59 38 60 35 61 37 62 36 63 55 64 56 65 60 66
REMARK SMILES IDX 57 67 59 68 58 69 45 70 46 71 50 72 47 73 49 74 48 75
REMARK H PARENT 14 7 21 24 65 43 43 54
REMARK Flexibility Score: inf
ROOT
ATOM      1  C   UNL A   1      35.262  32.977  28.033  1.00  0.00     0.002 C 
ENDROOT
BRANCH   1   2
ATOM      2  C   UNL A   1      34.804  31.513  28.092  1.00  0.00     0.021 C 
BRANCH   2   3
ATOM      3  C   UNL A   1      33.474  31.223  27.400  1.00  0.00     0.116 C 
BRANCH   3   4
ATOM      4  N   UNL A   1      33.051  29.855  27.608  1.00  0.00    -0.356 N 
ATOM      5  O   UNL A   1      31.569  29.764  25.852  1.00  0.00    -0.275 OA
ATOM      6  C   UNL A   1      32.134  29.221  26.796  1.00  0.00     0.224 C 
ATOM      7  H   UNL A   1      33.436  29.353  28.363  1.00  0.00     0.163 HD
BRANCH   6   8
ATOM      8  C   UNL A   1      31.897  27.764  27.168  1.00  0.00     0.141 C 
BRANCH   8   9
ATOM      9  C   UNL A   1      32.447  26.786  26.164  1.00  0.00     0.027 A 
ATOM     10  C   UNL A   1      33.742  26.457  25.991  1.00  0.00     0.011 A 
ATOM     11  C   UNL A   1      31.417  26.115  25.295  1.00  0.00     0.258 A 
ATOM     12  C   UNL A   1      34.146  25.470  25.024  1.00  0.00     0.019 A 
ATOM     13  N   UNL A   1      31.891  25.194  24.378  1.00  0.00    -0.258 N 
ATOM     14  O   UNL A   1      30.228  26.392  25.432  1.00  0.00    -0.269 OA
ATOM     15  C   UNL A   1      33.229  24.876  24.256  1.00  0.00     0.095 A 
BRANCH  13  16
ATOM     16  C   UNL A   1      30.931  24.552  23.515  1.00  0.00     0.451 C 
ATOM     17  F   UNL A   1      30.858  25.229  22.337  1.00  0.00    -0.185 F 
ATOM     18  F   UNL A   1      31.366  23.301  23.204  1.00  0.00    -0.185 F 
ENDBRANCH  13  16
ENDBRANCH   8   9
ENDBRANCH   6   8
ENDBRANCH   3   4
ENDBRANCH   2   3
ENDBRANCH   1   2
BRANCH   1  19
ATOM     19  C   UNL A   1      34.867  33.848  29.229  1.00  0.00     0.002 C 
BRANCH  19  20
ATOM     20  C   UNL A   1      33.517  34.555  29.110  1.00  0.00     0.021 C 
BRANCH  20  21
ATOM     21  C   UNL A   1      33.503  36.011  29.562  1.00  0.00     0.116 C 
BRANCH  21  22
ATOM     22  N   UNL A   1      32.530  36.277  30.611  1.00  0.00    -0.352 N 
ATOM     23  C   UNL A   1      32.542  35.883  31.929  1.00  0.00     0.251 C 
ATOM     24  H   UNL A   1      31.754  36.818  30.340  1.00  0.00     0.163 HD
ATOM     25  O   UNL A   1      31.574  36.104  32.650  1.00  0.00    -0.269 OA
BRANCH  23  26
ATOM     26  C   UNL A   1      33.709  35.149  32.468  1.00  0.00     0.039 A 
ATOM     27  C   UNL A   1      34.961  35.759  32.554  1.00  0.00     0.014 A 
ATOM     28  C   UNL A   1      33.550  33.819  32.872  1.00  0.00     0.014 A 
ATOM     29  C   UNL A   1      36.079  34.997  32.878  1.00  0.00     0.010 A 
ATOM     30  C   UNL A   1      34.663  33.078  33.283  1.00  0.00     0.010 A 
ATOM     31  C   UNL A   1      35.945  33.647  33.241  1.00  0.00    -0.014 A 
BRANCH  31  32
ATOM     32  C   UNL A   1      37.161  32.864  33.583  1.00  0.00     0.031 A 
ATOM     33  C   UNL A   1      37.763  31.893  32.603  1.00  0.00     0.074 A 
ATOM     34  C   UNL A   1      37.768  33.083  34.767  1.00  0.00     0.049 A 
ATOM     35  N   UNL A   1      38.862  31.190  32.714  1.00  0.00    -0.248 NA
ATOM     36  C   UNL A   1      37.044  31.680  31.336  1.00  0.00     0.031 C 
ATOM     37  C   UNL A   1      37.289  34.006  35.798  1.00  0.00     0.029 A 
ATOM     38  N   UNL A   1      38.933  32.578  35.287  1.00  0.00    -0.354 N 
ATOM     39  C   UNL A   1      38.959  30.444  31.546  1.00  0.00     0.074 A 
ATOM     40  C   UNL A   1      37.794  30.756  30.748  1.00  0.00     0.031 C 
ATOM     41  C   UNL A   1      38.186  34.055  36.792  1.00  0.00     0.029 A 
ATOM     42  C   UNL A   1      39.270  33.121  36.503  1.00  0.00     0.049 A 
ATOM     43  H   UNL A   1      39.475  31.893  34.832  1.00  0.00     0.167 HD
ATOM     44  C   UNL A   1      39.937  29.587  31.167  1.00  0.00     0.031 A 
ATOM     45  C   UNL A   1      40.328  32.897  37.304  1.00  0.00     0.031 A 
ATOM     46  C   UNL A   1      41.104  29.285  31.955  1.00  0.00     0.049 A 
ATOM     47  C   UNL A   1      41.375  31.909  36.879  1.00  0.00     0.074 A 
ATOM     48  C   UNL A   1      42.163  28.453  31.634  1.00  0.00     0.029 A 
ATOM     49  N   UNL A   1      41.366  29.799  33.215  1.00  0.00    -0.354 N 
ATOM     50  N   UNL A   1      41.461  31.232  35.761  1.00  0.00    -0.248 NA
ATOM     51  C   UNL A   1      42.469  31.652  37.827  1.00  0.00     0.031 C 
ATOM     52  C   UNL A   1      43.035  28.416  32.724  1.00  0.00     0.029 A 
ATOM     53  C   UNL A   1      42.554  29.275  33.698  1.00  0.00     0.049 A 
ATOM     54  H   UNL A   1      40.793  30.441  33.695  1.00  0.00     0.167 HD
ATOM     55  C   UNL A   1      42.619  30.473  35.866  1.00  0.00     0.074 A 
ATOM     56  C   UNL A   1      43.217  30.793  37.146  1.00  0.00     0.031 C 
ATOM     57  C   UNL A   1      43.134  29.588  34.979  1.00  0.00     0.031 A 
BRANCH  44  58
ATOM     58  C   UNL A   1      39.798  28.893  29.840  1.00  0.00    -0.014 A 
ATOM     59  C   UNL A   1      39.347  27.563  29.794  1.00  0.00     0.009 A 
ATOM     60  C   UNL A   1      40.210  29.511  28.649  1.00  0.00     0.009 A 
ATOM     61  C   UNL A   1      39.324  26.862  28.586  1.00  0.00     0.001 A 
ATOM     62  C   UNL A   1      40.161  28.816  27.438  1.00  0.00     0.001 A 
ATOM     63  C   UNL A   1      39.727  27.490  27.410  1.00  0.00     0.000 A 
ENDBRANCH  44  58
BRANCH  45  64
ATOM     64  C   UNL A   1      40.442  33.640  38.586  1.00  0.00    -0.014 A 
ATOM     65  C   UNL A   1      41.173  34.838  38.654  1.00  0.00     0.009 A 
ATOM     66  C   UNL A   1      39.872  33.127  39.760  1.00  0.00     0.009 A 
ATOM     67  C   UNL A   1      41.356  35.490  39.874  1.00  0.00     0.001 A 
ATOM     68  C   UNL A   1      40.030  33.799  40.975  1.00  0.00     0.001 A 
ATOM     69  C   UNL A   1      40.781  34.972  41.034  1.00  0.00     0.000 A 
ENDBRANCH  45  64
BRANCH  57  70
ATOM     70  C   UNL A   1      44.411  28.889  35.352  1.00  0.00    -0.014 A 
ATOM     71  C   UNL A   1      44.366  27.686  36.073  1.00  0.00     0.009 A 
ATOM     72  C   UNL A   1      45.658  29.468  35.070  1.00  0.00     0.009 A 
ATOM     73  C   UNL A   1      45.543  27.082  36.518  1.00  0.00     0.001 A 
ATOM     74  C   UNL A   1      46.835  28.846  35.491  1.00  0.00     0.001 A 
ATOM     75  C   UNL A   1      46.776  27.660  36.222  1.00  0.00     0.000 A 
ENDBRANCH  57  70
ENDBRANCH  31  32
ENDBRANCH  23  26
ENDBRANCH  21  22
ENDBRANCH  20  21
ENDBRANCH  19  20
ENDBRANCH   1  19
TORSDOF 15
ENDMDL
MODEL 2
REMARK VINA RESULT:      -9.6      5.340     10.273
REMARK SMILES O=C(Cc1cccn(C(F)F)c1=O)NCCCCCCNC(=O)c1ccc(-c2c3nc(c(-c4ccccc4)c4ccc([nH]4)c(-c4ccccc4)c4nc(c(-c5ccccc5)c5ccc2[nH]5)C=C4)C=C3)cc1
REMARK SMILES IDX 17 1 16 2 15 3 14 4 1 5 2 6 3 8 4 9 5 10 12 11 6 12 8 13
REMARK SMILES IDX 13 14 7 15 9 16 10 17 11 18 18 19 19 20 20 21 21 22 22 23
REMARK SMILES IDX 23 25 24 26 25 27 71 28 26 29 70 30 27 31 28 32 29 33 64 34
REMARK SMILES IDX 30 35 69 36 63 37 65 38 31 39 68 40 62 41 61 42 32 44 54 45
REMARK SMILES IDX 39 46 53 47 40 48 43 49 52 50 66 51 41 52 42 53 51 55 67 56
REMARK SMILES IDX 44 57 33 58 34 59 38 60 35 61 37 62 36 63 55 64 56 65 60 66
REMARK SMILES IDX 57 67 59 68 58 69 45 70 46 71 50 72 47 73 49 74 48 75
REMARK H PARENT 14 7 21 24 65 43 43 54
REMARK Flexibility Score: inf
ROOT
ATOM      1  C   UNL A   1      35.608  21.765  25.737  1.00  0.00     0.002 C 
ENDROOT
BRANCH   1   2
ATOM      2  C   UNL A   1      34.528  22.810  25.417  1.00  0.00     0.021 C 
BRANCH   2   3
ATOM      3  C   UNL A   1      33.093  22.290  25.458  1.00  0.00     0.116 C 
BRANCH   3   4
ATOM      4  N   UNL A   1      32.132  23.361  25.312  1.00  0.00    -0.356 N 
ATOM      5  O   UNL A   1      31.691  23.632  27.552  1.00  0.00    -0.275 OA
ATOM      6  C   UNL A   1      31.513  23.966  26.385  1.00  0.00     0.224 C 
ATOM      7  H   UNL A   1      31.910  23.674  24.404  1.00  0.00     0.163 HD
BRANCH   6   8
ATOM      8  C   UNL A   1      30.594  25.114  25.989  1.00  0.00     0.141 C 
BRANCH   8   9
ATOM      9  C   UNL A   1      31.288  26.449  25.923  1.00  0.00     0.027 A 
ATOM     10  C   UNL A   1      31.473  27.309  26.943  1.00  0.00     0.011 A 
ATOM     11  C   UNL A   1      31.831  26.820  24.568  1.00  0.00     0.258 A 
ATOM     12  C   UNL A   1      32.195  28.542  26.769  1.00  0.00     0.019 A 
ATOM     13  N   UNL A   1      32.493  28.032  24.482  1.00  0.00    -0.258 N 
ATOM     14  O   UNL A   1      31.680  26.056  23.619  1.00  0.00    -0.269 OA
ATOM     15  C   UNL A   1      32.676  28.868  25.566  1.00  0.00     0.095 A 
BRANCH  13  16
ATOM     16  C   UNL A   1      33.004  28.427  23.193  1.00  0.00     0.451 C 
ATOM     17  F   UNL A   1      31.967  28.776  22.384  1.00  0.00    -0.185 F 
ATOM     18  F   UNL A   1      33.767  29.545  23.331  1.00  0.00    -0.185 F 
ENDBRANCH  13  16
ENDBRANCH   8   9
ENDBRANCH   6   8
ENDBRANCH   3   4
ENDBRANCH   2   3
ENDBRANCH   1   2
BRANCH   1  19
ATOM     19  C   UNL A   1      36.598  21.464  24.609  1.00  0.00     0.002 C 
BRANCH  19  20
ATOM     20  C   UNL A   1      37.560  20.305  24.871  1.00  0.00     0.021 C 
BRANCH  20  21
ATOM     21  C   UNL A   1      38.773  20.648  25.730  1.00  0.00     0.116 C 
BRANCH  21  22
ATOM     22  N   UNL A   1      39.807  19.626  25.698  1.00  0.00    -0.352 N 
ATOM     23  C   UNL A   1      41.134  19.720  26.048  1.00  0.00     0.251 C 
ATOM     24  H   UNL A   1      39.516  18.740  25.382  1.00  0.00     0.163 HD
ATOM     25  O   UNL A   1      41.896  18.778  25.849  1.00  0.00    -0.269 OA
BRANCH  23  26
ATOM     26  C   UNL A   1      41.656  20.978  26.628  1.00  0.00     0.039 A 
ATOM     27  C   UNL A   1      41.661  21.182  28.009  1.00  0.00     0.014 A 
ATOM     28  C   UNL A   1      42.126  21.980  25.772  1.00  0.00     0.014 A 
ATOM     29  C   UNL A   1      41.971  22.438  28.519  1.00  0.00     0.010 A 
ATOM     30  C   UNL A   1      42.521  23.215  26.296  1.00  0.00     0.010 A 
ATOM     31  C   UNL A   1      42.400  23.472  27.670  1.00  0.00    -0.014 A 
BRANCH  31  32
ATOM     32  C   UNL A   1      42.724  24.800  28.251  1.00  0.00     0.031 A 
ATOM     33  C   UNL A   1      44.145  25.189  28.557  1.00  0.00     0.074 A 
ATOM     34  C   UNL A   1      41.730  25.690  28.442  1.00  0.00     0.049 A 
ATOM     35  N   UNL A   1      44.607  26.335  28.994  1.00  0.00    -0.248 NA
ATOM     36  C   UNL A   1      45.186  24.169  28.349  1.00  0.00     0.031 C 
ATOM     37  C   UNL A   1      40.313  25.437  28.174  1.00  0.00     0.029 A 
ATOM     38  N   UNL A   1      41.761  26.995  28.866  1.00  0.00    -0.354 N 
ATOM     39  C   UNL A   1      45.980  26.170  29.126  1.00  0.00     0.074 A 
ATOM     40  C   UNL A   1      46.278  24.805  28.752  1.00  0.00     0.031 C 
ATOM     41  C   UNL A   1      39.621  26.567  28.371  1.00  0.00     0.029 A 
ATOM     42  C   UNL A   1      40.531  27.607  28.842  1.00  0.00     0.049 A 
ATOM     43  H   UNL A   1      42.584  27.449  29.159  1.00  0.00     0.167 HD
ATOM     44  C   UNL A   1      46.909  27.077  29.513  1.00  0.00     0.031 A 
ATOM     45  C   UNL A   1      40.167  28.862  29.163  1.00  0.00     0.031 A 
ATOM     46  C   UNL A   1      46.614  28.439  29.873  1.00  0.00     0.049 A 
ATOM     47  C   UNL A   1      41.210  29.834  29.630  1.00  0.00     0.074 A 
ATOM     48  C   UNL A   1      47.499  29.437  30.246  1.00  0.00     0.029 A 
ATOM     49  N   UNL A   1      45.345  28.994  29.910  1.00  0.00    -0.354 N 
ATOM     50  N   UNL A   1      42.506  29.665  29.726  1.00  0.00    -0.248 NA
ATOM     51  C   UNL A   1      40.743  31.168  30.035  1.00  0.00     0.031 C 
ATOM     52  C   UNL A   1      46.760  30.578  30.566  1.00  0.00     0.029 A 
ATOM     53  C   UNL A   1      45.421  30.312  30.330  1.00  0.00     0.049 A 
ATOM     54  H   UNL A   1      44.514  28.523  29.672  1.00  0.00     0.167 HD
ATOM     55  C   UNL A   1      43.011  30.870  30.196  1.00  0.00     0.074 A 
ATOM     56  C   UNL A   1      41.885  31.770  30.341  1.00  0.00     0.031 C 
ATOM     57  C   UNL A   1      44.294  31.195  30.485  1.00  0.00     0.031 A 
BRANCH  44  58
ATOM     58  C   UNL A   1      48.345  26.636  29.581  1.00  0.00    -0.014 A 
ATOM     59  C   UNL A   1      48.860  26.125  30.784  1.00  0.00     0.009 A 
ATOM     60  C   UNL A   1      49.215  26.821  28.495  1.00  0.00     0.009 A 
ATOM     61  C   UNL A   1      50.219  25.823  30.903  1.00  0.00     0.001 A 
ATOM     62  C   UNL A   1      50.568  26.493  28.609  1.00  0.00     0.001 A 
ATOM     63  C   UNL A   1      51.070  26.004  29.815  1.00  0.00     0.000 A 
ENDBRANCH  44  58
BRANCH  45  64
ATOM     64  C   UNL A   1      38.740  29.262  29.037  1.00  0.00    -0.014 A 
ATOM     65  C   UNL A   1      37.866  29.137  30.129  1.00  0.00     0.009 A 
ATOM     66  C   UNL A   1      38.233  29.714  27.811  1.00  0.00     0.009 A 
ATOM     67  C   UNL A   1      36.508  29.427  29.987  1.00  0.00     0.001 A 
ATOM     68  C   UNL A   1      36.879  30.035  27.681  1.00  0.00     0.001 A 
ATOM     69  C   UNL A   1      36.016  29.879  28.764  1.00  0.00     0.000 A 
ENDBRANCH  45  64
BRANCH  57  70
ATOM     70  C   UNL A   1      44.565  32.583  30.994  1.00  0.00    -0.014 A 
ATOM     71  C   UNL A   1      44.875  33.611  30.090  1.00  0.00     0.009 A 
ATOM     72  C   UNL A   1      44.605  32.852  32.371  1.00  0.00     0.009 A 
ATOM     73  C   UNL A   1      45.233  34.878  30.554  1.00  0.00     0.001 A 
ATOM     74  C   UNL A   1      44.935  34.128  32.831  1.00  0.00     0.001 A 
ATOM     75  C   UNL A   1      45.259  35.136  31.924  1.00  0.00     0.000 A 
ENDBRANCH  57  70
ENDBRANCH  31  32
ENDBRANCH  23  26
ENDBRANCH  21  22
ENDBRANCH  20  21
ENDBRANCH  19  20
ENDBRANCH   1  19
TORSDOF 15
ENDMDL
MODEL 3
REMARK VINA RESULT:      -9.6      7.132     12.369
REMARK SMILES O=C(Cc1cccn(C(F)F)c1=O)NCCCCCCNC(=O)c1ccc(-c2c3nc(c(-c4ccccc4)c4ccc([nH]4)c(-c4ccccc4)c4nc(c(-c5ccccc5)c5ccc2[nH]5)C=C4)C=C3)cc1
REMARK SMILES IDX 17 1 16 2 15 3 14 4 1 5 2 6 3 8 4 9 5 10 12 11 6 12 8 13
REMARK SMILES IDX 13 14 7 15 9 16 10 17 11 18 18 19 19 20 20 21 21 22 22 23
REMARK SMILES IDX 23 25 24 26 25 27 71 28 26 29 70 30 27 31 28 32 29 33 64 34
REMARK SMILES IDX 30 35 69 36 63 37 65 38 31 39 68 40 62 41 61 42 32 44 54 45
REMARK SMILES IDX 39 46 53 47 40 48 43 49 52 50 66 51 41 52 42 53 51 55 67 56
REMARK SMILES IDX 44 57 33 58 34 59 38 60 35 61 37 62 36 63 55 64 56 65 60 66
REMARK SMILES IDX 57 67 59 68 58 69 45 70 46 71 50 72 47 73 49 74 48 75
REMARK H PARENT 14 7 21 24 65 43 43 54
REMARK Flexibility Score: inf
ROOT
ATOM      1  C   UNL A   1      40.938  21.967  27.337  1.00  0.00     0.002 C 
ENDROOT
BRANCH   1   2
ATOM      2  C   UNL A   1      39.778  22.796  26.766  1.00  0.00     0.021 C 
BRANCH   2   3
ATOM      3  C   UNL A   1      38.664  21.984  26.112  1.00  0.00     0.116 C 
BRANCH   3   4
ATOM      4  N   UNL A   1      37.819  22.810  25.277  1.00  0.00    -0.356 N 
ATOM      5  O   UNL A   1      36.709  21.090  24.232  1.00  0.00    -0.275 OA
ATOM      6  C   UNL A   1      36.885  22.291  24.406  1.00  0.00     0.224 C 
ATOM      7  H   UNL A   1      37.915  23.789  25.334  1.00  0.00     0.163 HD
BRANCH   6   8
ATOM      8  C   UNL A   1      36.068  23.355  23.686  1.00  0.00     0.141 C 
BRANCH   8   9
ATOM      9  C   UNL A   1      34.579  23.179  23.836  1.00  0.00     0.027 A 
ATOM     10  C   UNL A   1      33.709  22.848  22.862  1.00  0.00     0.011 A 
ATOM     11  C   UNL A   1      34.049  23.385  25.230  1.00  0.00     0.258 A 
ATOM     12  C   UNL A   1      32.307  22.663  23.135  1.00  0.00     0.019 A 
ATOM     13  N   UNL A   1      32.687  23.208  25.403  1.00  0.00    -0.258 N 
ATOM     14  O   UNL A   1      34.818  23.685  26.138  1.00  0.00    -0.269 OA
ATOM     15  C   UNL A   1      31.840  22.846  24.374  1.00  0.00     0.095 A 
BRANCH  13  16
ATOM     16  C   UNL A   1      32.145  23.422  26.721  1.00  0.00     0.451 C 
ATOM     17  F   UNL A   1      31.925  24.752  26.909  1.00  0.00    -0.185 F 
ATOM     18  F   UNL A   1      30.928  22.822  26.813  1.00  0.00    -0.185 F 
ENDBRANCH  13  16
ENDBRANCH   8   9
ENDBRANCH   6   8
ENDBRANCH   3   4
ENDBRANCH   2   3
ENDBRANCH   1   2
BRANCH   1  19
ATOM     19  C   UNL A   1      41.934  21.419  26.311  1.00  0.00     0.002 C 
BRANCH  19  20
ATOM     20  C   UNL A   1      41.844  19.917  26.044  1.00  0.00     0.021 C 
BRANCH  20  21
ATOM     21  C   UNL A   1      43.127  19.133  26.296  1.00  0.00     0.116 C 
BRANCH  21  22
ATOM     22  N   UNL A   1      43.807  18.735  25.073  1.00  0.00    -0.352 N 
ATOM     23  C   UNL A   1      44.593  19.486  24.230  1.00  0.00     0.251 C 
ATOM     24  H   UNL A   1      43.689  17.793  24.812  1.00  0.00     0.163 HD
ATOM     25  O   UNL A   1      44.998  19.011  23.173  1.00  0.00    -0.269 OA
BRANCH  23  26
ATOM     26  C   UNL A   1      44.917  20.888  24.579  1.00  0.00     0.039 A 
ATOM     27  C   UNL A   1      45.568  21.197  25.773  1.00  0.00     0.014 A 
ATOM     28  C   UNL A   1      44.540  21.912  23.703  1.00  0.00     0.014 A 
ATOM     29  C   UNL A   1      45.688  22.524  26.171  1.00  0.00     0.010 A 
ATOM     30  C   UNL A   1      44.741  23.248  24.066  1.00  0.00     0.010 A 
ATOM     31  C   UNL A   1      45.271  23.566  25.326  1.00  0.00    -0.014 A 
BRANCH  31  32
ATOM     32  C   UNL A   1      45.416  24.973  25.783  1.00  0.00     0.031 A 
ATOM     33  C   UNL A   1      44.262  25.711  26.406  1.00  0.00     0.074 A 
ATOM     34  C   UNL A   1      46.622  25.567  25.695  1.00  0.00     0.049 A 
ATOM     35  N   UNL A   1      44.242  26.913  26.926  1.00  0.00    -0.248 NA
ATOM     36  C   UNL A   1      42.964  25.018  26.455  1.00  0.00     0.031 C 
ATOM     37  C   UNL A   1      47.821  24.954  25.120  1.00  0.00     0.029 A 
ATOM     38  N   UNL A   1      47.051  26.799  26.120  1.00  0.00    -0.354 N 
ATOM     39  C   UNL A   1      42.935  27.125  27.348  1.00  0.00     0.074 A 
ATOM     40  C   UNL A   1      42.182  25.941  27.000  1.00  0.00     0.031 C 
ATOM     41  C   UNL A   1      48.862  25.780  25.292  1.00  0.00     0.029 A 
ATOM     42  C   UNL A   1      48.395  27.008  25.928  1.00  0.00     0.049 A 
ATOM     43  H   UNL A   1      46.452  27.470  26.524  1.00  0.00     0.167 HD
ATOM     44  C   UNL A   1      42.414  28.204  27.980  1.00  0.00     0.031 A 
ATOM     45  C   UNL A   1      49.172  28.066  26.226  1.00  0.00     0.031 A 
ATOM     46  C   UNL A   1      43.167  29.378  28.339  1.00  0.00     0.049 A 
ATOM     47  C   UNL A   1      48.560  29.266  26.887  1.00  0.00     0.074 A 
ATOM     48  C   UNL A   1      42.726  30.506  29.011  1.00  0.00     0.029 A 
ATOM     49  N   UNL A   1      44.508  29.579  28.056  1.00  0.00    -0.354 N 
ATOM     50  N   UNL A   1      47.328  29.437  27.299  1.00  0.00    -0.248 NA
ATOM     51  C   UNL A   1      49.442  30.418  27.121  1.00  0.00     0.031 C 
ATOM     52  C   UNL A   1      43.785  31.414  29.081  1.00  0.00     0.029 A 
ATOM     53  C   UNL A   1      44.903  30.826  28.512  1.00  0.00     0.049 A 
ATOM     54  H   UNL A   1      45.094  28.931  27.600  1.00  0.00     0.167 HD
ATOM     55  C   UNL A   1      47.287  30.713  27.847  1.00  0.00     0.074 A 
ATOM     56  C   UNL A   1      48.623  31.261  27.738  1.00  0.00     0.031 C 
ATOM     57  C   UNL A   1      46.232  31.369  28.386  1.00  0.00     0.031 A 
BRANCH  44  58
ATOM     58  C   UNL A   1      40.951  28.186  28.326  1.00  0.00    -0.014 A 
ATOM     59  C   UNL A   1      40.034  28.864  27.507  1.00  0.00     0.009 A 
ATOM     60  C   UNL A   1      40.491  27.591  29.511  1.00  0.00     0.009 A 
ATOM     61  C   UNL A   1      38.689  28.961  27.873  1.00  0.00     0.001 A 
ATOM     62  C   UNL A   1      39.141  27.666  29.862  1.00  0.00     0.001 A 
ATOM     63  C   UNL A   1      38.244  28.359  29.048  1.00  0.00     0.000 A 
ENDBRANCH  44  58
BRANCH  45  64
ATOM     64  C   UNL A   1      50.623  28.018  25.903  1.00  0.00    -0.014 A 
ATOM     65  C   UNL A   1      51.080  28.364  24.622  1.00  0.00     0.009 A 
ATOM     66  C   UNL A   1      51.549  27.570  26.856  1.00  0.00     0.009 A 
ATOM     67  C   UNL A   1      52.430  28.234  24.291  1.00  0.00     0.001 A 
ATOM     68  C   UNL A   1      52.905  27.471  26.531  1.00  0.00     0.001 A 
ATOM     69  C   UNL A   1      53.342  27.791  25.247  1.00  0.00     0.000 A 
ENDBRANCH  45  64
BRANCH  57  70
ATOM     70  C   UNL A   1      46.464  32.760  28.904  1.00  0.00    -0.014 A 
ATOM     71  C   UNL A   1      46.323  33.860  28.044  1.00  0.00     0.009 A 
ATOM     72  C   UNL A   1      46.913  32.975  30.216  1.00  0.00     0.009 A 
ATOM     73  C   UNL A   1      46.638  35.147  28.481  1.00  0.00     0.001 A 
ATOM     74  C   UNL A   1      47.201  34.267  30.660  1.00  0.00     0.001 A 
ATOM     75  C   UNL A   1      47.073  35.350  29.790  1.00  0.00     0.000 A 
ENDBRANCH  57  70
ENDBRANCH  31  32
ENDBRANCH  23  26
ENDBRANCH  21  22
ENDBRANCH  20  21
ENDBRANCH  19  20
ENDBRANCH   1  19
TORSDOF 15
ENDMDL
