MODEL 1
REMARK VINA RESULT:     -12.1      0.000      0.000
REMARK SMILES Cc1c(-c2nn(-c3ccccc3)cc2/C=N/O)nnn1-c1ccc(C(=O)NCCCCCCNC(=O)c2ccc(-c3c4nc(c(-c5ccccc5)c5ccc([nH]5)c(-c5ccccc5)c5nc(c(-c6ccccc6)c6ccc3[nH]6)C=C5)C=C4)cc2)cc1
REMARK SMILES IDX 29 1 28 2 27 3 25 4 26 5 24 7 21 8 22 9 86 10 23 11 85 12
REMARK SMILES IDX 20 13 1 14 2 15 3 16 18 17 19 18 4 19 5 20 14 21 6 22 13 23
REMARK SMILES IDX 15 24 16 25 17 26 7 28 8 29 12 30 9 31 11 32 10 33 30 34
REMARK SMILES IDX 31 35 32 36 33 37 34 38 35 39 36 41 37 42 38 43 84 44 39 45
REMARK SMILES IDX 83 46 40 47 41 48 42 49 77 50 43 51 82 52 76 53 78 54 44 55
REMARK SMILES IDX 81 56 75 57 74 58 45 60 67 61 52 62 66 63 53 64 56 65 65 66
REMARK SMILES IDX 79 67 54 68 55 69 64 71 80 72 57 73 46 74 47 75 51 76 48 77
REMARK SMILES IDX 50 78 49 79 68 80 69 81 73 82 70 83 72 84 71 85 58 86 59 87
REMARK SMILES IDX 63 88 60 89 62 90 61 91
REMARK H PARENT 27 6 17 27 34 40 78 59 56 70
REMARK Flexibility Score: inf
ROOT
ATOM      1  C   UNL A   1      30.352  31.966  24.832  1.00  0.00     0.021 C 
ENDROOT
BRANCH   1   2
ATOM      2  C   UNL A   1      29.110  31.189  24.386  1.00  0.00     0.116 C 
BRANCH   2   3
ATOM      3  N   UNL A   1      29.078  31.091  22.942  1.00  0.00    -0.352 N 
ATOM      4  C   UNL A   1      29.653  30.233  22.042  1.00  0.00     0.251 C 
ATOM      5  O   UNL A   1      29.437  30.449  20.849  1.00  0.00    -0.269 OA
ATOM      6  H   UNL A   1      28.528  31.787  22.517  1.00  0.00     0.163 HD
BRANCH   4   7
ATOM      7  C   UNL A   1      30.457  29.035  22.425  1.00  0.00     0.039 A 
ATOM      8  C   UNL A   1      32.139  26.846  22.953  1.00  0.00     0.067 A 
ATOM      9  C   UNL A   1      32.698  28.092  22.666  1.00  0.00     0.029 A 
ATOM     10  C   UNL A   1      30.753  26.705  23.054  1.00  0.00     0.029 A 
ATOM     11  C   UNL A   1      31.856  29.167  22.368  1.00  0.00     0.016 A 
ATOM     12  C   UNL A   1      29.926  27.815  22.851  1.00  0.00     0.016 A 
BRANCH   8  13
ATOM     13  N   UNL A   1      32.981  25.743  23.201  1.00  0.00    -0.217 N 
ATOM     14  C   UNL A   1      33.102  25.779  25.739  1.00  0.00     0.069 C 
ATOM     15  C   UNL A   1      33.539  25.331  24.396  1.00  0.00     0.071 A 
ATOM     16  C   UNL A   1      34.440  24.362  23.998  1.00  0.00     0.137 A 
ATOM     17  N   UNL A   1      34.330  24.134  22.659  1.00  0.00    -0.128 NA
ATOM     18  N   UNL A   1      33.376  24.932  22.192  1.00  0.00    -0.061 NA
BRANCH  16  19
ATOM     19  C   UNL A   1      35.306  23.545  24.836  1.00  0.00     0.124 A 
ATOM     20  N   UNL A   1      36.469  24.014  25.299  1.00  0.00    -0.165 NA
ATOM     21  C   UNL A   1      35.079  22.197  25.202  1.00  0.00     0.044 A 
ATOM     22  N   UNL A   1      37.060  22.944  25.866  1.00  0.00    -0.240 N 
ATOM     23  C   UNL A   1      36.259  21.826  25.820  1.00  0.00     0.125 A 
BRANCH  21  24
ATOM     24  C   UNL A   1      33.941  21.333  25.023  1.00  0.00     0.166 C 
ATOM     25  N   UNL A   1      32.890  21.478  25.762  1.00  0.00    -0.097 NA
BRANCH  25  26
ATOM     26  O   UNL A   1      31.951  20.496  25.421  1.00  0.00    -0.411 OA
ATOM     27  H   UNL A   1      31.129  20.744  25.044  1.00  0.00     0.330 HD
ENDBRANCH  25  26
ENDBRANCH  21  24
BRANCH  22  28
ATOM     28  C   UNL A   1      38.373  23.039  26.375  1.00  0.00     0.065 A 
ATOM     29  C   UNL A   1      39.225  21.933  26.267  1.00  0.00     0.028 A 
ATOM     30  C   UNL A   1      38.802  24.211  27.008  1.00  0.00     0.028 A 
ATOM     31  C   UNL A   1      40.522  22.011  26.772  1.00  0.00     0.002 A 
ATOM     32  C   UNL A   1      40.083  24.257  27.561  1.00  0.00     0.002 A 
ATOM     33  C   UNL A   1      40.944  23.165  27.432  1.00  0.00     0.000 A 
ENDBRANCH  22  28
ENDBRANCH  16  19
ENDBRANCH   8  13
ENDBRANCH   4   7
ENDBRANCH   2   3
ENDBRANCH   1   2
BRANCH   1  34
ATOM     34  C   UNL A   1      31.034  31.352  26.062  1.00  0.00     0.002 C 
BRANCH  34  35
ATOM     35  C   UNL A   1      31.843  30.070  25.791  1.00  0.00     0.002 C 
BRANCH  35  36
ATOM     36  C   UNL A   1      32.321  29.304  27.034  1.00  0.00     0.021 C 
BRANCH  36  37
ATOM     37  C   UNL A   1      33.751  29.640  27.423  1.00  0.00     0.116 C 
BRANCH  37  38
ATOM     38  N   UNL A   1      34.059  31.053  27.209  1.00  0.00    -0.352 N 
ATOM     39  C   UNL A   1      35.150  31.772  27.653  1.00  0.00     0.251 C 
ATOM     40  H   UNL A   1      33.401  31.557  26.678  1.00  0.00     0.163 HD
ATOM     41  O   UNL A   1      35.118  32.989  27.718  1.00  0.00    -0.269 OA
BRANCH  39  42
ATOM     42  C   UNL A   1      36.365  31.035  28.043  1.00  0.00     0.039 A 
ATOM     43  C   UNL A   1      36.586  29.726  27.612  1.00  0.00     0.014 A 
ATOM     44  C   UNL A   1      37.295  31.685  28.852  1.00  0.00     0.014 A 
ATOM     45  C   UNL A   1      37.784  29.105  27.950  1.00  0.00     0.010 A 
ATOM     46  C   UNL A   1      38.537  31.140  29.041  1.00  0.00     0.010 A 
ATOM     47  C   UNL A   1      38.764  29.829  28.652  1.00  0.00    -0.014 A 
BRANCH  47  48
ATOM     48  C   UNL A   1      40.082  29.260  28.895  1.00  0.00     0.031 A 
ATOM     49  C   UNL A   1      40.327  28.869  30.307  1.00  0.00     0.074 A 
ATOM     50  C   UNL A   1      40.941  28.924  27.908  1.00  0.00     0.049 A 
ATOM     51  N   UNL A   1      41.164  29.401  31.129  1.00  0.00    -0.248 NA
ATOM     52  C   UNL A   1      39.447  27.858  30.918  1.00  0.00     0.031 C 
ATOM     53  C   UNL A   1      40.733  28.952  26.455  1.00  0.00     0.029 A 
ATOM     54  N   UNL A   1      42.176  28.369  28.016  1.00  0.00    -0.354 N 
ATOM     55  C   UNL A   1      41.056  28.681  32.312  1.00  0.00     0.074 A 
ATOM     56  C   UNL A   1      39.883  27.855  32.180  1.00  0.00     0.031 C 
ATOM     57  C   UNL A   1      41.693  28.223  25.843  1.00  0.00     0.029 A 
ATOM     58  C   UNL A   1      42.678  27.833  26.835  1.00  0.00     0.049 A 
ATOM     59  H   UNL A   1      42.678  28.349  28.863  1.00  0.00     0.167 HD
ATOM     60  C   UNL A   1      42.073  28.653  33.218  1.00  0.00     0.031 A 
ATOM     61  C   UNL A   1      43.814  27.106  26.695  1.00  0.00     0.031 A 
ATOM     62  C   UNL A   1      43.033  29.700  32.972  1.00  0.00     0.049 A 
ATOM     63  C   UNL A   1      44.662  27.387  27.874  1.00  0.00     0.074 A 
ATOM     64  C   UNL A   1      42.968  31.079  32.936  1.00  0.00     0.029 A 
ATOM     65  N   UNL A   1      44.173  29.360  32.282  1.00  0.00    -0.354 N 
ATOM     66  N   UNL A   1      45.199  28.552  28.103  1.00  0.00    -0.248 NA
ATOM     67  C   UNL A   1      44.525  26.523  29.034  1.00  0.00     0.031 C 
ATOM     68  C   UNL A   1      43.771  31.451  31.816  1.00  0.00     0.029 A 
ATOM     69  C   UNL A   1      44.349  30.294  31.292  1.00  0.00     0.049 A 
ATOM     70  H   UNL A   1      44.757  28.588  32.465  1.00  0.00     0.167 HD
ATOM     71  C   UNL A   1      45.044  28.747  29.467  1.00  0.00     0.074 A 
ATOM     72  C   UNL A   1      44.712  27.426  30.002  1.00  0.00     0.031 C 
ATOM     73  C   UNL A   1      44.915  30.001  29.992  1.00  0.00     0.031 A 
BRANCH  60  74
ATOM     74  C   UNL A   1      42.394  27.451  34.063  1.00  0.00    -0.014 A 
ATOM     75  C   UNL A   1      43.363  26.538  33.611  1.00  0.00     0.009 A 
ATOM     76  C   UNL A   1      41.594  27.039  35.147  1.00  0.00     0.009 A 
ATOM     77  C   UNL A   1      43.480  25.261  34.176  1.00  0.00     0.001 A 
ATOM     78  C   UNL A   1      41.734  25.782  35.739  1.00  0.00     0.001 A 
ATOM     79  C   UNL A   1      42.661  24.883  35.235  1.00  0.00     0.000 A 
ENDBRANCH  60  74
BRANCH  61  80
ATOM     80  C   UNL A   1      44.100  25.986  25.772  1.00  0.00    -0.014 A 
ATOM     81  C   UNL A   1      45.423  25.629  25.463  1.00  0.00     0.009 A 
ATOM     82  C   UNL A   1      43.081  25.080  25.426  1.00  0.00     0.009 A 
ATOM     83  C   UNL A   1      45.717  24.392  24.872  1.00  0.00     0.001 A 
ATOM     84  C   UNL A   1      43.375  23.846  24.835  1.00  0.00     0.001 A 
ATOM     85  C   UNL A   1      44.694  23.494  24.574  1.00  0.00     0.000 A 
ENDBRANCH  61  80
BRANCH  73  86
ATOM     86  C   UNL A   1      45.146  31.182  29.074  1.00  0.00    -0.014 A 
ATOM     87  C   UNL A   1      44.152  31.720  28.235  1.00  0.00     0.009 A 
ATOM     88  C   UNL A   1      46.368  31.864  29.169  1.00  0.00     0.009 A 
ATOM     89  C   UNL A   1      44.388  32.886  27.495  1.00  0.00     0.001 A 
ATOM     90  C   UNL A   1      46.595  33.039  28.448  1.00  0.00     0.001 A 
ATOM     91  C   UNL A   1      45.609  33.546  27.607  1.00  0.00     0.000 A 
ENDBRANCH  73  86
ENDBRANCH  47  48
ENDBRANCH  39  42
ENDBRANCH  37  38
ENDBRANCH  36  37
ENDBRANCH  35  36
ENDBRANCH  34  35
ENDBRANCH   1  34
TORSDOF 18
ENDMDL
MODEL 2
REMARK VINA RESULT:     -11.9      2.348      5.930
REMARK SMILES Cc1c(-c2nn(-c3ccccc3)cc2/C=N/O)nnn1-c1ccc(C(=O)NCCCCCCNC(=O)c2ccc(-c3c4nc(c(-c5ccccc5)c5ccc([nH]5)c(-c5ccccc5)c5nc(c(-c6ccccc6)c6ccc3[nH]6)C=C5)C=C4)cc2)cc1
REMARK SMILES IDX 29 1 28 2 27 3 25 4 26 5 24 7 21 8 22 9 86 10 23 11 85 12
REMARK SMILES IDX 20 13 1 14 2 15 3 16 18 17 19 18 4 19 5 20 14 21 6 22 13 23
REMARK SMILES IDX 15 24 16 25 17 26 7 28 8 29 12 30 9 31 11 32 10 33 30 34
REMARK SMILES IDX 31 35 32 36 33 37 34 38 35 39 36 41 37 42 38 43 84 44 39 45
REMARK SMILES IDX 83 46 40 47 41 48 42 49 77 50 43 51 82 52 76 53 78 54 44 55
REMARK SMILES IDX 81 56 75 57 74 58 45 60 67 61 52 62 66 63 53 64 56 65 65 66
REMARK SMILES IDX 79 67 54 68 55 69 64 71 80 72 57 73 46 74 47 75 51 76 48 77
REMARK SMILES IDX 50 78 49 79 68 80 69 81 73 82 70 83 72 84 71 85 58 86 59 87
REMARK SMILES IDX 63 88 60 89 62 90 61 91
REMARK H PARENT 27 6 17 27 34 40 78 59 56 70
REMARK Flexibility Score: inf
ROOT
ATOM      1  C   UNL A   1      31.617  30.474  25.240  1.00  0.00     0.021 C 
ENDROOT
BRANCH   1   2
ATOM      2  C   UNL A   1      30.221  31.022  24.931  1.00  0.00     0.116 C 
BRANCH   2   3
ATOM      3  N   UNL A   1      29.853  30.703  23.568  1.00  0.00    -0.352 N 
ATOM      4  C   UNL A   1      30.197  29.691  22.711  1.00  0.00     0.251 C 
ATOM      5  O   UNL A   1      29.711  29.729  21.580  1.00  0.00    -0.269 OA
ATOM      6  H   UNL A   1      29.224  31.348  23.173  1.00  0.00     0.163 HD
BRANCH   4   7
ATOM      7  C   UNL A   1      31.060  28.533  23.088  1.00  0.00     0.039 A 
ATOM      8  C   UNL A   1      32.542  26.335  24.020  1.00  0.00     0.067 A 
ATOM      9  C   UNL A   1      31.156  26.350  24.181  1.00  0.00     0.029 A 
ATOM     10  C   UNL A   1      33.181  27.369  23.331  1.00  0.00     0.029 A 
ATOM     11  C   UNL A   1      30.430  27.463  23.748  1.00  0.00     0.016 A 
ATOM     12  C   UNL A   1      32.427  28.428  22.815  1.00  0.00     0.016 A 
BRANCH   8  13
ATOM     13  N   UNL A   1      33.290  25.241  24.502  1.00  0.00    -0.217 N 
ATOM     14  C   UNL A   1      33.446  23.796  22.418  1.00  0.00     0.069 C 
ATOM     15  C   UNL A   1      33.583  24.047  23.872  1.00  0.00     0.071 A 
ATOM     16  C   UNL A   1      34.126  23.286  24.890  1.00  0.00     0.137 A 
ATOM     17  N   UNL A   1      34.253  24.032  26.023  1.00  0.00    -0.128 NA
ATOM     18  N   UNL A   1      33.810  25.254  25.752  1.00  0.00    -0.061 NA
BRANCH  16  19
ATOM     19  C   UNL A   1      34.652  21.931  24.812  1.00  0.00     0.124 A 
ATOM     20  N   UNL A   1      33.847  20.882  24.615  1.00  0.00    -0.165 NA
ATOM     21  C   UNL A   1      36.004  21.552  24.988  1.00  0.00     0.044 A 
ATOM     22  N   UNL A   1      34.646  19.810  24.780  1.00  0.00    -0.240 N 
ATOM     23  C   UNL A   1      35.953  20.171  25.016  1.00  0.00     0.125 A 
BRANCH  21  24
ATOM     24  C   UNL A   1      37.209  22.331  25.118  1.00  0.00     0.166 C 
ATOM     25  N   UNL A   1      38.208  21.876  25.801  1.00  0.00    -0.097 NA
BRANCH  25  26
ATOM     26  O   UNL A   1      39.231  22.833  25.809  1.00  0.00    -0.411 OA
ATOM     27  H   UNL A   1      39.927  22.769  26.434  1.00  0.00     0.330 HD
ENDBRANCH  25  26
ENDBRANCH  21  24
BRANCH  22  28
ATOM     28  C   UNL A   1      34.107  18.506  24.750  1.00  0.00     0.065 A 
ATOM     29  C   UNL A   1      32.882  18.263  25.382  1.00  0.00     0.028 A 
ATOM     30  C   UNL A   1      34.807  17.466  24.128  1.00  0.00     0.028 A 
ATOM     31  C   UNL A   1      32.341  16.978  25.367  1.00  0.00     0.002 A 
ATOM     32  C   UNL A   1      34.284  16.173  24.170  1.00  0.00     0.002 A 
ATOM     33  C   UNL A   1      33.049  15.932  24.776  1.00  0.00     0.000 A 
ENDBRANCH  22  28
ENDBRANCH  16  19
ENDBRANCH   8  13
ENDBRANCH   4   7
ENDBRANCH   2   3
ENDBRANCH   1   2
BRANCH   1  34
ATOM     34  C   UNL A   1      31.678  29.697  26.562  1.00  0.00     0.002 C 
BRANCH  34  35
ATOM     35  C   UNL A   1      33.025  29.769  27.303  1.00  0.00     0.002 C 
BRANCH  35  36
ATOM     36  C   UNL A   1      34.075  28.728  26.886  1.00  0.00     0.021 C 
BRANCH  36  37
ATOM     37  C   UNL A   1      35.479  29.087  27.342  1.00  0.00     0.116 C 
BRANCH  37  38
ATOM     38  N   UNL A   1      35.486  29.679  28.679  1.00  0.00    -0.352 N 
ATOM     39  C   UNL A   1      36.420  29.525  29.683  1.00  0.00     0.251 C 
ATOM     40  H   UNL A   1      34.723  30.265  28.890  1.00  0.00     0.163 HD
ATOM     41  O   UNL A   1      36.142  29.770  30.845  1.00  0.00    -0.269 OA
BRANCH  39  42
ATOM     42  C   UNL A   1      37.771  29.062  29.320  1.00  0.00     0.039 A 
ATOM     43  C   UNL A   1      38.485  29.660  28.280  1.00  0.00     0.014 A 
ATOM     44  C   UNL A   1      38.322  28.011  30.050  1.00  0.00     0.014 A 
ATOM     45  C   UNL A   1      39.785  29.232  28.029  1.00  0.00     0.010 A 
ATOM     46  C   UNL A   1      39.651  27.708  29.916  1.00  0.00     0.010 A 
ATOM     47  C   UNL A   1      40.367  28.265  28.867  1.00  0.00    -0.014 A 
BRANCH  47  48
ATOM     48  C   UNL A   1      41.769  27.900  28.724  1.00  0.00     0.031 A 
ATOM     49  C   UNL A   1      42.000  26.662  27.936  1.00  0.00     0.074 A 
ATOM     50  C   UNL A   1      42.789  28.705  29.091  1.00  0.00     0.049 A 
ATOM     51  N   UNL A   1      42.466  25.540  28.367  1.00  0.00    -0.248 NA
ATOM     52  C   UNL A   1      41.536  26.621  26.539  1.00  0.00     0.031 C 
ATOM     53  C   UNL A   1      42.741  30.085  29.592  1.00  0.00     0.029 A 
ATOM     54  N   UNL A   1      44.125  28.481  28.983  1.00  0.00    -0.354 N 
ATOM     55  C   UNL A   1      42.530  24.698  27.263  1.00  0.00     0.074 A 
ATOM     56  C   UNL A   1      41.802  25.356  26.207  1.00  0.00     0.031 C 
ATOM     57  C   UNL A   1      43.970  30.642  29.513  1.00  0.00     0.029 A 
ATOM     58  C   UNL A   1      44.918  29.612  29.131  1.00  0.00     0.049 A 
ATOM     59  H   UNL A   1      44.501  27.587  28.814  1.00  0.00     0.167 HD
ATOM     60  C   UNL A   1      43.373  23.629  27.238  1.00  0.00     0.031 A 
ATOM     61  C   UNL A   1      46.258  29.693  28.935  1.00  0.00     0.031 A 
ATOM     62  C   UNL A   1      43.858  23.303  28.555  1.00  0.00     0.049 A 
ATOM     63  C   UNL A   1      46.796  28.317  29.018  1.00  0.00     0.074 A 
ATOM     64  C   UNL A   1      43.254  22.927  29.739  1.00  0.00     0.029 A 
ATOM     65  N   UNL A   1      45.104  23.769  28.901  1.00  0.00    -0.354 N 
ATOM     66  N   UNL A   1      46.799  27.619  30.118  1.00  0.00    -0.248 NA
ATOM     67  C   UNL A   1      46.893  27.548  27.789  1.00  0.00     0.031 C 
ATOM     68  C   UNL A   1      43.955  23.650  30.749  1.00  0.00     0.029 A 
ATOM     69  C   UNL A   1      44.997  24.351  30.140  1.00  0.00     0.049 A 
ATOM     70  H   UNL A   1      45.925  23.698  28.361  1.00  0.00     0.167 HD
ATOM     71  C   UNL A   1      46.437  26.340  29.721  1.00  0.00     0.074 A 
ATOM     72  C   UNL A   1      46.603  26.334  28.268  1.00  0.00     0.031 C 
ATOM     73  C   UNL A   1      45.765  25.502  30.564  1.00  0.00     0.031 A 
BRANCH  60  74
ATOM     74  C   UNL A   1      44.056  23.144  25.987  1.00  0.00    -0.014 A 
ATOM     75  C   UNL A   1      43.944  21.789  25.631  1.00  0.00     0.009 A 
ATOM     76  C   UNL A   1      45.023  23.902  25.298  1.00  0.00     0.009 A 
ATOM     77  C   UNL A   1      44.796  21.214  24.679  1.00  0.00     0.001 A 
ATOM     78  C   UNL A   1      45.847  23.342  24.320  1.00  0.00     0.001 A 
ATOM     79  C   UNL A   1      45.751  21.990  24.029  1.00  0.00     0.000 A 
ENDBRANCH  60  74
BRANCH  61  80
ATOM     80  C   UNL A   1      47.060  30.819  28.410  1.00  0.00    -0.014 A 
ATOM     81  C   UNL A   1      46.920  31.242  27.078  1.00  0.00     0.009 A 
ATOM     82  C   UNL A   1      47.747  31.669  29.296  1.00  0.00     0.009 A 
ATOM     83  C   UNL A   1      47.409  32.489  26.661  1.00  0.00     0.001 A 
ATOM     84  C   UNL A   1      48.236  32.912  28.880  1.00  0.00     0.001 A 
ATOM     85  C   UNL A   1      48.052  33.330  27.566  1.00  0.00     0.000 A 
ENDBRANCH  61  80
BRANCH  73  86
ATOM     86  C   UNL A   1      45.603  25.928  32.008  1.00  0.00    -0.014 A 
ATOM     87  C   UNL A   1      44.572  26.774  32.456  1.00  0.00     0.009 A 
ATOM     88  C   UNL A   1      46.434  25.335  32.970  1.00  0.00     0.009 A 
ATOM     89  C   UNL A   1      44.400  27.040  33.821  1.00  0.00     0.001 A 
ATOM     90  C   UNL A   1      46.249  25.582  34.332  1.00  0.00     0.001 A 
ATOM     91  C   UNL A   1      45.238  26.439  34.757  1.00  0.00     0.000 A 
ENDBRANCH  73  86
ENDBRANCH  47  48
ENDBRANCH  39  42
ENDBRANCH  37  38
ENDBRANCH  36  37
ENDBRANCH  35  36
ENDBRANCH  34  35
ENDBRANCH   1  34
TORSDOF 18
ENDMDL
MODEL 3
REMARK VINA RESULT:     -11.5      1.807      3.108
REMARK SMILES Cc1c(-c2nn(-c3ccccc3)cc2/C=N/O)nnn1-c1ccc(C(=O)NCCCCCCNC(=O)c2ccc(-c3c4nc(c(-c5ccccc5)c5ccc([nH]5)c(-c5ccccc5)c5nc(c(-c6ccccc6)c6ccc3[nH]6)C=C5)C=C4)cc2)cc1
REMARK SMILES IDX 29 1 28 2 27 3 25 4 26 5 24 7 21 8 22 9 86 10 23 11 85 12
REMARK SMILES IDX 20 13 1 14 2 15 3 16 18 17 19 18 4 19 5 20 14 21 6 22 13 23
REMARK SMILES IDX 15 24 16 25 17 26 7 28 8 29 12 30 9 31 11 32 10 33 30 34
REMARK SMILES IDX 31 35 32 36 33 37 34 38 35 39 36 41 37 42 38 43 84 44 39 45
REMARK SMILES IDX 83 46 40 47 41 48 42 49 77 50 43 51 82 52 76 53 78 54 44 55
REMARK SMILES IDX 81 56 75 57 74 58 45 60 67 61 52 62 66 63 53 64 56 65 65 66
REMARK SMILES IDX 79 67 54 68 55 69 64 71 80 72 57 73 46 74 47 75 51 76 48 77
REMARK SMILES IDX 50 78 49 79 68 80 69 81 73 82 70 83 72 84 71 85 58 86 59 87
REMARK SMILES IDX 63 88 60 89 62 90 61 91
REMARK H PARENT 27 6 17 27 34 40 78 59 56 70
REMARK Flexibility Score: inf
ROOT
ATOM      1  C   UNL A   1      30.841  30.462  24.966  1.00  0.00     0.021 C 
ENDROOT
BRANCH   1   2
ATOM      2  C   UNL A   1      29.836  31.449  24.365  1.00  0.00     0.116 C 
BRANCH   2   3
ATOM      3  N   UNL A   1      29.373  30.964  23.082  1.00  0.00    -0.352 N 
ATOM      4  C   UNL A   1      29.612  29.824  22.362  1.00  0.00     0.251 C 
ATOM      5  O   UNL A   1      29.063  29.732  21.263  1.00  0.00    -0.269 OA
ATOM      6  H   UNL A   1      28.756  31.585  22.631  1.00  0.00     0.163 HD
BRANCH   4   7
ATOM      7  C   UNL A   1      30.434  28.680  22.856  1.00  0.00     0.039 A 
ATOM      8  C   UNL A   1      31.817  26.516  23.996  1.00  0.00     0.067 A 
ATOM      9  C   UNL A   1      30.422  26.534  24.024  1.00  0.00     0.029 A 
ATOM     10  C   UNL A   1      32.520  27.528  23.337  1.00  0.00     0.029 A 
ATOM     11  C   UNL A   1      29.742  27.632  23.489  1.00  0.00     0.016 A 
ATOM     12  C   UNL A   1      31.820  28.568  22.717  1.00  0.00     0.016 A 
BRANCH   8  13
ATOM     13  N   UNL A   1      32.514  25.439  24.582  1.00  0.00    -0.217 N 
ATOM     14  C   UNL A   1      33.350  24.213  22.519  1.00  0.00     0.069 C 
ATOM     15  C   UNL A   1      33.076  24.335  23.970  1.00  0.00     0.071 A 
ATOM     16  C   UNL A   1      33.403  23.523  25.039  1.00  0.00     0.137 A 
ATOM     17  N   UNL A   1      33.156  24.166  26.215  1.00  0.00    -0.128 NA
ATOM     18  N   UNL A   1      32.684  25.372  25.923  1.00  0.00    -0.061 NA
BRANCH  16  19
ATOM     19  C   UNL A   1      34.060  22.224  25.010  1.00  0.00     0.124 A 
ATOM     20  N   UNL A   1      33.390  21.113  24.688  1.00  0.00    -0.165 NA
ATOM     21  C   UNL A   1      35.406  21.964  25.359  1.00  0.00     0.044 A 
ATOM     22  N   UNL A   1      34.256  20.113  24.940  1.00  0.00    -0.240 N 
ATOM     23  C   UNL A   1      35.481  20.583  25.356  1.00  0.00     0.125 A 
BRANCH  21  24
ATOM     24  C   UNL A   1      36.505  22.844  25.662  1.00  0.00     0.166 C 
ATOM     25  N   UNL A   1      37.708  22.530  25.309  1.00  0.00    -0.097 NA
BRANCH  25  26
ATOM     26  O   UNL A   1      38.591  23.522  25.756  1.00  0.00    -0.411 OA
ATOM     27  H   UNL A   1      39.302  23.796  25.210  1.00  0.00     0.330 HD
ENDBRANCH  25  26
ENDBRANCH  21  24
BRANCH  22  28
ATOM     28  C   UNL A   1      33.850  18.767  24.816  1.00  0.00     0.065 A 
ATOM     29  C   UNL A   1      34.488  17.950  23.874  1.00  0.00     0.028 A 
ATOM     30  C   UNL A   1      32.802  18.270  25.598  1.00  0.00     0.028 A 
ATOM     31  C   UNL A   1      34.092  16.621  23.735  1.00  0.00     0.002 A 
ATOM     32  C   UNL A   1      32.376  16.954  25.409  1.00  0.00     0.002 A 
ATOM     33  C   UNL A   1      33.028  16.129  24.490  1.00  0.00     0.000 A 
ENDBRANCH  22  28
ENDBRANCH  16  19
ENDBRANCH   8  13
ENDBRANCH   4   7
ENDBRANCH   2   3
ENDBRANCH   1   2
BRANCH   1  34
ATOM     34  C   UNL A   1      31.535  31.003  26.224  1.00  0.00     0.002 C 
BRANCH  34  35
ATOM     35  C   UNL A   1      32.054  29.931  27.198  1.00  0.00     0.002 C 
BRANCH  35  36
ATOM     36  C   UNL A   1      33.577  29.891  27.401  1.00  0.00     0.021 C 
BRANCH  36  37
ATOM     37  C   UNL A   1      34.230  31.254  27.252  1.00  0.00     0.116 C 
BRANCH  37  38
ATOM     38  N   UNL A   1      34.184  32.021  28.495  1.00  0.00    -0.352 N 
ATOM     39  C   UNL A   1      34.965  31.876  29.625  1.00  0.00     0.251 C 
ATOM     40  H   UNL A   1      33.508  32.735  28.532  1.00  0.00     0.163 HD
ATOM     41  O   UNL A   1      34.604  32.319  30.701  1.00  0.00    -0.269 OA
BRANCH  39  42
ATOM     42  C   UNL A   1      36.256  31.175  29.501  1.00  0.00     0.039 A 
ATOM     43  C   UNL A   1      37.448  31.882  29.332  1.00  0.00     0.014 A 
ATOM     44  C   UNL A   1      36.255  29.784  29.562  1.00  0.00     0.014 A 
ATOM     45  C   UNL A   1      38.644  31.172  29.294  1.00  0.00     0.010 A 
ATOM     46  C   UNL A   1      37.436  29.104  29.695  1.00  0.00     0.010 A 
ATOM     47  C   UNL A   1      38.630  29.781  29.496  1.00  0.00    -0.014 A 
BRANCH  47  48
ATOM     48  C   UNL A   1      39.871  29.030  29.607  1.00  0.00     0.031 A 
ATOM     49  C   UNL A   1      40.294  28.754  31.005  1.00  0.00     0.074 A 
ATOM     50  C   UNL A   1      40.490  28.453  28.555  1.00  0.00     0.049 A 
ATOM     51  N   UNL A   1      41.329  29.224  31.612  1.00  0.00    -0.248 NA
ATOM     52  C   UNL A   1      39.393  27.975  31.871  1.00  0.00     0.031 C 
ATOM     53  C   UNL A   1      40.042  28.361  27.159  1.00  0.00     0.029 A 
ATOM     54  N   UNL A   1      41.630  27.714  28.545  1.00  0.00    -0.354 N 
ATOM     55  C   UNL A   1      41.321  28.661  32.883  1.00  0.00     0.074 A 
ATOM     56  C   UNL A   1      40.033  28.032  33.040  1.00  0.00     0.031 C 
ATOM     57  C   UNL A   1      40.766  27.422  26.509  1.00  0.00     0.029 A 
ATOM     58  C   UNL A   1      41.838  26.981  27.382  1.00  0.00     0.049 A 
ATOM     59  H   UNL A   1      42.261  27.700  29.300  1.00  0.00     0.167 HD
ATOM     60  C   UNL A   1      42.463  28.560  33.618  1.00  0.00     0.031 A 
ATOM     61  C   UNL A   1      42.813  26.063  27.167  1.00  0.00     0.031 A 
ATOM     62  C   UNL A   1      43.509  29.401  33.093  1.00  0.00     0.049 A 
ATOM     63  C   UNL A   1      43.884  26.323  28.156  1.00  0.00     0.074 A 
ATOM     64  C   UNL A   1      43.643  30.759  32.886  1.00  0.00     0.029 A 
ATOM     65  N   UNL A   1      44.452  28.804  32.289  1.00  0.00    -0.354 N 
ATOM     66  N   UNL A   1      44.617  27.399  28.145  1.00  0.00    -0.248 NA
ATOM     67  C   UNL A   1      43.822  25.621  29.427  1.00  0.00     0.031 C 
ATOM     68  C   UNL A   1      44.287  30.872  31.619  1.00  0.00     0.029 A 
ATOM     69  C   UNL A   1      44.591  29.586  31.169  1.00  0.00     0.049 A 
ATOM     70  H   UNL A   1      44.939  27.970  32.480  1.00  0.00     0.167 HD
ATOM     71  C   UNL A   1      44.728  27.761  29.479  1.00  0.00     0.074 A 
ATOM     72  C   UNL A   1      44.302  26.578  30.227  1.00  0.00     0.031 C 
ATOM     73  C   UNL A   1      44.876  29.067  29.848  1.00  0.00     0.031 A 
BRANCH  60  74
ATOM     74  C   UNL A   1      42.744  27.417  34.556  1.00  0.00    -0.014 A 
ATOM     75  C   UNL A   1      43.132  26.177  34.021  1.00  0.00     0.009 A 
ATOM     76  C   UNL A   1      42.380  27.435  35.917  1.00  0.00     0.009 A 
ATOM     77  C   UNL A   1      43.100  25.009  34.794  1.00  0.00     0.001 A 
ATOM     78  C   UNL A   1      42.385  26.279  36.702  1.00  0.00     0.001 A 
ATOM     79  C   UNL A   1      42.720  25.060  36.132  1.00  0.00     0.000 A 
ENDBRANCH  60  74
BRANCH  61  80
ATOM     80  C   UNL A   1      42.769  24.821  26.367  1.00  0.00    -0.014 A 
ATOM     81  C   UNL A   1      43.726  24.574  25.368  1.00  0.00     0.009 A 
ATOM     82  C   UNL A   1      41.967  23.743  26.782  1.00  0.00     0.009 A 
ATOM     83  C   UNL A   1      43.902  23.288  24.839  1.00  0.00     0.001 A 
ATOM     84  C   UNL A   1      42.142  22.459  26.253  1.00  0.00     0.001 A 
ATOM     85  C   UNL A   1      43.122  22.228  25.294  1.00  0.00     0.000 A 
ENDBRANCH  61  80
BRANCH  73  86
ATOM     86  C   UNL A   1      45.118  30.089  28.758  1.00  0.00    -0.014 A 
ATOM     87  C   UNL A   1      46.401  30.500  28.350  1.00  0.00     0.009 A 
ATOM     88  C   UNL A   1      44.016  30.541  28.018  1.00  0.00     0.009 A 
ATOM     89  C   UNL A   1      46.568  31.360  27.256  1.00  0.00     0.001 A 
ATOM     90  C   UNL A   1      44.183  31.380  26.915  1.00  0.00     0.001 A 
ATOM     91  C   UNL A   1      45.458  31.794  26.537  1.00  0.00     0.000 A 
ENDBRANCH  73  86
ENDBRANCH  47  48
ENDBRANCH  39  42
ENDBRANCH  37  38
ENDBRANCH  36  37
ENDBRANCH  35  36
ENDBRANCH  34  35
ENDBRANCH   1  34
TORSDOF 18
ENDMDL
