MODEL 1
REMARK VINA RESULT:      -9.8      0.000      0.000
REMARK SMILES CC(C)(Cn1ccnc1C(N)=S)C(=O)NCCCCCCNC(=O)c1ccc(-c2c3nc(c(-c4ccccc4)c4ccc([nH]4)c(-c4ccccc4)c4nc(c(-c5ccccc5)c5ccc2[nH]5)C=C4)C=C3)cc1
REMARK SMILES IDX 17 1 16 2 15 3 13 4 14 5 2 7 1 8 3 9 4 10 5 11 6 12 9 13
REMARK SMILES IDX 7 14 8 15 10 16 12 17 11 18 18 21 19 22 20 23 21 24 22 25
REMARK SMILES IDX 23 26 24 28 25 29 26 30 72 31 27 32 71 33 28 34 29 35 30 36
REMARK SMILES IDX 65 37 31 38 70 39 64 40 66 41 32 42 69 43 63 44 62 45 33 47
REMARK SMILES IDX 55 48 40 49 54 50 41 51 44 52 53 53 67 54 42 55 43 56 52 58
REMARK SMILES IDX 68 59 45 60 34 61 35 62 39 63 36 64 38 65 37 66 56 67 57 68
REMARK SMILES IDX 61 69 58 70 60 71 59 72 46 73 47 74 51 75 48 76 50 77 49 78
REMARK H PARENT 15 6 11 19 11 20 22 27 66 46 44 57
REMARK Flexibility Score: inf
ROOT
ATOM      1  C   UNL A   1      33.952  31.187  27.180  1.00  0.00     0.021 C 
ENDROOT
BRANCH   1   2
ATOM      2  C   UNL A   1      34.161  29.683  27.327  1.00  0.00     0.116 C 
BRANCH   2   3
ATOM      3  N   UNL A   1      33.001  29.036  27.905  1.00  0.00    -0.356 N 
ATOM      4  C   UNL A   1      32.045  28.217  27.402  1.00  0.00     0.227 C 
ATOM      5  O   UNL A   1      31.204  27.823  28.216  1.00  0.00    -0.274 OA
ATOM      6  H   UNL A   1      32.883  29.231  28.863  1.00  0.00     0.163 HD
BRANCH   4   7
ATOM      7  C   UNL A   1      31.996  27.787  25.928  1.00  0.00     0.061 C 
ATOM      8  C   UNL A   1      31.497  28.998  25.103  1.00  0.00     0.023 C 
ATOM      9  C   UNL A   1      30.930  26.691  25.719  1.00  0.00     0.023 C 
BRANCH   7  10
ATOM     10  C   UNL A   1      33.378  27.305  25.416  1.00  0.00     0.140 C 
BRANCH  10  11
ATOM     11  N   UNL A   1      33.632  27.421  23.988  1.00  0.00    -0.328 N 
ATOM     12  C   UNL A   1      34.037  28.580  23.373  1.00  0.00     0.108 A 
ATOM     13  C   UNL A   1      33.546  26.446  23.012  1.00  0.00     0.167 A 
ATOM     14  C   UNL A   1      34.043  28.301  22.031  1.00  0.00     0.131 A 
ATOM     15  N   UNL A   1      33.705  26.997  21.815  1.00  0.00    -0.235 NA
BRANCH  13  16
ATOM     16  C   UNL A   1      33.228  25.039  23.123  1.00  0.00     0.140 C 
ATOM     17  S   UNL A   1      31.688  24.433  22.956  1.00  0.00    -0.057 S 
BRANCH  16  18
ATOM     18  N   UNL A   1      34.276  24.222  23.437  1.00  0.00    -0.387 N 
ATOM     19  H   UNL A   1      34.284  23.288  23.124  1.00  0.00     0.157 HD
ATOM     20  H   UNL A   1      35.025  24.567  23.976  1.00  0.00     0.157 HD
ENDBRANCH  16  18
ENDBRANCH  13  16
ENDBRANCH  10  11
ENDBRANCH   7  10
ENDBRANCH   4   7
ENDBRANCH   2   3
ENDBRANCH   1   2
BRANCH   1  21
ATOM     21  C   UNL A   1      34.420  32.020  28.376  1.00  0.00     0.002 C 
BRANCH  21  22
ATOM     22  C   UNL A   1      35.149  33.329  28.038  1.00  0.00     0.002 C 
BRANCH  22  23
ATOM     23  C   UNL A   1      34.496  34.634  28.518  1.00  0.00     0.021 C 
BRANCH  23  24
ATOM     24  C   UNL A   1      33.236  34.439  29.342  1.00  0.00     0.116 C 
BRANCH  24  25
ATOM     25  N   UNL A   1      33.245  35.196  30.602  1.00  0.00    -0.352 N 
ATOM     26  C   UNL A   1      33.838  34.863  31.808  1.00  0.00     0.251 C 
ATOM     27  H   UNL A   1      32.766  36.056  30.586  1.00  0.00     0.163 HD
ATOM     28  O   UNL A   1      33.469  35.377  32.866  1.00  0.00    -0.269 OA
BRANCH  26  29
ATOM     29  C   UNL A   1      34.948  33.900  31.802  1.00  0.00     0.039 A 
ATOM     30  C   UNL A   1      34.797  32.513  31.901  1.00  0.00     0.014 A 
ATOM     31  C   UNL A   1      36.206  34.455  31.639  1.00  0.00     0.014 A 
ATOM     32  C   UNL A   1      35.938  31.714  31.808  1.00  0.00     0.010 A 
ATOM     33  C   UNL A   1      37.218  33.676  31.187  1.00  0.00     0.010 A 
ATOM     34  C   UNL A   1      37.150  32.324  31.463  1.00  0.00    -0.014 A 
BRANCH  34  35
ATOM     35  C   UNL A   1      38.429  31.644  31.356  1.00  0.00     0.031 A 
ATOM     36  C   UNL A   1      39.066  31.338  32.651  1.00  0.00     0.074 A 
ATOM     37  C   UNL A   1      38.794  31.034  30.203  1.00  0.00     0.049 A 
ATOM     38  N   UNL A   1      40.126  31.876  33.149  1.00  0.00    -0.248 NA
ATOM     39  C   UNL A   1      38.358  30.433  33.573  1.00  0.00     0.031 C 
ATOM     40  C   UNL A   1      38.043  30.949  28.936  1.00  0.00     0.029 A 
ATOM     41  N   UNL A   1      39.864  30.233  29.959  1.00  0.00    -0.354 N 
ATOM     42  C   UNL A   1      40.345  31.218  34.354  1.00  0.00     0.074 A 
ATOM     43  C   UNL A   1      39.120  30.528  34.665  1.00  0.00     0.031 C 
ATOM     44  C   UNL A   1      38.571  29.983  28.150  1.00  0.00     0.029 A 
ATOM     45  C   UNL A   1      39.791  29.508  28.773  1.00  0.00     0.049 A 
ATOM     46  H   UNL A   1      40.632  30.171  30.572  1.00  0.00     0.167 HD
ATOM     47  C   UNL A   1      41.604  31.042  34.840  1.00  0.00     0.031 A 
ATOM     48  C   UNL A   1      40.675  28.579  28.335  1.00  0.00     0.031 A 
ATOM     49  C   UNL A   1      42.565  31.806  34.083  1.00  0.00     0.049 A 
ATOM     50  C   UNL A   1      41.934  28.796  29.079  1.00  0.00     0.074 A 
ATOM     51  C   UNL A   1      42.812  33.144  33.860  1.00  0.00     0.029 A 
ATOM     52  N   UNL A   1      43.192  31.116  33.072  1.00  0.00    -0.354 N 
ATOM     53  N   UNL A   1      42.665  29.864  28.943  1.00  0.00    -0.248 NA
ATOM     54  C   UNL A   1      42.172  28.032  30.293  1.00  0.00     0.031 C 
ATOM     55  C   UNL A   1      43.249  33.224  32.504  1.00  0.00     0.029 A 
ATOM     56  C   UNL A   1      43.311  31.931  31.977  1.00  0.00     0.049 A 
ATOM     57  H   UNL A   1      43.507  30.184  33.127  1.00  0.00     0.167 HD
ATOM     58  C   UNL A   1      43.108  30.152  30.224  1.00  0.00     0.074 A 
ATOM     59  C   UNL A   1      42.907  28.915  30.975  1.00  0.00     0.031 C 
ATOM     60  C   UNL A   1      43.313  31.446  30.612  1.00  0.00     0.031 A 
BRANCH  47  61
ATOM     61  C   UNL A   1      42.036  29.852  35.664  1.00  0.00    -0.014 A 
ATOM     62  C   UNL A   1      43.152  29.999  36.508  1.00  0.00     0.009 A 
ATOM     63  C   UNL A   1      41.579  28.539  35.447  1.00  0.00     0.009 A 
ATOM     64  C   UNL A   1      43.813  28.887  37.043  1.00  0.00     0.001 A 
ATOM     65  C   UNL A   1      42.211  27.428  36.012  1.00  0.00     0.001 A 
ATOM     66  C   UNL A   1      43.347  27.601  36.787  1.00  0.00     0.000 A 
ENDBRANCH  47  61
BRANCH  48  67
ATOM     67  C   UNL A   1      40.474  27.398  27.473  1.00  0.00    -0.014 A 
ATOM     68  C   UNL A   1      41.329  27.129  26.393  1.00  0.00     0.009 A 
ATOM     69  C   UNL A   1      39.606  26.374  27.896  1.00  0.00     0.009 A 
ATOM     70  C   UNL A   1      41.343  25.866  25.785  1.00  0.00     0.001 A 
ATOM     71  C   UNL A   1      39.626  25.112  27.293  1.00  0.00     0.001 A 
ATOM     72  C   UNL A   1      40.506  24.853  26.246  1.00  0.00     0.000 A 
ENDBRANCH  48  67
BRANCH  60  73
ATOM     73  C   UNL A   1      43.324  32.492  29.520  1.00  0.00    -0.014 A 
ATOM     74  C   UNL A   1      42.432  33.579  29.482  1.00  0.00     0.009 A 
ATOM     75  C   UNL A   1      44.341  32.434  28.559  1.00  0.00     0.009 A 
ATOM     76  C   UNL A   1      42.537  34.560  28.489  1.00  0.00     0.001 A 
ATOM     77  C   UNL A   1      44.457  33.423  27.580  1.00  0.00     0.001 A 
ATOM     78  C   UNL A   1      43.553  34.481  27.540  1.00  0.00     0.000 A 
ENDBRANCH  60  73
ENDBRANCH  34  35
ENDBRANCH  26  29
ENDBRANCH  24  25
ENDBRANCH  23  24
ENDBRANCH  22  23
ENDBRANCH  21  22
ENDBRANCH   1  21
TORSDOF 17
ENDMDL
MODEL 2
REMARK VINA RESULT:      -9.8      2.478      6.068
REMARK SMILES CC(C)(Cn1ccnc1C(N)=S)C(=O)NCCCCCCNC(=O)c1ccc(-c2c3nc(c(-c4ccccc4)c4ccc([nH]4)c(-c4ccccc4)c4nc(c(-c5ccccc5)c5ccc2[nH]5)C=C4)C=C3)cc1
REMARK SMILES IDX 17 1 16 2 15 3 13 4 14 5 2 7 1 8 3 9 4 10 5 11 6 12 9 13
REMARK SMILES IDX 7 14 8 15 10 16 12 17 11 18 18 21 19 22 20 23 21 24 22 25
REMARK SMILES IDX 23 26 24 28 25 29 26 30 72 31 27 32 71 33 28 34 29 35 30 36
REMARK SMILES IDX 65 37 31 38 70 39 64 40 66 41 32 42 69 43 63 44 62 45 33 47
REMARK SMILES IDX 55 48 40 49 54 50 41 51 44 52 53 53 67 54 42 55 43 56 52 58
REMARK SMILES IDX 68 59 45 60 34 61 35 62 39 63 36 64 38 65 37 66 56 67 57 68
REMARK SMILES IDX 61 69 58 70 60 71 59 72 46 73 47 74 51 75 48 76 50 77 49 78
REMARK H PARENT 15 6 11 19 11 20 22 27 66 46 44 57
REMARK Flexibility Score: inf
ROOT
ATOM      1  C   UNL A   1      33.387  28.652  26.011  1.00  0.00     0.021 C 
ENDROOT
BRANCH   1   2
ATOM      2  C   UNL A   1      33.169  27.157  25.798  1.00  0.00     0.116 C 
BRANCH   2   3
ATOM      3  N   UNL A   1      33.621  26.731  24.490  1.00  0.00    -0.356 N 
ATOM      4  C   UNL A   1      33.691  25.524  23.876  1.00  0.00     0.227 C 
ATOM      5  O   UNL A   1      34.114  25.544  22.716  1.00  0.00    -0.274 OA
ATOM      6  H   UNL A   1      33.945  27.473  23.929  1.00  0.00     0.163 HD
BRANCH   4   7
ATOM      7  C   UNL A   1      33.270  24.211  24.553  1.00  0.00     0.061 C 
ATOM      8  C   UNL A   1      31.734  24.248  24.734  1.00  0.00     0.023 C 
ATOM      9  C   UNL A   1      33.843  24.133  25.985  1.00  0.00     0.023 C 
BRANCH   7  10
ATOM     10  C   UNL A   1      33.699  22.968  23.730  1.00  0.00     0.140 C 
BRANCH  10  11
ATOM     11  N   UNL A   1      34.871  22.241  24.192  1.00  0.00    -0.328 N 
ATOM     12  C   UNL A   1      36.157  22.709  24.080  1.00  0.00     0.108 A 
ATOM     13  C   UNL A   1      34.934  21.011  24.820  1.00  0.00     0.167 A 
ATOM     14  C   UNL A   1      36.959  21.686  24.515  1.00  0.00     0.131 A 
ATOM     15  N   UNL A   1      36.201  20.632  24.933  1.00  0.00    -0.235 NA
BRANCH  13  16
ATOM     16  C   UNL A   1      33.873  20.120  25.236  1.00  0.00     0.140 C 
ATOM     17  S   UNL A   1      33.618  18.621  24.561  1.00  0.00    -0.057 S 
BRANCH  16  18
ATOM     18  N   UNL A   1      33.035  20.611  26.196  1.00  0.00    -0.387 N 
ATOM     19  H   UNL A   1      32.934  20.135  27.052  1.00  0.00     0.157 HD
ATOM     20  H   UNL A   1      32.532  21.442  26.032  1.00  0.00     0.157 HD
ENDBRANCH  16  18
ENDBRANCH  13  16
ENDBRANCH  10  11
ENDBRANCH   7  10
ENDBRANCH   4   7
ENDBRANCH   2   3
ENDBRANCH   1   2
BRANCH   1  21
ATOM     21  C   UNL A   1      32.198  29.393  26.628  1.00  0.00     0.002 C 
BRANCH  21  22
ATOM     22  C   UNL A   1      31.474  30.385  25.707  1.00  0.00     0.002 C 
BRANCH  22  23
ATOM     23  C   UNL A   1      31.228  31.797  26.260  1.00  0.00     0.021 C 
BRANCH  23  24
ATOM     24  C   UNL A   1      32.293  32.288  27.224  1.00  0.00     0.116 C 
BRANCH  24  25
ATOM     25  N   UNL A   1      32.235  33.738  27.462  1.00  0.00    -0.352 N 
ATOM     26  C   UNL A   1      32.935  34.493  28.388  1.00  0.00     0.251 C 
ATOM     27  H   UNL A   1      31.616  34.239  26.884  1.00  0.00     0.163 HD
ATOM     28  O   UNL A   1      32.536  35.604  28.740  1.00  0.00    -0.269 OA
BRANCH  26  29
ATOM     29  C   UNL A   1      34.192  33.953  28.927  1.00  0.00     0.039 A 
ATOM     30  C   UNL A   1      34.356  33.473  30.230  1.00  0.00     0.014 A 
ATOM     31  C   UNL A   1      35.241  33.899  28.025  1.00  0.00     0.014 A 
ATOM     32  C   UNL A   1      35.590  32.922  30.582  1.00  0.00     0.010 A 
ATOM     33  C   UNL A   1      36.269  33.049  28.259  1.00  0.00     0.010 A 
ATOM     34  C   UNL A   1      36.545  32.732  29.575  1.00  0.00    -0.014 A 
BRANCH  34  35
ATOM     35  C   UNL A   1      37.882  32.204  29.779  1.00  0.00     0.031 A 
ATOM     36  C   UNL A   1      38.034  30.779  29.427  1.00  0.00     0.074 A 
ATOM     37  C   UNL A   1      38.942  33.037  29.916  1.00  0.00     0.049 A 
ATOM     38  N   UNL A   1      38.220  29.789  30.232  1.00  0.00    -0.248 NA
ATOM     39  C   UNL A   1      37.800  30.384  28.028  1.00  0.00     0.031 C 
ATOM     40  C   UNL A   1      38.954  34.512  29.896  1.00  0.00     0.029 A 
ATOM     41  N   UNL A   1      40.266  32.737  29.965  1.00  0.00    -0.354 N 
ATOM     42  C   UNL A   1      38.349  28.670  29.419  1.00  0.00     0.074 A 
ATOM     43  C   UNL A   1      37.853  29.053  28.123  1.00  0.00     0.031 C 
ATOM     44  C   UNL A   1      40.218  34.960  29.719  1.00  0.00     0.029 A 
ATOM     45  C   UNL A   1      41.117  33.825  29.790  1.00  0.00     0.049 A 
ATOM     46  H   UNL A   1      40.599  31.823  30.112  1.00  0.00     0.167 HD
ATOM     47  C   UNL A   1      39.132  27.620  29.789  1.00  0.00     0.031 A 
ATOM     48  C   UNL A   1      42.469  33.792  29.709  1.00  0.00     0.031 A 
ATOM     49  C   UNL A   1      39.566  27.751  31.158  1.00  0.00     0.049 A 
ATOM     50  C   UNL A   1      42.905  32.504  30.288  1.00  0.00     0.074 A 
ATOM     51  C   UNL A   1      38.956  27.761  32.394  1.00  0.00     0.029 A 
ATOM     52  N   UNL A   1      40.802  28.332  31.325  1.00  0.00    -0.354 N 
ATOM     53  N   UNL A   1      42.762  32.205  31.546  1.00  0.00    -0.248 NA
ATOM     54  C   UNL A   1      43.112  31.371  29.400  1.00  0.00     0.031 C 
ATOM     55  C   UNL A   1      39.695  28.703  33.170  1.00  0.00     0.029 A 
ATOM     56  C   UNL A   1      40.760  29.179  32.400  1.00  0.00     0.049 A 
ATOM     57  H   UNL A   1      41.592  28.164  30.761  1.00  0.00     0.167 HD
ATOM     58  C   UNL A   1      42.407  30.866  31.551  1.00  0.00     0.074 A 
ATOM     59  C   UNL A   1      42.791  30.373  30.230  1.00  0.00     0.031 C 
ATOM     60  C   UNL A   1      41.572  30.373  32.514  1.00  0.00     0.031 A 
BRANCH  47  61
ATOM     61  C   UNL A   1      39.885  26.741  28.818  1.00  0.00    -0.014 A 
ATOM     62  C   UNL A   1      40.986  27.294  28.139  1.00  0.00     0.009 A 
ATOM     63  C   UNL A   1      39.405  25.508  28.339  1.00  0.00     0.009 A 
ATOM     64  C   UNL A   1      41.526  26.680  27.002  1.00  0.00     0.001 A 
ATOM     65  C   UNL A   1      39.967  24.870  27.230  1.00  0.00     0.001 A 
ATOM     66  C   UNL A   1      41.010  25.472  26.544  1.00  0.00     0.000 A 
ENDBRANCH  47  61
BRANCH  48  67
ATOM     67  C   UNL A   1      43.407  34.686  29.002  1.00  0.00    -0.014 A 
ATOM     68  C   UNL A   1      43.333  34.868  27.611  1.00  0.00     0.009 A 
ATOM     69  C   UNL A   1      44.194  35.587  29.742  1.00  0.00     0.009 A 
ATOM     70  C   UNL A   1      43.990  35.940  26.991  1.00  0.00     0.001 A 
ATOM     71  C   UNL A   1      44.844  36.660  29.122  1.00  0.00     0.001 A 
ATOM     72  C   UNL A   1      44.730  36.845  27.748  1.00  0.00     0.000 A 
ENDBRANCH  48  67
BRANCH  60  73
ATOM     73  C   UNL A   1      41.307  31.263  33.707  1.00  0.00    -0.014 A 
ATOM     74  C   UNL A   1      42.078  31.229  34.884  1.00  0.00     0.009 A 
ATOM     75  C   UNL A   1      40.313  32.243  33.594  1.00  0.00     0.009 A 
ATOM     76  C   UNL A   1      41.835  32.129  35.928  1.00  0.00     0.001 A 
ATOM     77  C   UNL A   1      40.084  33.153  34.627  1.00  0.00     0.001 A 
ATOM     78  C   UNL A   1      40.839  33.093  35.796  1.00  0.00     0.000 A 
ENDBRANCH  60  73
ENDBRANCH  34  35
ENDBRANCH  26  29
ENDBRANCH  24  25
ENDBRANCH  23  24
ENDBRANCH  22  23
ENDBRANCH  21  22
ENDBRANCH   1  21
TORSDOF 17
ENDMDL
MODEL 3
REMARK VINA RESULT:      -9.8      3.909      9.101
REMARK SMILES CC(C)(Cn1ccnc1C(N)=S)C(=O)NCCCCCCNC(=O)c1ccc(-c2c3nc(c(-c4ccccc4)c4ccc([nH]4)c(-c4ccccc4)c4nc(c(-c5ccccc5)c5ccc2[nH]5)C=C4)C=C3)cc1
REMARK SMILES IDX 17 1 16 2 15 3 13 4 14 5 2 7 1 8 3 9 4 10 5 11 6 12 9 13
REMARK SMILES IDX 7 14 8 15 10 16 12 17 11 18 18 21 19 22 20 23 21 24 22 25
REMARK SMILES IDX 23 26 24 28 25 29 26 30 72 31 27 32 71 33 28 34 29 35 30 36
REMARK SMILES IDX 65 37 31 38 70 39 64 40 66 41 32 42 69 43 63 44 62 45 33 47
REMARK SMILES IDX 55 48 40 49 54 50 41 51 44 52 53 53 67 54 42 55 43 56 52 58
REMARK SMILES IDX 68 59 45 60 34 61 35 62 39 63 36 64 38 65 37 66 56 67 57 68
REMARK SMILES IDX 61 69 58 70 60 71 59 72 46 73 47 74 51 75 48 76 50 77 49 78
REMARK H PARENT 15 6 11 19 11 20 22 27 66 46 44 57
REMARK Flexibility Score: inf
ROOT
ATOM      1  C   UNL A   1      34.492  20.415  24.750  1.00  0.00     0.021 C 
ENDROOT
BRANCH   1   2
ATOM      2  C   UNL A   1      33.346  21.413  24.893  1.00  0.00     0.116 C 
BRANCH   2   3
ATOM      3  N   UNL A   1      33.314  22.351  23.790  1.00  0.00    -0.356 N 
ATOM      4  C   UNL A   1      33.526  23.687  23.698  1.00  0.00     0.227 C 
ATOM      5  O   UNL A   1      33.441  24.160  22.561  1.00  0.00    -0.274 OA
ATOM      6  H   UNL A   1      33.091  21.931  22.928  1.00  0.00     0.163 HD
BRANCH   4   7
ATOM      7  C   UNL A   1      33.861  24.570  24.910  1.00  0.00     0.061 C 
ATOM      8  C   UNL A   1      35.379  24.439  25.181  1.00  0.00     0.023 C 
ATOM      9  C   UNL A   1      33.176  24.027  26.182  1.00  0.00     0.023 C 
BRANCH   7  10
ATOM     10  C   UNL A   1      33.470  26.053  24.674  1.00  0.00     0.140 C 
BRANCH  10  11
ATOM     11  N   UNL A   1      32.731  26.718  25.736  1.00  0.00    -0.328 N 
ATOM     12  C   UNL A   1      33.284  27.633  26.599  1.00  0.00     0.108 A 
ATOM     13  C   UNL A   1      31.395  26.595  26.070  1.00  0.00     0.167 A 
ATOM     14  C   UNL A   1      32.301  27.922  27.508  1.00  0.00     0.131 A 
ATOM     15  N   UNL A   1      31.154  27.252  27.197  1.00  0.00    -0.235 NA
BRANCH  13  16
ATOM     16  C   UNL A   1      30.345  25.818  25.447  1.00  0.00     0.140 C 
ATOM     17  S   UNL A   1      30.157  25.686  23.800  1.00  0.00    -0.057 S 
BRANCH  16  18
ATOM     18  N   UNL A   1      29.461  25.231  26.307  1.00  0.00    -0.387 N 
ATOM     19  H   UNL A   1      28.613  25.681  26.524  1.00  0.00     0.157 HD
ATOM     20  H   UNL A   1      29.672  24.357  26.709  1.00  0.00     0.157 HD
ENDBRANCH  16  18
ENDBRANCH  13  16
ENDBRANCH  10  11
ENDBRANCH   7  10
ENDBRANCH   4   7
ENDBRANCH   2   3
ENDBRANCH   1   2
BRANCH   1  21
ATOM     21  C   UNL A   1      35.820  20.871  25.361  1.00  0.00     0.002 C 
BRANCH  21  22
ATOM     22  C   UNL A   1      37.068  20.648  24.495  1.00  0.00     0.002 C 
BRANCH  22  23
ATOM     23  C   UNL A   1      38.052  19.564  24.959  1.00  0.00     0.021 C 
BRANCH  23  24
ATOM     24  C   UNL A   1      39.179  20.073  25.840  1.00  0.00     0.116 C 
BRANCH  24  25
ATOM     25  N   UNL A   1      40.333  19.163  25.889  1.00  0.00    -0.352 N 
ATOM     26  C   UNL A   1      41.680  19.474  25.958  1.00  0.00     0.251 C 
ATOM     27  H   UNL A   1      40.118  18.202  25.869  1.00  0.00     0.163 HD
ATOM     28  O   UNL A   1      42.543  18.662  25.620  1.00  0.00    -0.269 OA
BRANCH  26  29
ATOM     29  C   UNL A   1      42.069  20.793  26.478  1.00  0.00     0.039 A 
ATOM     30  C   UNL A   1      42.827  21.733  25.773  1.00  0.00     0.014 A 
ATOM     31  C   UNL A   1      41.586  21.091  27.741  1.00  0.00     0.014 A 
ATOM     32  C   UNL A   1      43.059  22.976  26.366  1.00  0.00     0.010 A 
ATOM     33  C   UNL A   1      41.502  22.387  28.127  1.00  0.00     0.010 A 
ATOM     34  C   UNL A   1      42.394  23.277  27.561  1.00  0.00    -0.014 A 
BRANCH  34  35
ATOM     35  C   UNL A   1      42.549  24.506  28.319  1.00  0.00     0.031 A 
ATOM     36  C   UNL A   1      41.496  25.509  28.075  1.00  0.00     0.074 A 
ATOM     37  C   UNL A   1      43.364  24.554  29.400  1.00  0.00     0.049 A 
ATOM     38  N   UNL A   1      41.614  26.636  27.459  1.00  0.00    -0.248 NA
ATOM     39  C   UNL A   1      40.110  25.154  28.423  1.00  0.00     0.031 C 
ATOM     40  C   UNL A   1      44.188  23.472  29.973  1.00  0.00     0.029 A 
ATOM     41  N   UNL A   1      43.524  25.551  30.309  1.00  0.00    -0.354 N 
ATOM     42  C   UNL A   1      40.362  27.234  27.536  1.00  0.00     0.074 A 
ATOM     43  C   UNL A   1      39.441  26.194  27.919  1.00  0.00     0.031 C 
ATOM     44  C   UNL A   1      44.579  23.804  31.224  1.00  0.00     0.029 A 
ATOM     45  C   UNL A   1      44.189  25.177  31.474  1.00  0.00     0.049 A 
ATOM     46  H   UNL A   1      43.195  26.466  30.157  1.00  0.00     0.167 HD
ATOM     47  C   UNL A   1      40.232  28.588  27.580  1.00  0.00     0.031 A 
ATOM     48  C   UNL A   1      44.403  25.948  32.567  1.00  0.00     0.031 A 
ATOM     49  C   UNL A   1      41.488  29.240  27.306  1.00  0.00     0.049 A 
ATOM     50  C   UNL A   1      44.228  27.354  32.146  1.00  0.00     0.074 A 
ATOM     51  C   UNL A   1      42.340  29.334  26.227  1.00  0.00     0.029 A 
ATOM     52  N   UNL A   1      42.221  29.585  28.417  1.00  0.00    -0.354 N 
ATOM     53  N   UNL A   1      45.025  27.950  31.309  1.00  0.00    -0.248 NA
ATOM     54  C   UNL A   1      42.926  27.979  32.317  1.00  0.00     0.031 C 
ATOM     55  C   UNL A   1      43.653  29.352  26.786  1.00  0.00     0.029 A 
ATOM     56  C   UNL A   1      43.546  29.332  28.179  1.00  0.00     0.049 A 
ATOM     57  H   UNL A   1      41.852  29.955  29.252  1.00  0.00     0.167 HD
ATOM     58  C   UNL A   1      44.191  28.730  30.524  1.00  0.00     0.074 A 
ATOM     59  C   UNL A   1      42.948  28.829  31.285  1.00  0.00     0.031 C 
ATOM     60  C   UNL A   1      44.492  28.964  29.212  1.00  0.00     0.031 A 
BRANCH  47  61
ATOM     61  C   UNL A   1      39.128  29.309  28.318  1.00  0.00    -0.014 A 
ATOM     62  C   UNL A   1      39.144  29.286  29.724  1.00  0.00     0.009 A 
ATOM     63  C   UNL A   1      37.944  29.765  27.709  1.00  0.00     0.009 A 
ATOM     64  C   UNL A   1      38.012  29.630  30.472  1.00  0.00     0.001 A 
ATOM     65  C   UNL A   1      36.825  30.149  28.453  1.00  0.00     0.001 A 
ATOM     66  C   UNL A   1      36.850  30.054  29.835  1.00  0.00     0.000 A 
ENDBRANCH  47  61
BRANCH  48  67
ATOM     67  C   UNL A   1      44.555  25.573  33.987  1.00  0.00    -0.014 A 
ATOM     68  C   UNL A   1      45.665  25.992  34.737  1.00  0.00     0.009 A 
ATOM     69  C   UNL A   1      43.455  25.040  34.682  1.00  0.00     0.009 A 
ATOM     70  C   UNL A   1      45.656  25.919  36.137  1.00  0.00     0.001 A 
ATOM     71  C   UNL A   1      43.443  24.974  36.080  1.00  0.00     0.001 A 
ATOM     72  C   UNL A   1      44.539  25.427  36.808  1.00  0.00     0.000 A 
ENDBRANCH  48  67
BRANCH  60  73
ATOM     73  C   UNL A   1      45.886  28.596  28.756  1.00  0.00    -0.014 A 
ATOM     74  C   UNL A   1      46.943  29.520  28.676  1.00  0.00     0.009 A 
ATOM     75  C   UNL A   1      46.164  27.246  28.504  1.00  0.00     0.009 A 
ATOM     76  C   UNL A   1      48.233  29.108  28.320  1.00  0.00     0.001 A 
ATOM     77  C   UNL A   1      47.455  26.832  28.168  1.00  0.00     0.001 A 
ATOM     78  C   UNL A   1      48.487  27.762  28.070  1.00  0.00     0.000 A 
ENDBRANCH  60  73
ENDBRANCH  34  35
ENDBRANCH  26  29
ENDBRANCH  24  25
ENDBRANCH  23  24
ENDBRANCH  22  23
ENDBRANCH  21  22
ENDBRANCH   1  21
TORSDOF 17
ENDMDL
