MODEL 1
REMARK VINA RESULT:     -10.9      0.000      0.000
REMARK SMILES NC(=O)N[C@@H](Cc1ccc2c(c1)CCCC2)C(=O)NCCCCCCNC(=O)c1ccc(-c2c3nc(c(-c4ccccc4)c4ccc([nH]4)c(-c4ccccc4)c4nc(c(-c5ccccc5)c5ccc2[nH]5)C=C4)C=C3)cc1
REMARK SMILES IDX 22 1 21 2 20 3 19 4 17 5 18 6 5 8 4 9 1 10 2 11 3 14 6 16
REMARK SMILES IDX 7 17 8 18 12 19 9 20 11 21 10 22 13 23 16 24 14 25 15 26
REMARK SMILES IDX 23 27 24 28 25 29 26 30 27 31 28 33 29 34 30 35 76 36 31 37
REMARK SMILES IDX 75 38 32 39 33 40 34 41 69 42 35 43 74 44 68 45 70 46 36 47
REMARK SMILES IDX 73 48 67 49 66 50 37 52 59 53 44 54 58 55 45 56 48 57 57 58
REMARK SMILES IDX 71 59 46 60 47 61 56 63 72 64 49 65 38 66 39 67 43 68 40 69
REMARK SMILES IDX 42 70 41 71 60 72 61 73 65 74 62 75 64 76 63 77 50 78 51 79
REMARK SMILES IDX 55 80 52 81 54 82 53 83
REMARK H PARENT 19 7 1 12 1 13 4 15 26 32 70 51 48 62
REMARK Flexibility Score: inf
ROOT
ATOM      1  C   UNL A   1      38.267  22.205  25.838  1.00  0.00     0.002 C 
ENDROOT
BRANCH   1   2
ATOM      2  C   UNL A   1      37.448  23.500  25.909  1.00  0.00     0.021 C 
BRANCH   2   3
ATOM      3  C   UNL A   1      35.962  23.332  25.603  1.00  0.00     0.116 C 
BRANCH   3   4
ATOM      4  N   UNL A   1      35.153  23.104  26.786  1.00  0.00    -0.354 N 
ATOM      5  C   UNL A   1      33.915  22.543  26.915  1.00  0.00     0.242 C 
ATOM      6  O   UNL A   1      33.589  22.176  28.053  1.00  0.00    -0.273 OA
ATOM      7  H   UNL A   1      35.563  23.400  27.630  1.00  0.00     0.163 HD
BRANCH   5   8
ATOM      8  C   UNL A   1      32.986  22.220  25.719  1.00  0.00     0.177 C 
BRANCH   8   9
ATOM      9  N   UNL A   1      32.425  20.869  25.732  1.00  0.00    -0.326 N 
ATOM     10  N   UNL A   1      34.291  19.689  25.044  1.00  0.00    -0.352 N 
ATOM     11  C   UNL A   1      33.034  19.690  25.510  1.00  0.00     0.312 C 
ATOM     12  H   UNL A   1      34.753  18.836  24.876  1.00  0.00     0.161 HD
ATOM     13  H   UNL A   1      34.752  20.541  24.871  1.00  0.00     0.161 HD
ATOM     14  O   UNL A   1      32.437  18.632  25.716  1.00  0.00    -0.249 OA
ATOM     15  H   UNL A   1      31.463  20.815  25.930  1.00  0.00     0.166 HD
ENDBRANCH   8   9
BRANCH   8  16
ATOM     16  C   UNL A   1      31.927  23.306  25.434  1.00  0.00     0.070 C 
BRANCH  16  17
ATOM     17  C   UNL A   1      32.400  24.738  25.369  1.00  0.00    -0.045 A 
ATOM     18  C   UNL A   1      33.255  25.181  24.356  1.00  0.00     0.004 A 
ATOM     19  C   UNL A   1      31.963  25.657  26.336  1.00  0.00     0.007 A 
ATOM     20  C   UNL A   1      33.643  26.524  24.299  1.00  0.00     0.004 A 
ATOM     21  C   UNL A   1      32.339  27.010  26.282  1.00  0.00    -0.045 A 
ATOM     22  C   UNL A   1      33.175  27.450  25.244  1.00  0.00    -0.045 A 
ATOM     23  C   UNL A   1      31.743  27.968  27.283  1.00  0.00     0.036 C 
ATOM     24  C   UNL A   1      33.628  28.889  25.163  1.00  0.00     0.036 C 
ATOM     25  C   UNL A   1      32.466  29.311  27.357  1.00  0.00     0.005 C 
ATOM     26  C   UNL A   1      32.756  29.853  25.967  1.00  0.00     0.005 C 
ENDBRANCH  16  17
ENDBRANCH   8  16
ENDBRANCH   5   8
ENDBRANCH   3   4
ENDBRANCH   2   3
ENDBRANCH   1   2
BRANCH   1  27
ATOM     27  C   UNL A   1      37.674  21.087  24.969  1.00  0.00     0.002 C 
BRANCH  27  28
ATOM     28  C   UNL A   1      38.497  19.799  24.915  1.00  0.00     0.021 C 
BRANCH  28  29
ATOM     29  C   UNL A   1      39.309  19.525  26.172  1.00  0.00     0.116 C 
BRANCH  29  30
ATOM     30  N   UNL A   1      40.647  19.039  25.856  1.00  0.00    -0.352 N 
ATOM     31  C   UNL A   1      41.862  19.676  25.796  1.00  0.00     0.251 C 
ATOM     32  H   UNL A   1      40.687  18.077  25.647  1.00  0.00     0.163 HD
ATOM     33  O   UNL A   1      42.807  19.109  25.251  1.00  0.00    -0.269 OA
BRANCH  31  34
ATOM     34  C   UNL A   1      42.060  21.031  26.362  1.00  0.00     0.039 A 
ATOM     35  C   UNL A   1      41.964  21.213  27.748  1.00  0.00     0.014 A 
ATOM     36  C   UNL A   1      42.275  22.140  25.546  1.00  0.00     0.014 A 
ATOM     37  C   UNL A   1      42.142  22.484  28.305  1.00  0.00     0.010 A 
ATOM     38  C   UNL A   1      42.585  23.374  26.107  1.00  0.00     0.010 A 
ATOM     39  C   UNL A   1      42.495  23.572  27.491  1.00  0.00    -0.014 A 
BRANCH  39  40
ATOM     40  C   UNL A   1      42.733  24.933  28.040  1.00  0.00     0.031 A 
ATOM     41  C   UNL A   1      44.109  25.319  28.526  1.00  0.00     0.074 A 
ATOM     42  C   UNL A   1      41.705  25.792  28.188  1.00  0.00     0.049 A 
ATOM     43  N   UNL A   1      44.491  26.396  29.165  1.00  0.00    -0.248 NA
ATOM     44  C   UNL A   1      45.190  24.342  28.304  1.00  0.00     0.031 C 
ATOM     45  C   UNL A   1      40.316  25.534  27.801  1.00  0.00     0.029 A 
ATOM     46  N   UNL A   1      41.669  27.057  28.718  1.00  0.00    -0.354 N 
ATOM     47  C   UNL A   1      45.837  26.204  29.456  1.00  0.00     0.074 A 
ATOM     48  C   UNL A   1      46.191  24.888  28.978  1.00  0.00     0.031 C 
ATOM     49  C   UNL A   1      39.574  26.619  28.073  1.00  0.00     0.029 A 
ATOM     50  C   UNL A   1      40.419  27.628  28.700  1.00  0.00     0.049 A 
ATOM     51  H   UNL A   1      42.465  27.514  29.078  1.00  0.00     0.167 HD
ATOM     52  C   UNL A   1      46.711  27.055  30.046  1.00  0.00     0.031 A 
ATOM     53  C   UNL A   1      39.999  28.825  29.147  1.00  0.00     0.031 A 
ATOM     54  C   UNL A   1      46.370  28.382  30.483  1.00  0.00     0.049 A 
ATOM     55  C   UNL A   1      40.988  29.760  29.785  1.00  0.00     0.074 A 
ATOM     56  C   UNL A   1      47.197  29.350  31.023  1.00  0.00     0.029 A 
ATOM     57  N   UNL A   1      45.098  28.928  30.418  1.00  0.00    -0.354 N 
ATOM     58  N   UNL A   1      42.270  29.585  30.000  1.00  0.00    -0.248 NA
ATOM     59  C   UNL A   1      40.474  31.062  30.232  1.00  0.00     0.031 C 
ATOM     60  C   UNL A   1      46.415  30.469  31.330  1.00  0.00     0.029 A 
ATOM     61  C   UNL A   1      45.113  30.216  30.928  1.00  0.00     0.049 A 
ATOM     62  H   UNL A   1      44.302  28.470  30.064  1.00  0.00     0.167 HD
ATOM     63  C   UNL A   1      42.720  30.763  30.582  1.00  0.00     0.074 A 
ATOM     64  C   UNL A   1      41.578  31.650  30.670  1.00  0.00     0.031 C 
ATOM     65  C   UNL A   1      43.967  31.084  31.005  1.00  0.00     0.031 A 
BRANCH  52  66
ATOM     66  C   UNL A   1      48.122  26.571  30.248  1.00  0.00    -0.014 A 
ATOM     67  C   UNL A   1      48.494  25.866  31.405  1.00  0.00     0.009 A 
ATOM     68  C   UNL A   1      49.089  26.803  29.259  1.00  0.00     0.009 A 
ATOM     69  C   UNL A   1      49.814  25.447  31.586  1.00  0.00     0.001 A 
ATOM     70  C   UNL A   1      50.400  26.353  29.426  1.00  0.00     0.001 A 
ATOM     71  C   UNL A   1      50.764  25.685  30.595  1.00  0.00     0.000 A 
ENDBRANCH  52  66
BRANCH  53  72
ATOM     72  C   UNL A   1      38.575  29.221  28.986  1.00  0.00    -0.014 A 
ATOM     73  C   UNL A   1      38.109  29.707  27.753  1.00  0.00     0.009 A 
ATOM     74  C   UNL A   1      37.674  29.117  30.057  1.00  0.00     0.009 A 
ATOM     75  C   UNL A   1      36.778  30.103  27.605  1.00  0.00     0.001 A 
ATOM     76  C   UNL A   1      36.336  29.485  29.897  1.00  0.00     0.001 A 
ATOM     77  C   UNL A   1      35.892  29.987  28.675  1.00  0.00     0.000 A 
ENDBRANCH  53  72
BRANCH  65  78
ATOM     78  C   UNL A   1      44.170  32.462  31.564  1.00  0.00    -0.014 A 
ATOM     79  C   UNL A   1      44.045  32.718  32.938  1.00  0.00     0.009 A 
ATOM     80  C   UNL A   1      44.534  33.511  30.705  1.00  0.00     0.009 A 
ATOM     81  C   UNL A   1      44.249  34.007  33.436  1.00  0.00     0.001 A 
ATOM     82  C   UNL A   1      44.767  34.791  31.210  1.00  0.00     0.001 A 
ATOM     83  C   UNL A   1      44.615  35.039  32.573  1.00  0.00     0.000 A 
ENDBRANCH  65  78
ENDBRANCH  39  40
ENDBRANCH  31  34
ENDBRANCH  29  30
ENDBRANCH  28  29
ENDBRANCH  27  28
ENDBRANCH   1  27
TORSDOF 16
ENDMDL
MODEL 2
REMARK VINA RESULT:     -10.8      3.721      8.576
REMARK SMILES NC(=O)N[C@@H](Cc1ccc2c(c1)CCCC2)C(=O)NCCCCCCNC(=O)c1ccc(-c2c3nc(c(-c4ccccc4)c4ccc([nH]4)c(-c4ccccc4)c4nc(c(-c5ccccc5)c5ccc2[nH]5)C=C4)C=C3)cc1
REMARK SMILES IDX 22 1 21 2 20 3 19 4 17 5 18 6 5 8 4 9 1 10 2 11 3 14 6 16
REMARK SMILES IDX 7 17 8 18 12 19 9 20 11 21 10 22 13 23 16 24 14 25 15 26
REMARK SMILES IDX 23 27 24 28 25 29 26 30 27 31 28 33 29 34 30 35 76 36 31 37
REMARK SMILES IDX 75 38 32 39 33 40 34 41 69 42 35 43 74 44 68 45 70 46 36 47
REMARK SMILES IDX 73 48 67 49 66 50 37 52 59 53 44 54 58 55 45 56 48 57 57 58
REMARK SMILES IDX 71 59 46 60 47 61 56 63 72 64 49 65 38 66 39 67 43 68 40 69
REMARK SMILES IDX 42 70 41 71 60 72 61 73 65 74 62 75 64 76 63 77 50 78 51 79
REMARK SMILES IDX 55 80 52 81 54 82 53 83
REMARK H PARENT 19 7 1 12 1 13 4 15 26 32 70 51 48 62
REMARK Flexibility Score: inf
ROOT
ATOM      1  C   UNL A   1      32.145  29.538  26.672  1.00  0.00     0.002 C 
ENDROOT
BRANCH   1   2
ATOM      2  C   UNL A   1      31.430  28.252  27.106  1.00  0.00     0.021 C 
BRANCH   2   3
ATOM      3  C   UNL A   1      31.969  26.976  26.467  1.00  0.00     0.116 C 
BRANCH   3   4
ATOM      4  N   UNL A   1      31.370  25.767  26.999  1.00  0.00    -0.354 N 
ATOM      5  C   UNL A   1      31.283  24.514  26.466  1.00  0.00     0.242 C 
ATOM      6  O   UNL A   1      31.012  23.594  27.251  1.00  0.00    -0.273 OA
ATOM      7  H   UNL A   1      30.961  25.866  27.889  1.00  0.00     0.163 HD
BRANCH   5   8
ATOM      8  C   UNL A   1      31.641  24.176  24.997  1.00  0.00     0.177 C 
BRANCH   8   9
ATOM      9  N   UNL A   1      32.238  22.854  24.805  1.00  0.00    -0.326 N 
ATOM     10  N   UNL A   1      34.046  23.453  23.493  1.00  0.00    -0.352 N 
ATOM     11  C   UNL A   1      33.387  22.517  24.192  1.00  0.00     0.312 C 
ATOM     12  H   UNL A   1      34.888  23.225  23.039  1.00  0.00     0.161 HD
ATOM     13  H   UNL A   1      33.686  24.367  23.435  1.00  0.00     0.161 HD
ATOM     14  O   UNL A   1      33.815  21.364  24.261  1.00  0.00    -0.249 OA
ATOM     15  H   UNL A   1      31.723  22.103  25.177  1.00  0.00     0.166 HD
ENDBRANCH   8   9
BRANCH   8  16
ATOM     16  C   UNL A   1      30.512  24.477  23.989  1.00  0.00     0.070 C 
BRANCH  16  17
ATOM     17  C   UNL A   1      30.359  25.904  23.522  1.00  0.00    -0.045 A 
ATOM     18  C   UNL A   1      31.419  26.599  22.933  1.00  0.00     0.004 A 
ATOM     19  C   UNL A   1      29.121  26.551  23.664  1.00  0.00     0.007 A 
ATOM     20  C   UNL A   1      31.234  27.907  22.473  1.00  0.00     0.004 A 
ATOM     21  C   UNL A   1      28.923  27.861  23.197  1.00  0.00    -0.045 A 
ATOM     22  C   UNL A   1      29.986  28.540  22.581  1.00  0.00    -0.045 A 
ATOM     23  C   UNL A   1      27.540  28.457  23.276  1.00  0.00     0.036 C 
ATOM     24  C   UNL A   1      29.827  29.959  22.090  1.00  0.00     0.036 C 
ATOM     25  C   UNL A   1      27.507  29.970  23.070  1.00  0.00     0.005 C 
ATOM     26  C   UNL A   1      28.371  30.379  21.888  1.00  0.00     0.005 C 
ENDBRANCH  16  17
ENDBRANCH   8  16
ENDBRANCH   5   8
ENDBRANCH   3   4
ENDBRANCH   2   3
ENDBRANCH   1   2
BRANCH   1  27
ATOM     27  C   UNL A   1      31.299  30.532  25.864  1.00  0.00     0.002 C 
BRANCH  27  28
ATOM     28  C   UNL A   1      31.258  31.955  26.420  1.00  0.00     0.021 C 
BRANCH  28  29
ATOM     29  C   UNL A   1      32.567  32.419  27.041  1.00  0.00     0.116 C 
BRANCH  29  30
ATOM     30  N   UNL A   1      32.463  33.772  27.575  1.00  0.00    -0.352 N 
ATOM     31  C   UNL A   1      33.179  34.432  28.544  1.00  0.00     0.251 C 
ATOM     32  H   UNL A   1      31.748  34.312  27.166  1.00  0.00     0.163 HD
ATOM     33  O   UNL A   1      32.733  35.482  29.004  1.00  0.00    -0.269 OA
BRANCH  31  34
ATOM     34  C   UNL A   1      34.467  33.906  29.054  1.00  0.00     0.039 A 
ATOM     35  C   UNL A   1      34.462  33.031  30.148  1.00  0.00     0.014 A 
ATOM     36  C   UNL A   1      35.686  34.309  28.515  1.00  0.00     0.014 A 
ATOM     37  C   UNL A   1      35.666  32.525  30.650  1.00  0.00     0.010 A 
ATOM     38  C   UNL A   1      36.869  33.705  28.924  1.00  0.00     0.010 A 
ATOM     39  C   UNL A   1      36.881  32.826  30.016  1.00  0.00    -0.014 A 
BRANCH  39  40
ATOM     40  C   UNL A   1      38.182  32.283  30.488  1.00  0.00     0.031 A 
ATOM     41  C   UNL A   1      38.722  31.003  29.896  1.00  0.00     0.074 A 
ATOM     42  C   UNL A   1      38.835  32.879  31.504  1.00  0.00     0.049 A 
ATOM     43  N   UNL A   1      39.757  30.291  30.266  1.00  0.00    -0.248 NA
ATOM     44  C   UNL A   1      37.971  30.423  28.769  1.00  0.00     0.031 C 
ATOM     45  C   UNL A   1      38.406  34.097  32.196  1.00  0.00     0.029 A 
ATOM     46  N   UNL A   1      40.001  32.532  32.141  1.00  0.00    -0.354 N 
ATOM     47  C   UNL A   1      39.752  29.167  29.447  1.00  0.00     0.074 A 
ATOM     48  C   UNL A   1      38.582  29.260  28.605  1.00  0.00     0.031 C 
ATOM     49  C   UNL A   1      39.312  34.413  33.134  1.00  0.00     0.029 A 
ATOM     50  C   UNL A   1      40.358  33.397  33.147  1.00  0.00     0.049 A 
ATOM     51  H   UNL A   1      40.532  31.738  31.898  1.00  0.00     0.167 HD
ATOM     52  C   UNL A   1      40.652  28.156  29.383  1.00  0.00     0.031 A 
ATOM     53  C   UNL A   1      41.404  33.369  33.993  1.00  0.00     0.031 A 
ATOM     54  C   UNL A   1      41.839  28.084  30.191  1.00  0.00     0.049 A 
ATOM     55  C   UNL A   1      42.399  32.247  33.894  1.00  0.00     0.074 A 
ATOM     56  C   UNL A   1      42.852  27.143  30.151  1.00  0.00     0.029 A 
ATOM     57  N   UNL A   1      42.175  28.997  31.178  1.00  0.00    -0.354 N 
ATOM     58  N   UNL A   1      42.410  31.221  33.076  1.00  0.00    -0.248 NA
ATOM     59  C   UNL A   1      43.532  32.284  34.828  1.00  0.00     0.031 C 
ATOM     60  C   UNL A   1      43.781  27.462  31.148  1.00  0.00     0.029 A 
ATOM     61  C   UNL A   1      43.372  28.632  31.769  1.00  0.00     0.049 A 
ATOM     62  H   UNL A   1      41.641  29.787  31.423  1.00  0.00     0.167 HD
ATOM     63  C   UNL A   1      43.561  30.508  33.379  1.00  0.00     0.074 A 
ATOM     64  C   UNL A   1      44.232  31.226  34.443  1.00  0.00     0.031 C 
ATOM     65  C   UNL A   1      44.025  29.360  32.825  1.00  0.00     0.031 A 
BRANCH  52  66
ATOM     66  C   UNL A   1      40.383  27.048  28.400  1.00  0.00    -0.014 A 
ATOM     67  C   UNL A   1      39.609  25.930  28.753  1.00  0.00     0.009 A 
ATOM     68  C   UNL A   1      40.890  27.134  27.095  1.00  0.00     0.009 A 
ATOM     69  C   UNL A   1      39.391  24.900  27.834  1.00  0.00     0.001 A 
ATOM     70  C   UNL A   1      40.641  26.120  26.167  1.00  0.00     0.001 A 
ATOM     71  C   UNL A   1      39.902  24.999  26.541  1.00  0.00     0.000 A 
ENDBRANCH  52  66
BRANCH  53  72
ATOM     72  C   UNL A   1      41.580  34.454  34.995  1.00  0.00    -0.014 A 
ATOM     73  C   UNL A   1      40.997  34.345  36.267  1.00  0.00     0.009 A 
ATOM     74  C   UNL A   1      42.330  35.600  34.689  1.00  0.00     0.009 A 
ATOM     75  C   UNL A   1      41.139  35.372  37.203  1.00  0.00     0.001 A 
ATOM     76  C   UNL A   1      42.496  36.612  35.637  1.00  0.00     0.001 A 
ATOM     77  C   UNL A   1      41.893  36.502  36.888  1.00  0.00     0.000 A 
ENDBRANCH  53  72
BRANCH  65  78
ATOM     78  C   UNL A   1      45.336  28.833  33.333  1.00  0.00    -0.014 A 
ATOM     79  C   UNL A   1      46.554  29.245  32.771  1.00  0.00     0.009 A 
ATOM     80  C   UNL A   1      45.351  27.943  34.419  1.00  0.00     0.009 A 
ATOM     81  C   UNL A   1      47.762  28.749  33.268  1.00  0.00     0.001 A 
ATOM     82  C   UNL A   1      46.560  27.474  34.932  1.00  0.00     0.001 A 
ATOM     83  C   UNL A   1      47.763  27.869  34.350  1.00  0.00     0.000 A 
ENDBRANCH  65  78
ENDBRANCH  39  40
ENDBRANCH  31  34
ENDBRANCH  29  30
ENDBRANCH  28  29
ENDBRANCH  27  28
ENDBRANCH   1  27
TORSDOF 16
ENDMDL
MODEL 3
REMARK VINA RESULT:     -10.7      2.033      7.067
REMARK SMILES NC(=O)N[C@@H](Cc1ccc2c(c1)CCCC2)C(=O)NCCCCCCNC(=O)c1ccc(-c2c3nc(c(-c4ccccc4)c4ccc([nH]4)c(-c4ccccc4)c4nc(c(-c5ccccc5)c5ccc2[nH]5)C=C4)C=C3)cc1
REMARK SMILES IDX 22 1 21 2 20 3 19 4 17 5 18 6 5 8 4 9 1 10 2 11 3 14 6 16
REMARK SMILES IDX 7 17 8 18 12 19 9 20 11 21 10 22 13 23 16 24 14 25 15 26
REMARK SMILES IDX 23 27 24 28 25 29 26 30 27 31 28 33 29 34 30 35 76 36 31 37
REMARK SMILES IDX 75 38 32 39 33 40 34 41 69 42 35 43 74 44 68 45 70 46 36 47
REMARK SMILES IDX 73 48 67 49 66 50 37 52 59 53 44 54 58 55 45 56 48 57 57 58
REMARK SMILES IDX 71 59 46 60 47 61 56 63 72 64 49 65 38 66 39 67 43 68 40 69
REMARK SMILES IDX 42 70 41 71 60 72 61 73 65 74 62 75 64 76 63 77 50 78 51 79
REMARK SMILES IDX 55 80 52 81 54 82 53 83
REMARK H PARENT 19 7 1 12 1 13 4 15 26 32 70 51 48 62
REMARK Flexibility Score: inf
ROOT
ATOM      1  C   UNL A   1      36.286  21.694  25.742  1.00  0.00     0.002 C 
ENDROOT
BRANCH   1   2
ATOM      2  C   UNL A   1      36.442  23.054  25.049  1.00  0.00     0.021 C 
BRANCH   2   3
ATOM      3  C   UNL A   1      35.153  23.864  24.938  1.00  0.00     0.116 C 
BRANCH   3   4
ATOM      4  N   UNL A   1      34.818  24.229  23.574  1.00  0.00    -0.354 N 
ATOM      5  C   UNL A   1      33.602  24.402  22.979  1.00  0.00     0.242 C 
ATOM      6  O   UNL A   1      33.594  25.021  21.906  1.00  0.00    -0.273 OA
ATOM      7  H   UNL A   1      35.592  24.377  22.985  1.00  0.00     0.163 HD
BRANCH   5   8
ATOM      8  C   UNL A   1      32.257  24.001  23.633  1.00  0.00     0.177 C 
BRANCH   8   9
ATOM      9  N   UNL A   1      31.267  25.075  23.696  1.00  0.00    -0.326 N 
ATOM     10  N   UNL A   1      30.237  24.513  25.688  1.00  0.00    -0.352 N 
ATOM     11  C   UNL A   1      30.392  25.375  24.673  1.00  0.00     0.312 C 
ATOM     12  H   UNL A   1      29.602  24.715  26.413  1.00  0.00     0.161 HD
ATOM     13  H   UNL A   1      30.758  23.678  25.709  1.00  0.00     0.161 HD
ATOM     14  O   UNL A   1      29.736  26.416  24.624  1.00  0.00    -0.249 OA
ATOM     15  H   UNL A   1      31.235  25.664  22.908  1.00  0.00     0.166 HD
ENDBRANCH   8   9
BRANCH   8  16
ATOM     16  C   UNL A   1      31.671  22.675  23.104  1.00  0.00     0.070 C 
BRANCH  16  17
ATOM     17  C   UNL A   1      32.123  21.399  23.772  1.00  0.00    -0.045 A 
ATOM     18  C   UNL A   1      32.310  21.324  25.156  1.00  0.00     0.004 A 
ATOM     19  C   UNL A   1      32.349  20.252  22.996  1.00  0.00     0.007 A 
ATOM     20  C   UNL A   1      32.691  20.116  25.750  1.00  0.00     0.004 A 
ATOM     21  C   UNL A   1      32.721  19.032  23.584  1.00  0.00    -0.045 A 
ATOM     22  C   UNL A   1      32.879  18.960  24.977  1.00  0.00    -0.045 A 
ATOM     23  C   UNL A   1      32.836  17.810  22.708  1.00  0.00     0.036 C 
ATOM     24  C   UNL A   1      33.307  17.677  25.650  1.00  0.00     0.036 C 
ATOM     25  C   UNL A   1      33.568  16.643  23.369  1.00  0.00     0.005 C 
ATOM     26  C   UNL A   1      33.083  16.431  24.794  1.00  0.00     0.005 C 
ENDBRANCH  16  17
ENDBRANCH   8  16
ENDBRANCH   5   8
ENDBRANCH   3   4
ENDBRANCH   2   3
ENDBRANCH   1   2
BRANCH   1  27
ATOM     27  C   UNL A   1      36.313  20.468  24.819  1.00  0.00     0.002 C 
BRANCH  27  28
ATOM     28  C   UNL A   1      37.592  19.632  24.885  1.00  0.00     0.021 C 
BRANCH  28  29
ATOM     29  C   UNL A   1      38.716  20.274  25.685  1.00  0.00     0.116 C 
BRANCH  29  30
ATOM     30  N   UNL A   1      39.871  19.391  25.800  1.00  0.00    -0.352 N 
ATOM     31  C   UNL A   1      41.192  19.643  26.077  1.00  0.00     0.251 C 
ATOM     32  H   UNL A   1      39.665  18.439  25.652  1.00  0.00     0.163 HD
ATOM     33  O   UNL A   1      42.025  18.765  25.860  1.00  0.00    -0.269 OA
BRANCH  31  34
ATOM     34  C   UNL A   1      41.639  20.947  26.620  1.00  0.00     0.039 A 
ATOM     35  C   UNL A   1      41.989  21.973  25.733  1.00  0.00     0.014 A 
ATOM     36  C   UNL A   1      41.781  21.159  27.990  1.00  0.00     0.014 A 
ATOM     37  C   UNL A   1      42.417  23.212  26.222  1.00  0.00     0.010 A 
ATOM     38  C   UNL A   1      42.076  22.427  28.477  1.00  0.00     0.010 A 
ATOM     39  C   UNL A   1      42.426  23.464  27.603  1.00  0.00    -0.014 A 
BRANCH  39  40
ATOM     40  C   UNL A   1      42.837  24.776  28.170  1.00  0.00     0.031 A 
ATOM     41  C   UNL A   1      41.798  25.838  28.439  1.00  0.00     0.074 A 
ATOM     42  C   UNL A   1      44.142  25.051  28.360  1.00  0.00     0.049 A 
ATOM     43  N   UNL A   1      41.963  27.087  28.794  1.00  0.00    -0.248 NA
ATOM     44  C   UNL A   1      40.390  25.455  28.237  1.00  0.00     0.031 C 
ATOM     45  C   UNL A   1      45.254  24.133  28.102  1.00  0.00     0.029 A 
ATOM     46  N   UNL A   1      44.756  26.195  28.807  1.00  0.00    -0.354 N 
ATOM     47  C   UNL A   1      40.688  27.643  28.814  1.00  0.00     0.074 A 
ATOM     48  C   UNL A   1      39.770  26.616  28.380  1.00  0.00     0.031 C 
ATOM     49  C   UNL A   1      46.408  24.737  28.429  1.00  0.00     0.029 A 
ATOM     50  C   UNL A   1      46.125  26.098  28.868  1.00  0.00     0.049 A 
ATOM     51  H   UNL A   1      44.261  27.009  29.061  1.00  0.00     0.167 HD
ATOM     52  C   UNL A   1      40.310  28.890  29.183  1.00  0.00     0.031 A 
ATOM     53  C   UNL A   1      47.051  27.006  29.228  1.00  0.00     0.031 A 
ATOM     54  C   UNL A   1      41.218  29.900  29.656  1.00  0.00     0.049 A 
ATOM     55  C   UNL A   1      46.607  28.379  29.649  1.00  0.00     0.074 A 
ATOM     56  C   UNL A   1      40.928  31.168  30.125  1.00  0.00     0.029 A 
ATOM     57  N   UNL A   1      42.593  29.748  29.728  1.00  0.00    -0.354 N 
ATOM     58  N   UNL A   1      45.393  28.871  29.717  1.00  0.00    -0.248 NA
ATOM     59  C   UNL A   1      47.661  29.320  30.053  1.00  0.00     0.031 C 
ATOM     60  C   UNL A   1      42.135  31.802  30.439  1.00  0.00     0.029 A 
ATOM     61  C   UNL A   1      43.170  30.908  30.217  1.00  0.00     0.049 A 
ATOM     62  H   UNL A   1      43.087  28.937  29.470  1.00  0.00     0.167 HD
ATOM     63  C   UNL A   1      45.535  30.166  30.196  1.00  0.00     0.074 A 
ATOM     64  C   UNL A   1      46.951  30.378  30.418  1.00  0.00     0.031 C 
ATOM     65  C   UNL A   1      44.580  31.099  30.433  1.00  0.00     0.031 A 
BRANCH  52  66
ATOM     66  C   UNL A   1      38.845  29.227  29.091  1.00  0.00    -0.014 A 
ATOM     67  C   UNL A   1      37.987  29.065  30.191  1.00  0.00     0.009 A 
ATOM     68  C   UNL A   1      38.320  29.736  27.894  1.00  0.00     0.009 A 
ATOM     69  C   UNL A   1      36.626  29.360  30.079  1.00  0.00     0.001 A 
ATOM     70  C   UNL A   1      36.965  30.063  27.793  1.00  0.00     0.001 A 
ATOM     71  C   UNL A   1      36.118  29.864  28.883  1.00  0.00     0.000 A 
ENDBRANCH  52  66
BRANCH  53  72
ATOM     72  C   UNL A   1      48.491  26.640  29.230  1.00  0.00    -0.014 A 
ATOM     73  C   UNL A   1      49.277  26.847  28.085  1.00  0.00     0.009 A 
ATOM     74  C   UNL A   1      49.090  26.084  30.371  1.00  0.00     0.009 A 
ATOM     75  C   UNL A   1      50.625  26.482  28.075  1.00  0.00     0.001 A 
ATOM     76  C   UNL A   1      50.446  25.748  30.368  1.00  0.00     0.001 A 
ATOM     77  C   UNL A   1      51.209  25.937  29.218  1.00  0.00     0.000 A 
ENDBRANCH  53  72
BRANCH  65  78
ATOM     78  C   UNL A   1      45.030  32.416  30.995  1.00  0.00    -0.014 A 
ATOM     79  C   UNL A   1      45.355  33.494  30.158  1.00  0.00     0.009 A 
ATOM     80  C   UNL A   1      45.088  32.591  32.387  1.00  0.00     0.009 A 
ATOM     81  C   UNL A   1      45.760  34.714  30.706  1.00  0.00     0.001 A 
ATOM     82  C   UNL A   1      45.464  33.820  32.931  1.00  0.00     0.001 A 
ATOM     83  C   UNL A   1      45.809  34.876  32.089  1.00  0.00     0.000 A 
ENDBRANCH  65  78
ENDBRANCH  39  40
ENDBRANCH  31  34
ENDBRANCH  29  30
ENDBRANCH  28  29
ENDBRANCH  27  28
ENDBRANCH   1  27
TORSDOF 16
ENDMDL
