MODEL 1
REMARK VINA RESULT:     -10.7      0.000      0.000
REMARK SMILES O=C(CSc1ncnc2sc3c(c12)CCC3)NCCCCCCNC(=O)c1ccc(-c2c3nc(c(-c4ccccc4)c4ccc([nH]4)c(-c4ccccc4)c4nc(c(-c5ccccc5)c5ccc2[nH]5)C=C4)C=C3)cc1
REMARK SMILES IDX 20 1 19 2 18 3 17 4 1 5 2 6 3 8 4 9 5 10 6 11 13 12 7 13
REMARK SMILES IDX 9 14 12 15 8 16 10 17 11 18 14 19 16 20 15 21 21 22 22 23
REMARK SMILES IDX 23 24 24 25 25 26 26 28 27 29 28 30 74 31 29 32 73 33 30 34
REMARK SMILES IDX 31 35 32 36 67 37 33 38 72 39 66 40 68 41 34 42 71 43 65 44
REMARK SMILES IDX 64 45 35 47 57 48 42 49 56 50 43 51 46 52 55 53 69 54 44 55
REMARK SMILES IDX 45 56 54 58 70 59 47 60 36 61 37 62 41 63 38 64 40 65 39 66
REMARK SMILES IDX 58 67 59 68 63 69 60 70 62 71 61 72 48 73 49 74 53 75 50 76
REMARK SMILES IDX 52 77 51 78
REMARK H PARENT 17 7 24 27 68 46 46 57
REMARK Flexibility Score: inf
ROOT
ATOM      1  C   UNL A   1      35.153  20.747  24.827  1.00  0.00     0.002 C 
ENDROOT
BRANCH   1   2
ATOM      2  C   UNL A   1      33.884  19.909  25.035  1.00  0.00     0.021 C 
BRANCH   2   3
ATOM      3  C   UNL A   1      32.573  20.628  24.713  1.00  0.00     0.116 C 
BRANCH   3   4
ATOM      4  N   UNL A   1      32.546  21.987  25.216  1.00  0.00    -0.355 N 
ATOM      5  O   UNL A   1      30.379  21.922  25.956  1.00  0.00    -0.274 OA
ATOM      6  C   UNL A   1      31.441  22.518  25.859  1.00  0.00     0.230 C 
ATOM      7  H   UNL A   1      33.342  22.553  25.095  1.00  0.00     0.163 HD
BRANCH   6   8
ATOM      8  C   UNL A   1      31.578  23.964  26.322  1.00  0.00     0.176 C 
BRANCH   8   9
ATOM      9  S   UNL A   1      33.291  24.584  26.333  1.00  0.00    -0.096 SA
BRANCH   9  10
ATOM     10  C   UNL A   1      33.355  25.362  24.746  1.00  0.00     0.109 A 
ATOM     11  N   UNL A   1      33.635  24.613  23.662  1.00  0.00    -0.229 NA
ATOM     12  C   UNL A   1      33.069  26.726  24.611  1.00  0.00     0.047 A 
ATOM     13  C   UNL A   1      33.636  25.214  22.463  1.00  0.00     0.224 A 
ATOM     14  C   UNL A   1      33.096  27.208  23.300  1.00  0.00     0.128 A 
ATOM     15  C   UNL A   1      32.750  27.796  25.495  1.00  0.00    -0.022 A 
ATOM     16  N   UNL A   1      33.374  26.496  22.194  1.00  0.00    -0.225 NA
ATOM     17  S   UNL A   1      32.721  28.884  23.182  1.00  0.00    -0.120 S 
ATOM     18  C   UNL A   1      32.539  28.978  24.838  1.00  0.00     0.011 A 
ATOM     19  C   UNL A   1      32.595  27.978  26.962  1.00  0.00     0.038 C 
ATOM     20  C   UNL A   1      32.201  30.117  25.723  1.00  0.00     0.047 C 
ATOM     21  C   UNL A   1      31.902  29.373  27.059  1.00  0.00     0.010 C 
ENDBRANCH   9  10
ENDBRANCH   8   9
ENDBRANCH   6   8
ENDBRANCH   3   4
ENDBRANCH   2   3
ENDBRANCH   1   2
BRANCH   1  22
ATOM     22  C   UNL A   1      35.667  21.491  26.064  1.00  0.00     0.002 C 
BRANCH  22  23
ATOM     23  C   UNL A   1      36.566  22.712  25.793  1.00  0.00     0.021 C 
BRANCH  23  24
ATOM     24  C   UNL A   1      37.966  22.403  25.236  1.00  0.00     0.116 C 
BRANCH  24  25
ATOM     25  N   UNL A   1      38.688  21.497  26.113  1.00  0.00    -0.352 N 
ATOM     26  C   UNL A   1      39.868  21.626  26.790  1.00  0.00     0.251 C 
ATOM     27  H   UNL A   1      38.244  20.629  26.245  1.00  0.00     0.163 HD
ATOM     28  O   UNL A   1      40.399  20.603  27.227  1.00  0.00    -0.269 OA
BRANCH  26  29
ATOM     29  C   UNL A   1      40.527  22.928  27.041  1.00  0.00     0.039 A 
ATOM     30  C   UNL A   1      39.795  23.886  27.755  1.00  0.00     0.014 A 
ATOM     31  C   UNL A   1      41.745  23.288  26.457  1.00  0.00     0.014 A 
ATOM     32  C   UNL A   1      40.283  25.185  27.900  1.00  0.00     0.010 A 
ATOM     33  C   UNL A   1      42.237  24.594  26.609  1.00  0.00     0.010 A 
ATOM     34  C   UNL A   1      41.511  25.551  27.333  1.00  0.00    -0.014 A 
BRANCH  34  35
ATOM     35  C   UNL A   1      42.016  26.908  27.626  1.00  0.00     0.031 A 
ATOM     36  C   UNL A   1      40.993  27.992  27.717  1.00  0.00     0.074 A 
ATOM     37  C   UNL A   1      43.175  27.120  28.283  1.00  0.00     0.049 A 
ATOM     38  N   UNL A   1      40.317  28.252  28.799  1.00  0.00    -0.248 NA
ATOM     39  C   UNL A   1      40.514  28.703  26.532  1.00  0.00     0.031 C 
ATOM     40  C   UNL A   1      43.635  26.296  29.407  1.00  0.00     0.029 A 
ATOM     41  N   UNL A   1      44.009  28.213  28.297  1.00  0.00    -0.354 N 
ATOM     42  C   UNL A   1      39.294  29.113  28.442  1.00  0.00     0.074 A 
ATOM     43  C   UNL A   1      39.463  29.374  27.028  1.00  0.00     0.031 C 
ATOM     44  C   UNL A   1      44.549  26.999  30.108  1.00  0.00     0.029 A 
ATOM     45  C   UNL A   1      44.861  28.235  29.397  1.00  0.00     0.049 A 
ATOM     46  H   UNL A   1      44.004  28.909  27.601  1.00  0.00     0.167 HD
ATOM     47  C   UNL A   1      38.356  29.561  29.317  1.00  0.00     0.031 A 
ATOM     48  C   UNL A   1      45.377  29.364  29.955  1.00  0.00     0.031 A 
ATOM     49  C   UNL A   1      38.518  29.137  30.674  1.00  0.00     0.049 A 
ATOM     50  C   UNL A   1      44.173  29.892  30.691  1.00  0.00     0.074 A 
ATOM     51  C   UNL A   1      38.062  28.117  31.481  1.00  0.00     0.029 A 
ATOM     52  N   UNL A   1      39.390  29.841  31.468  1.00  0.00    -0.354 N 
ATOM     53  N   UNL A   1      43.718  29.464  31.836  1.00  0.00    -0.248 NA
ATOM     54  C   UNL A   1      43.230  30.715  29.929  1.00  0.00     0.031 C 
ATOM     55  C   UNL A   1      39.025  28.005  32.535  1.00  0.00     0.029 A 
ATOM     56  C   UNL A   1      40.035  28.927  32.260  1.00  0.00     0.049 A 
ATOM     57  H   UNL A   1      39.527  30.815  31.468  1.00  0.00     0.167 HD
ATOM     58  C   UNL A   1      42.340  29.686  31.790  1.00  0.00     0.074 A 
ATOM     59  C   UNL A   1      42.114  30.502  30.614  1.00  0.00     0.031 C 
ATOM     60  C   UNL A   1      41.443  29.022  32.577  1.00  0.00     0.031 A 
BRANCH  47  61
ATOM     61  C   UNL A   1      37.285  30.523  28.979  1.00  0.00    -0.014 A 
ATOM     62  C   UNL A   1      36.105  30.036  28.396  1.00  0.00     0.009 A 
ATOM     63  C   UNL A   1      37.498  31.905  29.038  1.00  0.00     0.009 A 
ATOM     64  C   UNL A   1      35.172  30.909  27.841  1.00  0.00     0.001 A 
ATOM     65  C   UNL A   1      36.556  32.781  28.488  1.00  0.00     0.001 A 
ATOM     66  C   UNL A   1      35.403  32.282  27.878  1.00  0.00     0.000 A 
ENDBRANCH  47  61
BRANCH  48  67
ATOM     67  C   UNL A   1      46.221  30.207  29.049  1.00  0.00    -0.014 A 
ATOM     68  C   UNL A   1      46.574  31.498  29.497  1.00  0.00     0.009 A 
ATOM     69  C   UNL A   1      46.682  29.825  27.780  1.00  0.00     0.009 A 
ATOM     70  C   UNL A   1      47.439  32.319  28.767  1.00  0.00     0.001 A 
ATOM     71  C   UNL A   1      47.572  30.635  27.060  1.00  0.00     0.001 A 
ATOM     72  C   UNL A   1      47.962  31.874  27.561  1.00  0.00     0.000 A 
ENDBRANCH  48  67
BRANCH  60  73
ATOM     73  C   UNL A   1      42.019  28.130  33.631  1.00  0.00    -0.014 A 
ATOM     74  C   UNL A   1      41.760  28.366  34.986  1.00  0.00     0.009 A 
ATOM     75  C   UNL A   1      42.794  27.014  33.274  1.00  0.00     0.009 A 
ATOM     76  C   UNL A   1      42.240  27.489  35.961  1.00  0.00     0.001 A 
ATOM     77  C   UNL A   1      43.255  26.125  34.246  1.00  0.00     0.001 A 
ATOM     78  C   UNL A   1      42.974  26.362  35.590  1.00  0.00     0.000 A 
ENDBRANCH  60  73
ENDBRANCH  34  35
ENDBRANCH  26  29
ENDBRANCH  24  25
ENDBRANCH  23  24
ENDBRANCH  22  23
ENDBRANCH   1  22
TORSDOF 15
ENDMDL
MODEL 2
REMARK VINA RESULT:     -10.3      7.533     13.221
REMARK SMILES O=C(CSc1ncnc2sc3c(c12)CCC3)NCCCCCCNC(=O)c1ccc(-c2c3nc(c(-c4ccccc4)c4ccc([nH]4)c(-c4ccccc4)c4nc(c(-c5ccccc5)c5ccc2[nH]5)C=C4)C=C3)cc1
REMARK SMILES IDX 20 1 19 2 18 3 17 4 1 5 2 6 3 8 4 9 5 10 6 11 13 12 7 13
REMARK SMILES IDX 9 14 12 15 8 16 10 17 11 18 14 19 16 20 15 21 21 22 22 23
REMARK SMILES IDX 23 24 24 25 25 26 26 28 27 29 28 30 74 31 29 32 73 33 30 34
REMARK SMILES IDX 31 35 32 36 67 37 33 38 72 39 66 40 68 41 34 42 71 43 65 44
REMARK SMILES IDX 64 45 35 47 57 48 42 49 56 50 43 51 46 52 55 53 69 54 44 55
REMARK SMILES IDX 45 56 54 58 70 59 47 60 36 61 37 62 41 63 38 64 40 65 39 66
REMARK SMILES IDX 58 67 59 68 63 69 60 70 62 71 61 72 48 73 49 74 53 75 50 76
REMARK SMILES IDX 52 77 51 78
REMARK H PARENT 17 7 24 27 68 46 46 57
REMARK Flexibility Score: inf
ROOT
ATOM      1  C   UNL A   1      45.622  18.977  35.296  1.00  0.00     0.002 C 
ENDROOT
BRANCH   1   2
ATOM      2  C   UNL A   1      45.375  18.620  36.768  1.00  0.00     0.021 C 
BRANCH   2   3
ATOM      3  C   UNL A   1      46.446  19.112  37.743  1.00  0.00     0.116 C 
BRANCH   3   4
ATOM      4  N   UNL A   1      46.456  18.362  38.983  1.00  0.00    -0.355 N 
ATOM      5  O   UNL A   1      45.821  20.109  40.321  1.00  0.00    -0.274 OA
ATOM      6  C   UNL A   1      46.083  18.923  40.191  1.00  0.00     0.230 C 
ATOM      7  H   UNL A   1      46.740  17.420  38.964  1.00  0.00     0.163 HD
BRANCH   6   8
ATOM      8  C   UNL A   1      46.155  17.996  41.400  1.00  0.00     0.176 C 
BRANCH   8   9
ATOM      9  S   UNL A   1      44.552  17.702  42.212  1.00  0.00    -0.096 SA
BRANCH   9  10
ATOM     10  C   UNL A   1      43.785  16.641  41.022  1.00  0.00     0.109 A 
ATOM     11  N   UNL A   1      43.917  16.927  39.712  1.00  0.00    -0.229 NA
ATOM     12  C   UNL A   1      43.096  15.494  41.431  1.00  0.00     0.047 A 
ATOM     13  C   UNL A   1      43.365  16.086  38.824  1.00  0.00     0.224 A 
ATOM     14  C   UNL A   1      42.587  14.708  40.394  1.00  0.00     0.128 A 
ATOM     15  C   UNL A   1      42.759  14.894  42.679  1.00  0.00    -0.022 A 
ATOM     16  N   UNL A   1      42.693  14.961  39.078  1.00  0.00    -0.225 NA
ATOM     17  S   UNL A   1      41.763  13.301  40.945  1.00  0.00    -0.120 S 
ATOM     18  C   UNL A   1      42.061  13.726  42.531  1.00  0.00     0.011 A 
ATOM     19  C   UNL A   1      42.954  15.210  44.118  1.00  0.00     0.038 C 
ATOM     20  C   UNL A   1      41.693  13.069  43.807  1.00  0.00     0.047 C 
ATOM     21  C   UNL A   1      42.580  13.863  44.813  1.00  0.00     0.010 C 
ENDBRANCH   9  10
ENDBRANCH   8   9
ENDBRANCH   6   8
ENDBRANCH   3   4
ENDBRANCH   2   3
ENDBRANCH   1   2
BRANCH   1  22
ATOM     22  C   UNL A   1      46.868  19.825  35.018  1.00  0.00     0.002 C 
BRANCH  22  23
ATOM     23  C   UNL A   1      46.617  21.214  34.405  1.00  0.00     0.021 C 
BRANCH  23  24
ATOM     24  C   UNL A   1      46.359  22.352  35.407  1.00  0.00     0.116 C 
BRANCH  24  25
ATOM     25  N   UNL A   1      44.938  22.515  35.656  1.00  0.00    -0.352 N 
ATOM     26  C   UNL A   1      44.028  23.431  35.207  1.00  0.00     0.251 C 
ATOM     27  H   UNL A   1      44.558  21.839  36.262  1.00  0.00     0.163 HD
ATOM     28  O   UNL A   1      42.952  23.518  35.800  1.00  0.00    -0.269 OA
BRANCH  26  29
ATOM     29  C   UNL A   1      44.263  24.305  34.034  1.00  0.00     0.039 A 
ATOM     30  C   UNL A   1      44.083  23.736  32.767  1.00  0.00     0.014 A 
ATOM     31  C   UNL A   1      44.812  25.587  34.141  1.00  0.00     0.014 A 
ATOM     32  C   UNL A   1      44.430  24.445  31.617  1.00  0.00     0.010 A 
ATOM     33  C   UNL A   1      45.155  26.301  32.982  1.00  0.00     0.010 A 
ATOM     34  C   UNL A   1      44.964  25.736  31.713  1.00  0.00    -0.014 A 
BRANCH  34  35
ATOM     35  C   UNL A   1      45.200  26.468  30.450  1.00  0.00     0.031 A 
ATOM     36  C   UNL A   1      45.170  25.657  29.197  1.00  0.00     0.074 A 
ATOM     37  C   UNL A   1      44.935  27.785  30.320  1.00  0.00     0.049 A 
ATOM     38  N   UNL A   1      44.074  25.361  28.560  1.00  0.00    -0.248 NA
ATOM     39  C   UNL A   1      46.352  24.948  28.708  1.00  0.00     0.031 C 
ATOM     40  C   UNL A   1      43.773  28.445  30.928  1.00  0.00     0.029 A 
ATOM     41  N   UNL A   1      45.435  28.715  29.441  1.00  0.00    -0.354 N 
ATOM     42  C   UNL A   1      44.396  24.393  27.625  1.00  0.00     0.074 A 
ATOM     43  C   UNL A   1      45.821  24.177  27.746  1.00  0.00     0.031 C 
ATOM     44  C   UNL A   1      43.547  29.602  30.272  1.00  0.00     0.029 A 
ATOM     45  C   UNL A   1      44.631  29.845  29.326  1.00  0.00     0.049 A 
ATOM     46  H   UNL A   1      46.276  28.595  28.943  1.00  0.00     0.167 HD
ATOM     47  C   UNL A   1      43.480  23.811  26.807  1.00  0.00     0.031 A 
ATOM     48  C   UNL A   1      44.558  30.636  28.221  1.00  0.00     0.031 A 
ATOM     49  C   UNL A   1      42.142  24.304  26.920  1.00  0.00     0.049 A 
ATOM     50  C   UNL A   1      43.730  29.771  27.307  1.00  0.00     0.074 A 
ATOM     51  C   UNL A   1      40.993  23.980  27.610  1.00  0.00     0.029 A 
ATOM     52  N   UNL A   1      41.818  25.449  26.233  1.00  0.00    -0.354 N 
ATOM     53  N   UNL A   1      42.434  29.617  27.354  1.00  0.00    -0.248 NA
ATOM     54  C   UNL A   1      44.436  28.758  26.520  1.00  0.00     0.031 C 
ATOM     55  C   UNL A   1      40.222  25.184  27.655  1.00  0.00     0.029 A 
ATOM     56  C   UNL A   1      40.984  26.177  27.042  1.00  0.00     0.049 A 
ATOM     57  H   UNL A   1      42.127  25.700  25.333  1.00  0.00     0.167 HD
ATOM     58  C   UNL A   1      42.201  28.324  26.883  1.00  0.00     0.074 A 
ATOM     59  C   UNL A   1      43.466  27.870  26.341  1.00  0.00     0.031 C 
ATOM     60  C   UNL A   1      41.063  27.617  27.153  1.00  0.00     0.031 A 
BRANCH  47  61
ATOM     61  C   UNL A   1      43.801  22.816  25.762  1.00  0.00    -0.014 A 
ATOM     62  C   UNL A   1      43.645  21.454  26.062  1.00  0.00     0.009 A 
ATOM     63  C   UNL A   1      44.439  23.184  24.572  1.00  0.00     0.009 A 
ATOM     64  C   UNL A   1      44.156  20.475  25.212  1.00  0.00     0.001 A 
ATOM     65  C   UNL A   1      44.942  22.200  23.715  1.00  0.00     0.001 A 
ATOM     66  C   UNL A   1      44.814  20.849  24.043  1.00  0.00     0.000 A 
ENDBRANCH  47  61
BRANCH  48  67
ATOM     67  C   UNL A   1      45.844  31.280  27.799  1.00  0.00    -0.014 A 
ATOM     68  C   UNL A   1      45.764  32.435  26.992  1.00  0.00     0.009 A 
ATOM     69  C   UNL A   1      47.128  30.821  28.129  1.00  0.00     0.009 A 
ATOM     70  C   UNL A   1      46.903  33.160  26.631  1.00  0.00     0.001 A 
ATOM     71  C   UNL A   1      48.270  31.562  27.793  1.00  0.00     0.001 A 
ATOM     72  C   UNL A   1      48.156  32.739  27.058  1.00  0.00     0.000 A 
ENDBRANCH  48  67
BRANCH  60  73
ATOM     73  C   UNL A   1      39.976  28.359  27.864  1.00  0.00    -0.014 A 
ATOM     74  C   UNL A   1      39.098  29.190  27.159  1.00  0.00     0.009 A 
ATOM     75  C   UNL A   1      39.792  28.198  29.248  1.00  0.00     0.009 A 
ATOM     76  C   UNL A   1      38.041  29.822  27.816  1.00  0.00     0.001 A 
ATOM     77  C   UNL A   1      38.722  28.812  29.901  1.00  0.00     0.001 A 
ATOM     78  C   UNL A   1      37.845  29.621  29.183  1.00  0.00     0.000 A 
ENDBRANCH  60  73
ENDBRANCH  34  35
ENDBRANCH  26  29
ENDBRANCH  24  25
ENDBRANCH  23  24
ENDBRANCH  22  23
ENDBRANCH   1  22
TORSDOF 15
ENDMDL
MODEL 3
REMARK VINA RESULT:     -10.3      4.841      8.860
REMARK SMILES O=C(CSc1ncnc2sc3c(c12)CCC3)NCCCCCCNC(=O)c1ccc(-c2c3nc(c(-c4ccccc4)c4ccc([nH]4)c(-c4ccccc4)c4nc(c(-c5ccccc5)c5ccc2[nH]5)C=C4)C=C3)cc1
REMARK SMILES IDX 20 1 19 2 18 3 17 4 1 5 2 6 3 8 4 9 5 10 6 11 13 12 7 13
REMARK SMILES IDX 9 14 12 15 8 16 10 17 11 18 14 19 16 20 15 21 21 22 22 23
REMARK SMILES IDX 23 24 24 25 25 26 26 28 27 29 28 30 74 31 29 32 73 33 30 34
REMARK SMILES IDX 31 35 32 36 67 37 33 38 72 39 66 40 68 41 34 42 71 43 65 44
REMARK SMILES IDX 64 45 35 47 57 48 42 49 56 50 43 51 46 52 55 53 69 54 44 55
REMARK SMILES IDX 45 56 54 58 70 59 47 60 36 61 37 62 41 63 38 64 40 65 39 66
REMARK SMILES IDX 58 67 59 68 63 69 60 70 62 71 61 72 48 73 49 74 53 75 50 76
REMARK SMILES IDX 52 77 51 78
REMARK H PARENT 17 7 24 27 68 46 46 57
REMARK Flexibility Score: inf
ROOT
ATOM      1  C   UNL A   1      41.263  26.907  34.466  1.00  0.00     0.002 C 
ENDROOT
BRANCH   1   2
ATOM      2  C   UNL A   1      41.118  28.176  33.618  1.00  0.00     0.021 C 
BRANCH   2   3
ATOM      3  C   UNL A   1      40.348  29.317  34.285  1.00  0.00     0.116 C 
BRANCH   3   4
ATOM      4  N   UNL A   1      39.059  29.556  33.666  1.00  0.00    -0.355 N 
ATOM      5  O   UNL A   1      38.999  31.803  34.105  1.00  0.00    -0.274 OA
ATOM      6  C   UNL A   1      38.502  30.819  33.578  1.00  0.00     0.230 C 
ATOM      7  H   UNL A   1      38.563  28.792  33.294  1.00  0.00     0.163 HD
BRANCH   6   8
ATOM      8  C   UNL A   1      37.138  30.893  32.900  1.00  0.00     0.176 C 
BRANCH   8   9
ATOM      9  S   UNL A   1      36.239  32.449  33.201  1.00  0.00    -0.096 SA
BRANCH   9  10
ATOM     10  C   UNL A   1      35.515  32.708  31.609  1.00  0.00     0.109 A 
ATOM     11  N   UNL A   1      35.643  31.751  30.669  1.00  0.00    -0.229 NA
ATOM     12  C   UNL A   1      34.775  33.867  31.344  1.00  0.00     0.047 A 
ATOM     13  C   UNL A   1      35.049  31.948  29.482  1.00  0.00     0.224 A 
ATOM     14  C   UNL A   1      34.205  33.926  30.070  1.00  0.00     0.128 A 
ATOM     15  C   UNL A   1      34.441  35.052  32.060  1.00  0.00    -0.022 A 
ATOM     16  N   UNL A   1      34.313  32.996  29.105  1.00  0.00    -0.225 NA
ATOM     17  S   UNL A   1      33.292  35.359  29.797  1.00  0.00    -0.120 S 
ATOM     18  C   UNL A   1      33.653  35.903  31.333  1.00  0.00     0.011 A 
ATOM     19  C   UNL A   1      34.735  35.626  33.399  1.00  0.00     0.038 C 
ATOM     20  C   UNL A   1      33.281  37.148  32.043  1.00  0.00     0.047 C 
ATOM     21  C   UNL A   1      33.703  36.792  33.501  1.00  0.00     0.010 C 
ENDBRANCH   9  10
ENDBRANCH   8   9
ENDBRANCH   6   8
ENDBRANCH   3   4
ENDBRANCH   2   3
ENDBRANCH   1   2
BRANCH   1  22
ATOM     22  C   UNL A   1      42.599  26.747  35.199  1.00  0.00     0.002 C 
BRANCH  22  23
ATOM     23  C   UNL A   1      42.704  25.550  36.162  1.00  0.00     0.021 C 
BRANCH  23  24
ATOM     24  C   UNL A   1      44.048  25.394  36.893  1.00  0.00     0.116 C 
BRANCH  24  25
ATOM     25  N   UNL A   1      44.616  24.077  36.664  1.00  0.00    -0.352 N 
ATOM     26  C   UNL A   1      44.888  23.384  35.517  1.00  0.00     0.251 C 
ATOM     27  H   UNL A   1      44.849  23.592  37.488  1.00  0.00     0.163 HD
ATOM     28  O   UNL A   1      45.096  22.173  35.607  1.00  0.00    -0.269 OA
BRANCH  26  29
ATOM     29  C   UNL A   1      44.966  24.018  34.181  1.00  0.00     0.039 A 
ATOM     30  C   UNL A   1      45.899  25.050  34.017  1.00  0.00     0.014 A 
ATOM     31  C   UNL A   1      44.048  23.752  33.159  1.00  0.00     0.014 A 
ATOM     32  C   UNL A   1      45.928  25.797  32.839  1.00  0.00     0.010 A 
ATOM     33  C   UNL A   1      44.082  24.501  31.973  1.00  0.00     0.010 A 
ATOM     34  C   UNL A   1      45.024  25.527  31.804  1.00  0.00    -0.014 A 
BRANCH  34  35
ATOM     35  C   UNL A   1      45.190  26.283  30.544  1.00  0.00     0.031 A 
ATOM     36  C   UNL A   1      45.146  25.486  29.282  1.00  0.00     0.074 A 
ATOM     37  C   UNL A   1      44.873  27.590  30.441  1.00  0.00     0.049 A 
ATOM     38  N   UNL A   1      44.040  25.158  28.678  1.00  0.00    -0.248 NA
ATOM     39  C   UNL A   1      46.335  24.827  28.744  1.00  0.00     0.031 C 
ATOM     40  C   UNL A   1      43.709  28.200  31.097  1.00  0.00     0.029 A 
ATOM     41  N   UNL A   1      45.309  28.549  29.558  1.00  0.00    -0.354 N 
ATOM     42  C   UNL A   1      44.365  24.214  27.720  1.00  0.00     0.074 A 
ATOM     43  C   UNL A   1      45.801  24.049  27.789  1.00  0.00     0.031 C 
ATOM     44  C   UNL A   1      43.418  29.356  30.464  1.00  0.00     0.029 A 
ATOM     45  C   UNL A   1      44.461  29.650  29.485  1.00  0.00     0.049 A 
ATOM     46  H   UNL A   1      46.136  28.466  29.030  1.00  0.00     0.167 HD
ATOM     47  C   UNL A   1      43.443  23.609  26.925  1.00  0.00     0.031 A 
ATOM     48  C   UNL A   1      44.321  30.451  28.394  1.00  0.00     0.031 A 
ATOM     49  C   UNL A   1      42.093  24.052  27.090  1.00  0.00     0.049 A 
ATOM     50  C   UNL A   1      43.494  29.568  27.497  1.00  0.00     0.074 A 
ATOM     51  C   UNL A   1      40.981  23.677  27.814  1.00  0.00     0.029 A 
ATOM     52  N   UNL A   1      41.705  25.192  26.430  1.00  0.00    -0.354 N 
ATOM     53  N   UNL A   1      42.207  29.366  27.585  1.00  0.00    -0.248 NA
ATOM     54  C   UNL A   1      44.209  28.591  26.673  1.00  0.00     0.031 C 
ATOM     55  C   UNL A   1      40.168  24.851  27.901  1.00  0.00     0.029 A 
ATOM     56  C   UNL A   1      40.873  25.880  27.276  1.00  0.00     0.049 A 
ATOM     57  H   UNL A   1      41.973  25.465  25.523  1.00  0.00     0.167 HD
ATOM     58  C   UNL A   1      42.005  28.071  27.105  1.00  0.00     0.074 A 
ATOM     59  C   UNL A   1      43.267  27.670  26.515  1.00  0.00     0.031 C 
ATOM     60  C   UNL A   1      40.904  27.320  27.404  1.00  0.00     0.031 A 
BRANCH  47  61
ATOM     61  C   UNL A   1      43.764  22.640  25.856  1.00  0.00    -0.014 A 
ATOM     62  C   UNL A   1      43.607  21.270  26.124  1.00  0.00     0.009 A 
ATOM     63  C   UNL A   1      44.403  23.036  24.677  1.00  0.00     0.009 A 
ATOM     64  C   UNL A   1      44.118  20.312  25.250  1.00  0.00     0.001 A 
ATOM     65  C   UNL A   1      44.907  22.072  23.797  1.00  0.00     0.001 A 
ATOM     66  C   UNL A   1      44.777  20.714  24.091  1.00  0.00     0.000 A 
ENDBRANCH  47  61
BRANCH  48  67
ATOM     67  C   UNL A   1      45.568  31.147  27.938  1.00  0.00    -0.014 A 
ATOM     68  C   UNL A   1      45.439  32.125  26.929  1.00  0.00     0.009 A 
ATOM     69  C   UNL A   1      46.861  30.896  28.422  1.00  0.00     0.009 A 
ATOM     70  C   UNL A   1      46.528  32.896  26.509  1.00  0.00     0.001 A 
ATOM     71  C   UNL A   1      47.948  31.687  28.023  1.00  0.00     0.001 A 
ATOM     72  C   UNL A   1      47.778  32.696  27.080  1.00  0.00     0.000 A 
ENDBRANCH  48  67
BRANCH  60  73
ATOM     73  C   UNL A   1      39.815  28.012  28.161  1.00  0.00    -0.014 A 
ATOM     74  C   UNL A   1      38.914  28.857  27.504  1.00  0.00     0.009 A 
ATOM     75  C   UNL A   1      39.654  27.790  29.539  1.00  0.00     0.009 A 
ATOM     76  C   UNL A   1      37.856  29.443  28.203  1.00  0.00     0.001 A 
ATOM     77  C   UNL A   1      38.584  28.357  30.233  1.00  0.00     0.001 A 
ATOM     78  C   UNL A   1      37.683  29.181  29.562  1.00  0.00     0.000 A 
ENDBRANCH  60  73
ENDBRANCH  34  35
ENDBRANCH  26  29
ENDBRANCH  24  25
ENDBRANCH  23  24
ENDBRANCH  22  23
ENDBRANCH   1  22
TORSDOF 15
ENDMDL
