MODEL 1
REMARK VINA RESULT:      -9.7      0.000      0.000
REMARK SMILES C#CC[N@@H+](CC(=O)NCCCCCCNC(=O)c1ccc(-c2c3nc(c(-c4ccccc4)c4ccc([nH]4)c(-c4ccccc4)c4nc(c(-c5ccccc5)c5ccc2[nH]5)C=C4)C=C3)cc1)CC(=O)NC(=O)NC
REMARK SMILES IDX 11 1 10 2 9 3 8 4 6 5 7 6 5 8 4 9 3 11 2 12 1 13 66 14 67 15
REMARK SMILES IDX 68 16 69 17 70 18 71 20 72 21 73 22 12 24 13 25 14 26 15 27
REMARK SMILES IDX 16 28 17 30 18 31 19 32 65 33 20 34 64 35 21 36 22 37 23 38
REMARK SMILES IDX 58 39 24 40 63 41 57 42 59 43 25 44 62 45 56 46 55 47 26 49
REMARK SMILES IDX 48 50 33 51 47 52 34 53 37 54 46 55 60 56 35 57 36 58 45 60
REMARK SMILES IDX 61 61 38 62 27 63 28 64 32 65 29 66 31 67 30 68 49 69 50 70
REMARK SMILES IDX 54 71 51 72 53 73 52 74 39 75 40 76 44 77 41 78 43 79 42 80
REMARK H PARENT 8 7 4 10 69 19 72 23 15 29 59 48 37 59
REMARK Flexibility Score: inf
ROOT
ATOM      1  C   UNL A   1      37.991  22.408  25.739  1.00  0.00     0.002 C 
ENDROOT
BRANCH   1   2
ATOM      2  C   UNL A   1      37.151  23.673  25.609  1.00  0.00     0.021 C 
BRANCH   2   3
ATOM      3  C   UNL A   1      35.626  23.471  25.629  1.00  0.00     0.116 C 
BRANCH   3   4
ATOM      4  N   UNL A   1      35.034  23.804  24.351  1.00  0.00    -0.351 N 
ATOM      5  C   UNL A   1      34.197  23.152  23.501  1.00  0.00     0.275 C 
ATOM      6  O   UNL A   1      33.859  23.796  22.501  1.00  0.00    -0.269 OA
ATOM      7  H   UNL A   1      35.295  24.697  24.026  1.00  0.00     0.163 HD
BRANCH   5   8
ATOM      8  C   UNL A   1      33.594  21.750  23.738  1.00  0.00     0.364 C 
BRANCH   8   9
ATOM      9  N   UNL A   1      32.985  21.434  25.064  1.00  0.00    -0.309 N 
ATOM     10  H   UNL A   1      33.648  21.793  25.751  1.00  0.00     0.349 HD
BRANCH   9  11
ATOM     11  C   UNL A   1      32.843  20.007  25.175  1.00  0.00     0.354 C 
BRANCH  11  12
ATOM     12  C   UNL A   1      32.596  19.111  23.972  1.00  0.00    -0.047 C 
ATOM     13  C   UNL A   1      32.385  18.342  22.941  1.00  0.00     0.010 C 
ENDBRANCH  11  12
ENDBRANCH   9  11
BRANCH   9  14
ATOM     14  C   UNL A   1      31.794  22.184  25.493  1.00  0.00     0.365 C 
BRANCH  14  15
ATOM     15  C   UNL A   1      31.943  23.202  26.601  1.00  0.00     0.283 C 
ATOM     16  O   UNL A   1      32.339  22.849  27.719  1.00  0.00    -0.268 OA
ATOM     17  N   UNL A   1      31.697  24.543  26.372  1.00  0.00    -0.273 N 
ATOM     18  C   UNL A   1      30.639  25.234  25.859  1.00  0.00     0.321 C 
ATOM     19  H   UNL A   1      32.446  25.125  26.635  1.00  0.00     0.175 HD
ATOM     20  O   UNL A   1      30.157  26.155  26.522  1.00  0.00    -0.248 OA
ATOM     21  N   UNL A   1      30.093  24.987  24.659  1.00  0.00    -0.341 N 
ATOM     22  C   UNL A   1      30.610  24.372  23.465  1.00  0.00     0.144 C 
ATOM     23  H   UNL A   1      29.157  25.283  24.580  1.00  0.00     0.165 HD
ENDBRANCH  14  15
ENDBRANCH   9  14
ENDBRANCH   8   9
ENDBRANCH   5   8
ENDBRANCH   3   4
ENDBRANCH   2   3
ENDBRANCH   1   2
BRANCH   1  24
ATOM     24  C   UNL A   1      37.558  21.249  24.848  1.00  0.00     0.002 C 
BRANCH  24  25
ATOM     25  C   UNL A   1      38.392  19.975  24.991  1.00  0.00     0.021 C 
BRANCH  25  26
ATOM     26  C   UNL A   1      39.319  19.947  26.203  1.00  0.00     0.116 C 
BRANCH  26  27
ATOM     27  N   UNL A   1      40.530  19.188  25.937  1.00  0.00    -0.352 N 
ATOM     28  C   UNL A   1      41.827  19.629  25.896  1.00  0.00     0.251 C 
ATOM     29  H   UNL A   1      40.401  18.229  25.760  1.00  0.00     0.163 HD
ATOM     30  O   UNL A   1      42.714  18.936  25.412  1.00  0.00    -0.269 OA
BRANCH  28  31
ATOM     31  C   UNL A   1      42.144  20.961  26.444  1.00  0.00     0.039 A 
ATOM     32  C   UNL A   1      42.489  21.992  25.570  1.00  0.00     0.014 A 
ATOM     33  C   UNL A   1      42.094  21.181  27.825  1.00  0.00     0.014 A 
ATOM     34  C   UNL A   1      42.748  23.263  26.080  1.00  0.00     0.010 A 
ATOM     35  C   UNL A   1      42.285  22.463  28.324  1.00  0.00     0.010 A 
ATOM     36  C   UNL A   1      42.627  23.512  27.457  1.00  0.00    -0.014 A 
BRANCH  36  37
ATOM     37  C   UNL A   1      42.874  24.863  28.013  1.00  0.00     0.031 A 
ATOM     38  C   UNL A   1      44.259  25.255  28.446  1.00  0.00     0.074 A 
ATOM     39  C   UNL A   1      41.844  25.715  28.174  1.00  0.00     0.049 A 
ATOM     40  N   UNL A   1      44.669  26.375  28.984  1.00  0.00    -0.248 NA
ATOM     41  C   UNL A   1      45.318  24.246  28.278  1.00  0.00     0.031 C 
ATOM     42  C   UNL A   1      40.448  25.433  27.831  1.00  0.00     0.029 A 
ATOM     43  N   UNL A   1      41.812  26.992  28.673  1.00  0.00    -0.354 N 
ATOM     44  C   UNL A   1      46.024  26.199  29.233  1.00  0.00     0.074 A 
ATOM     45  C   UNL A   1      46.357  24.849  28.834  1.00  0.00     0.031 C 
ATOM     46  C   UNL A   1      39.702  26.514  28.104  1.00  0.00     0.029 A 
ATOM     47  C   UNL A   1      40.557  27.551  28.672  1.00  0.00     0.049 A 
ATOM     48  H   UNL A   1      42.613  27.463  29.000  1.00  0.00     0.167 HD
ATOM     49  C   UNL A   1      46.916  27.088  29.729  1.00  0.00     0.031 A 
ATOM     50  C   UNL A   1      40.145  28.764  29.085  1.00  0.00     0.031 A 
ATOM     51  C   UNL A   1      46.584  28.433  30.112  1.00  0.00     0.049 A 
ATOM     52  C   UNL A   1      41.154  29.732  29.636  1.00  0.00     0.074 A 
ATOM     53  C   UNL A   1      47.425  29.433  30.566  1.00  0.00     0.029 A 
ATOM     54  N   UNL A   1      45.303  28.965  30.089  1.00  0.00    -0.354 N 
ATOM     55  N   UNL A   1      42.446  29.577  29.793  1.00  0.00    -0.248 NA
ATOM     56  C   UNL A   1      40.647  31.047  30.052  1.00  0.00     0.031 C 
ATOM     57  C   UNL A   1      46.645  30.556  30.866  1.00  0.00     0.029 A 
ATOM     58  C   UNL A   1      45.328  30.271  30.546  1.00  0.00     0.049 A 
ATOM     59  H   UNL A   1      44.498  28.484  29.791  1.00  0.00     0.167 HD
ATOM     60  C   UNL A   1      42.911  30.780  30.304  1.00  0.00     0.074 A 
ATOM     61  C   UNL A   1      41.765  31.661  30.413  1.00  0.00     0.031 C 
ATOM     62  C   UNL A   1      44.175  31.128  30.652  1.00  0.00     0.031 A 
BRANCH  49  63
ATOM     63  C   UNL A   1      48.337  26.625  29.891  1.00  0.00    -0.014 A 
ATOM     64  C   UNL A   1      49.289  26.825  28.877  1.00  0.00     0.009 A 
ATOM     65  C   UNL A   1      48.738  26.004  31.083  1.00  0.00     0.009 A 
ATOM     66  C   UNL A   1      50.601  26.377  29.040  1.00  0.00     0.001 A 
ATOM     67  C   UNL A   1      50.059  25.585  31.256  1.00  0.00     0.001 A 
ATOM     68  C   UNL A   1      50.986  25.762  30.231  1.00  0.00     0.000 A 
ENDBRANCH  49  63
BRANCH  50  69
ATOM     69  C   UNL A   1      38.710  29.136  28.976  1.00  0.00    -0.014 A 
ATOM     70  C   UNL A   1      38.190  29.618  27.767  1.00  0.00     0.009 A 
ATOM     71  C   UNL A   1      37.854  29.010  30.081  1.00  0.00     0.009 A 
ATOM     72  C   UNL A   1      36.846  29.989  27.672  1.00  0.00     0.001 A 
ATOM     73  C   UNL A   1      36.505  29.355  29.975  1.00  0.00     0.001 A 
ATOM     74  C   UNL A   1      36.005  29.853  28.774  1.00  0.00     0.000 A 
ENDBRANCH  50  69
BRANCH  62  75
ATOM     75  C   UNL A   1      44.386  32.526  31.159  1.00  0.00    -0.014 A 
ATOM     76  C   UNL A   1      44.653  33.586  30.278  1.00  0.00     0.009 A 
ATOM     77  C   UNL A   1      44.275  32.792  32.532  1.00  0.00     0.009 A 
ATOM     78  C   UNL A   1      44.839  34.880  30.769  1.00  0.00     0.001 A 
ATOM     79  C   UNL A   1      44.433  34.091  33.016  1.00  0.00     0.001 A 
ATOM     80  C   UNL A   1      44.724  35.132  32.136  1.00  0.00     0.000 A 
ENDBRANCH  62  75
ENDBRANCH  36  37
ENDBRANCH  28  31
ENDBRANCH  26  27
ENDBRANCH  25  26
ENDBRANCH  24  25
ENDBRANCH   1  24
TORSDOF 18
ENDMDL
MODEL 2
REMARK VINA RESULT:      -9.6      1.241      6.529
REMARK SMILES C#CC[N@@H+](CC(=O)NCCCCCCNC(=O)c1ccc(-c2c3nc(c(-c4ccccc4)c4ccc([nH]4)c(-c4ccccc4)c4nc(c(-c5ccccc5)c5ccc2[nH]5)C=C4)C=C3)cc1)CC(=O)NC(=O)NC
REMARK SMILES IDX 11 1 10 2 9 3 8 4 6 5 7 6 5 8 4 9 3 11 2 12 1 13 66 14 67 15
REMARK SMILES IDX 68 16 69 17 70 18 71 20 72 21 73 22 12 24 13 25 14 26 15 27
REMARK SMILES IDX 16 28 17 30 18 31 19 32 65 33 20 34 64 35 21 36 22 37 23 38
REMARK SMILES IDX 58 39 24 40 63 41 57 42 59 43 25 44 62 45 56 46 55 47 26 49
REMARK SMILES IDX 48 50 33 51 47 52 34 53 37 54 46 55 60 56 35 57 36 58 45 60
REMARK SMILES IDX 61 61 38 62 27 63 28 64 32 65 29 66 31 67 30 68 49 69 50 70
REMARK SMILES IDX 54 71 51 72 53 73 52 74 39 75 40 76 44 77 41 78 43 79 42 80
REMARK H PARENT 8 7 4 10 69 19 72 23 15 29 59 48 37 59
REMARK Flexibility Score: inf
ROOT
ATOM      1  C   UNL A   1      36.761  21.768  24.972  1.00  0.00     0.002 C 
ENDROOT
BRANCH   1   2
ATOM      2  C   UNL A   1      36.157  22.551  23.812  1.00  0.00     0.021 C 
BRANCH   2   3
ATOM      3  C   UNL A   1      35.211  23.701  24.199  1.00  0.00     0.116 C 
BRANCH   3   4
ATOM      4  N   UNL A   1      34.472  24.183  23.052  1.00  0.00    -0.351 N 
ATOM      5  C   UNL A   1      33.814  25.339  22.772  1.00  0.00     0.275 C 
ATOM      6  O   UNL A   1      33.335  25.408  21.633  1.00  0.00    -0.269 OA
ATOM      7  H   UNL A   1      34.437  23.531  22.313  1.00  0.00     0.163 HD
BRANCH   5   8
ATOM      8  C   UNL A   1      33.707  26.559  23.713  1.00  0.00     0.364 C 
BRANCH   8   9
ATOM      9  N   UNL A   1      32.762  26.508  24.867  1.00  0.00    -0.309 N 
ATOM     10  H   UNL A   1      31.971  27.087  24.587  1.00  0.00     0.349 HD
BRANCH   9  11
ATOM     11  C   UNL A   1      33.422  27.052  26.024  1.00  0.00     0.354 C 
BRANCH  11  12
ATOM     12  C   UNL A   1      33.003  28.364  26.666  1.00  0.00    -0.047 C 
ATOM     13  C   UNL A   1      32.644  29.490  27.217  1.00  0.00     0.010 C 
ENDBRANCH  11  12
ENDBRANCH   9  11
BRANCH   9  14
ATOM     14  C   UNL A   1      32.036  25.256  25.133  1.00  0.00     0.365 C 
BRANCH  14  15
ATOM     15  C   UNL A   1      30.640  25.341  25.706  1.00  0.00     0.283 C 
ATOM     16  O   UNL A   1      30.081  26.439  25.820  1.00  0.00    -0.268 OA
ATOM     17  N   UNL A   1      29.945  24.197  26.056  1.00  0.00    -0.273 N 
ATOM     18  C   UNL A   1      30.225  23.131  26.857  1.00  0.00     0.321 C 
ATOM     19  H   UNL A   1      29.056  24.141  25.636  1.00  0.00     0.175 HD
ATOM     20  O   UNL A   1      29.428  22.837  27.752  1.00  0.00    -0.248 OA
ATOM     21  N   UNL A   1      31.314  22.360  26.725  1.00  0.00    -0.341 N 
ATOM     22  C   UNL A   1      32.181  22.085  25.610  1.00  0.00     0.144 C 
ATOM     23  H   UNL A   1      31.572  21.891  27.553  1.00  0.00     0.165 HD
ENDBRANCH  14  15
ENDBRANCH   9  14
ENDBRANCH   8   9
ENDBRANCH   5   8
ENDBRANCH   3   4
ENDBRANCH   2   3
ENDBRANCH   1   2
BRANCH   1  24
ATOM     24  C   UNL A   1      36.579  20.256  24.896  1.00  0.00     0.002 C 
BRANCH  24  25
ATOM     25  C   UNL A   1      37.874  19.443  24.948  1.00  0.00     0.021 C 
BRANCH  25  26
ATOM     26  C   UNL A   1      39.026  20.119  25.688  1.00  0.00     0.116 C 
BRANCH  26  27
ATOM     27  N   UNL A   1      40.182  19.245  25.794  1.00  0.00    -0.352 N 
ATOM     28  C   UNL A   1      41.486  19.576  26.060  1.00  0.00     0.251 C 
ATOM     29  H   UNL A   1      40.006  18.287  25.655  1.00  0.00     0.163 HD
ATOM     30  O   UNL A   1      42.391  18.773  25.869  1.00  0.00    -0.269 OA
BRANCH  28  31
ATOM     31  C   UNL A   1      41.787  20.922  26.580  1.00  0.00     0.039 A 
ATOM     32  C   UNL A   1      41.697  21.157  27.953  1.00  0.00     0.014 A 
ATOM     33  C   UNL A   1      42.159  21.946  25.703  1.00  0.00     0.014 A 
ATOM     34  C   UNL A   1      42.022  22.416  28.454  1.00  0.00     0.010 A 
ATOM     35  C   UNL A   1      42.548  23.179  26.211  1.00  0.00     0.010 A 
ATOM     36  C   UNL A   1      42.470  23.429  27.590  1.00  0.00    -0.014 A 
BRANCH  36  37
ATOM     37  C   UNL A   1      42.842  24.766  28.109  1.00  0.00     0.031 A 
ATOM     38  C   UNL A   1      41.783  25.809  28.326  1.00  0.00     0.074 A 
ATOM     39  C   UNL A   1      44.138  25.053  28.333  1.00  0.00     0.049 A 
ATOM     40  N   UNL A   1      41.914  27.043  28.742  1.00  0.00    -0.248 NA
ATOM     41  C   UNL A   1      40.397  25.424  28.010  1.00  0.00     0.031 C 
ATOM     42  C   UNL A   1      45.261  24.138  28.118  1.00  0.00     0.029 A 
ATOM     43  N   UNL A   1      44.730  26.204  28.789  1.00  0.00    -0.354 N 
ATOM     44  C   UNL A   1      40.634  27.584  28.720  1.00  0.00     0.074 A 
ATOM     45  C   UNL A   1      39.749  26.562  28.205  1.00  0.00     0.031 C 
ATOM     46  C   UNL A   1      46.402  24.753  28.469  1.00  0.00     0.029 A 
ATOM     47  C   UNL A   1      46.097  26.113  28.898  1.00  0.00     0.049 A 
ATOM     48  H   UNL A   1      44.223  27.017  29.018  1.00  0.00     0.167 HD
ATOM     49  C   UNL A   1      40.229  28.813  29.115  1.00  0.00     0.031 A 
ATOM     50  C   UNL A   1      47.000  27.027  29.298  1.00  0.00     0.031 A 
ATOM     51  C   UNL A   1      41.110  29.822  29.639  1.00  0.00     0.049 A 
ATOM     52  C   UNL A   1      46.526  28.387  29.727  1.00  0.00     0.074 A 
ATOM     53  C   UNL A   1      40.790  31.077  30.125  1.00  0.00     0.029 A 
ATOM     54  N   UNL A   1      42.486  29.689  29.741  1.00  0.00    -0.354 N 
ATOM     55  N   UNL A   1      45.303  28.858  29.774  1.00  0.00    -0.248 NA
ATOM     56  C   UNL A   1      47.556  29.335  30.172  1.00  0.00     0.031 C 
ATOM     57  C   UNL A   1      41.982  31.724  30.475  1.00  0.00     0.029 A 
ATOM     58  C   UNL A   1      43.034  30.850  30.258  1.00  0.00     0.049 A 
ATOM     59  H   UNL A   1      42.997  28.888  29.483  1.00  0.00     0.167 HD
ATOM     60  C   UNL A   1      45.413  30.147  30.274  1.00  0.00     0.074 A 
ATOM     61  C   UNL A   1      46.821  30.377  30.533  1.00  0.00     0.031 C 
ATOM     62  C   UNL A   1      44.438  31.061  30.501  1.00  0.00     0.031 A 
BRANCH  49  63
ATOM     63  C   UNL A   1      38.766  29.135  28.984  1.00  0.00    -0.014 A 
ATOM     64  C   UNL A   1      37.893  29.010  30.077  1.00  0.00     0.009 A 
ATOM     65  C   UNL A   1      38.258  29.593  27.760  1.00  0.00     0.009 A 
ATOM     66  C   UNL A   1      36.535  29.301  29.934  1.00  0.00     0.001 A 
ATOM     67  C   UNL A   1      36.905  29.913  27.628  1.00  0.00     0.001 A 
ATOM     68  C   UNL A   1      36.043  29.756  28.711  1.00  0.00     0.000 A 
ENDBRANCH  49  63
BRANCH  50  69
ATOM     69  C   UNL A   1      48.444  26.678  29.328  1.00  0.00    -0.014 A 
ATOM     70  C   UNL A   1      49.000  26.046  30.449  1.00  0.00     0.009 A 
ATOM     71  C   UNL A   1      49.273  26.975  28.234  1.00  0.00     0.009 A 
ATOM     72  C   UNL A   1      50.363  25.738  30.485  1.00  0.00     0.001 A 
ATOM     73  C   UNL A   1      50.629  26.640  28.262  1.00  0.00     0.001 A 
ATOM     74  C   UNL A   1      51.174  26.032  29.391  1.00  0.00     0.000 A 
ENDBRANCH  50  69
BRANCH  62  75
ATOM     75  C   UNL A   1      44.858  32.382  31.080  1.00  0.00    -0.014 A 
ATOM     76  C   UNL A   1      45.170  33.473  30.253  1.00  0.00     0.009 A 
ATOM     77  C   UNL A   1      44.904  32.547  32.473  1.00  0.00     0.009 A 
ATOM     78  C   UNL A   1      45.551  34.694  30.812  1.00  0.00     0.001 A 
ATOM     79  C   UNL A   1      45.257  33.777  33.028  1.00  0.00     0.001 A 
ATOM     80  C   UNL A   1      45.589  34.846  32.198  1.00  0.00     0.000 A 
ENDBRANCH  62  75
ENDBRANCH  36  37
ENDBRANCH  28  31
ENDBRANCH  26  27
ENDBRANCH  25  26
ENDBRANCH  24  25
ENDBRANCH   1  24
TORSDOF 18
ENDMDL
MODEL 3
REMARK VINA RESULT:      -9.6      1.327      6.595
REMARK SMILES C#CC[N@@H+](CC(=O)NCCCCCCNC(=O)c1ccc(-c2c3nc(c(-c4ccccc4)c4ccc([nH]4)c(-c4ccccc4)c4nc(c(-c5ccccc5)c5ccc2[nH]5)C=C4)C=C3)cc1)CC(=O)NC(=O)NC
REMARK SMILES IDX 11 1 10 2 9 3 8 4 6 5 7 6 5 8 4 9 3 11 2 12 1 13 66 14 67 15
REMARK SMILES IDX 68 16 69 17 70 18 71 20 72 21 73 22 12 24 13 25 14 26 15 27
REMARK SMILES IDX 16 28 17 30 18 31 19 32 65 33 20 34 64 35 21 36 22 37 23 38
REMARK SMILES IDX 58 39 24 40 63 41 57 42 59 43 25 44 62 45 56 46 55 47 26 49
REMARK SMILES IDX 48 50 33 51 47 52 34 53 37 54 46 55 60 56 35 57 36 58 45 60
REMARK SMILES IDX 61 61 38 62 27 63 28 64 32 65 29 66 31 67 30 68 49 69 50 70
REMARK SMILES IDX 54 71 51 72 53 73 52 74 39 75 40 76 44 77 41 78 43 79 42 80
REMARK H PARENT 8 7 4 10 69 19 72 23 15 29 59 48 37 59
REMARK Flexibility Score: inf
ROOT
ATOM      1  C   UNL A   1      36.586  21.707  25.543  1.00  0.00     0.002 C 
ENDROOT
BRANCH   1   2
ATOM      2  C   UNL A   1      35.243  22.293  25.966  1.00  0.00     0.021 C 
BRANCH   2   3
ATOM      3  C   UNL A   1      34.028  21.363  25.815  1.00  0.00     0.116 C 
BRANCH   3   4
ATOM      4  N   UNL A   1      32.895  21.850  26.574  1.00  0.00    -0.351 N 
ATOM      5  C   UNL A   1      32.040  22.896  26.425  1.00  0.00     0.275 C 
ATOM      6  O   UNL A   1      31.139  22.962  27.269  1.00  0.00    -0.269 OA
ATOM      7  H   UNL A   1      32.703  21.306  27.373  1.00  0.00     0.163 HD
BRANCH   5   8
ATOM      8  C   UNL A   1      32.066  23.915  25.264  1.00  0.00     0.364 C 
BRANCH   8   9
ATOM      9  N   UNL A   1      32.883  25.156  25.402  1.00  0.00    -0.309 N 
ATOM     10  H   UNL A   1      33.723  24.865  25.902  1.00  0.00     0.349 HD
BRANCH   9  11
ATOM     11  C   UNL A   1      32.131  26.117  26.163  1.00  0.00     0.354 C 
BRANCH  11  12
ATOM     12  C   UNL A   1      32.665  27.501  26.495  1.00  0.00    -0.047 C 
ATOM     13  C   UNL A   1      33.123  28.688  26.781  1.00  0.00     0.010 C 
ENDBRANCH  11  12
ENDBRANCH   9  11
BRANCH   9  14
ATOM     14  C   UNL A   1      33.524  25.720  24.203  1.00  0.00     0.365 C 
BRANCH  14  15
ATOM     15  C   UNL A   1      33.870  24.787  23.066  1.00  0.00     0.283 C 
ATOM     16  O   UNL A   1      34.834  24.017  23.165  1.00  0.00    -0.268 OA
ATOM     17  N   UNL A   1      33.089  24.736  21.925  1.00  0.00    -0.273 N 
ATOM     18  C   UNL A   1      32.648  25.674  21.042  1.00  0.00     0.321 C 
ATOM     19  H   UNL A   1      32.786  23.825  21.705  1.00  0.00     0.175 HD
ATOM     20  O   UNL A   1      32.873  25.507  19.840  1.00  0.00    -0.248 OA
ATOM     21  N   UNL A   1      31.962  26.772  21.393  1.00  0.00    -0.341 N 
ATOM     22  C   UNL A   1      31.143  27.081  22.535  1.00  0.00     0.144 C 
ATOM     23  H   UNL A   1      32.034  27.510  20.744  1.00  0.00     0.165 HD
ENDBRANCH  14  15
ENDBRANCH   9  14
ENDBRANCH   8   9
ENDBRANCH   5   8
ENDBRANCH   3   4
ENDBRANCH   2   3
ENDBRANCH   1   2
BRANCH   1  24
ATOM     24  C   UNL A   1      36.514  20.329  24.893  1.00  0.00     0.002 C 
BRANCH  24  25
ATOM     25  C   UNL A   1      37.832  19.551  24.876  1.00  0.00     0.021 C 
BRANCH  25  26
ATOM     26  C   UNL A   1      38.966  20.192  25.671  1.00  0.00     0.116 C 
BRANCH  26  27
ATOM     27  N   UNL A   1      40.103  19.298  25.802  1.00  0.00    -0.352 N 
ATOM     28  C   UNL A   1      41.409  19.606  26.083  1.00  0.00     0.251 C 
ATOM     29  H   UNL A   1      39.911  18.342  25.670  1.00  0.00     0.163 HD
ATOM     30  O   UNL A   1      42.301  18.784  25.912  1.00  0.00    -0.269 OA
BRANCH  28  31
ATOM     31  C   UNL A   1      41.729  20.951  26.595  1.00  0.00     0.039 A 
ATOM     32  C   UNL A   1      41.574  21.216  27.956  1.00  0.00     0.014 A 
ATOM     33  C   UNL A   1      42.183  21.944  25.721  1.00  0.00     0.014 A 
ATOM     34  C   UNL A   1      41.916  22.473  28.452  1.00  0.00     0.010 A 
ATOM     35  C   UNL A   1      42.588  23.173  26.227  1.00  0.00     0.010 A 
ATOM     36  C   UNL A   1      42.444  23.452  27.595  1.00  0.00    -0.014 A 
BRANCH  36  37
ATOM     37  C   UNL A   1      42.835  24.786  28.110  1.00  0.00     0.031 A 
ATOM     38  C   UNL A   1      41.789  25.841  28.333  1.00  0.00     0.074 A 
ATOM     39  C   UNL A   1      44.136  25.060  28.325  1.00  0.00     0.049 A 
ATOM     40  N   UNL A   1      41.936  27.074  28.746  1.00  0.00    -0.248 NA
ATOM     41  C   UNL A   1      40.397  25.471  28.028  1.00  0.00     0.031 C 
ATOM     42  C   UNL A   1      45.247  24.132  28.103  1.00  0.00     0.029 A 
ATOM     43  N   UNL A   1      44.744  26.204  28.775  1.00  0.00    -0.354 N 
ATOM     44  C   UNL A   1      40.663  27.629  28.733  1.00  0.00     0.074 A 
ATOM     45  C   UNL A   1      39.763  26.617  28.225  1.00  0.00     0.031 C 
ATOM     46  C   UNL A   1      46.397  24.734  28.445  1.00  0.00     0.029 A 
ATOM     47  C   UNL A   1      46.110  26.099  28.874  1.00  0.00     0.049 A 
ATOM     48  H   UNL A   1      44.247  27.023  29.006  1.00  0.00     0.167 HD
ATOM     49  C   UNL A   1      40.274  28.863  29.129  1.00  0.00     0.031 A 
ATOM     50  C   UNL A   1      47.026  27.003  29.266  1.00  0.00     0.031 A 
ATOM     51  C   UNL A   1      41.169  29.863  29.646  1.00  0.00     0.049 A 
ATOM     52  C   UNL A   1      46.570  28.368  29.697  1.00  0.00     0.074 A 
ATOM     53  C   UNL A   1      40.867  31.122  30.133  1.00  0.00     0.029 A 
ATOM     54  N   UNL A   1      42.545  29.715  29.738  1.00  0.00    -0.354 N 
ATOM     55  N   UNL A   1      45.352  28.852  29.752  1.00  0.00    -0.248 NA
ATOM     56  C   UNL A   1      47.613  29.306  30.134  1.00  0.00     0.031 C 
ATOM     57  C   UNL A   1      42.068  31.756  30.473  1.00  0.00     0.029 A 
ATOM     58  C   UNL A   1      43.109  30.870  30.250  1.00  0.00     0.049 A 
ATOM     59  H   UNL A   1      43.045  28.908  29.478  1.00  0.00     0.167 HD
ATOM     60  C   UNL A   1      45.481  30.141  30.250  1.00  0.00     0.074 A 
ATOM     61  C   UNL A   1      46.892  30.356  30.498  1.00  0.00     0.031 C 
ATOM     62  C   UNL A   1      44.517  31.066  30.483  1.00  0.00     0.031 A 
BRANCH  49  63
ATOM     63  C   UNL A   1      38.813  29.200  29.009  1.00  0.00    -0.014 A 
ATOM     64  C   UNL A   1      38.265  29.640  27.793  1.00  0.00     0.009 A 
ATOM     65  C   UNL A   1      37.969  29.051  30.118  1.00  0.00     0.009 A 
ATOM     66  C   UNL A   1      36.909  29.960  27.703  1.00  0.00     0.001 A 
ATOM     67  C   UNL A   1      36.607  29.343  30.018  1.00  0.00     0.001 A 
ATOM     68  C   UNL A   1      36.080  29.807  28.814  1.00  0.00     0.000 A 
ENDBRANCH  49  63
BRANCH  50  69
ATOM     69  C   UNL A   1      48.466  26.638  29.287  1.00  0.00    -0.014 A 
ATOM     70  C   UNL A   1      49.275  26.868  28.165  1.00  0.00     0.009 A 
ATOM     71  C   UNL A   1      49.040  26.061  30.431  1.00  0.00     0.009 A 
ATOM     72  C   UNL A   1      50.624  26.505  28.178  1.00  0.00     0.001 A 
ATOM     73  C   UNL A   1      50.396  25.725  30.450  1.00  0.00     0.001 A 
ATOM     74  C   UNL A   1      51.183  25.939  29.321  1.00  0.00     0.000 A 
ENDBRANCH  50  69
BRANCH  62  75
ATOM     75  C   UNL A   1      44.956  32.383  31.057  1.00  0.00    -0.014 A 
ATOM     76  C   UNL A   1      45.039  32.581  32.444  1.00  0.00     0.009 A 
ATOM     77  C   UNL A   1      45.328  33.427  30.196  1.00  0.00     0.009 A 
ATOM     78  C   UNL A   1      45.456  33.810  32.956  1.00  0.00     0.001 A 
ATOM     79  C   UNL A   1      45.771  34.645  30.711  1.00  0.00     0.001 A 
ATOM     80  C   UNL A   1      45.826  34.839  32.090  1.00  0.00     0.000 A 
ENDBRANCH  62  75
ENDBRANCH  36  37
ENDBRANCH  28  31
ENDBRANCH  26  27
ENDBRANCH  25  26
ENDBRANCH  24  25
ENDBRANCH   1  24
TORSDOF 18
ENDMDL
