MODEL 1
REMARK VINA RESULT:     -12.0      0.000      0.000
REMARK SMILES CC(C)c1ccc(-c2cnc([C@@H]3[NH2+][C@H](C(=O)NCCCCCCNC(=O)c4ccc(-c5c6nc(c(-c7ccccc7)c7ccc([nH]7)c(-c7ccccc7)c7nc(c(-c8ccccc8)c8ccc5[nH]8)C=C7)C=C6)cc4)C(C)(C)S3)s2)cc1
REMARK SMILES IDX 20 1 19 2 18 3 17 4 15 5 16 6 14 8 12 9 13 10 78 11 75 14
REMARK SMILES IDX 76 15 77 16 11 17 8 18 9 19 79 20 10 21 7 22 4 23 5 24 81 25
REMARK SMILES IDX 6 26 80 27 2 28 1 29 3 30 21 31 22 32 23 33 24 34 25 35
REMARK SMILES IDX 26 37 27 38 28 39 74 40 29 41 73 42 30 43 31 44 32 45 67 46
REMARK SMILES IDX 33 47 72 48 66 49 68 50 34 51 71 52 65 53 64 54 35 56 57 57
REMARK SMILES IDX 42 58 56 59 43 60 46 61 55 62 69 63 44 64 45 65 54 67 70 68
REMARK SMILES IDX 47 69 36 70 37 71 41 72 38 73 40 74 39 75 58 76 59 77 63 78
REMARK SMILES IDX 60 79 62 80 61 81 48 82 49 83 53 84 50 85 52 86 51 87
REMARK H PARENT 17 7 13 12 13 13 24 36 68 55 46 66
REMARK Flexibility Score: inf
ROOT
ATOM      1  C   UNL A   1      37.806  22.113  25.385  1.00  0.00     0.002 C 
ENDROOT
BRANCH   1   2
ATOM      2  C   UNL A   1      37.213  23.384  24.756  1.00  0.00     0.021 C 
BRANCH   2   3
ATOM      3  C   UNL A   1      36.593  23.196  23.365  1.00  0.00     0.116 C 
BRANCH   3   4
ATOM      4  N   UNL A   1      35.216  23.639  23.347  1.00  0.00    -0.351 N 
ATOM      5  C   UNL A   1      34.157  22.764  23.350  1.00  0.00     0.279 C 
ATOM      6  O   UNL A   1      33.407  22.807  22.382  1.00  0.00    -0.268 OA
ATOM      7  H   UNL A   1      35.030  24.605  23.333  1.00  0.00     0.163 HD
BRANCH   5   8
ATOM      8  C   UNL A   1      34.014  21.825  24.571  1.00  0.00     0.289 C 
ATOM      9  C   UNL A   1      32.648  22.965  26.218  1.00  0.00     0.304 C 
ATOM     10  N   UNL A   1      34.037  22.606  25.849  1.00  0.00    -0.318 N 
ATOM     11  S   UNL A   1      31.527  21.698  25.547  1.00  0.00    -0.079 SA
ATOM     12  H   UNL A   1      34.453  22.041  26.589  1.00  0.00     0.348 HD
ATOM     13  H   UNL A   1      34.590  23.454  25.725  1.00  0.00     0.348 HD
ATOM     14  C   UNL A   1      32.814  20.856  24.572  1.00  0.00     0.078 C 
ATOM     15  C   UNL A   1      33.176  19.564  25.332  1.00  0.00     0.030 C 
ATOM     16  C   UNL A   1      32.283  20.478  23.189  1.00  0.00     0.030 C 
BRANCH   9  17
ATOM     17  C   UNL A   1      32.238  24.370  25.825  1.00  0.00     0.162 A 
ATOM     18  C   UNL A   1      31.111  26.339  24.917  1.00  0.00     0.055 A 
ATOM     19  C   UNL A   1      32.274  26.569  25.625  1.00  0.00     0.132 A 
ATOM     20  S   UNL A   1      30.780  24.653  24.934  1.00  0.00    -0.112 S 
ATOM     21  N   UNL A   1      32.933  25.458  26.076  1.00  0.00    -0.242 NA
BRANCH  18  22
ATOM     22  C   UNL A   1      30.282  27.324  24.219  1.00  0.00    -0.007 A 
ATOM     23  C   UNL A   1      28.684  29.364  23.038  1.00  0.00    -0.045 A 
ATOM     24  C   UNL A   1      28.224  28.041  23.136  1.00  0.00     0.004 A 
ATOM     25  C   UNL A   1      29.982  29.631  23.497  1.00  0.00     0.004 A 
ATOM     26  C   UNL A   1      29.011  27.034  23.718  1.00  0.00     0.010 A 
ATOM     27  C   UNL A   1      30.760  28.633  24.086  1.00  0.00     0.010 A 
BRANCH  23  28
ATOM     28  C   UNL A   1      27.861  30.499  22.435  1.00  0.00     0.013 C 
ATOM     29  C   UNL A   1      27.657  31.711  23.352  1.00  0.00     0.012 C 
ATOM     30  C   UNL A   1      28.457  30.996  21.107  1.00  0.00     0.012 C 
ENDBRANCH  23  28
ENDBRANCH  18  22
ENDBRANCH   9  17
ENDBRANCH   5   8
ENDBRANCH   3   4
ENDBRANCH   2   3
ENDBRANCH   1   2
BRANCH   1  31
ATOM     31  C   UNL A   1      37.407  20.797  24.714  1.00  0.00     0.002 C 
BRANCH  31  32
ATOM     32  C   UNL A   1      38.277  19.593  25.077  1.00  0.00     0.021 C 
BRANCH  32  33
ATOM     33  C   UNL A   1      39.362  19.875  26.109  1.00  0.00     0.116 C 
BRANCH  33  34
ATOM     34  N   UNL A   1      40.581  19.124  25.856  1.00  0.00    -0.352 N 
ATOM     35  C   UNL A   1      41.883  19.546  25.937  1.00  0.00     0.251 C 
ATOM     36  H   UNL A   1      40.454  18.185  25.591  1.00  0.00     0.163 HD
ATOM     37  O   UNL A   1      42.796  18.820  25.540  1.00  0.00    -0.269 OA
BRANCH  35  38
ATOM     38  C   UNL A   1      42.197  20.885  26.478  1.00  0.00     0.039 A 
ATOM     39  C   UNL A   1      42.535  21.909  25.590  1.00  0.00     0.014 A 
ATOM     40  C   UNL A   1      42.167  21.132  27.854  1.00  0.00     0.014 A 
ATOM     41  C   UNL A   1      42.794  23.193  26.076  1.00  0.00     0.010 A 
ATOM     42  C   UNL A   1      42.360  22.426  28.331  1.00  0.00     0.010 A 
ATOM     43  C   UNL A   1      42.684  23.466  27.448  1.00  0.00    -0.014 A 
BRANCH  43  44
ATOM     44  C   UNL A   1      42.932  24.830  27.981  1.00  0.00     0.031 A 
ATOM     45  C   UNL A   1      44.322  25.246  28.373  1.00  0.00     0.074 A 
ATOM     46  C   UNL A   1      41.901  25.677  28.163  1.00  0.00     0.049 A 
ATOM     47  N   UNL A   1      44.730  26.372  28.901  1.00  0.00    -0.248 NA
ATOM     48  C   UNL A   1      45.392  24.256  28.168  1.00  0.00     0.031 C 
ATOM     49  C   UNL A   1      40.498  25.385  27.858  1.00  0.00     0.029 A 
ATOM     50  N   UNL A   1      41.876  26.958  28.654  1.00  0.00    -0.354 N 
ATOM     51  C   UNL A   1      46.095  26.218  29.110  1.00  0.00     0.074 A 
ATOM     52  C   UNL A   1      46.437  24.876  28.694  1.00  0.00     0.031 C 
ATOM     53  C   UNL A   1      39.754  26.467  28.144  1.00  0.00     0.029 A 
ATOM     54  C   UNL A   1      40.620  27.514  28.680  1.00  0.00     0.049 A 
ATOM     55  H   UNL A   1      42.683  27.434  28.959  1.00  0.00     0.167 HD
ATOM     56  C   UNL A   1      46.987  27.117  29.589  1.00  0.00     0.031 A 
ATOM     57  C   UNL A   1      40.212  28.730  29.087  1.00  0.00     0.031 A 
ATOM     58  C   UNL A   1      46.656  28.459  29.985  1.00  0.00     0.049 A 
ATOM     59  C   UNL A   1      41.223  29.714  29.604  1.00  0.00     0.074 A 
ATOM     60  C   UNL A   1      47.500  29.460  30.432  1.00  0.00     0.029 A 
ATOM     61  N   UNL A   1      45.374  28.987  29.977  1.00  0.00    -0.354 N 
ATOM     62  N   UNL A   1      42.518  29.571  29.744  1.00  0.00    -0.248 NA
ATOM     63  C   UNL A   1      40.714  31.033  30.006  1.00  0.00     0.031 C 
ATOM     64  C   UNL A   1      46.723  30.586  30.729  1.00  0.00     0.029 A 
ATOM     65  C   UNL A   1      45.403  30.298  30.424  1.00  0.00     0.049 A 
ATOM     66  H   UNL A   1      44.565  28.504  29.696  1.00  0.00     0.167 HD
ATOM     67  C   UNL A   1      42.982  30.789  30.221  1.00  0.00     0.074 A 
ATOM     68  C   UNL A   1      41.833  31.662  30.338  1.00  0.00     0.031 C 
ATOM     69  C   UNL A   1      44.250  31.153  30.532  1.00  0.00     0.031 A 
BRANCH  56  70
ATOM     70  C   UNL A   1      48.416  26.666  29.712  1.00  0.00    -0.014 A 
ATOM     71  C   UNL A   1      48.872  26.008  30.866  1.00  0.00     0.009 A 
ATOM     72  C   UNL A   1      49.312  26.888  28.656  1.00  0.00     0.009 A 
ATOM     73  C   UNL A   1      50.208  25.616  30.974  1.00  0.00     0.001 A 
ATOM     74  C   UNL A   1      50.641  26.470  28.756  1.00  0.00     0.001 A 
ATOM     75  C   UNL A   1      51.090  25.844  29.919  1.00  0.00     0.000 A 
ENDBRANCH  56  70
BRANCH  57  76
ATOM     76  C   UNL A   1      38.776  29.099  28.994  1.00  0.00    -0.014 A 
ATOM     77  C   UNL A   1      38.249  29.584  27.787  1.00  0.00     0.009 A 
ATOM     78  C   UNL A   1      37.930  28.971  30.104  1.00  0.00     0.009 A 
ATOM     79  C   UNL A   1      36.905  29.956  27.702  1.00  0.00     0.001 A 
ATOM     80  C   UNL A   1      36.581  29.322  30.009  1.00  0.00     0.001 A 
ATOM     81  C   UNL A   1      36.072  29.820  28.811  1.00  0.00     0.000 A 
ENDBRANCH  57  76
BRANCH  69  82
ATOM     82  C   UNL A   1      44.465  32.567  30.990  1.00  0.00    -0.014 A 
ATOM     83  C   UNL A   1      44.642  33.612  30.071  1.00  0.00     0.009 A 
ATOM     84  C   UNL A   1      44.457  32.859  32.363  1.00  0.00     0.009 A 
ATOM     85  C   UNL A   1      44.838  34.919  30.520  1.00  0.00     0.001 A 
ATOM     86  C   UNL A   1      44.627  34.171  32.807  1.00  0.00     0.001 A 
ATOM     87  C   UNL A   1      44.826  35.198  31.887  1.00  0.00     0.000 A 
ENDBRANCH  69  82
ENDBRANCH  43  44
ENDBRANCH  35  38
ENDBRANCH  33  34
ENDBRANCH  32  33
ENDBRANCH  31  32
ENDBRANCH   1  31
TORSDOF 16
ENDMDL
MODEL 2
REMARK VINA RESULT:     -11.8      5.070     10.469
REMARK SMILES CC(C)c1ccc(-c2cnc([C@@H]3[NH2+][C@H](C(=O)NCCCCCCNC(=O)c4ccc(-c5c6nc(c(-c7ccccc7)c7ccc([nH]7)c(-c7ccccc7)c7nc(c(-c8ccccc8)c8ccc5[nH]8)C=C7)C=C6)cc4)C(C)(C)S3)s2)cc1
REMARK SMILES IDX 20 1 19 2 18 3 17 4 15 5 16 6 14 8 12 9 13 10 78 11 75 14
REMARK SMILES IDX 76 15 77 16 11 17 8 18 9 19 79 20 10 21 7 22 4 23 5 24 81 25
REMARK SMILES IDX 6 26 80 27 2 28 1 29 3 30 21 31 22 32 23 33 24 34 25 35
REMARK SMILES IDX 26 37 27 38 28 39 74 40 29 41 73 42 30 43 31 44 32 45 67 46
REMARK SMILES IDX 33 47 72 48 66 49 68 50 34 51 71 52 65 53 64 54 35 56 57 57
REMARK SMILES IDX 42 58 56 59 43 60 46 61 55 62 69 63 44 64 45 65 54 67 70 68
REMARK SMILES IDX 47 69 36 70 37 71 41 72 38 73 40 74 39 75 58 76 59 77 63 78
REMARK SMILES IDX 60 79 62 80 61 81 48 82 49 83 53 84 50 85 52 86 51 87
REMARK H PARENT 17 7 13 12 13 13 24 36 68 55 46 66
REMARK Flexibility Score: inf
ROOT
ATOM      1  C   UNL A   1      33.912  32.240  28.005  1.00  0.00     0.002 C 
ENDROOT
BRANCH   1   2
ATOM      2  C   UNL A   1      35.142  31.400  27.629  1.00  0.00     0.021 C 
BRANCH   2   3
ATOM      3  C   UNL A   1      35.045  29.908  27.976  1.00  0.00     0.116 C 
BRANCH   3   4
ATOM      4  N   UNL A   1      35.236  29.088  26.799  1.00  0.00    -0.351 N 
ATOM      5  C   UNL A   1      34.187  28.580  26.073  1.00  0.00     0.279 C 
ATOM      6  O   UNL A   1      34.109  27.359  26.003  1.00  0.00    -0.268 OA
ATOM      7  H   UNL A   1      36.154  28.887  26.507  1.00  0.00     0.163 HD
BRANCH   5   8
ATOM      8  C   UNL A   1      33.221  29.593  25.415  1.00  0.00     0.289 C 
ATOM      9  C   UNL A   1      32.129  28.470  23.564  1.00  0.00     0.304 C 
ATOM     10  N   UNL A   1      33.205  29.422  23.927  1.00  0.00    -0.318 N 
ATOM     11  S   UNL A   1      30.821  28.568  24.826  1.00  0.00    -0.079 SA
ATOM     12  H   UNL A   1      33.030  30.322  23.480  1.00  0.00     0.348 HD
ATOM     13  H   UNL A   1      34.105  29.062  23.611  1.00  0.00     0.348 HD
ATOM     14  C   UNL A   1      31.776  29.634  25.952  1.00  0.00     0.078 C 
ATOM     15  C   UNL A   1      31.199  31.057  25.815  1.00  0.00     0.030 C 
ATOM     16  C   UNL A   1      31.609  29.176  27.401  1.00  0.00     0.030 C 
BRANCH   9  17
ATOM     17  C   UNL A   1      32.603  27.050  23.328  1.00  0.00     0.162 A 
ATOM     18  C   UNL A   1      32.904  24.625  23.332  1.00  0.00     0.055 A 
ATOM     19  C   UNL A   1      33.795  25.352  22.569  1.00  0.00     0.132 A 
ATOM     20  S   UNL A   1      31.775  25.708  24.043  1.00  0.00    -0.112 S 
ATOM     21  N   UNL A   1      33.660  26.713  22.623  1.00  0.00    -0.242 NA
BRANCH  18  22
ATOM     22  C   UNL A   1      32.898  23.178  23.560  1.00  0.00    -0.007 A 
ATOM     23  C   UNL A   1      33.101  20.366  23.964  1.00  0.00    -0.045 A 
ATOM     24  C   UNL A   1      32.196  20.908  23.036  1.00  0.00     0.004 A 
ATOM     25  C   UNL A   1      33.863  21.266  24.722  1.00  0.00     0.004 A 
ATOM     26  C   UNL A   1      32.095  22.294  22.835  1.00  0.00     0.010 A 
ATOM     27  C   UNL A   1      33.772  22.644  24.515  1.00  0.00     0.010 A 
BRANCH  23  28
ATOM     28  C   UNL A   1      33.265  18.868  24.204  1.00  0.00     0.013 C 
ATOM     29  C   UNL A   1      32.712  18.361  25.542  1.00  0.00     0.012 C 
ATOM     30  C   UNL A   1      32.632  18.034  23.076  1.00  0.00     0.012 C 
ENDBRANCH  23  28
ENDBRANCH  18  22
ENDBRANCH   9  17
ENDBRANCH   5   8
ENDBRANCH   3   4
ENDBRANCH   2   3
ENDBRANCH   1   2
BRANCH   1  31
ATOM     31  C   UNL A   1      34.210  33.590  28.661  1.00  0.00     0.002 C 
BRANCH  31  32
ATOM     32  C   UNL A   1      33.014  34.536  28.772  1.00  0.00     0.021 C 
BRANCH  32  33
ATOM     33  C   UNL A   1      33.329  35.900  29.372  1.00  0.00     0.116 C 
BRANCH  33  34
ATOM     34  N   UNL A   1      32.517  36.197  30.541  1.00  0.00    -0.352 N 
ATOM     35  C   UNL A   1      32.684  35.772  31.834  1.00  0.00     0.251 C 
ATOM     36  H   UNL A   1      31.742  36.782  30.382  1.00  0.00     0.163 HD
ATOM     37  O   UNL A   1      31.814  35.993  32.677  1.00  0.00    -0.269 OA
BRANCH  35  38
ATOM     38  C   UNL A   1      33.899  35.021  32.217  1.00  0.00     0.039 A 
ATOM     39  C   UNL A   1      33.773  33.683  32.597  1.00  0.00     0.014 A 
ATOM     40  C   UNL A   1      35.156  35.634  32.212  1.00  0.00     0.014 A 
ATOM     41  C   UNL A   1      34.912  32.944  32.923  1.00  0.00     0.010 A 
ATOM     42  C   UNL A   1      36.296  34.879  32.472  1.00  0.00     0.010 A 
ATOM     43  C   UNL A   1      36.185  33.530  32.839  1.00  0.00    -0.014 A 
BRANCH  43  44
ATOM     44  C   UNL A   1      37.410  32.753  33.158  1.00  0.00     0.031 A 
ATOM     45  C   UNL A   1      38.139  32.992  34.450  1.00  0.00     0.074 A 
ATOM     46  C   UNL A   1      37.898  31.872  32.263  1.00  0.00     0.049 A 
ATOM     47  N   UNL A   1      39.250  32.451  34.884  1.00  0.00    -0.248 NA
ATOM     48  C   UNL A   1      37.559  33.988  35.364  1.00  0.00     0.031 C 
ATOM     49  C   UNL A   1      37.307  31.573  30.956  1.00  0.00     0.029 A 
ATOM     50  N   UNL A   1      39.008  31.067  32.319  1.00  0.00    -0.354 N 
ATOM     51  C   UNL A   1      39.510  33.055  36.108  1.00  0.00     0.074 A 
ATOM     52  C   UNL A   1      38.467  34.034  36.326  1.00  0.00     0.031 C 
ATOM     53  C   UNL A   1      38.047  30.631  30.347  1.00  0.00     0.029 A 
ATOM     54  C   UNL A   1      39.178  30.285  31.204  1.00  0.00     0.049 A 
ATOM     55  H   UNL A   1      39.625  31.054  33.087  1.00  0.00     0.167 HD
ATOM     56  C   UNL A   1      40.515  32.806  36.981  1.00  0.00     0.031 A 
ATOM     57  C   UNL A   1      40.134  29.386  30.905  1.00  0.00     0.031 A 
ATOM     58  C   UNL A   1      41.542  31.821  36.779  1.00  0.00     0.049 A 
ATOM     59  C   UNL A   1      41.232  29.120  31.895  1.00  0.00     0.074 A 
ATOM     60  C   UNL A   1      42.572  31.460  37.630  1.00  0.00     0.029 A 
ATOM     61  N   UNL A   1      41.665  31.035  35.643  1.00  0.00    -0.354 N 
ATOM     62  N   UNL A   1      41.433  29.661  33.072  1.00  0.00    -0.248 NA
ATOM     63  C   UNL A   1      42.229  28.107  31.518  1.00  0.00     0.031 C 
ATOM     64  C   UNL A   1      43.340  30.478  36.993  1.00  0.00     0.029 A 
ATOM     65  C   UNL A   1      42.762  30.199  35.766  1.00  0.00     0.049 A 
ATOM     66  H   UNL A   1      41.063  31.067  34.866  1.00  0.00     0.167 HD
ATOM     67  C   UNL A   1      42.559  29.035  33.588  1.00  0.00     0.074 A 
ATOM     68  C   UNL A   1      42.992  28.067  32.602  1.00  0.00     0.031 C 
ATOM     69  C   UNL A   1      43.178  29.240  34.776  1.00  0.00     0.031 A 
BRANCH  56  70
ATOM     70  C   UNL A   1      40.549  33.627  38.240  1.00  0.00    -0.014 A 
ATOM     71  C   UNL A   1      41.163  34.890  38.267  1.00  0.00     0.009 A 
ATOM     72  C   UNL A   1      39.944  33.139  39.408  1.00  0.00     0.009 A 
ATOM     73  C   UNL A   1      41.205  35.630  39.451  1.00  0.00     0.001 A 
ATOM     74  C   UNL A   1      39.965  33.893  40.583  1.00  0.00     0.001 A 
ATOM     75  C   UNL A   1      40.604  35.132  40.606  1.00  0.00     0.000 A 
ENDBRANCH  56  70
BRANCH  57  76
ATOM     76  C   UNL A   1      40.079  28.646  29.619  1.00  0.00    -0.014 A 
ATOM     77  C   UNL A   1      39.462  27.387  29.555  1.00  0.00     0.009 A 
ATOM     78  C   UNL A   1      40.642  29.188  28.455  1.00  0.00     0.009 A 
ATOM     79  C   UNL A   1      39.430  26.676  28.353  1.00  0.00     0.001 A 
ATOM     80  C   UNL A   1      40.587  28.485  27.249  1.00  0.00     0.001 A 
ATOM     81  C   UNL A   1      39.988  27.228  27.201  1.00  0.00     0.000 A 
ENDBRANCH  57  76
BRANCH  69  82
ATOM     82  C   UNL A   1      44.365  28.376  35.090  1.00  0.00    -0.014 A 
ATOM     83  C   UNL A   1      44.216  27.140  35.738  1.00  0.00     0.009 A 
ATOM     84  C   UNL A   1      45.648  28.793  34.701  1.00  0.00     0.009 A 
ATOM     85  C   UNL A   1      45.334  26.352  36.017  1.00  0.00     0.001 A 
ATOM     86  C   UNL A   1      46.760  27.991  34.960  1.00  0.00     0.001 A 
ATOM     87  C   UNL A   1      46.604  26.777  35.625  1.00  0.00     0.000 A 
ENDBRANCH  69  82
ENDBRANCH  43  44
ENDBRANCH  35  38
ENDBRANCH  33  34
ENDBRANCH  32  33
ENDBRANCH  31  32
ENDBRANCH   1  31
TORSDOF 16
ENDMDL
MODEL 3
REMARK VINA RESULT:     -11.8      1.354      5.826
REMARK SMILES CC(C)c1ccc(-c2cnc([C@@H]3[NH2+][C@H](C(=O)NCCCCCCNC(=O)c4ccc(-c5c6nc(c(-c7ccccc7)c7ccc([nH]7)c(-c7ccccc7)c7nc(c(-c8ccccc8)c8ccc5[nH]8)C=C7)C=C6)cc4)C(C)(C)S3)s2)cc1
REMARK SMILES IDX 20 1 19 2 18 3 17 4 15 5 16 6 14 8 12 9 13 10 78 11 75 14
REMARK SMILES IDX 76 15 77 16 11 17 8 18 9 19 79 20 10 21 7 22 4 23 5 24 81 25
REMARK SMILES IDX 6 26 80 27 2 28 1 29 3 30 21 31 22 32 23 33 24 34 25 35
REMARK SMILES IDX 26 37 27 38 28 39 74 40 29 41 73 42 30 43 31 44 32 45 67 46
REMARK SMILES IDX 33 47 72 48 66 49 68 50 34 51 71 52 65 53 64 54 35 56 57 57
REMARK SMILES IDX 42 58 56 59 43 60 46 61 55 62 69 63 44 64 45 65 54 67 70 68
REMARK SMILES IDX 47 69 36 70 37 71 41 72 38 73 40 74 39 75 58 76 59 77 63 78
REMARK SMILES IDX 60 79 62 80 61 81 48 82 49 83 53 84 50 85 52 86 51 87
REMARK H PARENT 17 7 13 12 13 13 24 36 68 55 46 66
REMARK Flexibility Score: inf
ROOT
ATOM      1  C   UNL A   1      37.555  21.991  25.468  1.00  0.00     0.002 C 
ENDROOT
BRANCH   1   2
ATOM      2  C   UNL A   1      37.294  23.275  24.665  1.00  0.00     0.021 C 
BRANCH   2   3
ATOM      3  C   UNL A   1      36.576  23.071  23.324  1.00  0.00     0.116 C 
BRANCH   3   4
ATOM      4  N   UNL A   1      35.232  23.605  23.369  1.00  0.00    -0.351 N 
ATOM      5  C   UNL A   1      34.116  22.809  23.293  1.00  0.00     0.279 C 
ATOM      6  O   UNL A   1      33.366  23.004  22.344  1.00  0.00    -0.268 OA
ATOM      7  H   UNL A   1      35.112  24.578  23.458  1.00  0.00     0.163 HD
BRANCH   5   8
ATOM      8  C   UNL A   1      33.915  21.758  24.410  1.00  0.00     0.289 C 
ATOM      9  C   UNL A   1      32.580  22.786  26.154  1.00  0.00     0.304 C 
ATOM     10  N   UNL A   1      33.956  22.403  25.761  1.00  0.00    -0.318 N 
ATOM     11  S   UNL A   1      31.412  21.647  25.348  1.00  0.00    -0.079 SA
ATOM     12  H   UNL A   1      34.337  21.748  26.444  1.00  0.00     0.348 HD
ATOM     13  H   UNL A   1      34.549  23.233  25.729  1.00  0.00     0.348 HD
ATOM     14  C   UNL A   1      32.673  20.851  24.303  1.00  0.00     0.078 C 
ATOM     15  C   UNL A   1      32.966  19.473  24.930  1.00  0.00     0.030 C 
ATOM     16  C   UNL A   1      32.144  20.639  22.884  1.00  0.00     0.030 C 
BRANCH   9  17
ATOM     17  C   UNL A   1      32.239  24.241  25.903  1.00  0.00     0.162 A 
ATOM     18  C   UNL A   1      31.312  26.345  25.075  1.00  0.00     0.055 A 
ATOM     19  C   UNL A   1      32.260  26.444  26.073  1.00  0.00     0.132 A 
ATOM     20  S   UNL A   1      31.035  24.683  24.739  1.00  0.00    -0.112 S 
ATOM     21  N   UNL A   1      32.821  25.266  26.487  1.00  0.00    -0.242 NA
BRANCH  18  22
ATOM     22  C   UNL A   1      30.650  27.440  24.362  1.00  0.00    -0.007 A 
ATOM     23  C   UNL A   1      29.357  29.677  23.164  1.00  0.00    -0.045 A 
ATOM     24  C   UNL A   1      28.820  28.384  23.064  1.00  0.00     0.004 A 
ATOM     25  C   UNL A   1      30.583  29.817  23.831  1.00  0.00     0.004 A 
ATOM     26  C   UNL A   1      29.456  27.280  23.654  1.00  0.00     0.010 A 
ATOM     27  C   UNL A   1      31.210  28.722  24.428  1.00  0.00     0.010 A 
BRANCH  23  28
ATOM     28  C   UNL A   1      28.695  30.913  22.560  1.00  0.00     0.013 C 
ATOM     29  C   UNL A   1      28.045  30.695  21.188  1.00  0.00     0.012 C 
ATOM     30  C   UNL A   1      27.638  31.515  23.502  1.00  0.00     0.012 C 
ENDBRANCH  23  28
ENDBRANCH  18  22
ENDBRANCH   9  17
ENDBRANCH   5   8
ENDBRANCH   3   4
ENDBRANCH   2   3
ENDBRANCH   1   2
BRANCH   1  31
ATOM     31  C   UNL A   1      37.268  20.681  24.730  1.00  0.00     0.002 C 
BRANCH  31  32
ATOM     32  C   UNL A   1      38.197  19.519  25.083  1.00  0.00     0.021 C 
BRANCH  32  33
ATOM     33  C   UNL A   1      39.355  19.882  26.005  1.00  0.00     0.116 C 
BRANCH  33  34
ATOM     34  N   UNL A   1      40.431  18.907  25.959  1.00  0.00    -0.352 N 
ATOM     35  C   UNL A   1      41.783  19.113  26.059  1.00  0.00     0.251 C 
ATOM     36  H   UNL A   1      40.152  17.971  25.840  1.00  0.00     0.163 HD
ATOM     37  O   UNL A   1      42.570  18.190  25.846  1.00  0.00    -0.269 OA
BRANCH  35  38
ATOM     38  C   UNL A   1      42.306  20.454  26.398  1.00  0.00     0.039 A 
ATOM     39  C   UNL A   1      42.687  21.311  25.362  1.00  0.00     0.014 A 
ATOM     40  C   UNL A   1      42.429  20.865  27.729  1.00  0.00     0.014 A 
ATOM     41  C   UNL A   1      43.143  22.597  25.658  1.00  0.00     0.010 A 
ATOM     42  C   UNL A   1      42.821  22.169  28.019  1.00  0.00     0.010 A 
ATOM     43  C   UNL A   1      43.191  23.044  26.987  1.00  0.00    -0.014 A 
BRANCH  43  44
ATOM     44  C   UNL A   1      43.651  24.417  27.319  1.00  0.00     0.031 A 
ATOM     45  C   UNL A   1      42.658  25.461  27.748  1.00  0.00     0.074 A 
ATOM     46  C   UNL A   1      44.951  24.740  27.184  1.00  0.00     0.049 A 
ATOM     47  N   UNL A   1      42.858  26.724  28.030  1.00  0.00    -0.248 NA
ATOM     48  C   UNL A   1      41.253  25.038  27.848  1.00  0.00     0.031 C 
ATOM     49  C   UNL A   1      46.011  23.831  26.742  1.00  0.00     0.029 A 
ATOM     50  N   UNL A   1      45.601  25.929  27.404  1.00  0.00    -0.354 N 
ATOM     51  C   UNL A   1      41.604  27.248  28.320  1.00  0.00     0.074 A 
ATOM     52  C   UNL A   1      40.647  26.179  28.135  1.00  0.00     0.031 C 
ATOM     53  C   UNL A   1      47.183  24.489  26.748  1.00  0.00     0.029 A 
ATOM     54  C   UNL A   1      46.952  25.870  27.164  1.00  0.00     0.049 A 
ATOM     55  H   UNL A   1      45.141  26.747  27.704  1.00  0.00     0.167 HD
ATOM     56  C   UNL A   1      41.279  28.500  28.720  1.00  0.00     0.031 A 
ATOM     57  C   UNL A   1      47.899  26.820  27.270  1.00  0.00     0.031 A 
ATOM     58  C   UNL A   1      42.228  29.560  28.925  1.00  0.00     0.049 A 
ATOM     59  C   UNL A   1      47.515  28.199  27.727  1.00  0.00     0.074 A 
ATOM     60  C   UNL A   1      42.001  30.847  29.380  1.00  0.00     0.029 A 
ATOM     61  N   UNL A   1      43.590  29.452  28.689  1.00  0.00    -0.354 N 
ATOM     62  N   UNL A   1      46.333  28.663  28.049  1.00  0.00    -0.248 NA
ATOM     63  C   UNL A   1      48.602  29.181  27.847  1.00  0.00     0.031 C 
ATOM     64  C   UNL A   1      43.223  31.530  29.387  1.00  0.00     0.029 A 
ATOM     65  C   UNL A   1      44.214  30.654  28.978  1.00  0.00     0.049 A 
ATOM     66  H   UNL A   1      44.045  28.642  28.366  1.00  0.00     0.167 HD
ATOM     67  C   UNL A   1      46.537  29.980  28.438  1.00  0.00     0.074 A 
ATOM     68  C   UNL A   1      47.957  30.238  28.321  1.00  0.00     0.031 C 
ATOM     69  C   UNL A   1      45.629  30.893  28.858  1.00  0.00     0.031 A 
BRANCH  56  70
ATOM     70  C   UNL A   1      39.823  28.787  28.959  1.00  0.00    -0.014 A 
ATOM     71  C   UNL A   1      39.000  29.270  27.928  1.00  0.00     0.009 A 
ATOM     72  C   UNL A   1      39.263  28.557  30.225  1.00  0.00     0.009 A 
ATOM     73  C   UNL A   1      37.654  29.554  28.172  1.00  0.00     0.001 A 
ATOM     74  C   UNL A   1      37.911  28.815  30.458  1.00  0.00     0.001 A 
ATOM     75  C   UNL A   1      37.111  29.323  29.436  1.00  0.00     0.000 A 
ENDBRANCH  56  70
BRANCH  57  76
ATOM     76  C   UNL A   1      49.315  26.491  26.966  1.00  0.00    -0.014 A 
ATOM     77  C   UNL A   1      49.808  26.631  25.660  1.00  0.00     0.009 A 
ATOM     78  C   UNL A   1      50.177  26.036  27.974  1.00  0.00     0.009 A 
ATOM     79  C   UNL A   1      51.133  26.299  25.364  1.00  0.00     0.001 A 
ATOM     80  C   UNL A   1      51.508  25.728  27.680  1.00  0.00     0.001 A 
ATOM     81  C   UNL A   1      51.982  25.852  26.376  1.00  0.00     0.000 A 
ENDBRANCH  57  76
BRANCH  69  82
ATOM     82  C   UNL A   1      46.149  32.243  29.259  1.00  0.00    -0.014 A 
ATOM     83  C   UNL A   1      46.744  32.452  30.513  1.00  0.00     0.009 A 
ATOM     84  C   UNL A   1      46.071  33.313  28.354  1.00  0.00     0.009 A 
ATOM     85  C   UNL A   1      47.223  33.716  30.864  1.00  0.00     0.001 A 
ATOM     86  C   UNL A   1      46.574  34.568  28.698  1.00  0.00     0.001 A 
ATOM     87  C   UNL A   1      47.141  34.771  29.955  1.00  0.00     0.000 A 
ENDBRANCH  69  82
ENDBRANCH  43  44
ENDBRANCH  35  38
ENDBRANCH  33  34
ENDBRANCH  32  33
ENDBRANCH  31  32
ENDBRANCH   1  31
TORSDOF 16
ENDMDL
