MODEL 1
REMARK VINA RESULT:      -9.4      0.000      0.000
REMARK SMILES C=CCOC(=O)N[C@@H](Cc1ccccc1)C(=O)NCCCCCCNC(=O)c1ccc(-c2c3nc(c(-c4ccccc4)c4ccc([nH]4)c(-c4ccccc4)c4nc(c(-c5ccccc5)c5ccc2[nH]5)C=C4)C=C3)cc1
REMARK SMILES IDX 20 1 19 2 18 3 16 4 17 5 8 7 7 8 5 9 6 10 4 12 3 13 2 14
REMARK SMILES IDX 1 15 9 16 10 17 11 18 15 19 12 20 14 21 13 22 21 23 22 24
REMARK SMILES IDX 23 25 24 26 25 27 26 28 27 30 28 31 29 32 75 33 30 34 74 35
REMARK SMILES IDX 31 36 32 37 33 38 68 39 34 40 73 41 67 42 69 43 35 44 72 45
REMARK SMILES IDX 66 46 65 47 36 49 58 50 43 51 57 52 44 53 47 54 56 55 70 56
REMARK SMILES IDX 45 57 46 58 55 60 71 61 48 62 37 63 38 64 42 65 39 66 41 67
REMARK SMILES IDX 40 68 59 69 60 70 64 71 61 72 63 73 62 74 49 75 50 76 54 77
REMARK SMILES IDX 51 78 53 79 52 80
REMARK H PARENT 18 6 7 11 25 29 69 48 47 59
REMARK Flexibility Score: inf
ROOT
ATOM      1  C   UNL A   1      33.136  24.754  25.966  1.00  0.00     0.021 C 
ENDROOT
BRANCH   1   2
ATOM      2  C   UNL A   1      31.855  24.597  25.161  1.00  0.00     0.116 C 
BRANCH   2   3
ATOM      3  N   UNL A   1      31.133  25.832  24.951  1.00  0.00    -0.354 N 
ATOM      4  C   UNL A   1      31.377  26.842  24.066  1.00  0.00     0.243 C 
ATOM      5  O   UNL A   1      30.413  27.564  23.778  1.00  0.00    -0.273 OA
ATOM      6  H   UNL A   1      30.350  25.964  25.533  1.00  0.00     0.163 HD
BRANCH   4   7
ATOM      7  C   UNL A   1      32.722  27.022  23.322  1.00  0.00     0.179 C 
BRANCH   7   8
ATOM      8  N   UNL A   1      32.710  26.665  21.906  1.00  0.00    -0.309 N 
ATOM      9  C   UNL A   1      33.005  25.458  21.346  1.00  0.00     0.408 C 
ATOM     10  O   UNL A   1      33.001  25.326  20.132  1.00  0.00    -0.225 OA
ATOM     11  H   UNL A   1      32.458  27.381  21.279  1.00  0.00     0.167 HD
BRANCH   9  12
ATOM     12  O   UNL A   1      33.339  24.507  22.250  1.00  0.00    -0.445 OA
BRANCH  12  13
ATOM     13  C   UNL A   1      33.336  23.166  21.747  1.00  0.00     0.262 C 
BRANCH  13  14
ATOM     14  C   UNL A   1      32.434  22.296  22.567  1.00  0.00     0.006 C 
ATOM     15  C   UNL A   1      32.871  21.455  23.515  1.00  0.00     0.007 C 
ENDBRANCH  13  14
ENDBRANCH  12  13
ENDBRANCH   9  12
ENDBRANCH   7   8
BRANCH   7  16
ATOM     16  C   UNL A   1      33.388  28.393  23.580  1.00  0.00     0.070 C 
BRANCH  16  17
ATOM     17  C   UNL A   1      33.389  28.904  25.004  1.00  0.00    -0.045 A 
ATOM     18  C   UNL A   1      34.265  28.374  25.964  1.00  0.00     0.004 A 
ATOM     19  C   UNL A   1      32.521  29.940  25.379  1.00  0.00     0.004 A 
ATOM     20  C   UNL A   1      34.308  28.907  27.255  1.00  0.00     0.000 A 
ATOM     21  C   UNL A   1      32.561  30.466  26.674  1.00  0.00     0.000 A 
ATOM     22  C   UNL A   1      33.460  29.957  27.607  1.00  0.00     0.000 A 
ENDBRANCH  16  17
ENDBRANCH   7  16
ENDBRANCH   4   7
ENDBRANCH   2   3
ENDBRANCH   1   2
BRANCH   1  23
ATOM     23  C   UNL A   1      33.577  23.492  26.710  1.00  0.00     0.002 C 
BRANCH  23  24
ATOM     24  C   UNL A   1      35.036  23.064  26.506  1.00  0.00     0.002 C 
BRANCH  24  25
ATOM     25  C   UNL A   1      35.602  23.272  25.098  1.00  0.00     0.021 C 
BRANCH  25  26
ATOM     26  C   UNL A   1      37.037  23.781  25.044  1.00  0.00     0.116 C 
BRANCH  26  27
ATOM     27  N   UNL A   1      37.997  22.784  25.480  1.00  0.00    -0.352 N 
ATOM     28  C   UNL A   1      39.152  22.930  26.203  1.00  0.00     0.251 C 
ATOM     29  H   UNL A   1      37.785  21.859  25.217  1.00  0.00     0.163 HD
ATOM     30  O   UNL A   1      39.917  21.977  26.326  1.00  0.00    -0.269 OA
BRANCH  28  31
ATOM     31  C   UNL A   1      39.496  24.230  26.820  1.00  0.00     0.039 A 
ATOM     32  C   UNL A   1      39.077  24.474  28.129  1.00  0.00     0.014 A 
ATOM     33  C   UNL A   1      40.191  25.218  26.115  1.00  0.00     0.014 A 
ATOM     34  C   UNL A   1      39.386  25.689  28.742  1.00  0.00     0.010 A 
ATOM     35  C   UNL A   1      40.576  26.393  26.757  1.00  0.00     0.010 A 
ATOM     36  C   UNL A   1      40.163  26.649  28.071  1.00  0.00    -0.014 A 
BRANCH  36  37
ATOM     37  C   UNL A   1      40.535  27.918  28.745  1.00  0.00     0.031 A 
ATOM     38  C   UNL A   1      39.536  29.035  28.886  1.00  0.00     0.074 A 
ATOM     39  C   UNL A   1      41.786  28.069  29.222  1.00  0.00     0.049 A 
ATOM     40  N   UNL A   1      39.671  30.190  29.488  1.00  0.00    -0.248 NA
ATOM     41  C   UNL A   1      38.221  28.841  28.253  1.00  0.00     0.031 C 
ATOM     42  C   UNL A   1      42.862  27.082  29.107  1.00  0.00     0.029 A 
ATOM     43  N   UNL A   1      42.361  29.106  29.913  1.00  0.00    -0.354 N 
ATOM     44  C   UNL A   1      38.467  30.859  29.300  1.00  0.00     0.074 A 
ATOM     45  C   UNL A   1      37.637  30.008  28.477  1.00  0.00     0.031 C 
ATOM     46  C   UNL A   1      43.948  27.538  29.750  1.00  0.00     0.029 A 
ATOM     47  C   UNL A   1      43.661  28.864  30.285  1.00  0.00     0.049 A 
ATOM     48  H   UNL A   1      41.887  29.944  30.122  1.00  0.00     0.167 HD
ATOM     49  C   UNL A   1      38.076  32.061  29.788  1.00  0.00     0.031 A 
ATOM     50  C   UNL A   1      44.525  29.622  30.986  1.00  0.00     0.031 A 
ATOM     51  C   UNL A   1      38.906  32.909  30.604  1.00  0.00     0.049 A 
ATOM     52  C   UNL A   1      44.071  30.957  31.505  1.00  0.00     0.074 A 
ATOM     53  C   UNL A   1      38.587  34.124  31.185  1.00  0.00     0.029 A 
ATOM     54  N   UNL A   1      40.220  32.634  30.947  1.00  0.00    -0.354 N 
ATOM     55  N   UNL A   1      42.903  31.540  31.383  1.00  0.00    -0.248 NA
ATOM     56  C   UNL A   1      45.053  31.729  32.277  1.00  0.00     0.031 C 
ATOM     57  C   UNL A   1      39.730  34.614  31.828  1.00  0.00     0.029 A 
ATOM     58  C   UNL A   1      40.736  33.669  31.711  1.00  0.00     0.049 A 
ATOM     59  H   UNL A   1      40.714  31.824  30.687  1.00  0.00     0.167 HD
ATOM     60  C   UNL A   1      43.000  32.732  32.091  1.00  0.00     0.074 A 
ATOM     61  C   UNL A   1      44.333  32.774  32.656  1.00  0.00     0.031 C 
ATOM     62  C   UNL A   1      42.068  33.704  32.258  1.00  0.00     0.031 A 
BRANCH  49  63
ATOM     63  C   UNL A   1      36.690  32.533  29.440  1.00  0.00    -0.014 A 
ATOM     64  C   UNL A   1      35.603  32.313  30.303  1.00  0.00     0.009 A 
ATOM     65  C   UNL A   1      36.471  33.237  28.244  1.00  0.00     0.009 A 
ATOM     66  C   UNL A   1      34.323  32.751  29.958  1.00  0.00     0.001 A 
ATOM     67  C   UNL A   1      35.196  33.704  27.919  1.00  0.00     0.001 A 
ATOM     68  C   UNL A   1      34.121  33.452  28.770  1.00  0.00     0.000 A 
ENDBRANCH  49  63
BRANCH  50  69
ATOM     69  C   UNL A   1      45.899  29.125  31.262  1.00  0.00    -0.014 A 
ATOM     70  C   UNL A   1      46.175  28.384  32.422  1.00  0.00     0.009 A 
ATOM     71  C   UNL A   1      46.949  29.403  30.372  1.00  0.00     0.009 A 
ATOM     72  C   UNL A   1      47.476  27.961  32.700  1.00  0.00     0.001 A 
ATOM     73  C   UNL A   1      48.242  28.950  30.636  1.00  0.00     0.001 A 
ATOM     74  C   UNL A   1      48.508  28.240  31.805  1.00  0.00     0.000 A 
ENDBRANCH  50  69
BRANCH  62  75
ATOM     75  C   UNL A   1      42.452  34.874  33.124  1.00  0.00    -0.014 A 
ATOM     76  C   UNL A   1      42.158  34.902  34.497  1.00  0.00     0.009 A 
ATOM     77  C   UNL A   1      43.123  35.967  32.552  1.00  0.00     0.009 A 
ATOM     78  C   UNL A   1      42.477  36.024  35.265  1.00  0.00     0.001 A 
ATOM     79  C   UNL A   1      43.476  37.071  33.331  1.00  0.00     0.001 A 
ATOM     80  C   UNL A   1      43.136  37.106  34.682  1.00  0.00     0.000 A 
ENDBRANCH  62  75
ENDBRANCH  36  37
ENDBRANCH  28  31
ENDBRANCH  26  27
ENDBRANCH  25  26
ENDBRANCH  24  25
ENDBRANCH  23  24
ENDBRANCH   1  23
TORSDOF 19
ENDMDL
MODEL 2
REMARK VINA RESULT:      -9.3      1.969      7.331
REMARK SMILES C=CCOC(=O)N[C@@H](Cc1ccccc1)C(=O)NCCCCCCNC(=O)c1ccc(-c2c3nc(c(-c4ccccc4)c4ccc([nH]4)c(-c4ccccc4)c4nc(c(-c5ccccc5)c5ccc2[nH]5)C=C4)C=C3)cc1
REMARK SMILES IDX 20 1 19 2 18 3 16 4 17 5 8 7 7 8 5 9 6 10 4 12 3 13 2 14
REMARK SMILES IDX 1 15 9 16 10 17 11 18 15 19 12 20 14 21 13 22 21 23 22 24
REMARK SMILES IDX 23 25 24 26 25 27 26 28 27 30 28 31 29 32 75 33 30 34 74 35
REMARK SMILES IDX 31 36 32 37 33 38 68 39 34 40 73 41 67 42 69 43 35 44 72 45
REMARK SMILES IDX 66 46 65 47 36 49 58 50 43 51 57 52 44 53 47 54 56 55 70 56
REMARK SMILES IDX 45 57 46 58 55 60 71 61 48 62 37 63 38 64 42 65 39 66 41 67
REMARK SMILES IDX 40 68 59 69 60 70 64 71 61 72 63 73 62 74 49 75 50 76 54 77
REMARK SMILES IDX 51 78 53 79 52 80
REMARK H PARENT 18 6 7 11 25 29 69 48 47 59
REMARK Flexibility Score: inf
ROOT
ATOM      1  C   UNL A   1      33.980  29.070  26.042  1.00  0.00     0.021 C 
ENDROOT
BRANCH   1   2
ATOM      2  C   UNL A   1      33.072  28.680  24.885  1.00  0.00     0.116 C 
BRANCH   2   3
ATOM      3  N   UNL A   1      33.769  28.119  23.750  1.00  0.00    -0.354 N 
ATOM      4  C   UNL A   1      33.516  26.973  23.053  1.00  0.00     0.243 C 
ATOM      5  O   UNL A   1      33.956  26.925  21.897  1.00  0.00    -0.273 OA
ATOM      6  H   UNL A   1      34.541  28.642  23.432  1.00  0.00     0.163 HD
BRANCH   4   7
ATOM      7  C   UNL A   1      32.606  25.836  23.578  1.00  0.00     0.179 C 
BRANCH   7   8
ATOM      8  N   UNL A   1      31.177  26.009  23.327  1.00  0.00    -0.309 N 
ATOM      9  C   UNL A   1      30.168  26.051  24.242  1.00  0.00     0.408 C 
ATOM     10  O   UNL A   1      29.008  26.149  23.874  1.00  0.00    -0.225 OA
ATOM     11  H   UNL A   1      30.910  26.105  22.385  1.00  0.00     0.167 HD
BRANCH   9  12
ATOM     12  O   UNL A   1      30.589  25.918  25.522  1.00  0.00    -0.445 OA
BRANCH  12  13
ATOM     13  C   UNL A   1      30.106  24.753  26.200  1.00  0.00     0.262 C 
BRANCH  13  14
ATOM     14  C   UNL A   1      31.099  23.636  26.107  1.00  0.00     0.006 C 
ATOM     15  C   UNL A   1      31.920  23.283  27.106  1.00  0.00     0.007 C 
ENDBRANCH  13  14
ENDBRANCH  12  13
ENDBRANCH   9  12
ENDBRANCH   7   8
BRANCH   7  16
ATOM     16  C   UNL A   1      33.107  24.424  23.197  1.00  0.00     0.070 C 
BRANCH  16  17
ATOM     17  C   UNL A   1      34.443  23.990  23.757  1.00  0.00    -0.045 A 
ATOM     18  C   UNL A   1      35.371  23.296  22.965  1.00  0.00     0.004 A 
ATOM     19  C   UNL A   1      34.784  24.301  25.082  1.00  0.00     0.004 A 
ATOM     20  C   UNL A   1      36.631  22.970  23.472  1.00  0.00     0.000 A 
ATOM     21  C   UNL A   1      36.042  23.966  25.589  1.00  0.00     0.000 A 
ATOM     22  C   UNL A   1      36.968  23.310  24.781  1.00  0.00     0.000 A 
ENDBRANCH  16  17
ENDBRANCH   7  16
ENDBRANCH   4   7
ENDBRANCH   2   3
ENDBRANCH   1   2
BRANCH   1  23
ATOM     23  C   UNL A   1      33.308  29.931  27.114  1.00  0.00     0.002 C 
BRANCH  23  24
ATOM     24  C   UNL A   1      31.835  30.286  26.867  1.00  0.00     0.002 C 
BRANCH  24  25
ATOM     25  C   UNL A   1      31.484  31.774  26.947  1.00  0.00     0.021 C 
BRANCH  25  26
ATOM     26  C   UNL A   1      32.673  32.726  26.895  1.00  0.00     0.116 C 
BRANCH  26  27
ATOM     27  N   UNL A   1      32.440  33.946  27.644  1.00  0.00    -0.352 N 
ATOM     28  C   UNL A   1      33.155  34.496  28.676  1.00  0.00     0.251 C 
ATOM     29  H   UNL A   1      31.647  34.459  27.369  1.00  0.00     0.163 HD
ATOM     30  O   UNL A   1      32.695  35.454  29.291  1.00  0.00    -0.269 OA
BRANCH  28  31
ATOM     31  C   UNL A   1      34.466  33.933  29.070  1.00  0.00     0.039 A 
ATOM     32  C   UNL A   1      34.509  33.047  30.148  1.00  0.00     0.014 A 
ATOM     33  C   UNL A   1      35.648  34.295  28.417  1.00  0.00     0.014 A 
ATOM     34  C   UNL A   1      35.728  32.497  30.545  1.00  0.00     0.010 A 
ATOM     35  C   UNL A   1      36.850  33.678  28.757  1.00  0.00     0.010 A 
ATOM     36  C   UNL A   1      36.906  32.785  29.836  1.00  0.00    -0.014 A 
BRANCH  36  37
ATOM     37  C   UNL A   1      38.193  32.157  30.228  1.00  0.00     0.031 A 
ATOM     38  C   UNL A   1      39.086  32.809  31.249  1.00  0.00     0.074 A 
ATOM     39  C   UNL A   1      38.563  30.997  29.651  1.00  0.00     0.049 A 
ATOM     40  N   UNL A   1      40.218  32.379  31.748  1.00  0.00    -0.248 NA
ATOM     41  C   UNL A   1      38.668  34.123  31.763  1.00  0.00     0.031 C 
ATOM     42  C   UNL A   1      37.810  30.289  28.613  1.00  0.00     0.029 A 
ATOM     43  N   UNL A   1      39.660  30.202  29.865  1.00  0.00    -0.354 N 
ATOM     44  C   UNL A   1      40.647  33.368  32.624  1.00  0.00     0.074 A 
ATOM     45  C   UNL A   1      39.688  34.447  32.543  1.00  0.00     0.031 C 
ATOM     46  C   UNL A   1      38.440  29.141  28.320  1.00  0.00     0.029 A 
ATOM     47  C   UNL A   1      39.660  29.052  29.114  1.00  0.00     0.049 A 
ATOM     48  H   UNL A   1      40.380  30.434  30.496  1.00  0.00     0.167 HD
ATOM     49  C   UNL A   1      41.727  33.371  33.442  1.00  0.00     0.031 A 
ATOM     50  C   UNL A   1      40.540  28.034  29.074  1.00  0.00     0.031 A 
ATOM     51  C   UNL A   1      42.684  32.297  33.519  1.00  0.00     0.049 A 
ATOM     52  C   UNL A   1      41.737  28.066  29.982  1.00  0.00     0.074 A 
ATOM     53  C   UNL A   1      43.787  32.184  34.347  1.00  0.00     0.029 A 
ATOM     54  N   UNL A   1      42.655  31.156  32.732  1.00  0.00    -0.354 N 
ATOM     55  N   UNL A   1      42.086  28.975  30.860  1.00  0.00    -0.248 NA
ATOM     56  C   UNL A   1      42.651  26.920  29.904  1.00  0.00     0.031 C 
ATOM     57  C   UNL A   1      44.461  31.002  34.017  1.00  0.00     0.029 A 
ATOM     58  C   UNL A   1      43.736  30.344  33.037  1.00  0.00     0.049 A 
ATOM     59  H   UNL A   1      41.969  30.953  32.057  1.00  0.00     0.167 HD
ATOM     60  C   UNL A   1      43.242  28.494  31.463  1.00  0.00     0.074 A 
ATOM     61  C   UNL A   1      43.518  27.204  30.865  1.00  0.00     0.031 C 
ATOM     62  C   UNL A   1      44.006  29.068  32.426  1.00  0.00     0.031 A 
BRANCH  49  63
ATOM     63  C   UNL A   1      41.935  34.581  34.312  1.00  0.00    -0.014 A 
ATOM     64  C   UNL A   1      41.428  34.638  35.621  1.00  0.00     0.009 A 
ATOM     65  C   UNL A   1      42.677  35.671  33.828  1.00  0.00     0.009 A 
ATOM     66  C   UNL A   1      41.624  35.773  36.410  1.00  0.00     0.001 A 
ATOM     67  C   UNL A   1      42.901  36.791  34.632  1.00  0.00     0.001 A 
ATOM     68  C   UNL A   1      42.366  36.847  35.918  1.00  0.00     0.000 A 
ENDBRANCH  49  63
BRANCH  50  69
ATOM     69  C   UNL A   1      40.309  26.883  28.161  1.00  0.00    -0.014 A 
ATOM     70  C   UNL A   1      39.523  25.792  28.566  1.00  0.00     0.009 A 
ATOM     71  C   UNL A   1      40.886  26.862  26.881  1.00  0.00     0.009 A 
ATOM     72  C   UNL A   1      39.349  24.693  27.723  1.00  0.00     0.001 A 
ATOM     73  C   UNL A   1      40.682  25.777  26.027  1.00  0.00     0.001 A 
ATOM     74  C   UNL A   1      39.924  24.689  26.453  1.00  0.00     0.000 A 
ENDBRANCH  50  69
BRANCH  62  75
ATOM     75  C   UNL A   1      45.189  28.278  32.919  1.00  0.00    -0.014 A 
ATOM     76  C   UNL A   1      45.075  27.368  33.983  1.00  0.00     0.009 A 
ATOM     77  C   UNL A   1      46.439  28.448  32.303  1.00  0.00     0.009 A 
ATOM     78  C   UNL A   1      46.201  26.690  34.455  1.00  0.00     0.001 A 
ATOM     79  C   UNL A   1      47.554  27.739  32.752  1.00  0.00     0.001 A 
ATOM     80  C   UNL A   1      47.438  26.874  33.838  1.00  0.00     0.000 A 
ENDBRANCH  62  75
ENDBRANCH  36  37
ENDBRANCH  28  31
ENDBRANCH  26  27
ENDBRANCH  25  26
ENDBRANCH  24  25
ENDBRANCH  23  24
ENDBRANCH   1  23
TORSDOF 19
ENDMDL
MODEL 3
REMARK VINA RESULT:      -9.2      2.379      7.560
REMARK SMILES C=CCOC(=O)N[C@@H](Cc1ccccc1)C(=O)NCCCCCCNC(=O)c1ccc(-c2c3nc(c(-c4ccccc4)c4ccc([nH]4)c(-c4ccccc4)c4nc(c(-c5ccccc5)c5ccc2[nH]5)C=C4)C=C3)cc1
REMARK SMILES IDX 20 1 19 2 18 3 16 4 17 5 8 7 7 8 5 9 6 10 4 12 3 13 2 14
REMARK SMILES IDX 1 15 9 16 10 17 11 18 15 19 12 20 14 21 13 22 21 23 22 24
REMARK SMILES IDX 23 25 24 26 25 27 26 28 27 30 28 31 29 32 75 33 30 34 74 35
REMARK SMILES IDX 31 36 32 37 33 38 68 39 34 40 73 41 67 42 69 43 35 44 72 45
REMARK SMILES IDX 66 46 65 47 36 49 58 50 43 51 57 52 44 53 47 54 56 55 70 56
REMARK SMILES IDX 45 57 46 58 55 60 71 61 48 62 37 63 38 64 42 65 39 66 41 67
REMARK SMILES IDX 40 68 59 69 60 70 64 71 61 72 63 73 62 74 49 75 50 76 54 77
REMARK SMILES IDX 51 78 53 79 52 80
REMARK H PARENT 18 6 7 11 25 29 69 48 47 59
REMARK Flexibility Score: inf
ROOT
ATOM      1  C   UNL A   1      31.469  26.655  23.735  1.00  0.00     0.021 C 
ENDROOT
BRANCH   1   2
ATOM      2  C   UNL A   1      31.289  25.247  23.186  1.00  0.00     0.116 C 
BRANCH   2   3
ATOM      3  N   UNL A   1      32.143  24.939  22.060  1.00  0.00    -0.354 N 
ATOM      4  C   UNL A   1      33.086  23.961  21.927  1.00  0.00     0.243 C 
ATOM      5  O   UNL A   1      33.367  23.625  20.768  1.00  0.00    -0.273 OA
ATOM      6  H   UNL A   1      32.027  25.521  21.274  1.00  0.00     0.163 HD
BRANCH   4   7
ATOM      7  C   UNL A   1      33.683  23.179  23.121  1.00  0.00     0.179 C 
BRANCH   7   8
ATOM      8  N   UNL A   1      32.846  22.107  23.653  1.00  0.00    -0.309 N 
ATOM      9  C   UNL A   1      32.254  22.040  24.878  1.00  0.00     0.408 C 
ATOM     10  O   UNL A   1      31.621  21.046  25.202  1.00  0.00    -0.225 OA
ATOM     11  H   UNL A   1      32.690  21.341  23.055  1.00  0.00     0.167 HD
BRANCH   9  12
ATOM     12  O   UNL A   1      32.496  23.119  25.659  1.00  0.00    -0.445 OA
BRANCH  12  13
ATOM     13  C   UNL A   1      32.032  23.006  27.009  1.00  0.00     0.262 C 
BRANCH  13  14
ATOM     14  C   UNL A   1      33.056  22.325  27.865  1.00  0.00     0.006 C 
ATOM     15  C   UNL A   1      34.376  22.386  27.638  1.00  0.00     0.007 C 
ENDBRANCH  13  14
ENDBRANCH  12  13
ENDBRANCH   9  12
ENDBRANCH   7   8
BRANCH   7  16
ATOM     16  C   UNL A   1      35.144  22.729  22.891  1.00  0.00     0.070 C 
BRANCH  16  17
ATOM     17  C   UNL A   1      36.089  22.819  24.068  1.00  0.00    -0.045 A 
ATOM     18  C   UNL A   1      36.958  21.763  24.384  1.00  0.00     0.004 A 
ATOM     19  C   UNL A   1      36.124  23.981  24.854  1.00  0.00     0.004 A 
ATOM     20  C   UNL A   1      37.879  21.891  25.427  1.00  0.00     0.000 A 
ATOM     21  C   UNL A   1      37.040  24.103  25.903  1.00  0.00     0.000 A 
ATOM     22  C   UNL A   1      37.923  23.063  26.182  1.00  0.00     0.000 A 
ENDBRANCH  16  17
ENDBRANCH   7  16
ENDBRANCH   4   7
ENDBRANCH   2   3
ENDBRANCH   1   2
BRANCH   1  23
ATOM     23  C   UNL A   1      32.554  26.784  24.807  1.00  0.00     0.002 C 
BRANCH  23  24
ATOM     24  C   UNL A   1      33.486  27.996  24.679  1.00  0.00     0.002 C 
BRANCH  24  25
ATOM     25  C   UNL A   1      34.469  28.208  25.834  1.00  0.00     0.021 C 
BRANCH  25  26
ATOM     26  C   UNL A   1      33.830  28.393  27.205  1.00  0.00     0.116 C 
BRANCH  26  27
ATOM     27  N   UNL A   1      33.688  29.790  27.567  1.00  0.00    -0.352 N 
ATOM     28  C   UNL A   1      34.570  30.633  28.191  1.00  0.00     0.251 C 
ATOM     29  H   UNL A   1      32.825  30.197  27.327  1.00  0.00     0.163 HD
ATOM     30  O   UNL A   1      34.195  31.742  28.560  1.00  0.00    -0.269 OA
BRANCH  28  31
ATOM     31  C   UNL A   1      35.967  30.211  28.442  1.00  0.00     0.039 A 
ATOM     32  C   UNL A   1      36.279  29.662  29.687  1.00  0.00     0.014 A 
ATOM     33  C   UNL A   1      36.971  30.384  27.485  1.00  0.00     0.014 A 
ATOM     34  C   UNL A   1      37.585  29.254  29.957  1.00  0.00     0.010 A 
ATOM     35  C   UNL A   1      38.254  29.894  27.722  1.00  0.00     0.010 A 
ATOM     36  C   UNL A   1      38.579  29.340  28.968  1.00  0.00    -0.014 A 
BRANCH  36  37
ATOM     37  C   UNL A   1      39.955  28.855  29.240  1.00  0.00     0.031 A 
ATOM     38  C   UNL A   1      40.384  27.478  28.808  1.00  0.00     0.074 A 
ATOM     39  C   UNL A   1      40.820  29.657  29.892  1.00  0.00     0.049 A 
ATOM     40  N   UNL A   1      41.559  26.909  28.917  1.00  0.00    -0.248 NA
ATOM     41  C   UNL A   1      39.360  26.620  28.193  1.00  0.00     0.031 C 
ATOM     42  C   UNL A   1      40.513  30.994  30.405  1.00  0.00     0.029 A 
ATOM     43  N   UNL A   1      42.139  29.470  30.221  1.00  0.00    -0.354 N 
ATOM     44  C   UNL A   1      41.412  25.631  28.393  1.00  0.00     0.074 A 
ATOM     45  C   UNL A   1      40.021  25.485  28.024  1.00  0.00     0.031 C 
ATOM     46  C   UNL A   1      41.624  31.525  30.938  1.00  0.00     0.029 A 
ATOM     47  C   UNL A   1      42.709  30.554  30.843  1.00  0.00     0.049 A 
ATOM     48  H   UNL A   1      42.630  28.637  30.032  1.00  0.00     0.167 HD
ATOM     49  C   UNL A   1      42.351  24.672  28.211  1.00  0.00     0.031 A 
ATOM     50  C   UNL A   1      43.966  30.750  31.280  1.00  0.00     0.031 A 
ATOM     51  C   UNL A   1      43.735  24.817  28.583  1.00  0.00     0.049 A 
ATOM     52  C   UNL A   1      44.987  29.666  31.079  1.00  0.00     0.074 A 
ATOM     53  C   UNL A   1      44.775  23.922  28.401  1.00  0.00     0.029 A 
ATOM     54  N   UNL A   1      44.269  25.925  29.222  1.00  0.00    -0.354 N 
ATOM     55  N   UNL A   1      44.848  28.492  30.511  1.00  0.00    -0.248 NA
ATOM     56  C   UNL A   1      46.345  29.945  31.563  1.00  0.00     0.031 C 
ATOM     57  C   UNL A   1      45.925  24.464  28.985  1.00  0.00     0.029 A 
ATOM     58  C   UNL A   1      45.619  25.727  29.465  1.00  0.00     0.049 A 
ATOM     59  H   UNL A   1      43.764  26.734  29.467  1.00  0.00     0.167 HD
ATOM     60  C   UNL A   1      46.108  27.906  30.540  1.00  0.00     0.074 A 
ATOM     61  C   UNL A   1      46.999  28.865  31.160  1.00  0.00     0.031 C 
ATOM     62  C   UNL A   1      46.492  26.685  30.093  1.00  0.00     0.031 A 
BRANCH  49  63
ATOM     63  C   UNL A   1      41.907  23.375  27.590  1.00  0.00    -0.014 A 
ATOM     64  C   UNL A   1      42.069  23.128  26.216  1.00  0.00     0.009 A 
ATOM     65  C   UNL A   1      41.346  22.370  28.395  1.00  0.00     0.009 A 
ATOM     66  C   UNL A   1      41.644  21.921  25.657  1.00  0.00     0.001 A 
ATOM     67  C   UNL A   1      40.953  21.151  27.838  1.00  0.00     0.001 A 
ATOM     68  C   UNL A   1      41.091  20.931  26.469  1.00  0.00     0.000 A 
ENDBRANCH  49  63
BRANCH  50  69
ATOM     69  C   UNL A   1      44.339  32.035  31.930  1.00  0.00    -0.014 A 
ATOM     70  C   UNL A   1      44.224  32.196  33.320  1.00  0.00     0.009 A 
ATOM     71  C   UNL A   1      44.800  33.115  31.159  1.00  0.00     0.009 A 
ATOM     72  C   UNL A   1      44.531  33.420  33.918  1.00  0.00     0.001 A 
ATOM     73  C   UNL A   1      45.138  34.326  31.765  1.00  0.00     0.001 A 
ATOM     74  C   UNL A   1      44.992  34.482  33.142  1.00  0.00     0.000 A 
ENDBRANCH  50  69
BRANCH  62  75
ATOM     75  C   UNL A   1      47.952  26.340  30.222  1.00  0.00    -0.014 A 
ATOM     76  C   UNL A   1      48.866  26.606  29.189  1.00  0.00     0.009 A 
ATOM     77  C   UNL A   1      48.419  25.740  31.402  1.00  0.00     0.009 A 
ATOM     78  C   UNL A   1      50.204  26.225  29.315  1.00  0.00     0.001 A 
ATOM     79  C   UNL A   1      49.764  25.396  31.541  1.00  0.00     0.001 A 
ATOM     80  C   UNL A   1      50.652  25.623  30.490  1.00  0.00     0.000 A 
ENDBRANCH  62  75
ENDBRANCH  36  37
ENDBRANCH  28  31
ENDBRANCH  26  27
ENDBRANCH  25  26
ENDBRANCH  24  25
ENDBRANCH  23  24
ENDBRANCH   1  23
TORSDOF 19
ENDMDL
