MODEL 1
REMARK VINA RESULT:     -12.0      0.000      0.000
REMARK SMILES Cc1cccc(C(=O)NCCCCCCNC(=O)c2ccc(-c3c4nc(c(-c5ccccc5)c5ccc([nH]5)c(-c5ccccc5)c5nc(c(-c6ccccc6)c6ccc3[nH]6)C=C5)C=C4)cc2)c1OC[C@@H]1C[C@H]2CC[C@@H]1C2
REMARK SMILES IDX 12 1 11 2 10 3 9 4 7 5 8 6 6 8 1 9 2 10 3 11 67 12 4 13 5 14
REMARK SMILES IDX 68 15 69 16 70 17 71 18 75 19 72 20 74 21 76 22 73 23 13 24
REMARK SMILES IDX 14 25 15 26 16 27 17 28 18 30 19 31 20 32 66 33 21 34 65 35
REMARK SMILES IDX 22 36 23 37 24 38 59 39 25 40 64 41 58 42 60 43 26 44 63 45
REMARK SMILES IDX 57 46 56 47 27 49 49 50 34 51 48 52 35 53 38 54 47 55 61 56
REMARK SMILES IDX 36 57 37 58 46 60 62 61 39 62 28 63 29 64 33 65 30 66 32 67
REMARK SMILES IDX 31 68 50 69 51 70 55 71 52 72 54 73 53 74 40 75 41 76 45 77
REMARK SMILES IDX 42 78 44 79 43 80
REMARK H PARENT 9 7 16 29 60 48 38 59
REMARK Flexibility Score: inf
ROOT
ATOM      1  C   UNL A   1      33.380  28.582  25.239  1.00  0.00     0.002 C 
ENDROOT
BRANCH   1   2
ATOM      2  C   UNL A   1      34.231  28.554  23.959  1.00  0.00     0.021 C 
BRANCH   2   3
ATOM      3  C   UNL A   1      33.461  28.847  22.666  1.00  0.00     0.116 C 
BRANCH   3   4
ATOM      4  N   UNL A   1      33.500  27.704  21.795  1.00  0.00    -0.352 N 
ATOM      5  C   UNL A   1      33.234  26.380  21.983  1.00  0.00     0.255 C 
ATOM      6  O   UNL A   1      33.420  25.666  20.988  1.00  0.00    -0.269 OA
ATOM      7  H   UNL A   1      33.776  27.922  20.875  1.00  0.00     0.163 HD
BRANCH   5   8
ATOM      8  C   UNL A   1      32.688  25.724  23.216  1.00  0.00     0.082 A 
ATOM      9  C   UNL A   1      30.019  25.967  25.948  1.00  0.00     0.048 C 
ATOM     10  C   UNL A   1      31.197  25.510  25.129  1.00  0.00    -0.008 A 
ATOM     11  C   UNL A   1      32.249  24.938  25.873  1.00  0.00     0.007 A 
ATOM     12  C   UNL A   1      31.380  25.796  23.753  1.00  0.00     0.134 A 
ATOM     13  C   UNL A   1      33.495  24.733  25.306  1.00  0.00     0.001 A 
ATOM     14  C   UNL A   1      33.717  25.159  24.004  1.00  0.00     0.018 A 
BRANCH  12  15
ATOM     15  O   UNL A   1      30.355  26.249  22.976  1.00  0.00    -0.492 OA
BRANCH  15  16
ATOM     16  C   UNL A   1      30.346  27.628  22.524  1.00  0.00     0.233 C 
BRANCH  16  17
ATOM     17  C   UNL A   1      29.509  28.673  23.307  1.00  0.00     0.030 C 
ATOM     18  C   UNL A   1      27.981  28.542  23.026  1.00  0.00     0.011 C 
ATOM     19  C   UNL A   1      29.761  30.129  22.819  1.00  0.00    -0.004 C 
ATOM     20  C   UNL A   1      27.576  29.928  22.489  1.00  0.00    -0.010 C 
ATOM     21  C   UNL A   1      29.166  31.113  23.841  1.00  0.00     0.004 C 
ATOM     22  C   UNL A   1      28.791  30.287  21.645  1.00  0.00     0.007 C 
ATOM     23  C   UNL A   1      27.655  30.963  23.623  1.00  0.00     0.004 C 
ENDBRANCH  16  17
ENDBRANCH  15  16
ENDBRANCH  12  15
ENDBRANCH   5   8
ENDBRANCH   3   4
ENDBRANCH   2   3
ENDBRANCH   1   2
BRANCH   1  24
ATOM     24  C   UNL A   1      32.555  29.858  25.480  1.00  0.00     0.002 C 
BRANCH  24  25
ATOM     25  C   UNL A   1      32.745  30.536  26.841  1.00  0.00     0.021 C 
BRANCH  25  26
ATOM     26  C   UNL A   1      33.985  30.068  27.594  1.00  0.00     0.116 C 
BRANCH  26  27
ATOM     27  N   UNL A   1      34.564  31.098  28.449  1.00  0.00    -0.352 N 
ATOM     28  C   UNL A   1      35.797  31.122  29.077  1.00  0.00     0.251 C 
ATOM     29  H   UNL A   1      33.998  31.889  28.602  1.00  0.00     0.163 HD
ATOM     30  O   UNL A   1      36.131  32.077  29.759  1.00  0.00    -0.269 OA
BRANCH  28  31
ATOM     31  C   UNL A   1      36.757  30.028  28.799  1.00  0.00     0.039 A 
ATOM     32  C   UNL A   1      37.012  29.119  29.830  1.00  0.00     0.014 A 
ATOM     33  C   UNL A   1      37.547  30.044  27.652  1.00  0.00     0.014 A 
ATOM     34  C   UNL A   1      38.207  28.408  29.821  1.00  0.00     0.010 A 
ATOM     35  C   UNL A   1      38.768  29.398  27.678  1.00  0.00     0.010 A 
ATOM     36  C   UNL A   1      39.129  28.646  28.798  1.00  0.00    -0.014 A 
BRANCH  36  37
ATOM     37  C   UNL A   1      40.535  28.287  28.922  1.00  0.00     0.031 A 
ATOM     38  C   UNL A   1      41.055  27.031  28.358  1.00  0.00     0.074 A 
ATOM     39  C   UNL A   1      41.381  29.083  29.614  1.00  0.00     0.049 A 
ATOM     40  N   UNL A   1      42.020  26.361  28.895  1.00  0.00    -0.248 NA
ATOM     41  C   UNL A   1      40.503  26.406  27.162  1.00  0.00     0.031 C 
ATOM     42  C   UNL A   1      42.835  28.979  29.694  1.00  0.00     0.029 A 
ATOM     43  N   UNL A   1      41.067  30.031  30.570  1.00  0.00    -0.354 N 
ATOM     44  C   UNL A   1      42.408  25.414  27.984  1.00  0.00     0.074 A 
ATOM     45  C   UNL A   1      41.381  25.416  26.964  1.00  0.00     0.031 C 
ATOM     46  C   UNL A   1      43.257  29.633  30.789  1.00  0.00     0.029 A 
ATOM     47  C   UNL A   1      42.083  30.068  31.526  1.00  0.00     0.049 A 
ATOM     48  H   UNL A   1      40.257  30.591  30.575  1.00  0.00     0.167 HD
ATOM     49  C   UNL A   1      43.629  24.822  28.091  1.00  0.00     0.031 A 
ATOM     50  C   UNL A   1      41.831  29.792  32.839  1.00  0.00     0.031 A 
ATOM     51  C   UNL A   1      44.402  25.306  29.231  1.00  0.00     0.049 A 
ATOM     52  C   UNL A   1      42.553  28.565  33.373  1.00  0.00     0.074 A 
ATOM     53  C   UNL A   1      45.475  26.172  29.367  1.00  0.00     0.029 A 
ATOM     54  N   UNL A   1      43.913  25.104  30.512  1.00  0.00    -0.354 N 
ATOM     55  N   UNL A   1      43.304  27.772  32.662  1.00  0.00    -0.248 NA
ATOM     56  C   UNL A   1      42.383  28.078  34.742  1.00  0.00     0.031 C 
ATOM     57  C   UNL A   1      45.645  26.464  30.749  1.00  0.00     0.029 A 
ATOM     58  C   UNL A   1      44.681  25.768  31.451  1.00  0.00     0.049 A 
ATOM     59  H   UNL A   1      43.122  24.558  30.727  1.00  0.00     0.167 HD
ATOM     60  C   UNL A   1      43.649  26.668  33.404  1.00  0.00     0.074 A 
ATOM     61  C   UNL A   1      43.053  26.914  34.705  1.00  0.00     0.031 C 
ATOM     62  C   UNL A   1      44.349  25.626  32.862  1.00  0.00     0.031 A 
BRANCH  49  63
ATOM     63  C   UNL A   1      44.203  24.000  26.972  1.00  0.00    -0.014 A 
ATOM     64  C   UNL A   1      43.595  22.788  26.603  1.00  0.00     0.009 A 
ATOM     65  C   UNL A   1      45.367  24.357  26.270  1.00  0.00     0.009 A 
ATOM     66  C   UNL A   1      44.175  21.926  25.666  1.00  0.00     0.001 A 
ATOM     67  C   UNL A   1      45.976  23.482  25.360  1.00  0.00     0.001 A 
ATOM     68  C   UNL A   1      45.385  22.258  25.068  1.00  0.00     0.000 A 
ENDBRANCH  49  63
BRANCH  50  69
ATOM     69  C   UNL A   1      40.483  30.231  33.292  1.00  0.00    -0.014 A 
ATOM     70  C   UNL A   1      40.246  31.612  33.454  1.00  0.00     0.009 A 
ATOM     71  C   UNL A   1      39.382  29.366  33.236  1.00  0.00     0.009 A 
ATOM     72  C   UNL A   1      38.945  32.121  33.450  1.00  0.00     0.001 A 
ATOM     73  C   UNL A   1      38.079  29.880  33.243  1.00  0.00     0.001 A 
ATOM     74  C   UNL A   1      37.862  31.255  33.316  1.00  0.00     0.000 A 
ENDBRANCH  50  69
BRANCH  62  75
ATOM     75  C   UNL A   1      44.760  24.342  33.558  1.00  0.00    -0.014 A 
ATOM     76  C   UNL A   1      43.888  23.303  33.904  1.00  0.00     0.009 A 
ATOM     77  C   UNL A   1      46.106  24.180  33.968  1.00  0.00     0.009 A 
ATOM     78  C   UNL A   1      44.351  22.136  34.537  1.00  0.00     0.001 A 
ATOM     79  C   UNL A   1      46.570  23.032  34.614  1.00  0.00     0.001 A 
ATOM     80  C   UNL A   1      45.691  21.997  34.882  1.00  0.00     0.000 A 
ENDBRANCH  62  75
ENDBRANCH  36  37
ENDBRANCH  28  31
ENDBRANCH  26  27
ENDBRANCH  25  26
ENDBRANCH  24  25
ENDBRANCH   1  24
TORSDOF 16
ENDMDL
MODEL 2
REMARK VINA RESULT:     -12.0      2.713      5.192
REMARK SMILES Cc1cccc(C(=O)NCCCCCCNC(=O)c2ccc(-c3c4nc(c(-c5ccccc5)c5ccc([nH]5)c(-c5ccccc5)c5nc(c(-c6ccccc6)c6ccc3[nH]6)C=C5)C=C4)cc2)c1OC[C@@H]1C[C@H]2CC[C@@H]1C2
REMARK SMILES IDX 12 1 11 2 10 3 9 4 7 5 8 6 6 8 1 9 2 10 3 11 67 12 4 13 5 14
REMARK SMILES IDX 68 15 69 16 70 17 71 18 75 19 72 20 74 21 76 22 73 23 13 24
REMARK SMILES IDX 14 25 15 26 16 27 17 28 18 30 19 31 20 32 66 33 21 34 65 35
REMARK SMILES IDX 22 36 23 37 24 38 59 39 25 40 64 41 58 42 60 43 26 44 63 45
REMARK SMILES IDX 57 46 56 47 27 49 49 50 34 51 48 52 35 53 38 54 47 55 61 56
REMARK SMILES IDX 36 57 37 58 46 60 62 61 39 62 28 63 29 64 33 65 30 66 32 67
REMARK SMILES IDX 31 68 50 69 51 70 55 71 52 72 54 73 53 74 40 75 41 76 45 77
REMARK SMILES IDX 42 78 44 79 43 80
REMARK H PARENT 9 7 16 29 60 48 38 59
REMARK Flexibility Score: inf
ROOT
ATOM      1  C   UNL A   1      34.243  29.072  27.273  1.00  0.00     0.002 C 
ENDROOT
BRANCH   1   2
ATOM      2  C   UNL A   1      33.286  27.957  26.820  1.00  0.00     0.021 C 
BRANCH   2   3
ATOM      3  C   UNL A   1      31.810  28.196  27.159  1.00  0.00     0.116 C 
BRANCH   3   4
ATOM      4  N   UNL A   1      31.103  26.946  27.208  1.00  0.00    -0.352 N 
ATOM      5  C   UNL A   1      30.655  26.090  26.244  1.00  0.00     0.255 C 
ATOM      6  O   UNL A   1      30.035  25.107  26.671  1.00  0.00    -0.269 OA
ATOM      7  H   UNL A   1      30.900  26.646  28.123  1.00  0.00     0.163 HD
BRANCH   5   8
ATOM      8  C   UNL A   1      30.887  26.177  24.766  1.00  0.00     0.082 A 
ATOM      9  C   UNL A   1      33.567  26.456  22.047  1.00  0.00     0.048 C 
ATOM     10  C   UNL A   1      32.236  26.380  22.749  1.00  0.00    -0.008 A 
ATOM     11  C   UNL A   1      31.206  27.129  22.146  1.00  0.00     0.007 A 
ATOM     12  C   UNL A   1      32.032  25.796  24.024  1.00  0.00     0.134 A 
ATOM     13  C   UNL A   1      30.022  27.384  22.817  1.00  0.00     0.001 A 
ATOM     14  C   UNL A   1      29.886  26.944  24.126  1.00  0.00     0.018 A 
BRANCH  12  15
ATOM     15  O   UNL A   1      32.964  24.979  24.593  1.00  0.00    -0.492 OA
BRANCH  15  16
ATOM     16  C   UNL A   1      32.911  23.548  24.357  1.00  0.00     0.233 C 
BRANCH  16  17
ATOM     17  C   UNL A   1      34.215  22.799  23.973  1.00  0.00     0.030 C 
ATOM     18  C   UNL A   1      34.627  21.739  25.040  1.00  0.00     0.011 C 
ATOM     19  C   UNL A   1      35.466  23.725  23.999  1.00  0.00    -0.004 C 
ATOM     20  C   UNL A   1      36.045  22.166  25.467  1.00  0.00    -0.010 C 
ATOM     21  C   UNL A   1      36.635  23.010  23.300  1.00  0.00     0.004 C 
ATOM     22  C   UNL A   1      35.915  23.683  25.462  1.00  0.00     0.007 C 
ATOM     23  C   UNL A   1      37.025  21.924  24.309  1.00  0.00     0.004 C 
ENDBRANCH  16  17
ENDBRANCH  15  16
ENDBRANCH  12  15
ENDBRANCH   5   8
ENDBRANCH   3   4
ENDBRANCH   2   3
ENDBRANCH   1   2
BRANCH   1  24
ATOM     24  C   UNL A   1      33.684  30.505  27.236  1.00  0.00     0.002 C 
BRANCH  24  25
ATOM     25  C   UNL A   1      34.297  31.492  28.236  1.00  0.00     0.021 C 
BRANCH  25  26
ATOM     26  C   UNL A   1      34.103  32.954  27.854  1.00  0.00     0.116 C 
BRANCH  26  27
ATOM     27  N   UNL A   1      33.420  33.733  28.882  1.00  0.00    -0.352 N 
ATOM     28  C   UNL A   1      33.918  34.241  30.069  1.00  0.00     0.251 C 
ATOM     29  H   UNL A   1      32.470  33.925  28.707  1.00  0.00     0.163 HD
ATOM     30  O   UNL A   1      33.203  34.884  30.820  1.00  0.00    -0.269 OA
BRANCH  28  31
ATOM     31  C   UNL A   1      35.365  34.102  30.350  1.00  0.00     0.039 A 
ATOM     32  C   UNL A   1      36.256  34.504  29.352  1.00  0.00     0.014 A 
ATOM     33  C   UNL A   1      35.813  33.383  31.457  1.00  0.00     0.014 A 
ATOM     34  C   UNL A   1      37.539  33.966  29.335  1.00  0.00     0.010 A 
ATOM     35  C   UNL A   1      37.059  32.789  31.402  1.00  0.00     0.010 A 
ATOM     36  C   UNL A   1      37.887  33.018  30.301  1.00  0.00    -0.014 A 
BRANCH  36  37
ATOM     37  C   UNL A   1      39.013  32.111  30.127  1.00  0.00     0.031 A 
ATOM     38  C   UNL A   1      38.811  30.718  29.694  1.00  0.00     0.074 A 
ATOM     39  C   UNL A   1      40.268  32.520  30.418  1.00  0.00     0.049 A 
ATOM     40  N   UNL A   1      39.561  29.741  30.083  1.00  0.00    -0.248 NA
ATOM     41  C   UNL A   1      37.722  30.307  28.817  1.00  0.00     0.031 C 
ATOM     42  C   UNL A   1      41.519  31.820  30.143  1.00  0.00     0.029 A 
ATOM     43  N   UNL A   1      40.653  33.573  31.227  1.00  0.00    -0.354 N 
ATOM     44  C   UNL A   1      39.255  28.661  29.296  1.00  0.00     0.074 A 
ATOM     45  C   UNL A   1      38.046  29.029  28.591  1.00  0.00     0.031 C 
ATOM     46  C   UNL A   1      42.475  32.306  30.951  1.00  0.00     0.029 A 
ATOM     47  C   UNL A   1      41.847  33.241  31.869  1.00  0.00     0.049 A 
ATOM     48  H   UNL A   1      40.163  34.421  31.335  1.00  0.00     0.167 HD
ATOM     49  C   UNL A   1      40.125  27.620  29.197  1.00  0.00     0.031 A 
ATOM     50  C   UNL A   1      41.929  33.183  33.230  1.00  0.00     0.031 A 
ATOM     51  C   UNL A   1      41.336  27.807  29.992  1.00  0.00     0.049 A 
ATOM     52  C   UNL A   1      42.254  31.805  33.782  1.00  0.00     0.074 A 
ATOM     53  C   UNL A   1      42.644  28.148  29.685  1.00  0.00     0.029 A 
ATOM     54  N   UNL A   1      41.230  27.914  31.369  1.00  0.00    -0.354 N 
ATOM     55  N   UNL A   1      42.385  30.725  33.064  1.00  0.00    -0.248 NA
ATOM     56  C   UNL A   1      42.344  31.525  35.215  1.00  0.00     0.031 C 
ATOM     57  C   UNL A   1      43.331  28.432  30.897  1.00  0.00     0.029 A 
ATOM     58  C   UNL A   1      42.442  28.253  31.939  1.00  0.00     0.049 A 
ATOM     59  H   UNL A   1      40.399  27.766  31.877  1.00  0.00     0.167 HD
ATOM     60  C   UNL A   1      42.493  29.629  33.887  1.00  0.00     0.074 A 
ATOM     61  C   UNL A   1      42.470  30.187  35.227  1.00  0.00     0.031 C 
ATOM     62  C   UNL A   1      42.536  28.356  33.389  1.00  0.00     0.031 A 
BRANCH  49  63
ATOM     63  C   UNL A   1      39.964  26.561  28.143  1.00  0.00    -0.014 A 
ATOM     64  C   UNL A   1      39.178  25.425  28.399  1.00  0.00     0.009 A 
ATOM     65  C   UNL A   1      40.599  26.617  26.890  1.00  0.00     0.009 A 
ATOM     66  C   UNL A   1      39.115  24.353  27.501  1.00  0.00     0.001 A 
ATOM     67  C   UNL A   1      40.575  25.531  26.005  1.00  0.00     0.001 A 
ATOM     68  C   UNL A   1      39.842  24.392  26.318  1.00  0.00     0.000 A 
ENDBRANCH  49  63
BRANCH  50  69
ATOM     69  C   UNL A   1      41.063  34.178  33.922  1.00  0.00    -0.014 A 
ATOM     70  C   UNL A   1      39.728  33.825  34.203  1.00  0.00     0.009 A 
ATOM     71  C   UNL A   1      41.616  35.285  34.582  1.00  0.00     0.009 A 
ATOM     72  C   UNL A   1      39.004  34.493  35.194  1.00  0.00     0.001 A 
ATOM     73  C   UNL A   1      40.883  35.958  35.566  1.00  0.00     0.001 A 
ATOM     74  C   UNL A   1      39.593  35.542  35.895  1.00  0.00     0.000 A 
ENDBRANCH  50  69
BRANCH  62  75
ATOM     75  C   UNL A   1      42.619  27.067  34.185  1.00  0.00    -0.014 A 
ATOM     76  C   UNL A   1      41.643  26.613  35.079  1.00  0.00     0.009 A 
ATOM     77  C   UNL A   1      43.790  26.276  34.096  1.00  0.00     0.009 A 
ATOM     78  C   UNL A   1      41.788  25.397  35.769  1.00  0.00     0.001 A 
ATOM     79  C   UNL A   1      43.950  25.076  34.793  1.00  0.00     0.001 A 
ATOM     80  C   UNL A   1      42.935  24.625  35.619  1.00  0.00     0.000 A 
ENDBRANCH  62  75
ENDBRANCH  36  37
ENDBRANCH  28  31
ENDBRANCH  26  27
ENDBRANCH  25  26
ENDBRANCH  24  25
ENDBRANCH   1  24
TORSDOF 16
ENDMDL
MODEL 3
REMARK VINA RESULT:     -11.7      2.133      3.405
REMARK SMILES Cc1cccc(C(=O)NCCCCCCNC(=O)c2ccc(-c3c4nc(c(-c5ccccc5)c5ccc([nH]5)c(-c5ccccc5)c5nc(c(-c6ccccc6)c6ccc3[nH]6)C=C5)C=C4)cc2)c1OC[C@@H]1C[C@H]2CC[C@@H]1C2
REMARK SMILES IDX 12 1 11 2 10 3 9 4 7 5 8 6 6 8 1 9 2 10 3 11 67 12 4 13 5 14
REMARK SMILES IDX 68 15 69 16 70 17 71 18 75 19 72 20 74 21 76 22 73 23 13 24
REMARK SMILES IDX 14 25 15 26 16 27 17 28 18 30 19 31 20 32 66 33 21 34 65 35
REMARK SMILES IDX 22 36 23 37 24 38 59 39 25 40 64 41 58 42 60 43 26 44 63 45
REMARK SMILES IDX 57 46 56 47 27 49 49 50 34 51 48 52 35 53 38 54 47 55 61 56
REMARK SMILES IDX 36 57 37 58 46 60 62 61 39 62 28 63 29 64 33 65 30 66 32 67
REMARK SMILES IDX 31 68 50 69 51 70 55 71 52 72 54 73 53 74 40 75 41 76 45 77
REMARK SMILES IDX 42 78 44 79 43 80
REMARK H PARENT 9 7 16 29 60 48 38 59
REMARK Flexibility Score: inf
ROOT
ATOM      1  C   UNL A   1      33.613  28.262  26.673  1.00  0.00     0.002 C 
ENDROOT
BRANCH   1   2
ATOM      2  C   UNL A   1      34.005  27.774  25.269  1.00  0.00     0.021 C 
BRANCH   2   3
ATOM      3  C   UNL A   1      33.491  28.645  24.117  1.00  0.00     0.116 C 
BRANCH   3   4
ATOM      4  N   UNL A   1      33.661  27.962  22.864  1.00  0.00    -0.352 N 
ATOM      5  C   UNL A   1      33.160  26.795  22.363  1.00  0.00     0.255 C 
ATOM      6  O   UNL A   1      33.570  26.497  21.233  1.00  0.00    -0.269 OA
ATOM      7  H   UNL A   1      34.260  28.431  22.239  1.00  0.00     0.163 HD
BRANCH   5   8
ATOM      8  C   UNL A   1      32.140  25.894  22.993  1.00  0.00     0.082 A 
ATOM      9  C   UNL A   1      29.698  25.522  25.916  1.00  0.00     0.048 C 
ATOM     10  C   UNL A   1      30.509  25.241  24.678  1.00  0.00    -0.008 A 
ATOM     11  C   UNL A   1      30.894  23.895  24.515  1.00  0.00     0.007 A 
ATOM     12  C   UNL A   1      31.049  26.237  23.827  1.00  0.00     0.134 A 
ATOM     13  C   UNL A   1      31.863  23.536  23.595  1.00  0.00     0.001 A 
ATOM     14  C   UNL A   1      32.504  24.533  22.872  1.00  0.00     0.018 A 
BRANCH  12  15
ATOM     15  O   UNL A   1      30.623  27.532  23.883  1.00  0.00    -0.492 OA
BRANCH  15  16
ATOM     16  C   UNL A   1      29.509  27.963  23.059  1.00  0.00     0.233 C 
BRANCH  16  17
ATOM     17  C   UNL A   1      29.494  29.415  22.512  1.00  0.00     0.030 C 
ATOM     18  C   UNL A   1      29.691  30.476  23.637  1.00  0.00     0.011 C 
ATOM     19  C   UNL A   1      28.097  29.835  21.970  1.00  0.00    -0.004 C 
ATOM     20  C   UNL A   1      28.438  31.367  23.539  1.00  0.00    -0.010 C 
ATOM     21  C   UNL A   1      28.242  31.134  21.158  1.00  0.00     0.004 C 
ATOM     22  C   UNL A   1      27.364  30.337  23.217  1.00  0.00     0.007 C 
ATOM     23  C   UNL A   1      28.492  32.190  22.242  1.00  0.00     0.004 C 
ENDBRANCH  16  17
ENDBRANCH  15  16
ENDBRANCH  12  15
ENDBRANCH   5   8
ENDBRANCH   3   4
ENDBRANCH   2   3
ENDBRANCH   1   2
BRANCH   1  24
ATOM     24  C   UNL A   1      34.418  29.448  27.230  1.00  0.00     0.002 C 
BRANCH  24  25
ATOM     25  C   UNL A   1      33.675  30.785  27.315  1.00  0.00     0.021 C 
BRANCH  25  26
ATOM     26  C   UNL A   1      34.537  31.939  27.813  1.00  0.00     0.116 C 
BRANCH  26  27
ATOM     27  N   UNL A   1      33.770  32.987  28.478  1.00  0.00    -0.352 N 
ATOM     28  C   UNL A   1      34.129  33.789  29.548  1.00  0.00     0.251 C 
ATOM     29  H   UNL A   1      32.869  33.148  28.115  1.00  0.00     0.163 HD
ATOM     30  O   UNL A   1      33.361  34.631  29.981  1.00  0.00    -0.269 OA
BRANCH  28  31
ATOM     31  C   UNL A   1      35.511  33.695  30.073  1.00  0.00     0.039 A 
ATOM     32  C   UNL A   1      36.531  34.263  29.305  1.00  0.00     0.014 A 
ATOM     33  C   UNL A   1      35.810  32.874  31.158  1.00  0.00     0.014 A 
ATOM     34  C   UNL A   1      37.833  33.801  29.466  1.00  0.00     0.010 A 
ATOM     35  C   UNL A   1      37.087  32.358  31.269  1.00  0.00     0.010 A 
ATOM     36  C   UNL A   1      38.077  32.764  30.370  1.00  0.00    -0.014 A 
BRANCH  36  37
ATOM     37  C   UNL A   1      39.280  31.947  30.308  1.00  0.00     0.031 A 
ATOM     38  C   UNL A   1      39.263  30.606  29.699  1.00  0.00     0.074 A 
ATOM     39  C   UNL A   1      40.431  32.387  30.865  1.00  0.00     0.049 A 
ATOM     40  N   UNL A   1      40.005  29.633  30.112  1.00  0.00    -0.248 NA
ATOM     41  C   UNL A   1      38.377  30.243  28.600  1.00  0.00     0.031 C 
ATOM     42  C   UNL A   1      41.760  31.794  30.749  1.00  0.00     0.029 A 
ATOM     43  N   UNL A   1      40.588  33.356  31.838  1.00  0.00    -0.354 N 
ATOM     44  C   UNL A   1      39.922  28.639  29.172  1.00  0.00     0.074 A 
ATOM     45  C   UNL A   1      38.831  29.021  28.301  1.00  0.00     0.031 C 
ATOM     46  C   UNL A   1      42.520  32.232  31.765  1.00  0.00     0.029 A 
ATOM     47  C   UNL A   1      41.674  33.016  32.647  1.00  0.00     0.049 A 
ATOM     48  H   UNL A   1      40.025  34.157  31.945  1.00  0.00     0.167 HD
ATOM     49  C   UNL A   1      40.872  27.665  29.122  1.00  0.00     0.031 A 
ATOM     50  C   UNL A   1      41.521  32.802  33.987  1.00  0.00     0.031 A 
ATOM     51  C   UNL A   1      41.908  27.823  30.139  1.00  0.00     0.049 A 
ATOM     52  C   UNL A   1      41.847  31.388  34.438  1.00  0.00     0.074 A 
ATOM     53  C   UNL A   1      43.220  28.270  30.113  1.00  0.00     0.029 A 
ATOM     54  N   UNL A   1      41.555  27.760  31.477  1.00  0.00    -0.354 N 
ATOM     55  N   UNL A   1      42.182  30.409  33.644  1.00  0.00    -0.248 NA
ATOM     56  C   UNL A   1      41.706  30.945  35.825  1.00  0.00     0.031 C 
ATOM     57  C   UNL A   1      43.661  28.444  31.453  1.00  0.00     0.029 A 
ATOM     58  C   UNL A   1      42.621  28.095  32.291  1.00  0.00     0.049 A 
ATOM     59  H   UNL A   1      40.662  27.508  31.806  1.00  0.00     0.167 HD
ATOM     60  C   UNL A   1      42.227  29.231  34.352  1.00  0.00     0.074 A 
ATOM     61  C   UNL A   1      41.929  29.625  35.717  1.00  0.00     0.031 C 
ATOM     62  C   UNL A   1      42.452  28.031  33.737  1.00  0.00     0.031 A 
BRANCH  49  63
ATOM     63  C   UNL A   1      40.978  26.732  27.949  1.00  0.00    -0.014 A 
ATOM     64  C   UNL A   1      40.553  25.398  28.069  1.00  0.00     0.009 A 
ATOM     65  C   UNL A   1      41.525  27.108  26.710  1.00  0.00     0.009 A 
ATOM     66  C   UNL A   1      40.762  24.462  27.050  1.00  0.00     0.001 A 
ATOM     67  C   UNL A   1      41.776  26.168  25.701  1.00  0.00     0.001 A 
ATOM     68  C   UNL A   1      41.406  24.840  25.878  1.00  0.00     0.000 A 
ENDBRANCH  49  63
BRANCH  50  69
ATOM     69  C   UNL A   1      40.475  33.659  34.612  1.00  0.00    -0.014 A 
ATOM     70  C   UNL A   1      39.160  33.158  34.696  1.00  0.00     0.009 A 
ATOM     71  C   UNL A   1      40.821  34.767  35.396  1.00  0.00     0.009 A 
ATOM     72  C   UNL A   1      38.251  33.684  35.618  1.00  0.00     0.001 A 
ATOM     73  C   UNL A   1      39.904  35.298  36.311  1.00  0.00     0.001 A 
ATOM     74  C   UNL A   1      38.635  34.738  36.445  1.00  0.00     0.000 A 
ENDBRANCH  50  69
BRANCH  62  75
ATOM     75  C   UNL A   1      42.490  26.663  34.392  1.00  0.00    -0.014 A 
ATOM     76  C   UNL A   1      41.511  26.159  35.255  1.00  0.00     0.009 A 
ATOM     77  C   UNL A   1      43.623  25.836  34.195  1.00  0.00     0.009 A 
ATOM     78  C   UNL A   1      41.614  24.872  35.812  1.00  0.00     0.001 A 
ATOM     79  C   UNL A   1      43.742  24.564  34.759  1.00  0.00     0.001 A 
ATOM     80  C   UNL A   1      42.723  24.072  35.556  1.00  0.00     0.000 A 
ENDBRANCH  62  75
ENDBRANCH  36  37
ENDBRANCH  28  31
ENDBRANCH  26  27
ENDBRANCH  25  26
ENDBRANCH  24  25
ENDBRANCH   1  24
TORSDOF 16
ENDMDL
