MODEL 1
REMARK VINA RESULT:     -11.4      0.000      0.000
REMARK SMILES O=C(NCCCCCCNC(=O)c1ccc(N2C(=O)/C(=C\C3=Cc4ccccc4OC3)SC2=S)cc1)c1ccc(-c2c3nc(c(-c4ccccc4)c4ccc([nH]4)c(-c4ccccc4)c4nc(c(-c5ccccc5)c5ccc2[nH]5)C=C4)C=C3)cc1
REMARK SMILES IDX 6 1 5 2 4 3 3 4 1 5 2 6 37 8 38 9 84 10 39 11 83 12 40 13
REMARK SMILES IDX 41 14 42 15 77 16 43 17 82 18 76 19 78 20 44 21 81 22 75 23
REMARK SMILES IDX 74 24 45 26 67 27 52 28 66 29 53 30 56 31 65 32 79 33 54 34
REMARK SMILES IDX 55 35 64 37 80 38 57 39 46 40 47 41 51 42 48 43 50 44 49 45
REMARK SMILES IDX 68 46 69 47 73 48 70 49 72 50 71 51 58 52 59 53 63 54 60 55
REMARK SMILES IDX 62 56 61 57 7 58 8 59 9 60 10 61 11 62 12 64 13 65 14 66
REMARK SMILES IDX 36 67 15 68 35 69 16 70 17 71 18 72 33 73 19 74 20 75 32 76
REMARK SMILES IDX 34 77 21 78 22 79 23 80 31 81 24 82 30 83 25 84 29 85 26 86
REMARK SMILES IDX 28 87 27 88
REMARK H PARENT 3 7 78 25 56 36 10 63
REMARK Flexibility Score: inf
ROOT
ATOM      1  C   UNL A   1      41.622  24.645  26.201  1.00  0.00     0.002 C 
ENDROOT
BRANCH   1   2
ATOM      2  C   UNL A   1      42.703  23.596  25.934  1.00  0.00     0.021 C 
BRANCH   2   3
ATOM      3  C   UNL A   1      43.830  24.041  25.009  1.00  0.00     0.116 C 
BRANCH   3   4
ATOM      4  N   UNL A   1      45.144  23.648  25.489  1.00  0.00    -0.352 N 
ATOM      5  O   UNL A   1      47.000  23.728  26.768  1.00  0.00    -0.269 OA
ATOM      6  C   UNL A   1      45.833  24.068  26.601  1.00  0.00     0.251 C 
ATOM      7  H   UNL A   1      45.612  22.981  24.934  1.00  0.00     0.163 HD
BRANCH   6   8
ATOM      8  C   UNL A   1      45.178  24.951  27.594  1.00  0.00     0.039 A 
ATOM      9  C   UNL A   1      44.531  24.423  28.713  1.00  0.00     0.014 A 
ATOM     10  C   UNL A   1      45.241  26.337  27.412  1.00  0.00     0.014 A 
ATOM     11  C   UNL A   1      43.840  25.268  29.579  1.00  0.00     0.010 A 
ATOM     12  C   UNL A   1      44.608  27.190  28.323  1.00  0.00     0.010 A 
ATOM     13  C   UNL A   1      43.880  26.661  29.398  1.00  0.00    -0.014 A 
BRANCH  13  14
ATOM     14  C   UNL A   1      43.206  27.544  30.384  1.00  0.00     0.031 A 
ATOM     15  C   UNL A   1      41.875  28.176  30.083  1.00  0.00     0.074 A 
ATOM     16  C   UNL A   1      43.799  27.757  31.574  1.00  0.00     0.049 A 
ATOM     17  N   UNL A   1      41.140  28.946  30.848  1.00  0.00    -0.248 NA
ATOM     18  C   UNL A   1      41.294  27.916  28.758  1.00  0.00     0.031 C 
ATOM     19  C   UNL A   1      45.094  27.208  31.981  1.00  0.00     0.029 A 
ATOM     20  N   UNL A   1      43.384  28.476  32.666  1.00  0.00    -0.354 N 
ATOM     21  C   UNL A   1      40.021  29.275  30.093  1.00  0.00     0.074 A 
ATOM     22  C   UNL A   1      40.183  28.640  28.802  1.00  0.00     0.031 C 
ATOM     23  C   UNL A   1      45.347  27.573  33.247  1.00  0.00     0.029 A 
ATOM     24  C   UNL A   1      44.262  28.423  33.721  1.00  0.00     0.049 A 
ATOM     25  H   UNL A   1      42.539  28.981  32.690  1.00  0.00     0.167 HD
ATOM     26  C   UNL A   1      38.956  30.036  30.445  1.00  0.00     0.031 A 
ATOM     27  C   UNL A   1      44.209  29.004  34.933  1.00  0.00     0.031 A 
ATOM     28  C   UNL A   1      38.795  30.668  31.729  1.00  0.00     0.049 A 
ATOM     29  C   UNL A   1      43.030  29.862  35.285  1.00  0.00     0.074 A 
ATOM     30  C   UNL A   1      37.733  31.430  32.186  1.00  0.00     0.029 A 
ATOM     31  N   UNL A   1      39.722  30.619  32.756  1.00  0.00    -0.354 N 
ATOM     32  N   UNL A   1      41.964  30.130  34.571  1.00  0.00    -0.248 NA
ATOM     33  C   UNL A   1      43.048  30.496  36.611  1.00  0.00     0.031 C 
ATOM     34  C   UNL A   1      38.039  31.879  33.476  1.00  0.00     0.029 A 
ATOM     35  C   UNL A   1      39.269  31.355  33.839  1.00  0.00     0.049 A 
ATOM     36  H   UNL A   1      40.578  30.131  32.723  1.00  0.00     0.167 HD
ATOM     37  C   UNL A   1      41.178  30.952  35.366  1.00  0.00     0.074 A 
ATOM     38  C   UNL A   1      41.879  31.121  36.622  1.00  0.00     0.031 C 
ATOM     39  C   UNL A   1      39.981  31.519  35.078  1.00  0.00     0.031 A 
BRANCH  26  40
ATOM     40  C   UNL A   1      37.881  30.247  29.416  1.00  0.00    -0.014 A 
ATOM     41  C   UNL A   1      37.065  29.188  28.989  1.00  0.00     0.009 A 
ATOM     42  C   UNL A   1      37.645  31.535  28.910  1.00  0.00     0.009 A 
ATOM     43  C   UNL A   1      36.048  29.412  28.057  1.00  0.00     0.001 A 
ATOM     44  C   UNL A   1      36.615  31.759  27.995  1.00  0.00     0.001 A 
ATOM     45  C   UNL A   1      35.821  30.697  27.563  1.00  0.00     0.000 A 
ENDBRANCH  26  40
BRANCH  27  46
ATOM     46  C   UNL A   1      45.318  28.797  35.898  1.00  0.00    -0.014 A 
ATOM     47  C   UNL A   1      46.417  29.668  35.920  1.00  0.00     0.009 A 
ATOM     48  C   UNL A   1      45.272  27.735  36.815  1.00  0.00     0.009 A 
ATOM     49  C   UNL A   1      47.459  29.466  36.828  1.00  0.00     0.001 A 
ATOM     50  C   UNL A   1      46.301  27.552  37.739  1.00  0.00     0.001 A 
ATOM     51  C   UNL A   1      47.397  28.413  37.741  1.00  0.00     0.000 A 
ENDBRANCH  27  46
BRANCH  39  52
ATOM     52  C   UNL A   1      39.347  32.353  36.154  1.00  0.00    -0.014 A 
ATOM     53  C   UNL A   1      38.395  31.808  37.028  1.00  0.00     0.009 A 
ATOM     54  C   UNL A   1      39.726  33.696  36.308  1.00  0.00     0.009 A 
ATOM     55  C   UNL A   1      37.810  32.600  38.016  1.00  0.00     0.001 A 
ATOM     56  C   UNL A   1      39.159  34.478  37.313  1.00  0.00     0.001 A 
ATOM     57  C   UNL A   1      38.194  33.933  38.160  1.00  0.00     0.000 A 
ENDBRANCH  39  52
ENDBRANCH  13  14
ENDBRANCH   6   8
ENDBRANCH   3   4
ENDBRANCH   2   3
ENDBRANCH   1   2
BRANCH   1  58
ATOM     58  C   UNL A   1      40.910  24.538  27.552  1.00  0.00     0.002 C 
BRANCH  58  59
ATOM     59  C   UNL A   1      39.522  23.885  27.533  1.00  0.00     0.021 C 
BRANCH  59  60
ATOM     60  C   UNL A   1      38.718  24.069  26.245  1.00  0.00     0.116 C 
BRANCH  60  61
ATOM     61  N   UNL A   1      38.551  22.828  25.512  1.00  0.00    -0.352 N 
ATOM     62  C   UNL A   1      37.416  22.186  25.086  1.00  0.00     0.251 C 
ATOM     63  H   UNL A   1      39.391  22.371  25.281  1.00  0.00     0.163 HD
ATOM     64  O   UNL A   1      37.509  21.060  24.604  1.00  0.00    -0.269 OA
BRANCH  62  65
ATOM     65  C   UNL A   1      36.078  22.807  25.218  1.00  0.00     0.039 A 
ATOM     66  C   UNL A   1      35.412  22.687  26.438  1.00  0.00     0.016 A 
ATOM     67  C   UNL A   1      35.439  23.444  24.156  1.00  0.00     0.016 A 
ATOM     68  C   UNL A   1      34.142  23.254  26.612  1.00  0.00     0.027 A 
ATOM     69  C   UNL A   1      34.172  24.019  24.340  1.00  0.00     0.027 A 
ATOM     70  C   UNL A   1      33.495  23.939  25.571  1.00  0.00     0.051 A 
BRANCH  70  71
ATOM     71  N   UNL A   1      32.243  24.616  25.778  1.00  0.00    -0.261 N 
ATOM     72  C   UNL A   1      32.197  26.012  25.830  1.00  0.00     0.270 C 
ATOM     73  C   UNL A   1      31.012  24.000  25.981  1.00  0.00     0.152 C 
ATOM     74  O   UNL A   1      33.068  26.785  26.183  1.00  0.00    -0.268 OA
ATOM     75  C   UNL A   1      30.809  26.465  25.522  1.00  0.00     0.081 C 
ATOM     76  S   UNL A   1      29.728  25.223  26.036  1.00  0.00    -0.054 SA
ATOM     77  S   UNL A   1      30.630  22.393  26.257  1.00  0.00    -0.051 S 
ATOM     78  C   UNL A   1      30.389  27.496  24.772  1.00  0.00     0.028 C 
BRANCH  78  79
ATOM     79  C   UNL A   1      31.151  28.384  23.883  1.00  0.00    -0.009 C 
ATOM     80  C   UNL A   1      30.791  28.691  22.620  1.00  0.00     0.019 C 
ATOM     81  C   UNL A   1      31.667  29.603  24.643  1.00  0.00     0.265 C 
ATOM     82  C   UNL A   1      29.875  29.871  22.607  1.00  0.00     0.017 A 
ATOM     83  O   UNL A   1      30.594  30.550  24.846  1.00  0.00    -0.488 OA
ATOM     84  C   UNL A   1      29.027  30.086  21.520  1.00  0.00     0.012 A 
ATOM     85  C   UNL A   1      29.784  30.703  23.741  1.00  0.00     0.127 A 
ATOM     86  C   UNL A   1      28.053  31.084  21.587  1.00  0.00     0.001 A 
ATOM     87  C   UNL A   1      28.800  31.685  23.811  1.00  0.00     0.047 A 
ATOM     88  C   UNL A   1      27.930  31.868  22.736  1.00  0.00     0.004 A 
ENDBRANCH  78  79
ENDBRANCH  70  71
ENDBRANCH  62  65
ENDBRANCH  60  61
ENDBRANCH  59  60
ENDBRANCH  58  59
ENDBRANCH   1  58
TORSDOF 15
ENDMDL
MODEL 2
REMARK VINA RESULT:     -11.1      4.124      9.809
REMARK SMILES O=C(NCCCCCCNC(=O)c1ccc(N2C(=O)/C(=C\C3=Cc4ccccc4OC3)SC2=S)cc1)c1ccc(-c2c3nc(c(-c4ccccc4)c4ccc([nH]4)c(-c4ccccc4)c4nc(c(-c5ccccc5)c5ccc2[nH]5)C=C4)C=C3)cc1
REMARK SMILES IDX 6 1 5 2 4 3 3 4 1 5 2 6 37 8 38 9 84 10 39 11 83 12 40 13
REMARK SMILES IDX 41 14 42 15 77 16 43 17 82 18 76 19 78 20 44 21 81 22 75 23
REMARK SMILES IDX 74 24 45 26 67 27 52 28 66 29 53 30 56 31 65 32 79 33 54 34
REMARK SMILES IDX 55 35 64 37 80 38 57 39 46 40 47 41 51 42 48 43 50 44 49 45
REMARK SMILES IDX 68 46 69 47 73 48 70 49 72 50 71 51 58 52 59 53 63 54 60 55
REMARK SMILES IDX 62 56 61 57 7 58 8 59 9 60 10 61 11 62 12 64 13 65 14 66
REMARK SMILES IDX 36 67 15 68 35 69 16 70 17 71 18 72 33 73 19 74 20 75 32 76
REMARK SMILES IDX 34 77 21 78 22 79 23 80 31 81 24 82 30 83 25 84 29 85 26 86
REMARK SMILES IDX 28 87 27 88
REMARK H PARENT 3 7 78 25 56 36 10 63
REMARK Flexibility Score: inf
ROOT
ATOM      1  C   UNL A   1      36.528  30.380  30.512  1.00  0.00     0.002 C 
ENDROOT
BRANCH   1   2
ATOM      2  C   UNL A   1      35.821  31.244  31.557  1.00  0.00     0.021 C 
BRANCH   2   3
ATOM      3  C   UNL A   1      35.784  32.737  31.252  1.00  0.00     0.116 C 
BRANCH   3   4
ATOM      4  N   UNL A   1      36.295  33.551  32.343  1.00  0.00    -0.352 N 
ATOM      5  O   UNL A   1      37.794  34.300  33.852  1.00  0.00    -0.269 OA
ATOM      6  C   UNL A   1      37.577  33.666  32.824  1.00  0.00     0.251 C 
ATOM      7  H   UNL A   1      35.622  34.101  32.807  1.00  0.00     0.163 HD
BRANCH   6   8
ATOM      8  C   UNL A   1      38.700  33.009  32.117  1.00  0.00     0.039 A 
ATOM      9  C   UNL A   1      39.139  33.470  30.874  1.00  0.00     0.014 A 
ATOM     10  C   UNL A   1      39.344  31.927  32.728  1.00  0.00     0.014 A 
ATOM     11  C   UNL A   1      40.132  32.776  30.187  1.00  0.00     0.010 A 
ATOM     12  C   UNL A   1      40.391  31.275  32.068  1.00  0.00     0.010 A 
ATOM     13  C   UNL A   1      40.775  31.677  30.781  1.00  0.00    -0.014 A 
BRANCH  13  14
ATOM     14  C   UNL A   1      41.889  31.007  30.062  1.00  0.00     0.031 A 
ATOM     15  C   UNL A   1      41.701  29.666  29.408  1.00  0.00     0.074 A 
ATOM     16  C   UNL A   1      43.078  31.634  29.982  1.00  0.00     0.049 A 
ATOM     17  N   UNL A   1      42.562  28.962  28.716  1.00  0.00    -0.248 NA
ATOM     18  C   UNL A   1      40.382  29.031  29.550  1.00  0.00     0.031 C 
ATOM     19  C   UNL A   1      43.388  32.934  30.582  1.00  0.00     0.029 A 
ATOM     20  N   UNL A   1      44.241  31.273  29.351  1.00  0.00    -0.354 N 
ATOM     21  C   UNL A   1      41.898  27.797  28.355  1.00  0.00     0.074 A 
ATOM     22  C   UNL A   1      40.568  27.877  28.922  1.00  0.00     0.031 C 
ATOM     23  C   UNL A   1      44.641  33.281  30.254  1.00  0.00     0.029 A 
ATOM     24  C   UNL A   1      45.240  32.208  29.468  1.00  0.00     0.049 A 
ATOM     25  H   UNL A   1      44.348  30.425  28.862  1.00  0.00     0.167 HD
ATOM     26  C   UNL A   1      42.354  26.756  27.616  1.00  0.00     0.031 A 
ATOM     27  C   UNL A   1      46.503  32.201  29.007  1.00  0.00     0.031 A 
ATOM     28  C   UNL A   1      43.676  26.675  27.052  1.00  0.00     0.049 A 
ATOM     29  C   UNL A   1      46.989  31.023  28.215  1.00  0.00     0.074 A 
ATOM     30  C   UNL A   1      44.216  25.674  26.261  1.00  0.00     0.029 A 
ATOM     31  N   UNL A   1      44.669  27.626  27.223  1.00  0.00    -0.354 N 
ATOM     32  N   UNL A   1      46.334  29.948  27.851  1.00  0.00    -0.248 NA
ATOM     33  C   UNL A   1      48.389  31.061  27.768  1.00  0.00     0.031 C 
ATOM     34  C   UNL A   1      45.550  26.000  25.991  1.00  0.00     0.029 A 
ATOM     35  C   UNL A   1      45.825  27.226  26.572  1.00  0.00     0.049 A 
ATOM     36  H   UNL A   1      44.567  28.464  27.731  1.00  0.00     0.167 HD
ATOM     37  C   UNL A   1      47.236  29.188  27.122  1.00  0.00     0.074 A 
ATOM     38  C   UNL A   1      48.477  29.933  27.077  1.00  0.00     0.031 C 
ATOM     39  C   UNL A   1      47.053  27.976  26.543  1.00  0.00     0.031 A 
BRANCH  26  40
ATOM     40  C   UNL A   1      41.419  25.601  27.389  1.00  0.00    -0.014 A 
ATOM     41  C   UNL A   1      40.485  25.616  26.342  1.00  0.00     0.009 A 
ATOM     42  C   UNL A   1      41.515  24.458  28.199  1.00  0.00     0.009 A 
ATOM     43  C   UNL A   1      39.649  24.518  26.126  1.00  0.00     0.001 A 
ATOM     44  C   UNL A   1      40.693  23.354  27.967  1.00  0.00     0.001 A 
ATOM     45  C   UNL A   1      39.755  23.387  26.935  1.00  0.00     0.000 A 
ENDBRANCH  26  40
BRANCH  27  46
ATOM     46  C   UNL A   1      47.400  33.349  29.295  1.00  0.00    -0.014 A 
ATOM     47  C   UNL A   1      48.252  33.327  30.409  1.00  0.00     0.009 A 
ATOM     48  C   UNL A   1      47.417  34.466  28.446  1.00  0.00     0.009 A 
ATOM     49  C   UNL A   1      49.090  34.412  30.676  1.00  0.00     0.001 A 
ATOM     50  C   UNL A   1      48.275  35.536  28.700  1.00  0.00     0.001 A 
ATOM     51  C   UNL A   1      49.106  35.511  29.819  1.00  0.00     0.000 A 
ENDBRANCH  27  46
BRANCH  39  52
ATOM     52  C   UNL A   1      48.217  27.398  25.791  1.00  0.00    -0.014 A 
ATOM     53  C   UNL A   1      48.374  27.620  24.415  1.00  0.00     0.009 A 
ATOM     54  C   UNL A   1      49.181  26.641  26.475  1.00  0.00     0.009 A 
ATOM     55  C   UNL A   1      49.457  27.068  23.731  1.00  0.00     0.001 A 
ATOM     56  C   UNL A   1      50.276  26.111  25.793  1.00  0.00     0.001 A 
ATOM     57  C   UNL A   1      50.409  26.317  24.421  1.00  0.00     0.000 A 
ENDBRANCH  39  52
ENDBRANCH  13  14
ENDBRANCH   6   8
ENDBRANCH   3   4
ENDBRANCH   2   3
ENDBRANCH   1   2
BRANCH   1  58
ATOM     58  C   UNL A   1      37.053  31.122  29.279  1.00  0.00     0.002 C 
BRANCH  58  59
ATOM     59  C   UNL A   1      36.196  31.012  28.011  1.00  0.00     0.021 C 
BRANCH  59  60
ATOM     60  C   UNL A   1      35.220  29.835  27.967  1.00  0.00     0.116 C 
BRANCH  60  61
ATOM     61  N   UNL A   1      33.834  30.261  27.954  1.00  0.00    -0.352 N 
ATOM     62  C   UNL A   1      32.773  29.832  27.198  1.00  0.00     0.251 C 
ATOM     63  H   UNL A   1      33.618  30.978  28.593  1.00  0.00     0.163 HD
ATOM     64  O   UNL A   1      31.709  30.443  27.254  1.00  0.00    -0.269 OA
BRANCH  62  65
ATOM     65  C   UNL A   1      32.887  28.663  26.295  1.00  0.00     0.039 A 
ATOM     66  C   UNL A   1      33.486  28.847  25.049  1.00  0.00     0.016 A 
ATOM     67  C   UNL A   1      32.362  27.413  26.617  1.00  0.00     0.016 A 
ATOM     68  C   UNL A   1      33.614  27.774  24.158  1.00  0.00     0.027 A 
ATOM     69  C   UNL A   1      32.503  26.339  25.724  1.00  0.00     0.027 A 
ATOM     70  C   UNL A   1      33.133  26.494  24.475  1.00  0.00     0.051 A 
BRANCH  70  71
ATOM     71  N   UNL A   1      33.361  25.366  23.611  1.00  0.00    -0.261 N 
ATOM     72  C   UNL A   1      34.230  24.344  24.001  1.00  0.00     0.270 C 
ATOM     73  C   UNL A   1      32.810  25.191  22.346  1.00  0.00     0.152 C 
ATOM     74  O   UNL A   1      35.196  24.413  24.739  1.00  0.00    -0.268 OA
ATOM     75  C   UNL A   1      33.900  23.106  23.237  1.00  0.00     0.081 C 
ATOM     76  S   UNL A   1      33.244  23.590  21.716  1.00  0.00    -0.054 SA
ATOM     77  S   UNL A   1      31.944  26.248  21.378  1.00  0.00    -0.051 S 
ATOM     78  C   UNL A   1      33.847  21.831  23.651  1.00  0.00     0.028 C 
BRANCH  78  79
ATOM     79  C   UNL A   1      33.921  21.279  25.011  1.00  0.00    -0.009 C 
ATOM     80  C   UNL A   1      33.010  20.440  25.545  1.00  0.00     0.019 C 
ATOM     81  C   UNL A   1      35.350  20.863  25.352  1.00  0.00     0.265 C 
ATOM     82  C   UNL A   1      33.346  19.022  25.217  1.00  0.00     0.017 A 
ATOM     83  O   UNL A   1      35.668  19.608  24.711  1.00  0.00    -0.488 OA
ATOM     84  C   UNL A   1      32.352  18.042  25.250  1.00  0.00     0.012 A 
ATOM     85  C   UNL A   1      34.638  18.692  24.764  1.00  0.00     0.127 A 
ATOM     86  C   UNL A   1      32.628  16.759  24.777  1.00  0.00     0.001 A 
ATOM     87  C   UNL A   1      34.905  17.416  24.276  1.00  0.00     0.047 A 
ATOM     88  C   UNL A   1      33.895  16.453  24.276  1.00  0.00     0.004 A 
ENDBRANCH  78  79
ENDBRANCH  70  71
ENDBRANCH  62  65
ENDBRANCH  60  61
ENDBRANCH  59  60
ENDBRANCH  58  59
ENDBRANCH   1  58
TORSDOF 15
ENDMDL
MODEL 3
REMARK VINA RESULT:     -11.0      7.207     12.302
REMARK SMILES O=C(NCCCCCCNC(=O)c1ccc(N2C(=O)/C(=C\C3=Cc4ccccc4OC3)SC2=S)cc1)c1ccc(-c2c3nc(c(-c4ccccc4)c4ccc([nH]4)c(-c4ccccc4)c4nc(c(-c5ccccc5)c5ccc2[nH]5)C=C4)C=C3)cc1
REMARK SMILES IDX 6 1 5 2 4 3 3 4 1 5 2 6 37 8 38 9 84 10 39 11 83 12 40 13
REMARK SMILES IDX 41 14 42 15 77 16 43 17 82 18 76 19 78 20 44 21 81 22 75 23
REMARK SMILES IDX 74 24 45 26 67 27 52 28 66 29 53 30 56 31 65 32 79 33 54 34
REMARK SMILES IDX 55 35 64 37 80 38 57 39 46 40 47 41 51 42 48 43 50 44 49 45
REMARK SMILES IDX 68 46 69 47 73 48 70 49 72 50 71 51 58 52 59 53 63 54 60 55
REMARK SMILES IDX 62 56 61 57 7 58 8 59 9 60 10 61 11 62 12 64 13 65 14 66
REMARK SMILES IDX 36 67 15 68 35 69 16 70 17 71 18 72 33 73 19 74 20 75 32 76
REMARK SMILES IDX 34 77 21 78 22 79 23 80 31 81 24 82 30 83 25 84 29 85 26 86
REMARK SMILES IDX 28 87 27 88
REMARK H PARENT 3 7 78 25 56 36 10 63
REMARK Flexibility Score: inf
ROOT
ATOM      1  C   UNL A   1      41.916  21.778  27.022  1.00  0.00     0.002 C 
ENDROOT
BRANCH   1   2
ATOM      2  C   UNL A   1      41.956  22.605  28.307  1.00  0.00     0.021 C 
BRANCH   2   3
ATOM      3  C   UNL A   1      43.349  22.890  28.858  1.00  0.00     0.116 C 
BRANCH   3   4
ATOM      4  N   UNL A   1      43.379  22.970  30.308  1.00  0.00    -0.352 N 
ATOM      5  O   UNL A   1      44.135  23.588  32.342  1.00  0.00    -0.269 OA
ATOM      6  C   UNL A   1      44.147  23.762  31.127  1.00  0.00     0.251 C 
ATOM      7  H   UNL A   1      42.754  22.367  30.775  1.00  0.00     0.163 HD
BRANCH   6   8
ATOM      8  C   UNL A   1      45.012  24.816  30.547  1.00  0.00     0.039 A 
ATOM      9  C   UNL A   1      45.567  25.815  31.348  1.00  0.00     0.014 A 
ATOM     10  C   UNL A   1      45.295  24.781  29.177  1.00  0.00     0.014 A 
ATOM     11  C   UNL A   1      46.296  26.849  30.764  1.00  0.00     0.010 A 
ATOM     12  C   UNL A   1      46.088  25.780  28.602  1.00  0.00     0.010 A 
ATOM     13  C   UNL A   1      46.572  26.836  29.387  1.00  0.00    -0.014 A 
BRANCH  13  14
ATOM     14  C   UNL A   1      47.424  27.904  28.803  1.00  0.00     0.031 A 
ATOM     15  C   UNL A   1      48.896  27.694  28.578  1.00  0.00     0.074 A 
ATOM     16  C   UNL A   1      46.849  29.071  28.453  1.00  0.00     0.049 A 
ATOM     17  N   UNL A   1      49.771  28.513  28.050  1.00  0.00    -0.248 NA
ATOM     18  C   UNL A   1      49.460  26.403  29.002  1.00  0.00     0.031 C 
ATOM     19  C   UNL A   1      45.433  29.401  28.628  1.00  0.00     0.029 A 
ATOM     20  N   UNL A   1      47.380  30.189  27.861  1.00  0.00    -0.354 N 
ATOM     21  C   UNL A   1      50.989  27.847  28.093  1.00  0.00     0.074 A 
ATOM     22  C   UNL A   1      50.746  26.564  28.717  1.00  0.00     0.031 C 
ATOM     23  C   UNL A   1      45.199  30.617  28.116  1.00  0.00     0.029 A 
ATOM     24  C   UNL A   1      46.454  31.175  27.625  1.00  0.00     0.049 A 
ATOM     25  H   UNL A   1      48.333  30.275  27.628  1.00  0.00     0.167 HD
ATOM     26  C   UNL A   1      52.200  28.265  27.649  1.00  0.00     0.031 A 
ATOM     27  C   UNL A   1      46.596  32.399  27.086  1.00  0.00     0.031 A 
ATOM     28  C   UNL A   1      52.443  29.541  27.028  1.00  0.00     0.049 A 
ATOM     29  C   UNL A   1      47.953  32.845  26.627  1.00  0.00     0.074 A 
ATOM     30  C   UNL A   1      53.630  30.038  26.516  1.00  0.00     0.029 A 
ATOM     31  N   UNL A   1      51.485  30.525  26.839  1.00  0.00    -0.354 N 
ATOM     32  N   UNL A   1      49.085  32.186  26.641  1.00  0.00    -0.248 NA
ATOM     33  C   UNL A   1      48.049  34.205  26.079  1.00  0.00     0.031 C 
ATOM     34  C   UNL A   1      53.399  31.341  26.059  1.00  0.00     0.029 A 
ATOM     35  C   UNL A   1      52.058  31.634  26.240  1.00  0.00     0.049 A 
ATOM     36  H   UNL A   1      50.536  30.446  27.092  1.00  0.00     0.167 HD
ATOM     37  C   UNL A   1      50.026  33.044  26.090  1.00  0.00     0.074 A 
ATOM     38  C   UNL A   1      49.328  34.263  25.734  1.00  0.00     0.031 C 
ATOM     39  C   UNL A   1      51.352  32.841  25.899  1.00  0.00     0.031 A 
BRANCH  26  40
ATOM     40  C   UNL A   1      53.369  27.339  27.837  1.00  0.00    -0.014 A 
ATOM     41  C   UNL A   1      54.135  27.366  29.013  1.00  0.00     0.009 A 
ATOM     42  C   UNL A   1      53.670  26.389  26.850  1.00  0.00     0.009 A 
ATOM     43  C   UNL A   1      55.197  26.474  29.183  1.00  0.00     0.001 A 
ATOM     44  C   UNL A   1      54.718  25.484  27.033  1.00  0.00     0.001 A 
ATOM     45  C   UNL A   1      55.485  25.532  28.196  1.00  0.00     0.000 A 
ENDBRANCH  26  40
BRANCH  27  46
ATOM     46  C   UNL A   1      45.416  33.291  26.960  1.00  0.00    -0.014 A 
ATOM     47  C   UNL A   1      45.005  34.086  28.040  1.00  0.00     0.009 A 
ATOM     48  C   UNL A   1      44.706  33.363  25.752  1.00  0.00     0.009 A 
ATOM     49  C   UNL A   1      43.892  34.921  27.917  1.00  0.00     0.001 A 
ATOM     50  C   UNL A   1      43.612  34.218  25.623  1.00  0.00     0.001 A 
ATOM     51  C   UNL A   1      43.201  34.991  26.707  1.00  0.00     0.000 A 
ENDBRANCH  27  46
BRANCH  39  52
ATOM     52  C   UNL A   1      52.125  33.955  25.254  1.00  0.00    -0.014 A 
ATOM     53  C   UNL A   1      52.245  34.041  23.858  1.00  0.00     0.009 A 
ATOM     54  C   UNL A   1      52.720  34.944  26.053  1.00  0.00     0.009 A 
ATOM     55  C   UNL A   1      52.974  35.078  23.277  1.00  0.00     0.001 A 
ATOM     56  C   UNL A   1      53.427  35.993  25.467  1.00  0.00     0.001 A 
ATOM     57  C   UNL A   1      53.562  36.055  24.081  1.00  0.00     0.000 A 
ENDBRANCH  39  52
ENDBRANCH  13  14
ENDBRANCH   6   8
ENDBRANCH   3   4
ENDBRANCH   2   3
ENDBRANCH   1   2
BRANCH   1  58
ATOM     58  C   UNL A   1      41.424  20.336  27.173  1.00  0.00     0.002 C 
BRANCH  58  59
ATOM     59  C   UNL A   1      42.458  19.238  26.894  1.00  0.00     0.021 C 
BRANCH  59  60
ATOM     60  C   UNL A   1      42.708  18.918  25.419  1.00  0.00     0.116 C 
BRANCH  60  61
ATOM     61  N   UNL A   1      44.070  18.489  25.166  1.00  0.00    -0.352 N 
ATOM     62  C   UNL A   1      45.202  19.217  24.899  1.00  0.00     0.251 C 
ATOM     63  H   UNL A   1      44.206  17.515  25.190  1.00  0.00     0.163 HD
ATOM     64  O   UNL A   1      46.230  18.630  24.570  1.00  0.00    -0.269 OA
BRANCH  62  65
ATOM     65  C   UNL A   1      45.208  20.697  24.973  1.00  0.00     0.039 A 
ATOM     66  C   UNL A   1      44.821  21.415  23.842  1.00  0.00     0.016 A 
ATOM     67  C   UNL A   1      45.647  21.389  26.100  1.00  0.00     0.016 A 
ATOM     68  C   UNL A   1      44.813  22.816  23.861  1.00  0.00     0.027 A 
ATOM     69  C   UNL A   1      45.626  22.792  26.116  1.00  0.00     0.027 A 
ATOM     70  C   UNL A   1      45.209  23.538  24.998  1.00  0.00     0.051 A 
BRANCH  70  71
ATOM     71  N   UNL A   1      45.097  24.971  25.058  1.00  0.00    -0.261 N 
ATOM     72  C   UNL A   1      43.842  25.576  25.179  1.00  0.00     0.270 C 
ATOM     73  C   UNL A   1      46.153  25.871  24.967  1.00  0.00     0.152 C 
ATOM     74  O   UNL A   1      42.763  25.162  24.796  1.00  0.00    -0.268 OA
ATOM     75  C   UNL A   1      44.015  26.948  25.738  1.00  0.00     0.081 C 
ATOM     76  S   UNL A   1      45.566  27.522  25.245  1.00  0.00    -0.054 SA
ATOM     77  S   UNL A   1      47.760  25.628  24.561  1.00  0.00    -0.051 S 
ATOM     78  C   UNL A   1      43.286  27.598  26.658  1.00  0.00     0.028 C 
BRANCH  78  79
ATOM     79  C   UNL A   1      42.207  27.103  27.525  1.00  0.00    -0.009 C 
ATOM     80  C   UNL A   1      42.367  26.751  28.817  1.00  0.00     0.019 C 
ATOM     81  C   UNL A   1      40.923  27.898  27.303  1.00  0.00     0.265 C 
ATOM     82  C   UNL A   1      42.202  27.939  29.709  1.00  0.00     0.017 A 
ATOM     83  O   UNL A   1      41.013  29.179  27.966  1.00  0.00    -0.488 OA
ATOM     84  C   UNL A   1      42.758  27.934  30.989  1.00  0.00     0.012 A 
ATOM     85  C   UNL A   1      41.586  29.107  29.218  1.00  0.00     0.127 A 
ATOM     86  C   UNL A   1      42.755  29.103  31.750  1.00  0.00     0.001 A 
ATOM     87  C   UNL A   1      41.600  30.276  29.973  1.00  0.00     0.047 A 
ATOM     88  C   UNL A   1      42.193  30.274  31.236  1.00  0.00     0.004 A 
ENDBRANCH  78  79
ENDBRANCH  70  71
ENDBRANCH  62  65
ENDBRANCH  60  61
ENDBRANCH  59  60
ENDBRANCH  58  59
ENDBRANCH   1  58
TORSDOF 15
ENDMDL
