MODEL 1
REMARK VINA RESULT:     -11.1      0.000      0.000
REMARK SMILES CCc1cc(/C=C/C(=O)NCCCCCCNC(=O)c2ccc(-c3c4nc(c(-c5ccccc5)c5ccc([nH]5)c(-c5ccccc5)c5nc(c(-c6ccccc6)c6ccc3[nH]6)C=C5)C=C4)cc2)cc(C(=O)c2ccccc2)c1
REMARK SMILES IDX 13 1 12 2 11 3 10 4 8 5 9 6 7 8 6 9 5 10 3 11 4 12 78 13
REMARK SMILES IDX 69 14 68 15 2 16 1 17 70 18 71 19 72 20 73 21 77 22 74 23
REMARK SMILES IDX 76 24 75 25 14 26 15 27 16 28 17 29 18 30 19 32 20 33 21 34
REMARK SMILES IDX 67 35 22 36 66 37 23 38 24 39 25 40 60 41 26 42 65 43 59 44
REMARK SMILES IDX 61 45 27 46 64 47 58 48 57 49 28 51 50 52 35 53 49 54 36 55
REMARK SMILES IDX 39 56 48 57 62 58 37 59 38 60 47 62 63 63 40 64 29 65 30 66
REMARK SMILES IDX 34 67 31 68 33 69 32 70 51 71 52 72 56 73 53 74 55 75 54 76
REMARK SMILES IDX 41 77 42 78 46 79 43 80 45 81 44 82
REMARK H PARENT 10 7 17 31 61 50 39 61
REMARK Flexibility Score: inf
ROOT
ATOM      1  C   UNL A   1      34.293  24.141  25.636  1.00  0.00     0.002 C 
ENDROOT
BRANCH   1   2
ATOM      2  C   UNL A   1      33.767  22.973  26.483  1.00  0.00     0.021 C 
BRANCH   2   3
ATOM      3  C   UNL A   1      32.599  22.226  25.834  1.00  0.00     0.116 C 
BRANCH   3   4
ATOM      4  N   UNL A   1      31.409  22.336  26.655  1.00  0.00    -0.353 N 
ATOM      5  C   UNL A   1      30.505  23.335  26.805  1.00  0.00     0.243 C 
ATOM      6  O   UNL A   1      29.529  23.155  27.532  1.00  0.00    -0.270 OA
ATOM      7  H   UNL A   1      31.224  21.539  27.203  1.00  0.00     0.163 HD
BRANCH   5   8
ATOM      8  C   UNL A   1      30.611  24.616  26.064  1.00  0.00     0.072 C 
ATOM      9  C   UNL A   1      29.683  25.137  25.249  1.00  0.00     0.014 C 
BRANCH   9  10
ATOM     10  C   UNL A   1      29.854  26.377  24.481  1.00  0.00    -0.024 A 
ATOM     11  C   UNL A   1      28.932  28.239  23.185  1.00  0.00    -0.047 A 
ATOM     12  C   UNL A   1      28.780  26.999  23.828  1.00  0.00     0.011 A 
ATOM     13  C   UNL A   1      30.188  28.858  23.215  1.00  0.00     0.016 A 
ATOM     14  C   UNL A   1      31.268  28.264  23.885  1.00  0.00     0.023 A 
ATOM     15  C   UNL A   1      31.098  27.018  24.500  1.00  0.00     0.020 A 
BRANCH  11  16
ATOM     16  C   UNL A   1      27.711  28.908  22.594  1.00  0.00     0.032 C 
ATOM     17  C   UNL A   1      27.958  30.191  21.809  1.00  0.00     0.009 C 
ENDBRANCH  11  16
BRANCH  14  18
ATOM     18  C   UNL A   1      32.605  28.924  23.971  1.00  0.00     0.193 C 
ATOM     19  O   UNL A   1      33.255  29.147  22.954  1.00  0.00    -0.289 OA
BRANCH  18  20
ATOM     20  C   UNL A   1      33.160  29.343  25.278  1.00  0.00     0.022 A 
ATOM     21  C   UNL A   1      32.558  30.413  25.946  1.00  0.00     0.012 A 
ATOM     22  C   UNL A   1      34.247  28.670  25.849  1.00  0.00     0.012 A 
ATOM     23  C   UNL A   1      33.007  30.772  27.216  1.00  0.00     0.001 A 
ATOM     24  C   UNL A   1      34.689  29.033  27.122  1.00  0.00     0.001 A 
ATOM     25  C   UNL A   1      34.063  30.075  27.808  1.00  0.00     0.000 A 
ENDBRANCH  18  20
ENDBRANCH  14  18
ENDBRANCH   9  10
ENDBRANCH   5   8
ENDBRANCH   3   4
ENDBRANCH   2   3
ENDBRANCH   1   2
BRANCH   1  26
ATOM     26  C   UNL A   1      34.772  23.755  24.231  1.00  0.00     0.002 C 
BRANCH  26  27
ATOM     27  C   UNL A   1      36.187  23.173  24.168  1.00  0.00     0.021 C 
BRANCH  27  28
ATOM     28  C   UNL A   1      37.134  23.712  25.235  1.00  0.00     0.116 C 
BRANCH  28  29
ATOM     29  N   UNL A   1      38.202  22.769  25.529  1.00  0.00    -0.352 N 
ATOM     30  C   UNL A   1      39.421  22.991  26.117  1.00  0.00     0.251 C 
ATOM     31  H   UNL A   1      38.024  21.837  25.268  1.00  0.00     0.163 HD
ATOM     32  O   UNL A   1      40.296  22.136  26.072  1.00  0.00    -0.269 OA
BRANCH  30  33
ATOM     33  C   UNL A   1      39.679  24.274  26.803  1.00  0.00     0.039 A 
ATOM     34  C   UNL A   1      39.186  24.462  28.097  1.00  0.00     0.014 A 
ATOM     35  C   UNL A   1      40.386  25.296  26.162  1.00  0.00     0.014 A 
ATOM     36  C   UNL A   1      39.443  25.660  28.765  1.00  0.00     0.010 A 
ATOM     37  C   UNL A   1      40.701  26.461  26.855  1.00  0.00     0.010 A 
ATOM     38  C   UNL A   1      40.224  26.658  28.160  1.00  0.00    -0.014 A 
BRANCH  38  39
ATOM     39  C   UNL A   1      40.546  27.919  28.870  1.00  0.00     0.031 A 
ATOM     40  C   UNL A   1      41.875  28.082  29.554  1.00  0.00     0.074 A 
ATOM     41  C   UNL A   1      39.620  28.892  28.951  1.00  0.00     0.049 A 
ATOM     42  N   UNL A   1      42.317  29.085  30.270  1.00  0.00    -0.248 NA
ATOM     43  C   UNL A   1      42.822  26.961  29.439  1.00  0.00     0.031 C 
ATOM     44  C   UNL A   1      38.279  28.839  28.362  1.00  0.00     0.029 A 
ATOM     45  N   UNL A   1      39.663  30.117  29.569  1.00  0.00    -0.354 N 
ATOM     46  C   UNL A   1      43.583  28.709  30.703  1.00  0.00     0.074 A 
ATOM     47  C   UNL A   1      43.819  27.370  30.212  1.00  0.00     0.031 C 
ATOM     48  C   UNL A   1      37.639  29.989  28.626  1.00  0.00     0.029 A 
ATOM     49  C   UNL A   1      38.504  30.841  29.434  1.00  0.00     0.049 A 
ATOM     50  H   UNL A   1      40.449  30.444  30.062  1.00  0.00     0.167 HD
ATOM     51  C   UNL A   1      44.477  29.422  31.429  1.00  0.00     0.031 A 
ATOM     52  C   UNL A   1      38.174  32.055  29.913  1.00  0.00     0.031 A 
ATOM     53  C   UNL A   1      44.245  30.757  31.910  1.00  0.00     0.049 A 
ATOM     54  C   UNL A   1      39.177  32.820  30.730  1.00  0.00     0.074 A 
ATOM     55  C   UNL A   1      45.108  31.586  32.607  1.00  0.00     0.029 A 
ATOM     56  N   UNL A   1      43.061  31.460  31.746  1.00  0.00    -0.354 N 
ATOM     57  N   UNL A   1      40.395  32.478  31.072  1.00  0.00    -0.248 NA
ATOM     58  C   UNL A   1      38.763  34.144  31.215  1.00  0.00     0.031 C 
ATOM     59  C   UNL A   1      44.428  32.770  32.908  1.00  0.00     0.029 A 
ATOM     60  C   UNL A   1      43.161  32.701  32.350  1.00  0.00     0.049 A 
ATOM     61  H   UNL A   1      42.266  31.124  31.272  1.00  0.00     0.167 HD
ATOM     62  C   UNL A   1      40.903  33.556  31.788  1.00  0.00     0.074 A 
ATOM     63  C   UNL A   1      39.866  34.565  31.816  1.00  0.00     0.031 C 
ATOM     64  C   UNL A   1      42.119  33.694  32.369  1.00  0.00     0.031 A 
BRANCH  51  65
ATOM     65  C   UNL A   1      45.788  28.762  31.753  1.00  0.00    -0.014 A 
ATOM     66  C   UNL A   1      46.009  28.155  33.001  1.00  0.00     0.009 A 
ATOM     67  C   UNL A   1      46.806  28.717  30.788  1.00  0.00     0.009 A 
ATOM     68  C   UNL A   1      47.235  27.551  33.288  1.00  0.00     0.001 A 
ATOM     69  C   UNL A   1      48.020  28.086  31.068  1.00  0.00     0.001 A 
ATOM     70  C   UNL A   1      48.237  27.513  32.320  1.00  0.00     0.000 A 
ENDBRANCH  51  65
BRANCH  52  71
ATOM     71  C   UNL A   1      36.835  32.632  29.620  1.00  0.00    -0.014 A 
ATOM     72  C   UNL A   1      35.796  32.530  30.557  1.00  0.00     0.009 A 
ATOM     73  C   UNL A   1      36.588  33.283  28.402  1.00  0.00     0.009 A 
ATOM     74  C   UNL A   1      34.530  33.045  30.269  1.00  0.00     0.001 A 
ATOM     75  C   UNL A   1      35.330  33.823  28.128  1.00  0.00     0.001 A 
ATOM     76  C   UNL A   1      34.299  33.694  29.058  1.00  0.00     0.000 A 
ENDBRANCH  52  71
BRANCH  64  77
ATOM     77  C   UNL A   1      42.407  35.001  33.053  1.00  0.00    -0.014 A 
ATOM     78  C   UNL A   1      41.952  35.260  34.355  1.00  0.00     0.009 A 
ATOM     79  C   UNL A   1      43.180  35.972  32.396  1.00  0.00     0.009 A 
ATOM     80  C   UNL A   1      42.238  36.479  34.973  1.00  0.00     0.001 A 
ATOM     81  C   UNL A   1      43.489  37.177  33.028  1.00  0.00     0.001 A 
ATOM     82  C   UNL A   1      43.010  37.433  34.311  1.00  0.00     0.000 A 
ENDBRANCH  64  77
ENDBRANCH  38  39
ENDBRANCH  30  33
ENDBRANCH  28  29
ENDBRANCH  27  28
ENDBRANCH  26  27
ENDBRANCH   1  26
TORSDOF 17
ENDMDL
MODEL 2
REMARK VINA RESULT:     -10.8      0.905      2.659
REMARK SMILES CCc1cc(/C=C/C(=O)NCCCCCCNC(=O)c2ccc(-c3c4nc(c(-c5ccccc5)c5ccc([nH]5)c(-c5ccccc5)c5nc(c(-c6ccccc6)c6ccc3[nH]6)C=C5)C=C4)cc2)cc(C(=O)c2ccccc2)c1
REMARK SMILES IDX 13 1 12 2 11 3 10 4 8 5 9 6 7 8 6 9 5 10 3 11 4 12 78 13
REMARK SMILES IDX 69 14 68 15 2 16 1 17 70 18 71 19 72 20 73 21 77 22 74 23
REMARK SMILES IDX 76 24 75 25 14 26 15 27 16 28 17 29 18 30 19 32 20 33 21 34
REMARK SMILES IDX 67 35 22 36 66 37 23 38 24 39 25 40 60 41 26 42 65 43 59 44
REMARK SMILES IDX 61 45 27 46 64 47 58 48 57 49 28 51 50 52 35 53 49 54 36 55
REMARK SMILES IDX 39 56 48 57 62 58 37 59 38 60 47 62 63 63 40 64 29 65 30 66
REMARK SMILES IDX 34 67 31 68 33 69 32 70 51 71 52 72 56 73 53 74 55 75 54 76
REMARK SMILES IDX 41 77 42 78 46 79 43 80 45 81 44 82
REMARK H PARENT 10 7 17 31 61 50 39 61
REMARK Flexibility Score: inf
ROOT
ATOM      1  C   UNL A   1      34.547  21.042  24.945  1.00  0.00     0.002 C 
ENDROOT
BRANCH   1   2
ATOM      2  C   UNL A   1      33.519  21.809  25.788  1.00  0.00     0.021 C 
BRANCH   2   3
ATOM      3  C   UNL A   1      32.106  21.784  25.200  1.00  0.00     0.116 C 
BRANCH   3   4
ATOM      4  N   UNL A   1      31.116  21.906  26.253  1.00  0.00    -0.353 N 
ATOM      5  C   UNL A   1      30.584  22.990  26.870  1.00  0.00     0.243 C 
ATOM      6  O   UNL A   1      29.697  22.826  27.707  1.00  0.00    -0.270 OA
ATOM      7  H   UNL A   1      30.768  21.045  26.579  1.00  0.00     0.163 HD
BRANCH   5   8
ATOM      8  C   UNL A   1      30.980  24.375  26.518  1.00  0.00     0.072 C 
ATOM      9  C   UNL A   1      30.155  25.361  26.139  1.00  0.00     0.014 C 
BRANCH   9  10
ATOM     10  C   UNL A   1      30.595  26.703  25.734  1.00  0.00    -0.024 A 
ATOM     11  C   UNL A   1      31.991  28.689  26.058  1.00  0.00    -0.047 A 
ATOM     12  C   UNL A   1      31.496  27.452  26.504  1.00  0.00     0.011 A 
ATOM     13  C   UNL A   1      31.571  29.164  24.809  1.00  0.00     0.016 A 
ATOM     14  C   UNL A   1      30.691  28.417  24.012  1.00  0.00     0.023 A 
ATOM     15  C   UNL A   1      30.194  27.198  24.488  1.00  0.00     0.020 A 
BRANCH  11  16
ATOM     16  C   UNL A   1      33.043  29.395  26.884  1.00  0.00     0.032 C 
ATOM     17  C   UNL A   1      34.452  28.819  26.818  1.00  0.00     0.009 C 
ENDBRANCH  11  16
BRANCH  14  18
ATOM     18  C   UNL A   1      30.264  28.879  22.658  1.00  0.00     0.193 C 
ATOM     19  O   UNL A   1      30.571  28.238  21.656  1.00  0.00    -0.289 OA
BRANCH  18  20
ATOM     20  C   UNL A   1      29.444  30.101  22.498  1.00  0.00     0.022 A 
ATOM     21  C   UNL A   1      29.042  30.790  23.645  1.00  0.00     0.012 A 
ATOM     22  C   UNL A   1      29.098  30.576  21.227  1.00  0.00     0.012 A 
ATOM     23  C   UNL A   1      28.343  31.990  23.519  1.00  0.00     0.001 A 
ATOM     24  C   UNL A   1      28.401  31.779  21.108  1.00  0.00     0.001 A 
ATOM     25  C   UNL A   1      28.034  32.489  22.252  1.00  0.00     0.000 A 
ENDBRANCH  18  20
ENDBRANCH  14  18
ENDBRANCH   9  10
ENDBRANCH   5   8
ENDBRANCH   3   4
ENDBRANCH   2   3
ENDBRANCH   1   2
BRANCH   1  26
ATOM     26  C   UNL A   1      35.612  21.916  24.271  1.00  0.00     0.002 C 
BRANCH  26  27
ATOM     27  C   UNL A   1      35.542  23.405  24.623  1.00  0.00     0.021 C 
BRANCH  27  28
ATOM     28  C   UNL A   1      36.771  23.934  25.355  1.00  0.00     0.116 C 
BRANCH  28  29
ATOM     29  N   UNL A   1      37.762  22.890  25.562  1.00  0.00    -0.352 N 
ATOM     30  C   UNL A   1      39.027  22.983  26.084  1.00  0.00     0.251 C 
ATOM     31  H   UNL A   1      37.485  21.986  25.289  1.00  0.00     0.163 HD
ATOM     32  O   UNL A   1      39.816  22.053  25.966  1.00  0.00    -0.269 OA
BRANCH  30  33
ATOM     33  C   UNL A   1      39.440  24.216  26.786  1.00  0.00     0.039 A 
ATOM     34  C   UNL A   1      40.192  25.169  26.095  1.00  0.00     0.014 A 
ATOM     35  C   UNL A   1      39.107  24.417  28.129  1.00  0.00     0.014 A 
ATOM     36  C   UNL A   1      40.570  26.348  26.740  1.00  0.00     0.010 A 
ATOM     37  C   UNL A   1      39.423  25.622  28.748  1.00  0.00     0.010 A 
ATOM     38  C   UNL A   1      40.166  26.595  28.062  1.00  0.00    -0.014 A 
BRANCH  38  39
ATOM     39  C   UNL A   1      40.518  27.861  28.750  1.00  0.00     0.031 A 
ATOM     40  C   UNL A   1      41.872  28.026  29.383  1.00  0.00     0.074 A 
ATOM     41  C   UNL A   1      39.597  28.838  28.856  1.00  0.00     0.049 A 
ATOM     42  N   UNL A   1      42.342  29.034  30.073  1.00  0.00    -0.248 NA
ATOM     43  C   UNL A   1      42.811  26.902  29.242  1.00  0.00     0.031 C 
ATOM     44  C   UNL A   1      38.236  28.783  28.318  1.00  0.00     0.029 A 
ATOM     45  N   UNL A   1      39.667  30.067  29.462  1.00  0.00    -0.354 N 
ATOM     46  C   UNL A   1      43.622  28.658  30.462  1.00  0.00     0.074 A 
ATOM     47  C   UNL A   1      43.836  27.314  29.974  1.00  0.00     0.031 C 
ATOM     48  C   UNL A   1      37.608  29.937  28.596  1.00  0.00     0.029 A 
ATOM     49  C   UNL A   1      38.505  30.794  29.364  1.00  0.00     0.049 A 
ATOM     50  H   UNL A   1      40.471  30.396  29.923  1.00  0.00     0.167 HD
ATOM     51  C   UNL A   1      44.544  29.374  31.149  1.00  0.00     0.031 A 
ATOM     52  C   UNL A   1      38.196  32.013  29.844  1.00  0.00     0.031 A 
ATOM     53  C   UNL A   1      44.333  30.715  31.627  1.00  0.00     0.049 A 
ATOM     54  C   UNL A   1      39.231  32.782  30.617  1.00  0.00     0.074 A 
ATOM     55  C   UNL A   1      45.224  31.546  32.284  1.00  0.00     0.029 A 
ATOM     56  N   UNL A   1      43.146  31.419  31.501  1.00  0.00    -0.354 N 
ATOM     57  N   UNL A   1      40.460  32.439  30.917  1.00  0.00    -0.248 NA
ATOM     58  C   UNL A   1      38.838  34.110  31.106  1.00  0.00     0.031 C 
ATOM     59  C   UNL A   1      44.558  32.735  32.600  1.00  0.00     0.029 A 
ATOM     60  C   UNL A   1      43.271  32.665  32.090  1.00  0.00     0.049 A 
ATOM     61  H   UNL A   1      42.333  31.081  31.059  1.00  0.00     0.167 HD
ATOM     62  C   UNL A   1      40.996  33.521  31.604  1.00  0.00     0.074 A 
ATOM     63  C   UNL A   1      39.963  34.534  31.662  1.00  0.00     0.031 C 
ATOM     64  C   UNL A   1      42.233  33.661  32.139  1.00  0.00     0.031 A 
BRANCH  51  65
ATOM     65  C   UNL A   1      45.865  28.713  31.430  1.00  0.00    -0.014 A 
ATOM     66  C   UNL A   1      46.970  28.904  30.585  1.00  0.00     0.009 A 
ATOM     67  C   UNL A   1      46.017  27.915  32.575  1.00  0.00     0.009 A 
ATOM     68  C   UNL A   1      48.188  28.277  30.858  1.00  0.00     0.001 A 
ATOM     69  C   UNL A   1      47.244  27.315  32.862  1.00  0.00     0.001 A 
ATOM     70  C   UNL A   1      48.325  27.487  31.998  1.00  0.00     0.000 A 
ENDBRANCH  51  65
BRANCH  52  71
ATOM     71  C   UNL A   1      36.849  32.591  29.596  1.00  0.00    -0.014 A 
ATOM     72  C   UNL A   1      35.845  32.501  30.572  1.00  0.00     0.009 A 
ATOM     73  C   UNL A   1      36.558  33.231  28.381  1.00  0.00     0.009 A 
ATOM     74  C   UNL A   1      34.571  33.017  30.327  1.00  0.00     0.001 A 
ATOM     75  C   UNL A   1      35.292  33.772  28.150  1.00  0.00     0.001 A 
ATOM     76  C   UNL A   1      34.296  33.655  29.119  1.00  0.00     0.000 A 
ENDBRANCH  52  71
BRANCH  64  77
ATOM     77  C   UNL A   1      42.550  34.973  32.801  1.00  0.00    -0.014 A 
ATOM     78  C   UNL A   1      43.284  35.968  32.137  1.00  0.00     0.009 A 
ATOM     79  C   UNL A   1      42.071  35.229  34.095  1.00  0.00     0.009 A 
ATOM     80  C   UNL A   1      43.560  37.181  32.770  1.00  0.00     0.001 A 
ATOM     81  C   UNL A   1      42.323  36.455  34.714  1.00  0.00     0.001 A 
ATOM     82  C   UNL A   1      43.075  37.426  34.055  1.00  0.00     0.000 A 
ENDBRANCH  64  77
ENDBRANCH  38  39
ENDBRANCH  30  33
ENDBRANCH  28  29
ENDBRANCH  27  28
ENDBRANCH  26  27
ENDBRANCH   1  26
TORSDOF 17
ENDMDL
MODEL 3
REMARK VINA RESULT:     -10.6      0.911      5.924
REMARK SMILES CCc1cc(/C=C/C(=O)NCCCCCCNC(=O)c2ccc(-c3c4nc(c(-c5ccccc5)c5ccc([nH]5)c(-c5ccccc5)c5nc(c(-c6ccccc6)c6ccc3[nH]6)C=C5)C=C4)cc2)cc(C(=O)c2ccccc2)c1
REMARK SMILES IDX 13 1 12 2 11 3 10 4 8 5 9 6 7 8 6 9 5 10 3 11 4 12 78 13
REMARK SMILES IDX 69 14 68 15 2 16 1 17 70 18 71 19 72 20 73 21 77 22 74 23
REMARK SMILES IDX 76 24 75 25 14 26 15 27 16 28 17 29 18 30 19 32 20 33 21 34
REMARK SMILES IDX 67 35 22 36 66 37 23 38 24 39 25 40 60 41 26 42 65 43 59 44
REMARK SMILES IDX 61 45 27 46 64 47 58 48 57 49 28 51 50 52 35 53 49 54 36 55
REMARK SMILES IDX 39 56 48 57 62 58 37 59 38 60 47 62 63 63 40 64 29 65 30 66
REMARK SMILES IDX 34 67 31 68 33 69 32 70 51 71 52 72 56 73 53 74 55 75 54 76
REMARK SMILES IDX 41 77 42 78 46 79 43 80 45 81 44 82
REMARK H PARENT 10 7 17 31 61 50 39 61
REMARK Flexibility Score: inf
ROOT
ATOM      1  C   UNL A   1      34.664  21.067  25.124  1.00  0.00     0.002 C 
ENDROOT
BRANCH   1   2
ATOM      2  C   UNL A   1      33.199  21.513  25.238  1.00  0.00     0.021 C 
BRANCH   2   3
ATOM      3  C   UNL A   1      32.959  22.543  26.345  1.00  0.00     0.116 C 
BRANCH   3   4
ATOM      4  N   UNL A   1      31.640  22.368  26.922  1.00  0.00    -0.353 N 
ATOM      5  C   UNL A   1      30.540  23.160  26.913  1.00  0.00     0.243 C 
ATOM      6  O   UNL A   1      29.503  22.749  27.434  1.00  0.00    -0.270 OA
ATOM      7  H   UNL A   1      31.524  21.520  27.409  1.00  0.00     0.163 HD
BRANCH   5   8
ATOM      8  C   UNL A   1      30.518  24.477  26.232  1.00  0.00     0.072 C 
ATOM      9  C   UNL A   1      29.848  24.775  25.110  1.00  0.00     0.014 C 
BRANCH   9  10
ATOM     10  C   UNL A   1      29.905  26.076  24.429  1.00  0.00    -0.024 A 
ATOM     11  C   UNL A   1      28.804  27.984  23.358  1.00  0.00    -0.047 A 
ATOM     12  C   UNL A   1      28.756  26.694  23.915  1.00  0.00     0.011 A 
ATOM     13  C   UNL A   1      30.034  28.655  23.335  1.00  0.00     0.016 A 
ATOM     14  C   UNL A   1      31.188  28.064  23.868  1.00  0.00     0.023 A 
ATOM     15  C   UNL A   1      31.120  26.769  24.396  1.00  0.00     0.020 A 
BRANCH  11  16
ATOM     16  C   UNL A   1      27.513  28.639  22.921  1.00  0.00     0.032 C 
ATOM     17  C   UNL A   1      27.446  30.155  23.057  1.00  0.00     0.009 C 
ENDBRANCH  11  16
BRANCH  14  18
ATOM     18  C   UNL A   1      32.501  28.775  23.897  1.00  0.00     0.193 C 
ATOM     19  O   UNL A   1      33.089  29.037  22.851  1.00  0.00    -0.289 OA
BRANCH  18  20
ATOM     20  C   UNL A   1      33.105  29.199  25.179  1.00  0.00     0.022 A 
ATOM     21  C   UNL A   1      32.461  30.189  25.926  1.00  0.00     0.012 A 
ATOM     22  C   UNL A   1      34.282  28.606  25.654  1.00  0.00     0.012 A 
ATOM     23  C   UNL A   1      32.962  30.544  27.177  1.00  0.00     0.001 A 
ATOM     24  C   UNL A   1      34.777  28.965  26.908  1.00  0.00     0.001 A 
ATOM     25  C   UNL A   1      34.111  29.924  27.672  1.00  0.00     0.000 A 
ENDBRANCH  18  20
ENDBRANCH  14  18
ENDBRANCH   9  10
ENDBRANCH   5   8
ENDBRANCH   3   4
ENDBRANCH   2   3
ENDBRANCH   1   2
BRANCH   1  26
ATOM     26  C   UNL A   1      35.552  21.977  24.266  1.00  0.00     0.002 C 
BRANCH  26  27
ATOM     27  C   UNL A   1      35.514  23.460  24.645  1.00  0.00     0.021 C 
BRANCH  27  28
ATOM     28  C   UNL A   1      36.755  23.950  25.383  1.00  0.00     0.116 C 
BRANCH  28  29
ATOM     29  N   UNL A   1      37.650  22.852  25.713  1.00  0.00    -0.352 N 
ATOM     30  C   UNL A   1      38.905  22.889  26.265  1.00  0.00     0.251 C 
ATOM     31  H   UNL A   1      37.305  21.952  25.510  1.00  0.00     0.163 HD
ATOM     32  O   UNL A   1      39.617  21.892  26.255  1.00  0.00    -0.269 OA
BRANCH  30  33
ATOM     33  C   UNL A   1      39.402  24.142  26.871  1.00  0.00     0.039 A 
ATOM     34  C   UNL A   1      40.143  25.027  26.083  1.00  0.00     0.014 A 
ATOM     35  C   UNL A   1      39.157  24.430  28.216  1.00  0.00     0.014 A 
ATOM     36  C   UNL A   1      40.598  26.225  26.636  1.00  0.00     0.010 A 
ATOM     37  C   UNL A   1      39.551  25.655  28.746  1.00  0.00     0.010 A 
ATOM     38  C   UNL A   1      40.284  26.560  27.963  1.00  0.00    -0.014 A 
BRANCH  38  39
ATOM     39  C   UNL A   1      40.719  27.848  28.556  1.00  0.00     0.031 A 
ATOM     40  C   UNL A   1      39.726  28.956  28.767  1.00  0.00     0.074 A 
ATOM     41  C   UNL A   1      42.020  28.040  28.846  1.00  0.00     0.049 A 
ATOM     42  N   UNL A   1      39.926  30.168  29.219  1.00  0.00    -0.248 NA
ATOM     43  C   UNL A   1      38.329  28.674  28.402  1.00  0.00     0.031 C 
ATOM     44  C   UNL A   1      43.088  27.056  28.650  1.00  0.00     0.029 A 
ATOM     45  N   UNL A   1      42.667  29.135  29.361  1.00  0.00    -0.354 N 
ATOM     46  C   UNL A   1      38.687  30.796  29.174  1.00  0.00     0.074 A 
ATOM     47  C   UNL A   1      37.752  29.849  28.608  1.00  0.00     0.031 C 
ATOM     48  C   UNL A   1      44.251  27.583  29.065  1.00  0.00     0.029 A 
ATOM     49  C   UNL A   1      44.020  28.951  29.515  1.00  0.00     0.049 A 
ATOM     50  H   UNL A   1      42.207  29.972  29.597  1.00  0.00     0.167 HD
ATOM     51  C   UNL A   1      38.353  32.042  29.586  1.00  0.00     0.031 A 
ATOM     52  C   UNL A   1      44.968  29.794  29.964  1.00  0.00     0.031 A 
ATOM     53  C   UNL A   1      39.282  32.981  30.157  1.00  0.00     0.049 A 
ATOM     54  C   UNL A   1      44.575  31.178  30.400  1.00  0.00     0.074 A 
ATOM     55  C   UNL A   1      39.031  34.247  30.656  1.00  0.00     0.029 A 
ATOM     56  N   UNL A   1      40.641  32.754  30.303  1.00  0.00    -0.354 N 
ATOM     57  N   UNL A   1      43.387  31.732  30.416  1.00  0.00    -0.248 NA
ATOM     58  C   UNL A   1      45.653  32.047  30.891  1.00  0.00     0.031 C 
ATOM     59  C   UNL A   1      40.249  34.806  31.057  1.00  0.00     0.029 A 
ATOM     60  C   UNL A   1      41.248  33.866  30.860  1.00  0.00     0.049 A 
ATOM     61  H   UNL A   1      41.107  31.925  30.046  1.00  0.00     0.167 HD
ATOM     62  C   UNL A   1      43.570  33.003  30.944  1.00  0.00     0.074 A 
ATOM     63  C   UNL A   1      44.980  33.131  31.250  1.00  0.00     0.031 C 
ATOM     64  C   UNL A   1      42.652  33.977  31.158  1.00  0.00     0.031 A 
BRANCH  51  65
ATOM     65  C   UNL A   1      36.919  32.464  29.422  1.00  0.00    -0.014 A 
ATOM     66  C   UNL A   1      36.474  33.090  28.246  1.00  0.00     0.009 A 
ATOM     67  C   UNL A   1      35.992  32.201  30.443  1.00  0.00     0.009 A 
ATOM     68  C   UNL A   1      35.139  33.481  28.113  1.00  0.00     0.001 A 
ATOM     69  C   UNL A   1      34.652  32.566  30.294  1.00  0.00     0.001 A 
ATOM     70  C   UNL A   1      34.230  33.214  29.134  1.00  0.00     0.000 A 
ENDBRANCH  51  65
BRANCH  52  71
ATOM     71  C   UNL A   1      46.385  29.348  30.040  1.00  0.00    -0.014 A 
ATOM     72  C   UNL A   1      47.247  29.531  28.949  1.00  0.00     0.009 A 
ATOM     73  C   UNL A   1      46.880  28.734  31.201  1.00  0.00     0.009 A 
ATOM     74  C   UNL A   1      48.569  29.085  29.009  1.00  0.00     0.001 A 
ATOM     75  C   UNL A   1      48.210  28.315  31.269  1.00  0.00     0.001 A 
ATOM     76  C   UNL A   1      49.051  28.481  30.169  1.00  0.00     0.000 A 
ENDBRANCH  52  71
BRANCH  64  77
ATOM     77  C   UNL A   1      43.139  35.253  31.785  1.00  0.00    -0.014 A 
ATOM     78  C   UNL A   1      43.665  36.295  31.006  1.00  0.00     0.009 A 
ATOM     79  C   UNL A   1      43.032  35.428  33.174  1.00  0.00     0.009 A 
ATOM     80  C   UNL A   1      44.105  37.474  31.610  1.00  0.00     0.001 A 
ATOM     81  C   UNL A   1      43.444  36.619  33.771  1.00  0.00     0.001 A 
ATOM     82  C   UNL A   1      43.989  37.637  32.991  1.00  0.00     0.000 A 
ENDBRANCH  64  77
ENDBRANCH  38  39
ENDBRANCH  30  33
ENDBRANCH  28  29
ENDBRANCH  27  28
ENDBRANCH  26  27
ENDBRANCH   1  26
TORSDOF 17
ENDMDL
