MODEL 1
REMARK VINA RESULT:      -9.9      0.000      0.000
REMARK SMILES CCCc1noc(C2C[NH+](CC(=O)NCCCCCCNC(=O)c3ccc(-c4c5nc(c(-c6ccccc6)c6ccc([nH]6)c(-c6ccccc6)c6nc(c(-c7ccccc7)c7ccc4[nH]7)C=C6)C=C5)cc3)C2)n1
REMARK SMILES IDX 16 1 15 2 14 3 12 4 13 5 11 7 10 8 8 9 9 10 72 11 7 13 4 14
REMARK SMILES IDX 5 15 73 16 6 17 3 18 2 19 1 20 17 21 18 22 19 23 20 24 21 25
REMARK SMILES IDX 22 26 23 28 24 29 25 30 71 31 26 32 70 33 27 34 28 35 29 36
REMARK SMILES IDX 64 37 30 38 69 39 63 40 65 41 31 42 68 43 62 44 61 45 32 47
REMARK SMILES IDX 54 48 39 49 53 50 40 51 43 52 52 53 66 54 41 55 42 56 51 58
REMARK SMILES IDX 67 59 44 60 33 61 34 62 38 63 35 64 37 65 36 66 55 67 56 68
REMARK SMILES IDX 60 69 57 70 59 71 58 72 45 73 46 74 50 75 47 76 49 77 48 78
REMARK H PARENT 14 6 10 12 21 27 65 46 43 57
REMARK Flexibility Score: inf
ROOT
ATOM      1  C   UNL A   1      36.721  23.792  25.785  1.00  0.00     0.021 C 
ENDROOT
BRANCH   1   2
ATOM      2  C   UNL A   1      35.376  23.633  25.064  1.00  0.00     0.116 C 
BRANCH   2   3
ATOM      3  N   UNL A   1      34.294  23.296  25.975  1.00  0.00    -0.351 N 
ATOM      4  C   UNL A   1      33.022  23.784  26.089  1.00  0.00     0.275 C 
ATOM      5  O   UNL A   1      32.339  23.351  27.022  1.00  0.00    -0.269 OA
ATOM      6  H   UNL A   1      34.518  22.592  26.625  1.00  0.00     0.163 HD
BRANCH   4   7
ATOM      7  C   UNL A   1      32.464  24.841  25.126  1.00  0.00     0.363 C 
BRANCH   7   8
ATOM      8  N   UNL A   1      31.001  24.859  24.847  1.00  0.00    -0.325 N 
ATOM      9  C   UNL A   1      30.514  26.819  24.177  1.00  0.00     0.188 C 
ATOM     10  C   UNL A   1      30.228  25.988  25.443  1.00  0.00     0.282 C 
ATOM     11  C   UNL A   1      30.677  25.415  23.522  1.00  0.00     0.282 C 
ATOM     12  H   UNL A   1      30.793  23.897  25.116  1.00  0.00     0.348 HD
BRANCH   9  13
ATOM     13  C   UNL A   1      29.454  27.661  23.521  1.00  0.00     0.241 A 
ATOM     14  C   UNL A   1      28.290  29.242  22.796  1.00  0.00     0.171 A 
ATOM     15  N   UNL A   1      27.377  28.324  23.130  1.00  0.00    -0.062 NA
ATOM     16  N   UNL A   1      29.594  28.871  23.024  1.00  0.00    -0.196 NA
ATOM     17  O   UNL A   1      28.144  27.262  23.579  1.00  0.00    -0.339 OA
BRANCH  14  18
ATOM     18  C   UNL A   1      27.898  30.577  22.286  1.00  0.00     0.081 C 
BRANCH  18  19
ATOM     19  C   UNL A   1      28.090  31.702  23.303  1.00  0.00     0.005 C 
ATOM     20  C   UNL A   1      28.638  32.990  22.697  1.00  0.00     0.004 C 
ENDBRANCH  18  19
ENDBRANCH  14  18
ENDBRANCH   9  13
ENDBRANCH   7   8
ENDBRANCH   4   7
ENDBRANCH   2   3
ENDBRANCH   1   2
BRANCH   1  21
ATOM     21  C   UNL A   1      37.715  22.644  25.592  1.00  0.00     0.002 C 
BRANCH  21  22
ATOM     22  C   UNL A   1      37.268  21.563  24.609  1.00  0.00     0.002 C 
BRANCH  22  23
ATOM     23  C   UNL A   1      37.981  20.212  24.740  1.00  0.00     0.021 C 
BRANCH  23  24
ATOM     24  C   UNL A   1      38.784  20.009  26.026  1.00  0.00     0.116 C 
BRANCH  24  25
ATOM     25  N   UNL A   1      39.993  19.236  25.806  1.00  0.00    -0.352 N 
ATOM     26  C   UNL A   1      41.309  19.607  25.920  1.00  0.00     0.251 C 
ATOM     27  H   UNL A   1      39.846  18.301  25.532  1.00  0.00     0.163 HD
ATOM     28  O   UNL A   1      42.193  18.861  25.508  1.00  0.00    -0.269 OA
BRANCH  26  29
ATOM     29  C   UNL A   1      41.679  20.909  26.521  1.00  0.00     0.039 A 
ATOM     30  C   UNL A   1      42.060  21.950  25.669  1.00  0.00     0.014 A 
ATOM     31  C   UNL A   1      41.700  21.100  27.905  1.00  0.00     0.014 A 
ATOM     32  C   UNL A   1      42.411  23.194  26.201  1.00  0.00     0.010 A 
ATOM     33  C   UNL A   1      41.997  22.358  28.434  1.00  0.00     0.010 A 
ATOM     34  C   UNL A   1      42.356  23.418  27.587  1.00  0.00    -0.014 A 
BRANCH  34  35
ATOM     35  C   UNL A   1      42.660  24.760  28.145  1.00  0.00     0.031 A 
ATOM     36  C   UNL A   1      44.060  25.128  28.552  1.00  0.00     0.074 A 
ATOM     37  C   UNL A   1      41.660  25.649  28.307  1.00  0.00     0.049 A 
ATOM     38  N   UNL A   1      44.505  26.258  29.041  1.00  0.00    -0.248 NA
ATOM     39  C   UNL A   1      45.092  24.089  28.403  1.00  0.00     0.031 C 
ATOM     40  C   UNL A   1      40.250  25.406  27.994  1.00  0.00     0.029 A 
ATOM     41  N   UNL A   1      41.678  26.940  28.774  1.00  0.00    -0.354 N 
ATOM     42  C   UNL A   1      45.864  26.067  29.260  1.00  0.00     0.074 A 
ATOM     43  C   UNL A   1      46.162  24.699  28.895  1.00  0.00     0.031 C 
ATOM     44  C   UNL A   1      39.545  26.520  28.250  1.00  0.00     0.029 A 
ATOM     45  C   UNL A   1      40.445  27.544  28.770  1.00  0.00     0.049 A 
ATOM     46  H   UNL A   1      42.498  27.390  29.082  1.00  0.00     0.167 HD
ATOM     47  C   UNL A   1      46.786  26.956  29.705  1.00  0.00     0.031 A 
ATOM     48  C   UNL A   1      40.078  28.787  29.137  1.00  0.00     0.031 A 
ATOM     49  C   UNL A   1      46.499  28.318  30.067  1.00  0.00     0.049 A 
ATOM     50  C   UNL A   1      41.121  29.750  29.626  1.00  0.00     0.074 A 
ATOM     51  C   UNL A   1      47.376  29.300  30.497  1.00  0.00     0.029 A 
ATOM     52  N   UNL A   1      45.239  28.893  30.041  1.00  0.00    -0.354 N 
ATOM     53  N   UNL A   1      42.411  29.569  29.770  1.00  0.00    -0.248 NA
ATOM     54  C   UNL A   1      40.657  31.097  29.989  1.00  0.00     0.031 C 
ATOM     55  C   UNL A   1      46.639  30.460  30.764  1.00  0.00     0.029 A 
ATOM     56  C   UNL A   1      45.312  30.211  30.458  1.00  0.00     0.049 A 
ATOM     57  H   UNL A   1      44.412  28.432  29.765  1.00  0.00     0.167 HD
ATOM     58  C   UNL A   1      42.915  30.782  30.219  1.00  0.00     0.074 A 
ATOM     59  C   UNL A   1      41.796  31.699  30.301  1.00  0.00     0.031 C 
ATOM     60  C   UNL A   1      44.190  31.108  30.540  1.00  0.00     0.031 A 
BRANCH  47  61
ATOM     61  C   UNL A   1      48.206  26.479  29.818  1.00  0.00    -0.014 A 
ATOM     62  C   UNL A   1      49.097  26.605  28.739  1.00  0.00     0.009 A 
ATOM     63  C   UNL A   1      48.678  25.953  31.031  1.00  0.00     0.009 A 
ATOM     64  C   UNL A   1      50.423  26.188  28.864  1.00  0.00     0.001 A 
ATOM     65  C   UNL A   1      50.011  25.558  31.160  1.00  0.00     0.001 A 
ATOM     66  C   UNL A   1      50.881  25.670  30.075  1.00  0.00     0.000 A 
ENDBRANCH  47  61
BRANCH  48  67
ATOM     67  C   UNL A   1      38.655  29.203  29.044  1.00  0.00    -0.014 A 
ATOM     68  C   UNL A   1      37.808  29.105  30.159  1.00  0.00     0.009 A 
ATOM     69  C   UNL A   1      38.130  29.674  27.831  1.00  0.00     0.009 A 
ATOM     70  C   UNL A   1      36.457  29.439  30.053  1.00  0.00     0.001 A 
ATOM     71  C   UNL A   1      36.784  30.035  27.735  1.00  0.00     0.001 A 
ATOM     72  C   UNL A   1      35.948  29.907  28.842  1.00  0.00     0.000 A 
ENDBRANCH  48  67
BRANCH  60  73
ATOM     73  C   UNL A   1      44.438  32.520  30.987  1.00  0.00    -0.014 A 
ATOM     74  C   UNL A   1      44.361  32.877  32.342  1.00  0.00     0.009 A 
ATOM     75  C   UNL A   1      44.767  33.503  30.040  1.00  0.00     0.009 A 
ATOM     76  C   UNL A   1      44.567  34.200  32.736  1.00  0.00     0.001 A 
ATOM     77  C   UNL A   1      44.997  34.820  30.440  1.00  0.00     0.001 A 
ATOM     78  C   UNL A   1      44.887  35.169  31.786  1.00  0.00     0.000 A 
ENDBRANCH  60  73
ENDBRANCH  34  35
ENDBRANCH  26  29
ENDBRANCH  24  25
ENDBRANCH  23  24
ENDBRANCH  22  23
ENDBRANCH  21  22
ENDBRANCH   1  21
TORSDOF 17
ENDMDL
MODEL 2
REMARK VINA RESULT:      -9.8      1.318      6.182
REMARK SMILES CCCc1noc(C2C[NH+](CC(=O)NCCCCCCNC(=O)c3ccc(-c4c5nc(c(-c6ccccc6)c6ccc([nH]6)c(-c6ccccc6)c6nc(c(-c7ccccc7)c7ccc4[nH]7)C=C6)C=C5)cc3)C2)n1
REMARK SMILES IDX 16 1 15 2 14 3 12 4 13 5 11 7 10 8 8 9 9 10 72 11 7 13 4 14
REMARK SMILES IDX 5 15 73 16 6 17 3 18 2 19 1 20 17 21 18 22 19 23 20 24 21 25
REMARK SMILES IDX 22 26 23 28 24 29 25 30 71 31 26 32 70 33 27 34 28 35 29 36
REMARK SMILES IDX 64 37 30 38 69 39 63 40 65 41 31 42 68 43 62 44 61 45 32 47
REMARK SMILES IDX 54 48 39 49 53 50 40 51 43 52 52 53 66 54 41 55 42 56 51 58
REMARK SMILES IDX 67 59 44 60 33 61 34 62 38 63 35 64 37 65 36 66 55 67 56 68
REMARK SMILES IDX 60 69 57 70 59 71 58 72 45 73 46 74 50 75 47 76 49 77 48 78
REMARK H PARENT 14 6 10 12 21 27 65 46 43 57
REMARK Flexibility Score: inf
ROOT
ATOM      1  C   UNL A   1      34.824  21.114  24.797  1.00  0.00     0.021 C 
ENDROOT
BRANCH   1   2
ATOM      2  C   UNL A   1      34.104  22.466  24.708  1.00  0.00     0.116 C 
BRANCH   2   3
ATOM      3  N   UNL A   1      34.066  22.987  23.351  1.00  0.00    -0.351 N 
ATOM      4  C   UNL A   1      33.044  23.516  22.612  1.00  0.00     0.275 C 
ATOM      5  O   UNL A   1      33.296  23.811  21.440  1.00  0.00    -0.269 OA
ATOM      6  H   UNL A   1      34.930  22.951  22.880  1.00  0.00     0.163 HD
BRANCH   4   7
ATOM      7  C   UNL A   1      31.637  23.714  23.192  1.00  0.00     0.363 C 
BRANCH   7   8
ATOM      8  N   UNL A   1      31.363  24.926  24.014  1.00  0.00    -0.325 N 
ATOM      9  C   UNL A   1      30.785  26.475  22.676  1.00  0.00     0.188 C 
ATOM     10  C   UNL A   1      32.011  26.192  23.565  1.00  0.00     0.282 C 
ATOM     11  C   UNL A   1      30.064  25.549  23.701  1.00  0.00     0.282 C 
ATOM     12  H   UNL A   1      31.586  24.531  24.928  1.00  0.00     0.348 HD
BRANCH   9  13
ATOM     13  C   UNL A   1      30.170  27.845  22.580  1.00  0.00     0.241 A 
ATOM     14  C   UNL A   1      28.849  29.464  22.462  1.00  0.00     0.171 A 
ATOM     15  N   UNL A   1      29.867  29.848  21.685  1.00  0.00    -0.062 NA
ATOM     16  N   UNL A   1      28.996  28.224  23.038  1.00  0.00    -0.196 NA
ATOM     17  O   UNL A   1      30.759  28.795  21.786  1.00  0.00    -0.339 OA
BRANCH  14  18
ATOM     18  C   UNL A   1      27.635  30.299  22.622  1.00  0.00     0.081 C 
BRANCH  18  19
ATOM     19  C   UNL A   1      27.816  31.463  23.596  1.00  0.00     0.005 C 
ATOM     20  C   UNL A   1      28.528  32.667  22.987  1.00  0.00     0.004 C 
ENDBRANCH  18  19
ENDBRANCH  14  18
ENDBRANCH   9  13
ENDBRANCH   7   8
ENDBRANCH   4   7
ENDBRANCH   2   3
ENDBRANCH   1   2
BRANCH   1  21
ATOM     21  C   UNL A   1      36.183  21.134  25.502  1.00  0.00     0.002 C 
BRANCH  21  22
ATOM     22  C   UNL A   1      37.394  21.070  24.571  1.00  0.00     0.002 C 
BRANCH  22  23
ATOM     23  C   UNL A   1      38.356  19.901  24.814  1.00  0.00     0.021 C 
BRANCH  23  24
ATOM     24  C   UNL A   1      39.273  20.040  26.029  1.00  0.00     0.116 C 
BRANCH  24  25
ATOM     25  N   UNL A   1      40.444  19.187  25.939  1.00  0.00    -0.352 N 
ATOM     26  C   UNL A   1      41.774  19.497  26.075  1.00  0.00     0.251 C 
ATOM     27  H   UNL A   1      40.255  18.239  25.750  1.00  0.00     0.163 HD
ATOM     28  O   UNL A   1      42.629  18.668  25.775  1.00  0.00    -0.269 OA
BRANCH  26  29
ATOM     29  C   UNL A   1      42.194  20.830  26.563  1.00  0.00     0.039 A 
ATOM     30  C   UNL A   1      42.653  21.766  25.631  1.00  0.00     0.014 A 
ATOM     31  C   UNL A   1      42.185  21.150  27.924  1.00  0.00     0.014 A 
ATOM     32  C   UNL A   1      43.053  23.035  26.056  1.00  0.00     0.010 A 
ATOM     33  C   UNL A   1      42.533  22.437  28.342  1.00  0.00     0.010 A 
ATOM     34  C   UNL A   1      42.971  23.392  27.412  1.00  0.00    -0.014 A 
BRANCH  34  35
ATOM     35  C   UNL A   1      43.328  24.765  27.853  1.00  0.00     0.031 A 
ATOM     36  C   UNL A   1      42.261  25.788  28.130  1.00  0.00     0.074 A 
ATOM     37  C   UNL A   1      44.627  25.099  27.984  1.00  0.00     0.049 A 
ATOM     38  N   UNL A   1      42.393  27.026  28.537  1.00  0.00    -0.248 NA
ATOM     39  C   UNL A   1      40.866  25.374  27.909  1.00  0.00     0.031 C 
ATOM     40  C   UNL A   1      45.762  24.216  27.706  1.00  0.00     0.029 A 
ATOM     41  N   UNL A   1      45.211  26.274  28.389  1.00  0.00    -0.354 N 
ATOM     42  C   UNL A   1      41.105  27.538  28.619  1.00  0.00     0.074 A 
ATOM     43  C   UNL A   1      40.206  26.494  28.175  1.00  0.00     0.031 C 
ATOM     44  C   UNL A   1      46.903  24.870  27.976  1.00  0.00     0.029 A 
ATOM     45  C   UNL A   1      46.584  26.223  28.418  1.00  0.00     0.049 A 
ATOM     46  H   UNL A   1      44.696  27.075  28.635  1.00  0.00     0.167 HD
ATOM     47  C   UNL A   1      40.701  28.760  29.045  1.00  0.00     0.031 A 
ATOM     48  C   UNL A   1      47.486  27.160  28.768  1.00  0.00     0.031 A 
ATOM     49  C   UNL A   1      41.586  29.803  29.491  1.00  0.00     0.049 A 
ATOM     50  C   UNL A   1      47.010  28.505  29.237  1.00  0.00     0.074 A 
ATOM     51  C   UNL A   1      41.264  31.062  29.971  1.00  0.00     0.029 A 
ATOM     52  N   UNL A   1      42.968  29.708  29.512  1.00  0.00    -0.354 N 
ATOM     53  N   UNL A   1      45.784  28.950  29.363  1.00  0.00    -0.248 NA
ATOM     54  C   UNL A   1      48.046  29.472  29.625  1.00  0.00     0.031 C 
ATOM     55  C   UNL A   1      42.455  31.741  30.250  1.00  0.00     0.029 A 
ATOM     56  C   UNL A   1      43.514  30.890  29.985  1.00  0.00     0.049 A 
ATOM     57  H   UNL A   1      43.486  28.918  29.233  1.00  0.00     0.167 HD
ATOM     58  C   UNL A   1      45.900  30.239  29.865  1.00  0.00     0.074 A 
ATOM     59  C   UNL A   1      47.314  30.496  30.043  1.00  0.00     0.031 C 
ATOM     60  C   UNL A   1      44.923  31.133  30.150  1.00  0.00     0.031 A 
BRANCH  47  61
ATOM     61  C   UNL A   1      39.224  29.035  29.057  1.00  0.00    -0.014 A 
ATOM     62  C   UNL A   1      38.456  28.799  30.209  1.00  0.00     0.009 A 
ATOM     63  C   UNL A   1      38.601  29.588  27.927  1.00  0.00     0.009 A 
ATOM     64  C   UNL A   1      37.091  29.086  30.220  1.00  0.00     0.001 A 
ATOM     65  C   UNL A   1      37.240  29.896  27.950  1.00  0.00     0.001 A 
ATOM     66  C   UNL A   1      36.484  29.639  29.093  1.00  0.00     0.000 A 
ENDBRANCH  47  61
BRANCH  48  67
ATOM     67  C   UNL A   1      48.938  26.857  28.705  1.00  0.00    -0.014 A 
ATOM     68  C   UNL A   1      49.667  27.097  27.530  1.00  0.00     0.009 A 
ATOM     69  C   UNL A   1      49.597  26.299  29.811  1.00  0.00     0.009 A 
ATOM     70  C   UNL A   1      51.019  26.755  27.453  1.00  0.00     0.001 A 
ATOM     71  C   UNL A   1      50.957  25.984  29.741  1.00  0.00     0.001 A 
ATOM     72  C   UNL A   1      51.662  26.202  28.559  1.00  0.00     0.000 A 
ENDBRANCH  48  67
BRANCH  60  73
ATOM     73  C   UNL A   1      45.356  32.460  30.703  1.00  0.00    -0.014 A 
ATOM     74  C   UNL A   1      45.677  33.531  29.853  1.00  0.00     0.009 A 
ATOM     75  C   UNL A   1      45.433  32.646  32.092  1.00  0.00     0.009 A 
ATOM     76  C   UNL A   1      46.105  34.748  30.383  1.00  0.00     0.001 A 
ATOM     77  C   UNL A   1      45.837  33.873  32.619  1.00  0.00     0.001 A 
ATOM     78  C   UNL A   1      46.183  34.919  31.765  1.00  0.00     0.000 A 
ENDBRANCH  60  73
ENDBRANCH  34  35
ENDBRANCH  26  29
ENDBRANCH  24  25
ENDBRANCH  23  24
ENDBRANCH  22  23
ENDBRANCH  21  22
ENDBRANCH   1  21
TORSDOF 17
ENDMDL
MODEL 3
REMARK VINA RESULT:      -9.8      2.368      6.960
REMARK SMILES CCCc1noc(C2C[NH+](CC(=O)NCCCCCCNC(=O)c3ccc(-c4c5nc(c(-c6ccccc6)c6ccc([nH]6)c(-c6ccccc6)c6nc(c(-c7ccccc7)c7ccc4[nH]7)C=C6)C=C5)cc3)C2)n1
REMARK SMILES IDX 16 1 15 2 14 3 12 4 13 5 11 7 10 8 8 9 9 10 72 11 7 13 4 14
REMARK SMILES IDX 5 15 73 16 6 17 3 18 2 19 1 20 17 21 18 22 19 23 20 24 21 25
REMARK SMILES IDX 22 26 23 28 24 29 25 30 71 31 26 32 70 33 27 34 28 35 29 36
REMARK SMILES IDX 64 37 30 38 69 39 63 40 65 41 31 42 68 43 62 44 61 45 32 47
REMARK SMILES IDX 54 48 39 49 53 50 40 51 43 52 52 53 66 54 41 55 42 56 51 58
REMARK SMILES IDX 67 59 44 60 33 61 34 62 38 63 35 64 37 65 36 66 55 67 56 68
REMARK SMILES IDX 60 69 57 70 59 71 58 72 45 73 46 74 50 75 47 76 49 77 48 78
REMARK H PARENT 14 6 10 12 21 27 65 46 43 57
REMARK Flexibility Score: inf
ROOT
ATOM      1  C   UNL A   1      33.928  21.926  25.439  1.00  0.00     0.021 C 
ENDROOT
BRANCH   1   2
ATOM      2  C   UNL A   1      32.559  21.235  25.486  1.00  0.00     0.116 C 
BRANCH   2   3
ATOM      3  N   UNL A   1      31.639  21.887  26.403  1.00  0.00    -0.351 N 
ATOM      4  C   UNL A   1      30.915  23.041  26.291  1.00  0.00     0.275 C 
ATOM      5  O   UNL A   1      30.263  23.391  27.280  1.00  0.00    -0.269 OA
ATOM      6  H   UNL A   1      31.515  21.413  27.257  1.00  0.00     0.163 HD
BRANCH   4   7
ATOM      7  C   UNL A   1      30.924  23.888  25.011  1.00  0.00     0.363 C 
BRANCH   7   8
ATOM      8  N   UNL A   1      31.340  25.316  25.097  1.00  0.00    -0.325 N 
ATOM      9  C   UNL A   1      30.287  26.369  23.578  1.00  0.00     0.188 C 
ATOM     10  C   UNL A   1      31.754  25.963  23.818  1.00  0.00     0.282 C 
ATOM     11  C   UNL A   1      30.197  26.246  25.128  1.00  0.00     0.282 C 
ATOM     12  H   UNL A   1      32.006  25.225  25.864  1.00  0.00     0.348 HD
BRANCH   9  13
ATOM     13  C   UNL A   1      29.912  27.734  23.068  1.00  0.00     0.241 A 
ATOM     14  C   UNL A   1      28.899  29.399  22.306  1.00  0.00     0.171 A 
ATOM     15  N   UNL A   1      30.117  29.515  21.767  1.00  0.00    -0.062 NA
ATOM     16  N   UNL A   1      28.728  28.305  23.121  1.00  0.00    -0.196 NA
ATOM     17  O   UNL A   1      30.802  28.434  22.294  1.00  0.00    -0.339 OA
BRANCH  14  18
ATOM     18  C   UNL A   1      27.812  30.352  21.980  1.00  0.00     0.081 C 
BRANCH  18  19
ATOM     19  C   UNL A   1      28.298  31.786  21.767  1.00  0.00     0.005 C 
ATOM     20  C   UNL A   1      27.902  32.373  20.416  1.00  0.00     0.004 C 
ENDBRANCH  18  19
ENDBRANCH  14  18
ENDBRANCH   9  13
ENDBRANCH   7   8
ENDBRANCH   4   7
ENDBRANCH   2   3
ENDBRANCH   1   2
BRANCH   1  21
ATOM     21  C   UNL A   1      35.125  21.007  25.180  1.00  0.00     0.002 C 
BRANCH  21  22
ATOM     22  C   UNL A   1      36.174  21.568  24.222  1.00  0.00     0.002 C 
BRANCH  22  23
ATOM     23  C   UNL A   1      36.330  23.093  24.228  1.00  0.00     0.021 C 
BRANCH  23  24
ATOM     24  C   UNL A   1      37.280  23.658  25.284  1.00  0.00     0.116 C 
BRANCH  24  25
ATOM     25  N   UNL A   1      38.368  22.747  25.594  1.00  0.00    -0.352 N 
ATOM     26  C   UNL A   1      39.566  22.984  26.219  1.00  0.00     0.251 C 
ATOM     27  H   UNL A   1      38.223  21.815  25.311  1.00  0.00     0.163 HD
ATOM     28  O   UNL A   1      40.437  22.119  26.219  1.00  0.00    -0.269 OA
BRANCH  26  29
ATOM     29  C   UNL A   1      39.830  24.283  26.880  1.00  0.00     0.039 A 
ATOM     30  C   UNL A   1      39.341  24.481  28.175  1.00  0.00     0.014 A 
ATOM     31  C   UNL A   1      40.506  25.316  26.225  1.00  0.00     0.014 A 
ATOM     32  C   UNL A   1      39.576  25.693  28.830  1.00  0.00     0.010 A 
ATOM     33  C   UNL A   1      40.787  26.506  26.901  1.00  0.00     0.010 A 
ATOM     34  C   UNL A   1      40.324  26.706  28.210  1.00  0.00    -0.014 A 
BRANCH  34  35
ATOM     35  C   UNL A   1      40.634  27.965  28.936  1.00  0.00     0.031 A 
ATOM     36  C   UNL A   1      39.622  29.075  29.021  1.00  0.00     0.074 A 
ATOM     37  C   UNL A   1      41.846  28.118  29.505  1.00  0.00     0.049 A 
ATOM     38  N   UNL A   1      39.719  30.232  29.626  1.00  0.00    -0.248 NA
ATOM     39  C   UNL A   1      38.342  28.865  28.326  1.00  0.00     0.031 C 
ATOM     40  C   UNL A   1      42.933  27.138  29.461  1.00  0.00     0.029 A 
ATOM     41  N   UNL A   1      42.365  29.157  30.237  1.00  0.00    -0.354 N 
ATOM     42  C   UNL A   1      38.518  30.888  29.384  1.00  0.00     0.074 A 
ATOM     43  C   UNL A   1      37.726  30.020  28.539  1.00  0.00     0.031 C 
ATOM     44  C   UNL A   1      43.978  27.610  30.159  1.00  0.00     0.029 A 
ATOM     45  C   UNL A   1      43.647  28.934  30.676  1.00  0.00     0.049 A 
ATOM     46  H   UNL A   1      41.865  29.983  30.429  1.00  0.00     0.167 HD
ATOM     47  C   UNL A   1      38.102  32.095  29.841  1.00  0.00     0.031 A 
ATOM     48  C   UNL A   1      44.464  29.705  31.418  1.00  0.00     0.031 A 
ATOM     49  C   UNL A   1      38.881  32.962  30.684  1.00  0.00     0.049 A 
ATOM     50  C   UNL A   1      43.975  31.037  31.911  1.00  0.00     0.074 A 
ATOM     51  C   UNL A   1      38.527  34.188  31.222  1.00  0.00     0.029 A 
ATOM     52  N   UNL A   1      40.171  32.695  31.113  1.00  0.00    -0.354 N 
ATOM     53  N   UNL A   1      42.814  31.614  31.721  1.00  0.00    -0.248 NA
ATOM     54  C   UNL A   1      44.909  31.818  32.736  1.00  0.00     0.031 C 
ATOM     55  C   UNL A   1      39.619  34.679  31.949  1.00  0.00     0.029 A 
ATOM     56  C   UNL A   1      40.633  33.737  31.898  1.00  0.00     0.049 A 
ATOM     57  H   UNL A   1      40.684  31.883  30.892  1.00  0.00     0.167 HD
ATOM     58  C   UNL A   1      42.870  32.813  32.418  1.00  0.00     0.074 A 
ATOM     59  C   UNL A   1      44.170  32.871  33.055  1.00  0.00     0.031 C 
ATOM     60  C   UNL A   1      41.930  33.784  32.519  1.00  0.00     0.031 A 
BRANCH  47  61
ATOM     61  C   UNL A   1      36.726  32.547  29.441  1.00  0.00    -0.014 A 
ATOM     62  C   UNL A   1      35.616  32.289  30.262  1.00  0.00     0.009 A 
ATOM     63  C   UNL A   1      36.544  33.289  28.264  1.00  0.00     0.009 A 
ATOM     64  C   UNL A   1      34.347  32.740  29.897  1.00  0.00     0.001 A 
ATOM     65  C   UNL A   1      35.277  33.760  27.914  1.00  0.00     0.001 A 
ATOM     66  C   UNL A   1      34.178  33.480  28.726  1.00  0.00     0.000 A 
ENDBRANCH  47  61
BRANCH  48  67
ATOM     67  C   UNL A   1      45.830  29.233  31.758  1.00  0.00    -0.014 A 
ATOM     68  C   UNL A   1      46.062  28.504  32.935  1.00  0.00     0.009 A 
ATOM     69  C   UNL A   1      46.915  29.532  30.920  1.00  0.00     0.009 A 
ATOM     70  C   UNL A   1      47.357  28.113  33.283  1.00  0.00     0.001 A 
ATOM     71  C   UNL A   1      48.206  29.115  31.256  1.00  0.00     0.001 A 
ATOM     72  C   UNL A   1      48.426  28.417  32.442  1.00  0.00     0.000 A 
ENDBRANCH  48  67
BRANCH  60  73
ATOM     73  C   UNL A   1      42.272  34.975  33.366  1.00  0.00    -0.014 A 
ATOM     74  C   UNL A   1      41.913  35.029  34.723  1.00  0.00     0.009 A 
ATOM     75  C   UNL A   1      42.973  36.052  32.803  1.00  0.00     0.009 A 
ATOM     76  C   UNL A   1      42.215  36.156  35.487  1.00  0.00     0.001 A 
ATOM     77  C   UNL A   1      43.295  37.168  33.578  1.00  0.00     0.001 A 
ATOM     78  C   UNL A   1      42.907  37.223  34.916  1.00  0.00     0.000 A 
ENDBRANCH  60  73
ENDBRANCH  34  35
ENDBRANCH  26  29
ENDBRANCH  24  25
ENDBRANCH  23  24
ENDBRANCH  22  23
ENDBRANCH  21  22
ENDBRANCH   1  21
TORSDOF 17
ENDMDL
