MODEL 1
REMARK VINA RESULT:     -11.0      0.000      0.000
REMARK SMILES O=C(NCCCCCCNC(=O)c1cccc(Nc2ccnc3ccc(Cl)cc23)c1)c1ccc(-c2c3nc(c(-c4ccccc4)c4ccc([nH]4)c(-c4ccccc4)c4nc(c(-c5ccccc5)c5ccc2[nH]5)C=C4)C=C3)cc1
REMARK SMILES IDX 6 1 5 2 4 3 3 4 1 5 2 6 31 8 32 9 78 10 33 11 77 12 34 13
REMARK SMILES IDX 35 14 36 15 71 16 37 17 76 18 70 19 72 20 38 21 75 22 69 23
REMARK SMILES IDX 68 24 39 26 61 27 46 28 60 29 47 30 50 31 59 32 73 33 48 34
REMARK SMILES IDX 49 35 58 37 74 38 51 39 40 40 41 41 45 42 42 43 44 44 43 45
REMARK SMILES IDX 62 46 63 47 67 48 64 49 66 50 65 51 52 52 53 53 57 54 54 55
REMARK SMILES IDX 56 56 55 57 7 58 8 59 9 60 10 61 11 62 12 64 13 65 14 66
REMARK SMILES IDX 30 67 15 68 17 69 16 70 18 71 19 73 20 74 29 75 21 76 23 77
REMARK SMILES IDX 28 78 22 79 24 80 26 81 25 82 27 83
REMARK H PARENT 3 7 72 25 50 36 10 63 18 72
REMARK Flexibility Score: inf
ROOT
ATOM      1  C   UNL A   1      34.522  33.826  28.791  1.00  0.00     0.002 C 
ENDROOT
BRANCH   1   2
ATOM      2  C   UNL A   1      33.188  34.555  28.937  1.00  0.00     0.021 C 
BRANCH   2   3
ATOM      3  C   UNL A   1      33.285  35.988  29.441  1.00  0.00     0.116 C 
BRANCH   3   4
ATOM      4  N   UNL A   1      32.473  36.223  30.622  1.00  0.00    -0.352 N 
ATOM      5  O   UNL A   1      31.767  35.912  32.743  1.00  0.00    -0.269 OA
ATOM      6  C   UNL A   1      32.634  35.737  31.900  1.00  0.00     0.251 C 
ATOM      7  H   UNL A   1      31.696  36.815  30.490  1.00  0.00     0.163 HD
BRANCH   6   8
ATOM      8  C   UNL A   1      33.860  34.979  32.246  1.00  0.00     0.039 A 
ATOM      9  C   UNL A   1      35.123  35.549  32.079  1.00  0.00     0.014 A 
ATOM     10  C   UNL A   1      33.737  33.684  32.761  1.00  0.00     0.014 A 
ATOM     11  C   UNL A   1      36.262  34.782  32.294  1.00  0.00     0.010 A 
ATOM     12  C   UNL A   1      34.885  32.946  33.064  1.00  0.00     0.010 A 
ATOM     13  C   UNL A   1      36.158  33.481  32.813  1.00  0.00    -0.014 A 
BRANCH  13  14
ATOM     14  C   UNL A   1      37.396  32.746  33.174  1.00  0.00     0.031 A 
ATOM     15  C   UNL A   1      38.008  31.730  32.250  1.00  0.00     0.074 A 
ATOM     16  C   UNL A   1      37.981  33.025  34.357  1.00  0.00     0.049 A 
ATOM     17  N   UNL A   1      39.098  31.022  32.417  1.00  0.00    -0.248 NA
ATOM     18  C   UNL A   1      37.312  31.469  30.980  1.00  0.00     0.031 C 
ATOM     19  C   UNL A   1      37.475  33.984  35.342  1.00  0.00     0.029 A 
ATOM     20  N   UNL A   1      39.133  32.544  34.925  1.00  0.00    -0.354 N 
ATOM     21  C   UNL A   1      39.209  30.221  31.287  1.00  0.00     0.074 A 
ATOM     22  C   UNL A   1      38.067  30.515  30.449  1.00  0.00     0.031 C 
ATOM     23  C   UNL A   1      38.334  34.057  36.368  1.00  0.00     0.029 A 
ATOM     24  C   UNL A   1      39.412  33.102  36.150  1.00  0.00     0.049 A 
ATOM     25  H   UNL A   1      39.704  31.868  34.497  1.00  0.00     0.167 HD
ATOM     26  C   UNL A   1      40.178  29.325  30.981  1.00  0.00     0.031 A 
ATOM     27  C   UNL A   1      40.411  32.857  37.016  1.00  0.00     0.031 A 
ATOM     28  C   UNL A   1      41.313  29.035  31.819  1.00  0.00     0.049 A 
ATOM     29  C   UNL A   1      41.444  31.829  36.663  1.00  0.00     0.074 A 
ATOM     30  C   UNL A   1      42.366  28.169  31.572  1.00  0.00     0.029 A 
ATOM     31  N   UNL A   1      41.539  29.592  33.068  1.00  0.00    -0.354 N 
ATOM     32  N   UNL A   1      41.559  31.118  35.568  1.00  0.00    -0.248 NA
ATOM     33  C   UNL A   1      42.485  31.570  37.665  1.00  0.00     0.031 C 
ATOM     34  C   UNL A   1      43.197  28.160  32.697  1.00  0.00     0.029 A 
ATOM     35  C   UNL A   1      42.697  29.066  33.617  1.00  0.00     0.049 A 
ATOM     36  H   UNL A   1      40.962  30.263  33.500  1.00  0.00     0.167 HD
ATOM     37  C   UNL A   1      42.696  30.342  35.741  1.00  0.00     0.074 A 
ATOM     38  C   UNL A   1      43.248  30.689  37.034  1.00  0.00     0.031 C 
ATOM     39  C   UNL A   1      43.232  29.420  34.906  1.00  0.00     0.031 A 
BRANCH  26  40
ATOM     40  C   UNL A   1      40.050  28.562  29.690  1.00  0.00    -0.014 A 
ATOM     41  C   UNL A   1      40.475  29.113  28.471  1.00  0.00     0.009 A 
ATOM     42  C   UNL A   1      39.576  27.240  29.707  1.00  0.00     0.009 A 
ATOM     43  C   UNL A   1      40.409  28.362  27.294  1.00  0.00     0.001 A 
ATOM     44  C   UNL A   1      39.534  26.484  28.535  1.00  0.00     0.001 A 
ATOM     45  C   UNL A   1      39.946  27.046  27.328  1.00  0.00     0.000 A 
ENDBRANCH  26  40
BRANCH  27  46
ATOM     46  C   UNL A   1      40.461  33.575  38.316  1.00  0.00    -0.014 A 
ATOM     47  C   UNL A   1      39.786  33.074  39.440  1.00  0.00     0.009 A 
ATOM     48  C   UNL A   1      41.179  34.776  38.436  1.00  0.00     0.009 A 
ATOM     49  C   UNL A   1      39.803  33.778  40.646  1.00  0.00     0.001 A 
ATOM     50  C   UNL A   1      41.223  35.459  39.652  1.00  0.00     0.001 A 
ATOM     51  C   UNL A   1      40.525  34.967  40.753  1.00  0.00     0.000 A 
ENDBRANCH  27  46
BRANCH  39  52
ATOM     52  C   UNL A   1      44.499  28.750  35.356  1.00  0.00    -0.014 A 
ATOM     53  C   UNL A   1      45.758  29.299  35.064  1.00  0.00     0.009 A 
ATOM     54  C   UNL A   1      44.429  27.562  36.099  1.00  0.00     0.009 A 
ATOM     55  C   UNL A   1      46.923  28.649  35.477  1.00  0.00     0.001 A 
ATOM     56  C   UNL A   1      45.595  26.932  36.537  1.00  0.00     0.001 A 
ATOM     57  C   UNL A   1      46.840  27.470  36.216  1.00  0.00     0.000 A 
ENDBRANCH  39  52
ENDBRANCH  13  14
ENDBRANCH   6   8
ENDBRANCH   3   4
ENDBRANCH   2   3
ENDBRANCH   1   2
BRANCH   1  58
ATOM     58  C   UNL A   1      34.457  32.295  28.798  1.00  0.00     0.002 C 
BRANCH  58  59
ATOM     59  C   UNL A   1      33.646  31.639  27.675  1.00  0.00     0.021 C 
BRANCH  59  60
ATOM     60  C   UNL A   1      34.022  30.198  27.339  1.00  0.00     0.116 C 
BRANCH  60  61
ATOM     61  N   UNL A   1      33.073  29.233  27.852  1.00  0.00    -0.352 N 
ATOM     62  C   UNL A   1      32.266  28.337  27.206  1.00  0.00     0.251 C 
ATOM     63  H   UNL A   1      32.996  29.220  28.833  1.00  0.00     0.163 HD
ATOM     64  O   UNL A   1      31.455  27.686  27.863  1.00  0.00    -0.269 OA
BRANCH  62  65
ATOM     65  C   UNL A   1      32.324  28.146  25.739  1.00  0.00     0.041 A 
ATOM     66  C   UNL A   1      31.378  28.828  24.966  1.00  0.00     0.014 A 
ATOM     67  C   UNL A   1      33.164  27.199  25.137  1.00  0.00     0.039 A 
ATOM     68  C   UNL A   1      31.298  28.602  23.594  1.00  0.00     0.003 A 
ATOM     69  C   UNL A   1      33.083  26.960  23.757  1.00  0.00     0.039 A 
ATOM     70  C   UNL A   1      32.145  27.671  22.996  1.00  0.00     0.026 A 
BRANCH  69  71
ATOM     71  N   UNL A   1      33.716  25.826  23.180  1.00  0.00    -0.355 N 
ATOM     72  H   UNL A   1      34.383  25.935  22.463  1.00  0.00     0.167 HD
BRANCH  71  73
ATOM     73  C   UNL A   1      33.365  24.530  23.657  1.00  0.00     0.050 A 
ATOM     74  C   UNL A   1      32.112  24.019  23.307  1.00  0.00     0.047 A 
ATOM     75  C   UNL A   1      34.248  23.740  24.429  1.00  0.00     0.025 A 
ATOM     76  C   UNL A   1      31.820  22.714  23.627  1.00  0.00     0.114 A 
ATOM     77  C   UNL A   1      33.824  22.423  24.726  1.00  0.00     0.072 A 
ATOM     78  C   UNL A   1      35.508  24.178  24.900  1.00  0.00     0.033 A 
ATOM     79  N   UNL A   1      32.652  21.916  24.318  1.00  0.00    -0.256 NA
ATOM     80  C   UNL A   1      34.648  21.603  25.481  1.00  0.00     0.030 A 
ATOM     81  C   UNL A   1      36.303  23.336  25.678  1.00  0.00     0.041 A 
ATOM     82  C   UNL A   1      35.875  22.048  25.974  1.00  0.00     0.023 A 
ATOM     83  Cl  UNL A   1      37.813  23.889  26.286  1.00  0.00    -0.084 Cl
ENDBRANCH  71  73
ENDBRANCH  69  71
ENDBRANCH  62  65
ENDBRANCH  60  61
ENDBRANCH  59  60
ENDBRANCH  58  59
ENDBRANCH   1  58
TORSDOF 15
ENDMDL
MODEL 2
REMARK VINA RESULT:     -10.9      1.912      6.381
REMARK SMILES O=C(NCCCCCCNC(=O)c1cccc(Nc2ccnc3ccc(Cl)cc23)c1)c1ccc(-c2c3nc(c(-c4ccccc4)c4ccc([nH]4)c(-c4ccccc4)c4nc(c(-c5ccccc5)c5ccc2[nH]5)C=C4)C=C3)cc1
REMARK SMILES IDX 6 1 5 2 4 3 3 4 1 5 2 6 31 8 32 9 78 10 33 11 77 12 34 13
REMARK SMILES IDX 35 14 36 15 71 16 37 17 76 18 70 19 72 20 38 21 75 22 69 23
REMARK SMILES IDX 68 24 39 26 61 27 46 28 60 29 47 30 50 31 59 32 73 33 48 34
REMARK SMILES IDX 49 35 58 37 74 38 51 39 40 40 41 41 45 42 42 43 44 44 43 45
REMARK SMILES IDX 62 46 63 47 67 48 64 49 66 50 65 51 52 52 53 53 57 54 54 55
REMARK SMILES IDX 56 56 55 57 7 58 8 59 9 60 10 61 11 62 12 64 13 65 14 66
REMARK SMILES IDX 30 67 15 68 17 69 16 70 18 71 19 73 20 74 29 75 21 76 23 77
REMARK SMILES IDX 28 78 22 79 24 80 26 81 25 82 27 83
REMARK H PARENT 3 7 72 25 50 36 10 63 18 72
REMARK Flexibility Score: inf
ROOT
ATOM      1  C   UNL A   1      31.437  30.225  26.410  1.00  0.00     0.002 C 
ENDROOT
BRANCH   1   2
ATOM      2  C   UNL A   1      31.310  31.745  26.501  1.00  0.00     0.021 C 
BRANCH   2   3
ATOM      3  C   UNL A   1      32.589  32.479  26.876  1.00  0.00     0.116 C 
BRANCH   3   4
ATOM      4  N   UNL A   1      32.341  33.826  27.360  1.00  0.00    -0.352 N 
ATOM      5  O   UNL A   1      32.528  35.591  28.753  1.00  0.00    -0.269 OA
ATOM      6  C   UNL A   1      32.967  34.516  28.373  1.00  0.00     0.251 C 
ATOM      7  H   UNL A   1      31.623  34.316  26.896  1.00  0.00     0.163 HD
BRANCH   6   8
ATOM      8  C   UNL A   1      34.169  33.937  29.019  1.00  0.00     0.039 A 
ATOM      9  C   UNL A   1      34.046  32.982  30.029  1.00  0.00     0.014 A 
ATOM     10  C   UNL A   1      35.436  34.348  28.592  1.00  0.00     0.014 A 
ATOM     11  C   UNL A   1      35.178  32.541  30.705  1.00  0.00     0.010 A 
ATOM     12  C   UNL A   1      36.579  33.833  29.212  1.00  0.00     0.010 A 
ATOM     13  C   UNL A   1      36.459  32.940  30.289  1.00  0.00    -0.014 A 
BRANCH  13  14
ATOM     14  C   UNL A   1      37.651  32.333  30.933  1.00  0.00     0.031 A 
ATOM     15  C   UNL A   1      38.196  32.855  32.233  1.00  0.00     0.074 A 
ATOM     16  C   UNL A   1      38.232  31.277  30.329  1.00  0.00     0.049 A 
ATOM     17  N   UNL A   1      39.216  32.417  32.928  1.00  0.00    -0.248 NA
ATOM     18  C   UNL A   1      37.517  34.015  32.830  1.00  0.00     0.031 C 
ATOM     19  C   UNL A   1      37.799  30.687  29.059  1.00  0.00     0.029 A 
ATOM     20  N   UNL A   1      39.298  30.501  30.707  1.00  0.00    -0.354 N 
ATOM     21  C   UNL A   1      39.315  33.255  34.032  1.00  0.00     0.074 A 
ATOM     22  C   UNL A   1      38.262  34.240  33.906  1.00  0.00     0.031 C 
ATOM     23  C   UNL A   1      38.558  29.617  28.788  1.00  0.00     0.029 A 
ATOM     24  C   UNL A   1      39.575  29.486  29.823  1.00  0.00     0.049 A 
ATOM     25  H   UNL A   1      39.813  30.655  31.530  1.00  0.00     0.167 HD
ATOM     26  C   UNL A   1      40.202  33.203  35.054  1.00  0.00     0.031 A 
ATOM     27  C   UNL A   1      40.553  28.563  29.829  1.00  0.00     0.031 A 
ATOM     28  C   UNL A   1      41.249  32.220  35.174  1.00  0.00     0.049 A 
ATOM     29  C   UNL A   1      41.543  28.560  30.955  1.00  0.00     0.074 A 
ATOM     30  C   UNL A   1      42.172  32.067  36.195  1.00  0.00     0.029 A 
ATOM     31  N   UNL A   1      41.520  31.233  34.240  1.00  0.00    -0.354 N 
ATOM     32  N   UNL A   1      41.589  29.329  32.015  1.00  0.00    -0.248 NA
ATOM     33  C   UNL A   1      42.616  27.560  30.887  1.00  0.00     0.031 C 
ATOM     34  C   UNL A   1      43.036  31.023  35.850  1.00  0.00     0.029 A 
ATOM     35  C   UNL A   1      42.614  30.487  34.646  1.00  0.00     0.049 A 
ATOM     36  H   UNL A   1      41.010  31.084  33.411  1.00  0.00     0.167 HD
ATOM     37  C   UNL A   1      42.683  28.894  32.749  1.00  0.00     0.074 A 
ATOM     38  C   UNL A   1      43.256  27.777  32.026  1.00  0.00     0.031 C 
ATOM     39  C   UNL A   1      43.173  29.379  33.915  1.00  0.00     0.031 A 
BRANCH  26  40
ATOM     40  C   UNL A   1      40.105  34.255  36.125  1.00  0.00    -0.014 A 
ATOM     41  C   UNL A   1      39.319  34.060  37.271  1.00  0.00     0.009 A 
ATOM     42  C   UNL A   1      40.881  35.422  36.026  1.00  0.00     0.009 A 
ATOM     43  C   UNL A   1      39.296  35.022  38.286  1.00  0.00     0.001 A 
ATOM     44  C   UNL A   1      40.876  36.369  37.051  1.00  0.00     0.001 A 
ATOM     45  C   UNL A   1      40.080  36.171  38.178  1.00  0.00     0.000 A 
ENDBRANCH  26  40
BRANCH  27  46
ATOM     46  C   UNL A   1      40.663  27.588  28.713  1.00  0.00    -0.014 A 
ATOM     47  C   UNL A   1      40.032  26.336  28.787  1.00  0.00     0.009 A 
ATOM     48  C   UNL A   1      41.414  27.902  27.568  1.00  0.00     0.009 A 
ATOM     49  C   UNL A   1      40.177  25.410  27.753  1.00  0.00     0.001 A 
ATOM     50  C   UNL A   1      41.528  26.986  26.521  1.00  0.00     0.001 A 
ATOM     51  C   UNL A   1      40.921  25.737  26.618  1.00  0.00     0.000 A 
ENDBRANCH  27  46
BRANCH  39  52
ATOM     52  C   UNL A   1      44.369  28.679  34.494  1.00  0.00    -0.014 A 
ATOM     53  C   UNL A   1      45.675  29.098  34.195  1.00  0.00     0.009 A 
ATOM     54  C   UNL A   1      44.183  27.596  35.367  1.00  0.00     0.009 A 
ATOM     55  C   UNL A   1      46.773  28.420  34.731  1.00  0.00     0.001 A 
ATOM     56  C   UNL A   1      45.282  26.942  35.926  1.00  0.00     0.001 A 
ATOM     57  C   UNL A   1      46.574  27.347  35.599  1.00  0.00     0.000 A 
ENDBRANCH  39  52
ENDBRANCH  13  14
ENDBRANCH   6   8
ENDBRANCH   3   4
ENDBRANCH   2   3
ENDBRANCH   1   2
BRANCH   1  58
ATOM     58  C   UNL A   1      31.662  29.651  25.007  1.00  0.00     0.002 C 
BRANCH  58  59
ATOM     59  C   UNL A   1      30.536  29.864  23.990  1.00  0.00     0.021 C 
BRANCH  59  60
ATOM     60  C   UNL A   1      30.295  28.715  23.015  1.00  0.00     0.116 C 
BRANCH  60  61
ATOM     61  N   UNL A   1      29.069  27.995  23.282  1.00  0.00    -0.352 N 
ATOM     62  C   UNL A   1      28.851  26.780  23.874  1.00  0.00     0.251 C 
ATOM     63  H   UNL A   1      28.252  28.459  22.989  1.00  0.00     0.163 HD
ATOM     64  O   UNL A   1      27.709  26.324  23.893  1.00  0.00    -0.269 OA
BRANCH  62  65
ATOM     65  C   UNL A   1      29.954  25.990  24.469  1.00  0.00     0.041 A 
ATOM     66  C   UNL A   1      30.358  26.329  25.765  1.00  0.00     0.014 A 
ATOM     67  C   UNL A   1      30.691  25.055  23.731  1.00  0.00     0.039 A 
ATOM     68  C   UNL A   1      31.464  25.709  26.340  1.00  0.00     0.003 A 
ATOM     69  C   UNL A   1      31.813  24.433  24.300  1.00  0.00     0.039 A 
ATOM     70  C   UNL A   1      32.187  24.769  25.609  1.00  0.00     0.026 A 
BRANCH  69  71
ATOM     71  N   UNL A   1      32.727  23.705  23.491  1.00  0.00    -0.355 N 
ATOM     72  H   UNL A   1      33.100  24.105  22.672  1.00  0.00     0.167 HD
BRANCH  71  73
ATOM     73  C   UNL A   1      33.090  22.385  23.887  1.00  0.00     0.050 A 
ATOM     74  C   UNL A   1      32.144  21.369  23.727  1.00  0.00     0.047 A 
ATOM     75  C   UNL A   1      34.372  22.070  24.394  1.00  0.00     0.025 A 
ATOM     76  C   UNL A   1      32.529  20.069  23.958  1.00  0.00     0.114 A 
ATOM     77  C   UNL A   1      34.642  20.701  24.626  1.00  0.00     0.072 A 
ATOM     78  C   UNL A   1      35.382  23.024  24.664  1.00  0.00     0.033 A 
ATOM     79  N   UNL A   1      33.753  19.724  24.394  1.00  0.00    -0.256 NA
ATOM     80  C   UNL A   1      35.882  20.332  25.123  1.00  0.00     0.030 A 
ATOM     81  C   UNL A   1      36.611  22.622  25.187  1.00  0.00     0.041 A 
ATOM     82  C   UNL A   1      36.864  21.276  25.422  1.00  0.00     0.023 A 
ATOM     83  Cl  UNL A   1      37.818  23.790  25.556  1.00  0.00    -0.084 Cl
ENDBRANCH  71  73
ENDBRANCH  69  71
ENDBRANCH  62  65
ENDBRANCH  60  61
ENDBRANCH  59  60
ENDBRANCH  58  59
ENDBRANCH   1  58
TORSDOF 15
ENDMDL
MODEL 3
REMARK VINA RESULT:     -10.9      1.972      2.820
REMARK SMILES O=C(NCCCCCCNC(=O)c1cccc(Nc2ccnc3ccc(Cl)cc23)c1)c1ccc(-c2c3nc(c(-c4ccccc4)c4ccc([nH]4)c(-c4ccccc4)c4nc(c(-c5ccccc5)c5ccc2[nH]5)C=C4)C=C3)cc1
REMARK SMILES IDX 6 1 5 2 4 3 3 4 1 5 2 6 31 8 32 9 78 10 33 11 77 12 34 13
REMARK SMILES IDX 35 14 36 15 71 16 37 17 76 18 70 19 72 20 38 21 75 22 69 23
REMARK SMILES IDX 68 24 39 26 61 27 46 28 60 29 47 30 50 31 59 32 73 33 48 34
REMARK SMILES IDX 49 35 58 37 74 38 51 39 40 40 41 41 45 42 42 43 44 44 43 45
REMARK SMILES IDX 62 46 63 47 67 48 64 49 66 50 65 51 52 52 53 53 57 54 54 55
REMARK SMILES IDX 56 56 55 57 7 58 8 59 9 60 10 61 11 62 12 64 13 65 14 66
REMARK SMILES IDX 30 67 15 68 17 69 16 70 18 71 19 73 20 74 29 75 21 76 23 77
REMARK SMILES IDX 28 78 22 79 24 80 26 81 25 82 27 83
REMARK H PARENT 3 7 72 25 50 36 10 63 18 72
REMARK Flexibility Score: inf
ROOT
ATOM      1  C   UNL A   1      31.550  30.690  26.214  1.00  0.00     0.002 C 
ENDROOT
BRANCH   1   2
ATOM      2  C   UNL A   1      31.377  32.103  26.771  1.00  0.00     0.021 C 
BRANCH   2   3
ATOM      3  C   UNL A   1      32.671  32.856  27.039  1.00  0.00     0.116 C 
BRANCH   3   4
ATOM      4  N   UNL A   1      32.446  34.179  27.594  1.00  0.00    -0.352 N 
ATOM      5  O   UNL A   1      32.666  35.866  29.077  1.00  0.00    -0.269 OA
ATOM      6  C   UNL A   1      33.087  34.805  28.639  1.00  0.00     0.251 C 
ATOM      7  H   UNL A   1      31.734  34.703  27.159  1.00  0.00     0.163 HD
BRANCH   6   8
ATOM      8  C   UNL A   1      34.282  34.175  29.248  1.00  0.00     0.039 A 
ATOM      9  C   UNL A   1      34.155  33.295  30.324  1.00  0.00     0.014 A 
ATOM     10  C   UNL A   1      35.546  34.458  28.720  1.00  0.00     0.014 A 
ATOM     11  C   UNL A   1      35.292  32.809  30.959  1.00  0.00     0.010 A 
ATOM     12  C   UNL A   1      36.685  33.895  29.303  1.00  0.00     0.010 A 
ATOM     13  C   UNL A   1      36.569  33.082  30.441  1.00  0.00    -0.014 A 
BRANCH  13  14
ATOM     14  C   UNL A   1      37.752  32.424  31.051  1.00  0.00     0.031 A 
ATOM     15  C   UNL A   1      38.412  31.236  30.408  1.00  0.00     0.074 A 
ATOM     16  C   UNL A   1      38.242  32.931  32.200  1.00  0.00     0.049 A 
ATOM     17  N   UNL A   1      39.464  30.567  30.809  1.00  0.00    -0.248 NA
ATOM     18  C   UNL A   1      37.820  30.730  29.160  1.00  0.00     0.031 C 
ATOM     19  C   UNL A   1      37.679  34.075  32.924  1.00  0.00     0.029 A 
ATOM     20  N   UNL A   1      39.327  32.565  32.953  1.00  0.00    -0.354 N 
ATOM     21  C   UNL A   1      39.650  29.553  29.878  1.00  0.00     0.074 A 
ATOM     22  C   UNL A   1      38.591  29.682  28.900  1.00  0.00     0.031 C 
ATOM     23  C   UNL A   1      38.450  34.346  33.986  1.00  0.00     0.029 A 
ATOM     24  C   UNL A   1      39.516  33.357  34.061  1.00  0.00     0.049 A 
ATOM     25  H   UNL A   1      39.915  31.811  32.722  1.00  0.00     0.167 HD
ATOM     26  C   UNL A   1      40.617  28.604  29.845  1.00  0.00     0.031 A 
ATOM     27  C   UNL A   1      40.431  33.284  35.044  1.00  0.00     0.031 A 
ATOM     28  C   UNL A   1      41.668  28.480  30.821  1.00  0.00     0.049 A 
ATOM     29  C   UNL A   1      41.462  32.196  34.997  1.00  0.00     0.074 A 
ATOM     30  C   UNL A   1      42.715  27.572  30.848  1.00  0.00     0.029 A 
ATOM     31  N   UNL A   1      41.803  29.276  31.947  1.00  0.00    -0.354 N 
ATOM     32  N   UNL A   1      41.651  31.277  34.081  1.00  0.00    -0.248 NA
ATOM     33  C   UNL A   1      42.408  32.135  36.118  1.00  0.00     0.031 C 
ATOM     34  C   UNL A   1      43.447  27.784  32.020  1.00  0.00     0.029 A 
ATOM     35  C   UNL A   1      42.895  28.862  32.691  1.00  0.00     0.049 A 
ATOM     36  H   UNL A   1      41.209  30.026  32.184  1.00  0.00     0.167 HD
ATOM     37  C   UNL A   1      42.748  30.541  34.507  1.00  0.00     0.074 A 
ATOM     38  C   UNL A   1      43.198  31.138  35.748  1.00  0.00     0.031 C 
ATOM     39  C   UNL A   1      43.329  29.465  33.925  1.00  0.00     0.031 A 
BRANCH  26  40
ATOM     40  C   UNL A   1      40.578  27.597  28.727  1.00  0.00    -0.014 A 
ATOM     41  C   UNL A   1      39.851  26.403  28.844  1.00  0.00     0.009 A 
ATOM     42  C   UNL A   1      41.209  27.890  27.506  1.00  0.00     0.009 A 
ATOM     43  C   UNL A   1      39.774  25.513  27.769  1.00  0.00     0.001 A 
ATOM     44  C   UNL A   1      41.110  27.012  26.426  1.00  0.00     0.001 A 
ATOM     45  C   UNL A   1      40.397  25.822  26.559  1.00  0.00     0.000 A 
ENDBRANCH  26  40
BRANCH  27  46
ATOM     46  C   UNL A   1      40.391  34.249  36.172  1.00  0.00    -0.014 A 
ATOM     47  C   UNL A   1      39.598  34.000  37.303  1.00  0.00     0.009 A 
ATOM     48  C   UNL A   1      41.139  35.436  36.117  1.00  0.00     0.009 A 
ATOM     49  C   UNL A   1      39.532  34.933  38.339  1.00  0.00     0.001 A 
ATOM     50  C   UNL A   1      41.098  36.351  37.170  1.00  0.00     0.001 A 
ATOM     51  C   UNL A   1      40.286  36.106  38.275  1.00  0.00     0.000 A 
ENDBRANCH  27  46
BRANCH  39  52
ATOM     52  C   UNL A   1      44.534  28.888  34.611  1.00  0.00    -0.014 A 
ATOM     53  C   UNL A   1      45.826  29.364  34.337  1.00  0.00     0.009 A 
ATOM     54  C   UNL A   1      44.371  27.867  35.559  1.00  0.00     0.009 A 
ATOM     55  C   UNL A   1      46.935  28.800  34.973  1.00  0.00     0.001 A 
ATOM     56  C   UNL A   1      45.478  27.328  36.216  1.00  0.00     0.001 A 
ATOM     57  C   UNL A   1      46.758  27.787  35.914  1.00  0.00     0.000 A 
ENDBRANCH  39  52
ENDBRANCH  13  14
ENDBRANCH   6   8
ENDBRANCH   3   4
ENDBRANCH   2   3
ENDBRANCH   1   2
BRANCH   1  58
ATOM     58  C   UNL A   1      32.143  29.655  27.176  1.00  0.00     0.002 C 
BRANCH  58  59
ATOM     59  C   UNL A   1      32.288  28.226  26.640  1.00  0.00     0.021 C 
BRANCH  59  60
ATOM     60  C   UNL A   1      33.672  27.852  26.115  1.00  0.00     0.116 C 
BRANCH  60  61
ATOM     61  N   UNL A   1      34.051  28.605  24.938  1.00  0.00    -0.352 N 
ATOM     62  C   UNL A   1      33.871  28.343  23.607  1.00  0.00     0.251 C 
ATOM     63  H   UNL A   1      34.519  29.450  25.129  1.00  0.00     0.163 HD
ATOM     64  O   UNL A   1      34.383  29.093  22.778  1.00  0.00    -0.269 OA
BRANCH  62  65
ATOM     65  C   UNL A   1      33.098  27.170  23.138  1.00  0.00     0.041 A 
ATOM     66  C   UNL A   1      31.704  27.293  23.104  1.00  0.00     0.014 A 
ATOM     67  C   UNL A   1      33.694  25.926  22.895  1.00  0.00     0.039 A 
ATOM     68  C   UNL A   1      30.910  26.194  22.788  1.00  0.00     0.003 A 
ATOM     69  C   UNL A   1      32.899  24.812  22.585  1.00  0.00     0.039 A 
ATOM     70  C   UNL A   1      31.506  24.961  22.533  1.00  0.00     0.026 A 
BRANCH  69  71
ATOM     71  N   UNL A   1      33.448  23.500  22.611  1.00  0.00    -0.355 N 
ATOM     72  H   UNL A   1      33.269  22.867  21.879  1.00  0.00     0.167 HD
BRANCH  71  73
ATOM     73  C   UNL A   1      34.260  23.120  23.719  1.00  0.00     0.050 A 
ATOM     74  C   UNL A   1      35.630  22.951  23.500  1.00  0.00     0.047 A 
ATOM     75  C   UNL A   1      33.737  22.950  25.022  1.00  0.00     0.025 A 
ATOM     76  C   UNL A   1      36.448  22.737  24.584  1.00  0.00     0.114 A 
ATOM     77  C   UNL A   1      34.673  22.700  26.052  1.00  0.00     0.072 A 
ATOM     78  C   UNL A   1      32.362  23.026  25.347  1.00  0.00     0.033 A 
ATOM     79  N   UNL A   1      35.995  22.618  25.844  1.00  0.00    -0.256 NA
ATOM     80  C   UNL A   1      34.218  22.524  27.349  1.00  0.00     0.030 A 
ATOM     81  C   UNL A   1      31.934  22.820  26.659  1.00  0.00     0.041 A 
ATOM     82  C   UNL A   1      32.859  22.565  27.663  1.00  0.00     0.023 A 
ATOM     83  Cl  UNL A   1      30.259  22.868  27.041  1.00  0.00    -0.084 Cl
ENDBRANCH  71  73
ENDBRANCH  69  71
ENDBRANCH  62  65
ENDBRANCH  60  61
ENDBRANCH  59  60
ENDBRANCH  58  59
ENDBRANCH   1  58
TORSDOF 15
ENDMDL
