MODEL 1
REMARK VINA RESULT:     -11.6      0.000      0.000
REMARK SMILES CC(C)c1ccc(NC(=O)C(=O)N/N=C/c2ccccc2C(=O)NCCCCCCNC(=O)c2ccc(-c3c4nc(c(-c5ccccc5)c5ccc([nH]5)c(-c5ccccc5)c5nc(c(-c6ccccc6)c6ccc3[nH]6)C=C5)C=C4)cc2)cc1
REMARK SMILES IDX 26 1 25 2 24 3 22 4 23 5 21 7 16 8 17 9 18 10 20 11 19 12
REMARK SMILES IDX 15 13 14 14 13 15 11 16 12 17 9 19 8 20 10 22 7 23 4 24 5 25
REMARK SMILES IDX 83 26 6 27 82 28 2 29 1 30 3 31 27 32 28 33 29 34 30 35
REMARK SMILES IDX 31 36 32 37 33 39 34 40 35 41 81 42 36 43 80 44 37 45 38 46
REMARK SMILES IDX 39 47 74 48 40 49 79 50 73 51 75 52 41 53 78 54 72 55 71 56
REMARK SMILES IDX 42 58 64 59 49 60 63 61 50 62 53 63 62 64 76 65 51 66 52 67
REMARK SMILES IDX 61 69 77 70 54 71 43 72 44 73 48 74 45 75 47 76 46 77 65 78
REMARK SMILES IDX 66 79 70 80 67 81 69 82 68 83 55 84 56 85 60 86 57 87 59 88
REMARK SMILES IDX 58 89
REMARK H PARENT 24 6 13 18 8 21 31 38 75 57 53 68
REMARK Flexibility Score: inf
ROOT
ATOM      1  C   UNL A   1      33.610  24.952  22.581  1.00  0.00     0.021 C 
ENDROOT
BRANCH   1   2
ATOM      2  C   UNL A   1      32.789  25.984  21.813  1.00  0.00     0.116 C 
BRANCH   2   3
ATOM      3  N   UNL A   1      33.132  27.363  22.041  1.00  0.00    -0.352 N 
ATOM      4  C   UNL A   1      32.405  28.414  22.535  1.00  0.00     0.251 C 
ATOM      5  O   UNL A   1      33.050  29.436  22.794  1.00  0.00    -0.269 OA
ATOM      6  H   UNL A   1      34.058  27.593  21.797  1.00  0.00     0.163 HD
BRANCH   4   7
ATOM      7  C   UNL A   1      30.918  28.482  22.698  1.00  0.00     0.048 A 
ATOM      8  C   UNL A   1      30.054  27.688  23.451  1.00  0.00     0.007 A 
ATOM      9  C   UNL A   1      28.665  27.958  23.497  1.00  0.00     0.010 A 
ATOM     10  C   UNL A   1      28.115  29.024  22.799  1.00  0.00     0.001 A 
ATOM     11  C   UNL A   1      30.324  29.562  21.998  1.00  0.00     0.014 A 
ATOM     12  C   UNL A   1      28.949  29.828  22.040  1.00  0.00     0.001 A 
BRANCH   8  13
ATOM     13  C   UNL A   1      30.361  26.462  24.176  1.00  0.00     0.142 C 
ATOM     14  N   UNL A   1      29.809  25.311  23.957  1.00  0.00    -0.180 NA
BRANCH  14  15
ATOM     15  N   UNL A   1      30.422  24.252  24.611  1.00  0.00    -0.239 N 
ATOM     16  C   UNL A   1      30.511  24.129  25.997  1.00  0.00     0.329 C 
ATOM     17  O   UNL A   1      29.655  24.472  26.804  1.00  0.00    -0.262 OA
ATOM     18  H   UNL A   1      30.820  23.540  24.061  1.00  0.00     0.194 HD
BRANCH  16  19
ATOM     19  C   UNL A   1      31.925  23.743  26.440  1.00  0.00     0.315 C 
ATOM     20  N   UNL A   1      32.994  24.598  26.345  1.00  0.00    -0.318 N 
ATOM     21  H   UNL A   1      33.852  24.130  26.236  1.00  0.00     0.170 HD
ATOM     22  O   UNL A   1      32.114  22.560  26.735  1.00  0.00    -0.263 OA
BRANCH  20  23
ATOM     23  C   UNL A   1      33.127  25.994  26.373  1.00  0.00     0.041 A 
ATOM     24  C   UNL A   1      32.988  28.828  26.277  1.00  0.00    -0.045 A 
ATOM     25  C   UNL A   1      34.028  28.128  25.657  1.00  0.00     0.006 A 
ATOM     26  C   UNL A   1      32.058  28.086  27.014  1.00  0.00     0.006 A 
ATOM     27  C   UNL A   1      34.088  26.725  25.684  1.00  0.00     0.026 A 
ATOM     28  C   UNL A   1      32.128  26.692  27.062  1.00  0.00     0.026 A 
BRANCH  24  29
ATOM     29  C   UNL A   1      32.783  30.329  26.127  1.00  0.00     0.013 C 
ATOM     30  C   UNL A   1      31.343  30.773  25.843  1.00  0.00     0.012 C 
ATOM     31  C   UNL A   1      33.287  31.043  27.389  1.00  0.00     0.012 C 
ENDBRANCH  24  29
ENDBRANCH  20  23
ENDBRANCH  16  19
ENDBRANCH  14  15
ENDBRANCH   8  13
ENDBRANCH   4   7
ENDBRANCH   2   3
ENDBRANCH   1   2
BRANCH   1  32
ATOM     32  C   UNL A   1      33.180  23.483  22.535  1.00  0.00     0.002 C 
BRANCH  32  33
ATOM     33  C   UNL A   1      33.806  22.472  23.497  1.00  0.00     0.002 C 
BRANCH  33  34
ATOM     34  C   UNL A   1      35.246  22.673  23.975  1.00  0.00     0.021 C 
BRANCH  34  35
ATOM     35  C   UNL A   1      35.656  22.091  25.326  1.00  0.00     0.116 C 
BRANCH  35  36
ATOM     36  N   UNL A   1      36.704  21.089  25.254  1.00  0.00    -0.352 N 
ATOM     37  C   UNL A   1      38.046  21.120  25.557  1.00  0.00     0.251 C 
ATOM     38  H   UNL A   1      36.393  20.215  24.924  1.00  0.00     0.163 HD
ATOM     39  O   UNL A   1      38.689  20.084  25.376  1.00  0.00    -0.269 OA
BRANCH  37  40
ATOM     40  C   UNL A   1      38.774  22.321  26.077  1.00  0.00     0.039 A 
ATOM     41  C   UNL A   1      39.931  22.106  26.847  1.00  0.00     0.014 A 
ATOM     42  C   UNL A   1      38.345  23.635  25.905  1.00  0.00     0.014 A 
ATOM     43  C   UNL A   1      40.660  23.179  27.386  1.00  0.00     0.010 A 
ATOM     44  C   UNL A   1      39.069  24.713  26.435  1.00  0.00     0.010 A 
ATOM     45  C   UNL A   1      40.239  24.494  27.171  1.00  0.00    -0.014 A 
BRANCH  45  46
ATOM     46  C   UNL A   1      41.028  25.659  27.641  1.00  0.00     0.031 A 
ATOM     47  C   UNL A   1      40.427  26.691  28.547  1.00  0.00     0.074 A 
ATOM     48  C   UNL A   1      42.268  25.848  27.153  1.00  0.00     0.049 A 
ATOM     49  N   UNL A   1      40.882  27.882  28.851  1.00  0.00    -0.248 NA
ATOM     50  C   UNL A   1      39.142  26.355  29.175  1.00  0.00     0.031 C 
ATOM     51  C   UNL A   1      42.965  24.942  26.239  1.00  0.00     0.029 A 
ATOM     52  N   UNL A   1      43.146  26.887  27.334  1.00  0.00    -0.354 N 
ATOM     53  C   UNL A   1      39.906  28.468  29.643  1.00  0.00     0.074 A 
ATOM     54  C   UNL A   1      38.861  27.480  29.823  1.00  0.00     0.031 C 
ATOM     55  C   UNL A   1      44.151  25.483  25.911  1.00  0.00     0.029 A 
ATOM     56  C   UNL A   1      44.291  26.770  26.586  1.00  0.00     0.049 A 
ATOM     57  H   UNL A   1      42.972  27.643  27.941  1.00  0.00     0.167 HD
ATOM     58  C   UNL A   1      39.866  29.727  30.140  1.00  0.00     0.031 A 
ATOM     59  C   UNL A   1      45.329  27.612  26.442  1.00  0.00     0.031 A 
ATOM     60  C   UNL A   1      40.915  30.703  30.002  1.00  0.00     0.049 A 
ATOM     61  C   UNL A   1      45.350  28.914  27.182  1.00  0.00     0.074 A 
ATOM     62  C   UNL A   1      40.936  32.020  30.430  1.00  0.00     0.029 A 
ATOM     63  N   UNL A   1      42.145  30.454  29.420  1.00  0.00    -0.354 N 
ATOM     64  N   UNL A   1      44.396  29.477  27.879  1.00  0.00    -0.248 NA
ATOM     65  C   UNL A   1      46.600  29.687  27.131  1.00  0.00     0.031 C 
ATOM     66  C   UNL A   1      42.192  32.562  30.127  1.00  0.00     0.029 A 
ATOM     67  C   UNL A   1      42.948  31.578  29.515  1.00  0.00     0.049 A 
ATOM     68  H   UNL A   1      42.410  29.604  29.000  1.00  0.00     0.167 HD
ATOM     69  C   UNL A   1      44.922  30.675  28.338  1.00  0.00     0.074 A 
ATOM     70  C   UNL A   1      46.289  30.748  27.865  1.00  0.00     0.031 C 
ATOM     71  C   UNL A   1      44.313  31.636  29.070  1.00  0.00     0.031 A 
BRANCH  58  72
ATOM     72  C   UNL A   1      38.613  30.143  30.846  1.00  0.00    -0.014 A 
ATOM     73  C   UNL A   1      38.501  30.053  32.239  1.00  0.00     0.009 A 
ATOM     74  C   UNL A   1      37.550  30.681  30.102  1.00  0.00     0.009 A 
ATOM     75  C   UNL A   1      37.336  30.486  32.877  1.00  0.00     0.001 A 
ATOM     76  C   UNL A   1      36.392  31.120  30.744  1.00  0.00     0.001 A 
ATOM     77  C   UNL A   1      36.284  31.019  32.130  1.00  0.00     0.000 A 
ENDBRANCH  58  72
BRANCH  59  78
ATOM     78  C   UNL A   1      46.441  27.248  25.536  1.00  0.00    -0.014 A 
ATOM     79  C   UNL A   1      47.417  26.329  25.942  1.00  0.00     0.009 A 
ATOM     80  C   UNL A   1      46.512  27.809  24.253  1.00  0.00     0.009 A 
ATOM     81  C   UNL A   1      48.456  25.982  25.078  1.00  0.00     0.001 A 
ATOM     82  C   UNL A   1      47.549  27.454  23.389  1.00  0.00     0.001 A 
ATOM     83  C   UNL A   1      48.521  26.544  23.802  1.00  0.00     0.000 A 
ENDBRANCH  59  78
BRANCH  71  84
ATOM     84  C   UNL A   1      45.126  32.843  29.420  1.00  0.00    -0.014 A 
ATOM     85  C   UNL A   1      45.849  32.893  30.621  1.00  0.00     0.009 A 
ATOM     86  C   UNL A   1      45.185  33.930  28.537  1.00  0.00     0.009 A 
ATOM     87  C   UNL A   1      46.607  34.021  30.938  1.00  0.00     0.001 A 
ATOM     88  C   UNL A   1      45.946  35.055  28.856  1.00  0.00     0.001 A 
ATOM     89  C   UNL A   1      46.654  35.101  30.057  1.00  0.00     0.000 A 
ENDBRANCH  71  84
ENDBRANCH  45  46
ENDBRANCH  37  40
ENDBRANCH  35  36
ENDBRANCH  34  35
ENDBRANCH  33  34
ENDBRANCH  32  33
ENDBRANCH   1  32
TORSDOF 18
ENDMDL
MODEL 2
REMARK VINA RESULT:     -11.4      2.776      6.012
REMARK SMILES CC(C)c1ccc(NC(=O)C(=O)N/N=C/c2ccccc2C(=O)NCCCCCCNC(=O)c2ccc(-c3c4nc(c(-c5ccccc5)c5ccc([nH]5)c(-c5ccccc5)c5nc(c(-c6ccccc6)c6ccc3[nH]6)C=C5)C=C4)cc2)cc1
REMARK SMILES IDX 26 1 25 2 24 3 22 4 23 5 21 7 16 8 17 9 18 10 20 11 19 12
REMARK SMILES IDX 15 13 14 14 13 15 11 16 12 17 9 19 8 20 10 22 7 23 4 24 5 25
REMARK SMILES IDX 83 26 6 27 82 28 2 29 1 30 3 31 27 32 28 33 29 34 30 35
REMARK SMILES IDX 31 36 32 37 33 39 34 40 35 41 81 42 36 43 80 44 37 45 38 46
REMARK SMILES IDX 39 47 74 48 40 49 79 50 73 51 75 52 41 53 78 54 72 55 71 56
REMARK SMILES IDX 42 58 64 59 49 60 63 61 50 62 53 63 62 64 76 65 51 66 52 67
REMARK SMILES IDX 61 69 77 70 54 71 43 72 44 73 48 74 45 75 47 76 46 77 65 78
REMARK SMILES IDX 66 79 70 80 67 81 69 82 68 83 55 84 56 85 60 86 57 87 59 88
REMARK SMILES IDX 58 89
REMARK H PARENT 24 6 13 18 8 21 31 38 75 57 53 68
REMARK Flexibility Score: inf
ROOT
ATOM      1  C   UNL A   1      33.837  25.325  22.784  1.00  0.00     0.021 C 
ENDROOT
BRANCH   1   2
ATOM      2  C   UNL A   1      32.633  26.105  22.264  1.00  0.00     0.116 C 
BRANCH   2   3
ATOM      3  N   UNL A   1      32.703  27.537  22.390  1.00  0.00    -0.352 N 
ATOM      4  C   UNL A   1      31.780  28.463  22.801  1.00  0.00     0.251 C 
ATOM      5  O   UNL A   1      32.214  29.605  22.987  1.00  0.00    -0.269 OA
ATOM      6  H   UNL A   1      33.573  27.922  22.135  1.00  0.00     0.163 HD
BRANCH   4   7
ATOM      7  C   UNL A   1      30.305  28.257  22.949  1.00  0.00     0.048 A 
ATOM      8  C   UNL A   1      29.593  27.304  23.677  1.00  0.00     0.007 A 
ATOM      9  C   UNL A   1      28.178  27.317  23.714  1.00  0.00     0.010 A 
ATOM     10  C   UNL A   1      27.448  28.281  23.032  1.00  0.00     0.001 A 
ATOM     11  C   UNL A   1      29.529  29.226  22.264  1.00  0.00     0.014 A 
ATOM     12  C   UNL A   1      28.128  29.238  22.298  1.00  0.00     0.001 A 
BRANCH   8  13
ATOM     13  C   UNL A   1      30.112  26.138  24.381  1.00  0.00     0.142 C 
ATOM     14  N   UNL A   1      29.867  24.907  24.063  1.00  0.00    -0.180 NA
BRANCH  14  15
ATOM     15  N   UNL A   1      30.649  23.979  24.734  1.00  0.00    -0.239 N 
ATOM     16  C   UNL A   1      30.648  23.802  26.117  1.00  0.00     0.329 C 
ATOM     17  O   UNL A   1      29.671  23.897  26.851  1.00  0.00    -0.262 OA
ATOM     18  H   UNL A   1      31.245  23.407  24.199  1.00  0.00     0.194 HD
BRANCH  16  19
ATOM     19  C   UNL A   1      32.071  23.720  26.677  1.00  0.00     0.315 C 
ATOM     20  N   UNL A   1      32.982  24.737  26.546  1.00  0.00    -0.318 N 
ATOM     21  H   UNL A   1      33.913  24.421  26.537  1.00  0.00     0.170 HD
ATOM     22  O   UNL A   1      32.437  22.626  27.113  1.00  0.00    -0.263 OA
BRANCH  20  23
ATOM     23  C   UNL A   1      32.872  26.130  26.424  1.00  0.00     0.041 A 
ATOM     24  C   UNL A   1      33.029  28.965  26.391  1.00  0.00    -0.045 A 
ATOM     25  C   UNL A   1      31.895  28.304  26.875  1.00  0.00     0.006 A 
ATOM     26  C   UNL A   1      34.055  28.181  25.850  1.00  0.00     0.006 A 
ATOM     27  C   UNL A   1      31.823  26.901  26.912  1.00  0.00     0.026 A 
ATOM     28  C   UNL A   1      33.975  26.786  25.866  1.00  0.00     0.026 A 
BRANCH  24  29
ATOM     29  C   UNL A   1      33.227  30.471  26.492  1.00  0.00     0.013 C 
ATOM     30  C   UNL A   1      31.963  31.283  26.799  1.00  0.00     0.012 C 
ATOM     31  C   UNL A   1      34.289  30.778  27.556  1.00  0.00     0.012 C 
ENDBRANCH  24  29
ENDBRANCH  20  23
ENDBRANCH  16  19
ENDBRANCH  14  15
ENDBRANCH   8  13
ENDBRANCH   4   7
ENDBRANCH   2   3
ENDBRANCH   1   2
BRANCH   1  32
ATOM     32  C   UNL A   1      33.712  23.809  22.967  1.00  0.00     0.002 C 
BRANCH  32  33
ATOM     33  C   UNL A   1      34.700  23.063  23.866  1.00  0.00     0.002 C 
BRANCH  33  34
ATOM     34  C   UNL A   1      35.936  23.791  24.400  1.00  0.00     0.021 C 
BRANCH  34  35
ATOM     35  C   UNL A   1      36.438  23.448  25.801  1.00  0.00     0.116 C 
BRANCH  35  36
ATOM     36  N   UNL A   1      37.679  22.696  25.827  1.00  0.00    -0.352 N 
ATOM     37  C   UNL A   1      38.946  23.002  26.267  1.00  0.00     0.251 C 
ATOM     38  H   UNL A   1      37.597  21.787  25.456  1.00  0.00     0.163 HD
ATOM     39  O   UNL A   1      39.812  22.134  26.141  1.00  0.00    -0.269 OA
BRANCH  37  40
ATOM     40  C   UNL A   1      39.343  24.312  26.873  1.00  0.00     0.039 A 
ATOM     41  C   UNL A   1      38.907  24.591  28.181  1.00  0.00     0.014 A 
ATOM     42  C   UNL A   1      40.060  25.302  26.204  1.00  0.00     0.014 A 
ATOM     43  C   UNL A   1      39.222  25.804  28.814  1.00  0.00     0.010 A 
ATOM     44  C   UNL A   1      40.384  26.515  26.830  1.00  0.00     0.010 A 
ATOM     45  C   UNL A   1      39.977  26.773  28.144  1.00  0.00    -0.014 A 
BRANCH  45  46
ATOM     46  C   UNL A   1      40.412  28.027  28.804  1.00  0.00     0.031 A 
ATOM     47  C   UNL A   1      41.743  28.126  29.485  1.00  0.00     0.074 A 
ATOM     48  C   UNL A   1      39.546  29.055  28.888  1.00  0.00     0.049 A 
ATOM     49  N   UNL A   1      42.175  29.046  30.312  1.00  0.00    -0.248 NA
ATOM     50  C   UNL A   1      42.704  27.046  29.224  1.00  0.00     0.031 C 
ATOM     51  C   UNL A   1      38.207  29.084  28.301  1.00  0.00     0.029 A 
ATOM     52  N   UNL A   1      39.659  30.260  29.536  1.00  0.00    -0.354 N 
ATOM     53  C   UNL A   1      43.427  28.619  30.731  1.00  0.00     0.074 A 
ATOM     54  C   UNL A   1      43.711  27.389  30.020  1.00  0.00     0.031 C 
ATOM     55  C   UNL A   1      37.606  30.236  28.644  1.00  0.00     0.029 A 
ATOM     56  C   UNL A   1      38.516  31.018  29.477  1.00  0.00     0.049 A 
ATOM     57  H   UNL A   1      40.478  30.552  29.997  1.00  0.00     0.167 HD
ATOM     58  C   UNL A   1      44.247  29.180  31.652  1.00  0.00     0.031 A 
ATOM     59  C   UNL A   1      38.223  32.201  30.045  1.00  0.00     0.031 A 
ATOM     60  C   UNL A   1      43.994  30.422  32.333  1.00  0.00     0.049 A 
ATOM     61  C   UNL A   1      39.241  32.902  30.891  1.00  0.00     0.074 A 
ATOM     62  C   UNL A   1      44.746  31.038  33.321  1.00  0.00     0.029 A 
ATOM     63  N   UNL A   1      42.923  31.256  32.071  1.00  0.00    -0.354 N 
ATOM     64  N   UNL A   1      40.394  32.458  31.322  1.00  0.00    -0.248 NA
ATOM     65  C   UNL A   1      38.923  34.275  31.313  1.00  0.00     0.031 C 
ATOM     66  C   UNL A   1      44.140  32.260  33.638  1.00  0.00     0.029 A 
ATOM     67  C   UNL A   1      43.015  32.401  32.845  1.00  0.00     0.049 A 
ATOM     68  H   UNL A   1      42.201  31.064  31.430  1.00  0.00     0.167 HD
ATOM     69  C   UNL A   1      40.935  33.488  32.077  1.00  0.00     0.074 A 
ATOM     70  C   UNL A   1      39.998  34.591  32.024  1.00  0.00     0.031 C 
ATOM     71  C   UNL A   1      42.099  33.505  32.768  1.00  0.00     0.031 A 
BRANCH  58  72
ATOM     72  C   UNL A   1      45.484  28.421  32.017  1.00  0.00    -0.014 A 
ATOM     73  C   UNL A   1      45.510  27.569  33.128  1.00  0.00     0.009 A 
ATOM     74  C   UNL A   1      46.623  28.525  31.202  1.00  0.00     0.009 A 
ATOM     75  C   UNL A   1      46.664  26.840  33.424  1.00  0.00     0.001 A 
ATOM     76  C   UNL A   1      47.771  27.789  31.496  1.00  0.00     0.001 A 
ATOM     77  C   UNL A   1      47.791  26.950  32.609  1.00  0.00     0.000 A 
ENDBRANCH  58  72
BRANCH  59  78
ATOM     78  C   UNL A   1      36.884  32.796  29.840  1.00  0.00    -0.014 A 
ATOM     79  C   UNL A   1      36.630  33.610  28.728  1.00  0.00     0.009 A 
ATOM     80  C   UNL A   1      35.851  32.530  30.750  1.00  0.00     0.009 A 
ATOM     81  C   UNL A   1      35.361  34.157  28.534  1.00  0.00     0.001 A 
ATOM     82  C   UNL A   1      34.582  33.074  30.550  1.00  0.00     0.001 A 
ATOM     83  C   UNL A   1      34.339  33.889  29.444  1.00  0.00     0.000 A 
ENDBRANCH  59  78
BRANCH  71  84
ATOM     84  C   UNL A   1      42.433  34.761  33.509  1.00  0.00    -0.014 A 
ATOM     85  C   UNL A   1      43.172  35.780  32.891  1.00  0.00     0.009 A 
ATOM     86  C   UNL A   1      41.990  34.937  34.827  1.00  0.00     0.009 A 
ATOM     87  C   UNL A   1      43.477  36.950  33.588  1.00  0.00     0.001 A 
ATOM     88  C   UNL A   1      42.294  36.109  35.521  1.00  0.00     0.001 A 
ATOM     89  C   UNL A   1      43.039  37.113  34.902  1.00  0.00     0.000 A 
ENDBRANCH  71  84
ENDBRANCH  45  46
ENDBRANCH  37  40
ENDBRANCH  35  36
ENDBRANCH  34  35
ENDBRANCH  33  34
ENDBRANCH  32  33
ENDBRANCH   1  32
TORSDOF 18
ENDMDL
MODEL 3
REMARK VINA RESULT:     -11.0      3.121      6.984
REMARK SMILES CC(C)c1ccc(NC(=O)C(=O)N/N=C/c2ccccc2C(=O)NCCCCCCNC(=O)c2ccc(-c3c4nc(c(-c5ccccc5)c5ccc([nH]5)c(-c5ccccc5)c5nc(c(-c6ccccc6)c6ccc3[nH]6)C=C5)C=C4)cc2)cc1
REMARK SMILES IDX 26 1 25 2 24 3 22 4 23 5 21 7 16 8 17 9 18 10 20 11 19 12
REMARK SMILES IDX 15 13 14 14 13 15 11 16 12 17 9 19 8 20 10 22 7 23 4 24 5 25
REMARK SMILES IDX 83 26 6 27 82 28 2 29 1 30 3 31 27 32 28 33 29 34 30 35
REMARK SMILES IDX 31 36 32 37 33 39 34 40 35 41 81 42 36 43 80 44 37 45 38 46
REMARK SMILES IDX 39 47 74 48 40 49 79 50 73 51 75 52 41 53 78 54 72 55 71 56
REMARK SMILES IDX 42 58 64 59 49 60 63 61 50 62 53 63 62 64 76 65 51 66 52 67
REMARK SMILES IDX 61 69 77 70 54 71 43 72 44 73 48 74 45 75 47 76 46 77 65 78
REMARK SMILES IDX 66 79 70 80 67 81 69 82 68 83 55 84 56 85 60 86 57 87 59 88
REMARK SMILES IDX 58 89
REMARK H PARENT 24 6 13 18 8 21 31 38 75 57 53 68
REMARK Flexibility Score: inf
ROOT
ATOM      1  C   UNL A   1      34.232  25.343  23.221  1.00  0.00     0.021 C 
ENDROOT
BRANCH   1   2
ATOM      2  C   UNL A   1      33.211  26.240  22.527  1.00  0.00     0.116 C 
BRANCH   2   3
ATOM      3  N   UNL A   1      33.210  27.623  22.922  1.00  0.00    -0.352 N 
ATOM      4  C   UNL A   1      32.214  28.435  23.399  1.00  0.00     0.251 C 
ATOM      5  O   UNL A   1      32.580  29.531  23.836  1.00  0.00    -0.269 OA
ATOM      6  H   UNL A   1      34.084  28.068  22.834  1.00  0.00     0.163 HD
BRANCH   4   7
ATOM      7  C   UNL A   1      30.741  28.171  23.353  1.00  0.00     0.048 A 
ATOM      8  C   UNL A   1      29.999  27.092  23.831  1.00  0.00     0.007 A 
ATOM      9  C   UNL A   1      28.588  27.065  23.720  1.00  0.00     0.010 A 
ATOM     10  C   UNL A   1      27.892  28.114  23.136  1.00  0.00     0.001 A 
ATOM     11  C   UNL A   1      29.999  29.225  22.762  1.00  0.00     0.014 A 
ATOM     12  C   UNL A   1      28.602  29.198  22.649  1.00  0.00     0.001 A 
BRANCH   8  13
ATOM     13  C   UNL A   1      30.493  25.835  24.381  1.00  0.00     0.142 C 
ATOM     14  N   UNL A   1      30.084  24.658  24.028  1.00  0.00    -0.180 NA
BRANCH  14  15
ATOM     15  N   UNL A   1      30.856  23.616  24.521  1.00  0.00    -0.239 N 
ATOM     16  C   UNL A   1      30.884  23.222  25.858  1.00  0.00     0.329 C 
ATOM     17  O   UNL A   1      29.930  23.224  26.627  1.00  0.00    -0.262 OA
ATOM     18  H   UNL A   1      31.421  23.121  23.885  1.00  0.00     0.194 HD
BRANCH  16  19
ATOM     19  C   UNL A   1      32.318  23.018  26.356  1.00  0.00     0.315 C 
ATOM     20  N   UNL A   1      32.916  21.784  26.414  1.00  0.00    -0.318 N 
ATOM     21  H   UNL A   1      33.603  21.722  27.116  1.00  0.00     0.170 HD
ATOM     22  O   UNL A   1      32.874  23.990  26.871  1.00  0.00    -0.263 OA
BRANCH  20  23
ATOM     23  C   UNL A   1      32.762  20.594  25.688  1.00  0.00     0.041 A 
ATOM     24  C   UNL A   1      32.832  18.069  24.393  1.00  0.00    -0.045 A 
ATOM     25  C   UNL A   1      32.635  19.252  23.673  1.00  0.00     0.006 A 
ATOM     26  C   UNL A   1      32.917  18.165  25.786  1.00  0.00     0.006 A 
ATOM     27  C   UNL A   1      32.620  20.505  24.309  1.00  0.00     0.026 A 
ATOM     28  C   UNL A   1      32.881  19.409  26.423  1.00  0.00     0.026 A 
BRANCH  24  29
ATOM     29  C   UNL A   1      33.031  16.711  23.733  1.00  0.00     0.013 C 
ATOM     30  C   UNL A   1      34.264  16.590  22.831  1.00  0.00     0.012 C 
ATOM     31  C   UNL A   1      33.092  15.622  24.813  1.00  0.00     0.012 C 
ENDBRANCH  24  29
ENDBRANCH  20  23
ENDBRANCH  16  19
ENDBRANCH  14  15
ENDBRANCH   8  13
ENDBRANCH   4   7
ENDBRANCH   2   3
ENDBRANCH   1   2
BRANCH   1  32
ATOM     32  C   UNL A   1      34.102  23.824  23.077  1.00  0.00     0.002 C 
BRANCH  32  33
ATOM     33  C   UNL A   1      35.171  22.904  23.671  1.00  0.00     0.002 C 
BRANCH  33  34
ATOM     34  C   UNL A   1      36.474  23.504  24.204  1.00  0.00     0.021 C 
BRANCH  34  35
ATOM     35  C   UNL A   1      36.909  23.159  25.627  1.00  0.00     0.116 C 
BRANCH  35  36
ATOM     36  N   UNL A   1      38.180  22.463  25.714  1.00  0.00    -0.352 N 
ATOM     37  C   UNL A   1      39.413  22.831  26.198  1.00  0.00     0.251 C 
ATOM     38  H   UNL A   1      38.153  21.546  25.355  1.00  0.00     0.163 HD
ATOM     39  O   UNL A   1      40.321  22.000  26.121  1.00  0.00    -0.269 OA
BRANCH  37  40
ATOM     40  C   UNL A   1      39.729  24.166  26.798  1.00  0.00     0.039 A 
ATOM     41  C   UNL A   1      39.269  24.428  28.101  1.00  0.00     0.014 A 
ATOM     42  C   UNL A   1      40.391  25.193  26.126  1.00  0.00     0.014 A 
ATOM     43  C   UNL A   1      39.508  25.662  28.728  1.00  0.00     0.010 A 
ATOM     44  C   UNL A   1      40.638  26.426  26.746  1.00  0.00     0.010 A 
ATOM     45  C   UNL A   1      40.208  26.668  28.055  1.00  0.00    -0.014 A 
BRANCH  45  46
ATOM     46  C   UNL A   1      40.564  27.950  28.710  1.00  0.00     0.031 A 
ATOM     47  C   UNL A   1      41.863  28.117  29.439  1.00  0.00     0.074 A 
ATOM     48  C   UNL A   1      39.654  28.942  28.743  1.00  0.00     0.049 A 
ATOM     49  N   UNL A   1      42.224  29.068  30.265  1.00  0.00    -0.248 NA
ATOM     50  C   UNL A   1      42.878  27.075  29.233  1.00  0.00     0.031 C 
ATOM     51  C   UNL A   1      38.338  28.904  28.105  1.00  0.00     0.029 A 
ATOM     52  N   UNL A   1      39.690  30.161  29.372  1.00  0.00    -0.354 N 
ATOM     53  C   UNL A   1      43.476  28.701  30.738  1.00  0.00     0.074 A 
ATOM     54  C   UNL A   1      43.838  27.473  30.061  1.00  0.00     0.031 C 
ATOM     55  C   UNL A   1      37.677  30.035  28.404  1.00  0.00     0.029 A 
ATOM     56  C   UNL A   1      38.520  30.868  29.257  1.00  0.00     0.049 A 
ATOM     57  H   UNL A   1      40.478  30.495  29.859  1.00  0.00     0.167 HD
ATOM     58  C   UNL A   1      44.235  29.312  31.680  1.00  0.00     0.031 A 
ATOM     59  C   UNL A   1      38.156  32.047  29.793  1.00  0.00     0.031 A 
ATOM     60  C   UNL A   1      43.904  30.552  32.329  1.00  0.00     0.049 A 
ATOM     61  C   UNL A   1      39.110  32.803  30.665  1.00  0.00     0.074 A 
ATOM     62  C   UNL A   1      44.591  31.215  33.333  1.00  0.00     0.029 A 
ATOM     63  N   UNL A   1      42.810  31.336  32.012  1.00  0.00    -0.354 N 
ATOM     64  N   UNL A   1      40.264  32.416  31.147  1.00  0.00    -0.248 NA
ATOM     65  C   UNL A   1      38.719  34.168  31.050  1.00  0.00     0.031 C 
ATOM     66  C   UNL A   1      43.922  32.416  33.606  1.00  0.00     0.029 A 
ATOM     67  C   UNL A   1      42.824  32.496  32.768  1.00  0.00     0.049 A 
ATOM     68  H   UNL A   1      42.122  31.103  31.347  1.00  0.00     0.167 HD
ATOM     69  C   UNL A   1      40.731  33.481  31.903  1.00  0.00     0.074 A 
ATOM     70  C   UNL A   1      39.751  34.542  31.796  1.00  0.00     0.031 C 
ATOM     71  C   UNL A   1      41.866  33.558  32.637  1.00  0.00     0.031 A 
BRANCH  58  72
ATOM     72  C   UNL A   1      45.488  28.612  32.105  1.00  0.00    -0.014 A 
ATOM     73  C   UNL A   1      46.717  28.888  31.492  1.00  0.00     0.009 A 
ATOM     74  C   UNL A   1      45.440  27.700  33.172  1.00  0.00     0.009 A 
ATOM     75  C   UNL A   1      47.879  28.251  31.934  1.00  0.00     0.001 A 
ATOM     76  C   UNL A   1      46.604  27.073  33.616  1.00  0.00     0.001 A 
ATOM     77  C   UNL A   1      47.821  27.346  32.995  1.00  0.00     0.000 A 
ENDBRANCH  58  72
BRANCH  59  78
ATOM     78  C   UNL A   1      36.802  32.580  29.527  1.00  0.00    -0.014 A 
ATOM     79  C   UNL A   1      36.509  33.196  28.302  1.00  0.00     0.009 A 
ATOM     80  C   UNL A   1      35.795  32.454  30.494  1.00  0.00     0.009 A 
ATOM     81  C   UNL A   1      35.226  33.686  28.054  1.00  0.00     0.001 A 
ATOM     82  C   UNL A   1      34.512  32.939  30.239  1.00  0.00     0.001 A 
ATOM     83  C   UNL A   1      34.229  33.557  29.022  1.00  0.00     0.000 A 
ENDBRANCH  59  78
BRANCH  71  84
ATOM     84  C   UNL A   1      42.118  34.839  33.368  1.00  0.00    -0.014 A 
ATOM     85  C   UNL A   1      42.945  35.826  32.814  1.00  0.00     0.009 A 
ATOM     86  C   UNL A   1      41.509  35.070  34.610  1.00  0.00     0.009 A 
ATOM     87  C   UNL A   1      43.172  37.020  33.502  1.00  0.00     0.001 A 
ATOM     88  C   UNL A   1      41.737  36.265  35.293  1.00  0.00     0.001 A 
ATOM     89  C   UNL A   1      42.570  37.237  34.740  1.00  0.00     0.000 A 
ENDBRANCH  71  84
ENDBRANCH  45  46
ENDBRANCH  37  40
ENDBRANCH  35  36
ENDBRANCH  34  35
ENDBRANCH  33  34
ENDBRANCH  32  33
ENDBRANCH   1  32
TORSDOF 18
ENDMDL
