MODEL 1
REMARK VINA RESULT:      -8.8      0.000      0.000
REMARK SMILES O=C(CS(=O)(=O)NCc1ccc(N2CCOCC2)nc1)NCCCCCCNC(=O)c1ccc(-c2c3nc(c(-c4ccccc4)c4ccc([nH]4)c(-c4ccccc4)c4nc(c(-c5ccccc5)c5ccc2[nH]5)C=C4)C=C3)cc1
REMARK SMILES IDX 23 1 22 2 21 3 1 4 2 5 3 7 4 8 5 9 6 10 7 11 8 13 9 14 10 15
REMARK SMILES IDX 20 16 11 17 19 18 12 19 13 20 14 21 18 22 15 23 17 24 16 25
REMARK SMILES IDX 24 26 25 27 26 28 27 29 28 30 29 31 30 33 31 34 32 35 78 36
REMARK SMILES IDX 33 37 77 38 34 39 35 40 36 41 71 42 37 43 76 44 70 45 72 46
REMARK SMILES IDX 38 47 75 48 69 49 68 50 39 52 61 53 46 54 60 55 47 56 50 57
REMARK SMILES IDX 59 58 73 59 48 60 49 61 58 63 74 64 51 65 40 66 41 67 45 68
REMARK SMILES IDX 42 69 44 70 43 71 62 72 63 73 67 74 64 75 66 76 65 77 52 78
REMARK SMILES IDX 53 79 57 80 54 81 56 82 55 83
REMARK H PARENT 21 6 7 12 28 32 72 51 50 62
REMARK Flexibility Score: inf
ROOT
ATOM      1  C   UNL A   1      35.527  34.218  33.545  1.00  0.00     0.021 C 
ENDROOT
BRANCH   1   2
ATOM      2  C   UNL A   1      35.566  32.693  33.591  1.00  0.00     0.116 C 
BRANCH   2   3
ATOM      3  N   UNL A   1      36.897  32.178  33.855  1.00  0.00    -0.355 N 
ATOM      4  O   UNL A   1      36.603  30.203  32.742  1.00  0.00    -0.274 OA
ATOM      5  C   UNL A   1      37.325  30.953  33.397  1.00  0.00     0.236 C 
ATOM      6  H   UNL A   1      37.520  32.729  34.383  1.00  0.00     0.163 HD
BRANCH   5   7
ATOM      7  C   UNL A   1      38.699  30.527  33.808  1.00  0.00     0.253 C 
BRANCH   7   8
ATOM      8  S   UNL A   1      38.998  30.802  35.530  1.00  0.00     0.220 S 
ATOM      9  O   UNL A   1      39.598  32.109  35.680  1.00  0.00    -0.212 OA
ATOM     10  O   UNL A   1      37.770  30.488  36.232  1.00  0.00    -0.212 OA
BRANCH   8  11
ATOM     11  N   UNL A   1      40.063  29.619  36.013  1.00  0.00    -0.210 NA
ATOM     12  H   UNL A   1      39.738  28.758  35.571  1.00  0.00     0.141 HD
BRANCH  11  13
ATOM     13  C   UNL A   1      41.508  29.667  35.774  1.00  0.00     0.135 C 
BRANCH  13  14
ATOM     14  C   UNL A   1      42.198  28.345  35.612  1.00  0.00    -0.015 A 
ATOM     15  C   UNL A   1      41.944  27.488  34.545  1.00  0.00     0.010 A 
ATOM     16  C   UNL A   1      43.139  27.916  36.541  1.00  0.00     0.118 A 
ATOM     17  C   UNL A   1      42.571  26.246  34.499  1.00  0.00     0.047 A 
ATOM     18  N   UNL A   1      43.735  26.698  36.533  1.00  0.00    -0.239 NA
ATOM     19  C   UNL A   1      43.444  25.867  35.516  1.00  0.00     0.128 A 
BRANCH  19  20
ATOM     20  N   UNL A   1      43.993  24.616  35.495  1.00  0.00    -0.352 N 
ATOM     21  C   UNL A   1      45.268  24.328  36.129  1.00  0.00     0.146 C 
ATOM     22  C   UNL A   1      43.288  23.485  34.910  1.00  0.00     0.146 C 
ATOM     23  C   UNL A   1      46.145  23.560  35.131  1.00  0.00     0.181 C 
ATOM     24  C   UNL A   1      44.250  22.718  33.987  1.00  0.00     0.181 C 
ATOM     25  O   UNL A   1      45.482  22.376  34.651  1.00  0.00    -0.378 OA
ENDBRANCH  19  20
ENDBRANCH  13  14
ENDBRANCH  11  13
ENDBRANCH   8  11
ENDBRANCH   7   8
ENDBRANCH   5   7
ENDBRANCH   2   3
ENDBRANCH   1   2
BRANCH   1  26
ATOM     26  C   UNL A   1      34.174  34.828  33.162  1.00  0.00     0.002 C 
BRANCH  26  27
ATOM     27  C   UNL A   1      34.228  36.012  32.197  1.00  0.00     0.002 C 
BRANCH  27  28
ATOM     28  C   UNL A   1      33.017  36.169  31.275  1.00  0.00     0.021 C 
BRANCH  28  29
ATOM     29  C   UNL A   1      33.355  36.410  29.809  1.00  0.00     0.116 C 
BRANCH  29  30
ATOM     30  N   UNL A   1      32.638  35.524  28.903  1.00  0.00    -0.352 N 
ATOM     31  C   UNL A   1      33.038  34.340  28.337  1.00  0.00     0.251 C 
ATOM     32  H   UNL A   1      31.731  35.820  28.660  1.00  0.00     0.163 HD
ATOM     33  O   UNL A   1      32.330  33.799  27.491  1.00  0.00    -0.269 OA
BRANCH  31  34
ATOM     34  C   UNL A   1      34.330  33.721  28.717  1.00  0.00     0.039 A 
ATOM     35  C   UNL A   1      35.461  33.983  27.937  1.00  0.00     0.014 A 
ATOM     36  C   UNL A   1      34.433  32.875  29.825  1.00  0.00     0.014 A 
ATOM     37  C   UNL A   1      36.701  33.453  28.304  1.00  0.00     0.010 A 
ATOM     38  C   UNL A   1      35.681  32.411  30.234  1.00  0.00     0.010 A 
ATOM     39  C   UNL A   1      36.828  32.692  29.477  1.00  0.00    -0.014 A 
BRANCH  39  40
ATOM     40  C   UNL A   1      38.144  32.168  29.927  1.00  0.00     0.031 A 
ATOM     41  C   UNL A   1      38.626  30.825  29.448  1.00  0.00     0.074 A 
ATOM     42  C   UNL A   1      38.875  32.866  30.818  1.00  0.00     0.049 A 
ATOM     43  N   UNL A   1      39.695  30.156  29.801  1.00  0.00    -0.248 NA
ATOM     44  C   UNL A   1      37.783  30.129  28.462  1.00  0.00     0.031 C 
ATOM     45  C   UNL A   1      38.507  34.164  31.389  1.00  0.00     0.029 A 
ATOM     46  N   UNL A   1      40.079  32.574  31.410  1.00  0.00    -0.354 N 
ATOM     47  C   UNL A   1      39.644  28.961  29.095  1.00  0.00     0.074 A 
ATOM     48  C   UNL A   1      38.415  28.972  28.332  1.00  0.00     0.031 C 
ATOM     49  C   UNL A   1      39.474  34.563  32.233  1.00  0.00     0.029 A 
ATOM     50  C   UNL A   1      40.507  33.535  32.295  1.00  0.00     0.049 A 
ATOM     51  H   UNL A   1      40.588  31.753  31.218  1.00  0.00     0.167 HD
ATOM     52  C   UNL A   1      40.548  27.953  29.063  1.00  0.00     0.031 A 
ATOM     53  C   UNL A   1      41.602  33.578  33.076  1.00  0.00     0.031 A 
ATOM     54  C   UNL A   1      41.777  27.944  29.808  1.00  0.00     0.049 A 
ATOM     55  C   UNL A   1      42.584  32.438  33.032  1.00  0.00     0.074 A 
ATOM     56  C   UNL A   1      42.775  26.983  29.815  1.00  0.00     0.029 A 
ATOM     57  N   UNL A   1      42.183  28.948  30.673  1.00  0.00    -0.354 N 
ATOM     58  N   UNL A   1      42.542  31.339  32.320  1.00  0.00    -0.248 NA
ATOM     59  C   UNL A   1      43.771  32.554  33.892  1.00  0.00     0.031 C 
ATOM     60  C   UNL A   1      43.766  27.388  30.714  1.00  0.00     0.029 A 
ATOM     61  C   UNL A   1      43.411  28.625  31.226  1.00  0.00     0.049 A 
ATOM     62  H   UNL A   1      41.674  29.769  30.865  1.00  0.00     0.167 HD
ATOM     63  C   UNL A   1      43.711  30.650  32.619  1.00  0.00     0.074 A 
ATOM     64  C   UNL A   1      44.447  31.462  33.565  1.00  0.00     0.031 C 
ATOM     65  C   UNL A   1      44.137  29.451  32.153  1.00  0.00     0.031 A 
BRANCH  52  66
ATOM     66  C   UNL A   1      40.242  26.774  28.183  1.00  0.00    -0.014 A 
ATOM     67  C   UNL A   1      40.793  26.673  26.895  1.00  0.00     0.009 A 
ATOM     68  C   UNL A   1      39.440  25.727  28.663  1.00  0.00     0.009 A 
ATOM     69  C   UNL A   1      40.522  25.561  26.095  1.00  0.00     0.001 A 
ATOM     70  C   UNL A   1      39.194  24.603  27.871  1.00  0.00     0.001 A 
ATOM     71  C   UNL A   1      39.728  24.525  26.586  1.00  0.00     0.000 A 
ENDBRANCH  52  66
BRANCH  53  72
ATOM     72  C   UNL A   1      41.842  34.740  33.973  1.00  0.00    -0.014 A 
ATOM     73  C   UNL A   1      42.506  35.883  33.497  1.00  0.00     0.009 A 
ATOM     74  C   UNL A   1      41.441  34.700  35.317  1.00  0.00     0.009 A 
ATOM     75  C   UNL A   1      42.796  36.942  34.358  1.00  0.00     0.001 A 
ATOM     76  C   UNL A   1      41.705  35.775  36.168  1.00  0.00     0.001 A 
ATOM     77  C   UNL A   1      42.395  36.890  35.692  1.00  0.00     0.000 A 
ENDBRANCH  53  72
BRANCH  65  78
ATOM     78  C   UNL A   1      45.482  28.970  32.618  1.00  0.00    -0.014 A 
ATOM     79  C   UNL A   1      46.637  29.173  31.850  1.00  0.00     0.009 A 
ATOM     80  C   UNL A   1      45.596  28.339  33.867  1.00  0.00     0.009 A 
ATOM     81  C   UNL A   1      47.877  28.722  32.308  1.00  0.00     0.001 A 
ATOM     82  C   UNL A   1      46.840  27.915  34.336  1.00  0.00     0.001 A 
ATOM     83  C   UNL A   1      47.978  28.099  33.551  1.00  0.00     0.000 A 
ENDBRANCH  65  78
ENDBRANCH  39  40
ENDBRANCH  31  34
ENDBRANCH  29  30
ENDBRANCH  28  29
ENDBRANCH  27  28
ENDBRANCH  26  27
ENDBRANCH   1  26
TORSDOF 18
ENDMDL
MODEL 2
REMARK VINA RESULT:      -8.7      5.467     11.599
REMARK SMILES O=C(CS(=O)(=O)NCc1ccc(N2CCOCC2)nc1)NCCCCCCNC(=O)c1ccc(-c2c3nc(c(-c4ccccc4)c4ccc([nH]4)c(-c4ccccc4)c4nc(c(-c5ccccc5)c5ccc2[nH]5)C=C4)C=C3)cc1
REMARK SMILES IDX 23 1 22 2 21 3 1 4 2 5 3 7 4 8 5 9 6 10 7 11 8 13 9 14 10 15
REMARK SMILES IDX 20 16 11 17 19 18 12 19 13 20 14 21 18 22 15 23 17 24 16 25
REMARK SMILES IDX 24 26 25 27 26 28 27 29 28 30 29 31 30 33 31 34 32 35 78 36
REMARK SMILES IDX 33 37 77 38 34 39 35 40 36 41 71 42 37 43 76 44 70 45 72 46
REMARK SMILES IDX 38 47 75 48 69 49 68 50 39 52 61 53 46 54 60 55 47 56 50 57
REMARK SMILES IDX 59 58 73 59 48 60 49 61 58 63 74 64 51 65 40 66 41 67 45 68
REMARK SMILES IDX 42 69 44 70 43 71 62 72 63 73 67 74 64 75 66 76 65 77 52 78
REMARK SMILES IDX 53 79 57 80 54 81 56 82 55 83
REMARK H PARENT 21 6 7 12 28 32 72 51 50 62
REMARK Flexibility Score: inf
ROOT
ATOM      1  C   UNL A   1      45.607  22.158  25.174  1.00  0.00     0.021 C 
ENDROOT
BRANCH   1   2
ATOM      2  C   UNL A   1      46.288  23.272  24.383  1.00  0.00     0.116 C 
BRANCH   2   3
ATOM      3  N   UNL A   1      46.344  24.522  25.116  1.00  0.00    -0.355 N 
ATOM      4  O   UNL A   1      48.024  25.443  23.868  1.00  0.00    -0.274 OA
ATOM      5  C   UNL A   1      47.219  25.534  24.794  1.00  0.00     0.236 C 
ATOM      6  H   UNL A   1      45.731  24.652  25.875  1.00  0.00     0.163 HD
BRANCH   5   7
ATOM      7  C   UNL A   1      47.210  26.736  25.685  1.00  0.00     0.253 C 
BRANCH   7   8
ATOM      8  S   UNL A   1      46.079  27.975  25.126  1.00  0.00     0.220 S 
ATOM      9  O   UNL A   1      46.681  28.664  24.007  1.00  0.00    -0.212 OA
ATOM     10  O   UNL A   1      44.788  27.335  24.968  1.00  0.00    -0.212 OA
BRANCH   8  11
ATOM     11  N   UNL A   1      45.865  29.022  26.402  1.00  0.00    -0.210 NA
ATOM     12  H   UNL A   1      45.927  28.448  27.243  1.00  0.00     0.141 HD
BRANCH  11  13
ATOM     13  C   UNL A   1      46.713  30.191  26.656  1.00  0.00     0.135 C 
BRANCH  13  14
ATOM     14  C   UNL A   1      46.014  31.516  26.716  1.00  0.00    -0.015 A 
ATOM     15  C   UNL A   1      44.627  31.638  26.694  1.00  0.00     0.010 A 
ATOM     16  C   UNL A   1      46.739  32.699  26.802  1.00  0.00     0.118 A 
ATOM     17  C   UNL A   1      44.052  32.906  26.682  1.00  0.00     0.047 A 
ATOM     18  N   UNL A   1      46.201  33.942  26.757  1.00  0.00    -0.239 NA
ATOM     19  C   UNL A   1      44.859  34.040  26.692  1.00  0.00     0.128 A 
BRANCH  19  20
ATOM     20  N   UNL A   1      44.282  35.275  26.604  1.00  0.00    -0.352 N 
ATOM     21  C   UNL A   1      45.035  36.493  26.851  1.00  0.00     0.146 C 
ATOM     22  C   UNL A   1      42.902  35.441  26.175  1.00  0.00     0.146 C 
ATOM     23  C   UNL A   1      44.234  37.372  27.822  1.00  0.00     0.181 C 
ATOM     24  C   UNL A   1      42.185  36.395  27.146  1.00  0.00     0.181 C 
ATOM     25  O   UNL A   1      42.907  37.628  27.326  1.00  0.00    -0.378 OA
ENDBRANCH  19  20
ENDBRANCH  13  14
ENDBRANCH  11  13
ENDBRANCH   8  11
ENDBRANCH   7   8
ENDBRANCH   5   7
ENDBRANCH   2   3
ENDBRANCH   1   2
BRANCH   1  26
ATOM     26  C   UNL A   1      45.348  20.864  24.396  1.00  0.00     0.002 C 
BRANCH  26  27
ATOM     27  C   UNL A   1      45.339  19.580  25.226  1.00  0.00     0.002 C 
BRANCH  27  28
ATOM     28  C   UNL A   1      44.124  18.672  25.026  1.00  0.00     0.021 C 
BRANCH  28  29
ATOM     29  C   UNL A   1      43.241  18.504  26.255  1.00  0.00     0.116 C 
BRANCH  29  30
ATOM     30  N   UNL A   1      41.820  18.631  25.959  1.00  0.00    -0.352 N 
ATOM     31  C   UNL A   1      40.966  19.679  26.197  1.00  0.00     0.251 C 
ATOM     32  H   UNL A   1      41.412  17.847  25.525  1.00  0.00     0.163 HD
ATOM     33  O   UNL A   1      39.763  19.544  25.987  1.00  0.00    -0.269 OA
BRANCH  31  34
ATOM     34  C   UNL A   1      41.478  20.963  26.731  1.00  0.00     0.039 A 
ATOM     35  C   UNL A   1      41.884  21.955  25.833  1.00  0.00     0.014 A 
ATOM     36  C   UNL A   1      41.575  21.191  28.106  1.00  0.00     0.014 A 
ATOM     37  C   UNL A   1      42.323  23.193  26.311  1.00  0.00     0.010 A 
ATOM     38  C   UNL A   1      41.938  22.450  28.580  1.00  0.00     0.010 A 
ATOM     39  C   UNL A   1      42.319  23.464  27.688  1.00  0.00    -0.014 A 
BRANCH  39  40
ATOM     40  C   UNL A   1      42.720  24.791  28.222  1.00  0.00     0.031 A 
ATOM     41  C   UNL A   1      41.693  25.879  28.392  1.00  0.00     0.074 A 
ATOM     42  C   UNL A   1      44.017  25.043  28.491  1.00  0.00     0.049 A 
ATOM     43  N   UNL A   1      41.862  27.126  28.749  1.00  0.00    -0.248 NA
ATOM     44  C   UNL A   1      40.295  25.523  28.096  1.00  0.00     0.031 C 
ATOM     45  C   UNL A   1      45.118  24.089  28.337  1.00  0.00     0.029 A 
ATOM     46  N   UNL A   1      44.629  26.187  28.940  1.00  0.00    -0.354 N 
ATOM     47  C   UNL A   1      40.600  27.706  28.706  1.00  0.00     0.074 A 
ATOM     48  C   UNL A   1      39.683  26.690  28.240  1.00  0.00     0.031 C 
ATOM     49  C   UNL A   1      46.267  24.682  28.704  1.00  0.00     0.029 A 
ATOM     50  C   UNL A   1      45.991  26.065  29.078  1.00  0.00     0.049 A 
ATOM     51  H   UNL A   1      44.139  27.016  29.144  1.00  0.00     0.167 HD
ATOM     52  C   UNL A   1      40.230  28.964  29.046  1.00  0.00     0.031 A 
ATOM     53  C   UNL A   1      46.916  26.969  29.453  1.00  0.00     0.031 A 
ATOM     54  C   UNL A   1      41.136  29.973  29.524  1.00  0.00     0.049 A 
ATOM     55  C   UNL A   1      46.481  28.363  29.812  1.00  0.00     0.074 A 
ATOM     56  C   UNL A   1      40.850  31.267  29.926  1.00  0.00     0.029 A 
ATOM     57  N   UNL A   1      42.503  29.800  29.671  1.00  0.00    -0.354 N 
ATOM     58  N   UNL A   1      45.275  28.878  29.813  1.00  0.00    -0.248 NA
ATOM     59  C   UNL A   1      47.534  29.297  30.236  1.00  0.00     0.031 C 
ATOM     60  C   UNL A   1      42.051  31.889  30.282  1.00  0.00     0.029 A 
ATOM     61  C   UNL A   1      43.075  30.966  30.150  1.00  0.00     0.049 A 
ATOM     62  H   UNL A   1      42.993  28.971  29.467  1.00  0.00     0.167 HD
ATOM     63  C   UNL A   1      45.421  30.182  30.268  1.00  0.00     0.074 A 
ATOM     64  C   UNL A   1      46.828  30.375  30.548  1.00  0.00     0.031 C 
ATOM     65  C   UNL A   1      44.474  31.137  30.438  1.00  0.00     0.031 A 
BRANCH  52  66
ATOM     66  C   UNL A   1      38.775  29.317  28.920  1.00  0.00    -0.014 A 
ATOM     67  C   UNL A   1      38.234  29.723  27.689  1.00  0.00     0.009 A 
ATOM     68  C   UNL A   1      37.923  29.193  30.029  1.00  0.00     0.009 A 
ATOM     69  C   UNL A   1      36.876  30.026  27.579  1.00  0.00     0.001 A 
ATOM     70  C   UNL A   1      36.559  29.470  29.908  1.00  0.00     0.001 A 
ATOM     71  C   UNL A   1      36.039  29.894  28.686  1.00  0.00     0.000 A 
ENDBRANCH  52  66
BRANCH  53  72
ATOM     72  C   UNL A   1      48.354  26.593  29.515  1.00  0.00    -0.014 A 
ATOM     73  C   UNL A   1      48.884  25.986  30.666  1.00  0.00     0.009 A 
ATOM     74  C   UNL A   1      49.212  26.870  28.439  1.00  0.00     0.009 A 
ATOM     75  C   UNL A   1      50.248  25.702  30.751  1.00  0.00     0.001 A 
ATOM     76  C   UNL A   1      50.570  26.555  28.516  1.00  0.00     0.001 A 
ATOM     77  C   UNL A   1      51.090  25.985  29.677  1.00  0.00     0.000 A 
ENDBRANCH  53  72
BRANCH  65  78
ATOM     78  C   UNL A   1      44.921  32.457  31.000  1.00  0.00    -0.014 A 
ATOM     79  C   UNL A   1      44.923  32.700  32.382  1.00  0.00     0.009 A 
ATOM     80  C   UNL A   1      45.384  33.456  30.131  1.00  0.00     0.009 A 
ATOM     81  C   UNL A   1      45.349  33.933  32.878  1.00  0.00     0.001 A 
ATOM     82  C   UNL A   1      45.837  34.676  30.631  1.00  0.00     0.001 A 
ATOM     83  C   UNL A   1      45.810  34.918  32.005  1.00  0.00     0.000 A 
ENDBRANCH  65  78
ENDBRANCH  39  40
ENDBRANCH  31  34
ENDBRANCH  29  30
ENDBRANCH  28  29
ENDBRANCH  27  28
ENDBRANCH  26  27
ENDBRANCH   1  26
TORSDOF 18
ENDMDL
MODEL 3
REMARK VINA RESULT:      -8.6      5.483     11.621
REMARK SMILES O=C(CS(=O)(=O)NCc1ccc(N2CCOCC2)nc1)NCCCCCCNC(=O)c1ccc(-c2c3nc(c(-c4ccccc4)c4ccc([nH]4)c(-c4ccccc4)c4nc(c(-c5ccccc5)c5ccc2[nH]5)C=C4)C=C3)cc1
REMARK SMILES IDX 23 1 22 2 21 3 1 4 2 5 3 7 4 8 5 9 6 10 7 11 8 13 9 14 10 15
REMARK SMILES IDX 20 16 11 17 19 18 12 19 13 20 14 21 18 22 15 23 17 24 16 25
REMARK SMILES IDX 24 26 25 27 26 28 27 29 28 30 29 31 30 33 31 34 32 35 78 36
REMARK SMILES IDX 33 37 77 38 34 39 35 40 36 41 71 42 37 43 76 44 70 45 72 46
REMARK SMILES IDX 38 47 75 48 69 49 68 50 39 52 61 53 46 54 60 55 47 56 50 57
REMARK SMILES IDX 59 58 73 59 48 60 49 61 58 63 74 64 51 65 40 66 41 67 45 68
REMARK SMILES IDX 42 69 44 70 43 71 62 72 63 73 67 74 64 75 66 76 65 77 52 78
REMARK SMILES IDX 53 79 57 80 54 81 56 82 55 83
REMARK H PARENT 21 6 7 12 28 32 72 51 50 62
REMARK Flexibility Score: inf
ROOT
ATOM      1  C   UNL A   1      45.883  22.148  25.217  1.00  0.00     0.021 C 
ENDROOT
BRANCH   1   2
ATOM      2  C   UNL A   1      46.397  23.315  24.378  1.00  0.00     0.116 C 
BRANCH   2   3
ATOM      3  N   UNL A   1      46.540  24.536  25.149  1.00  0.00    -0.355 N 
ATOM      4  O   UNL A   1      47.984  25.555  23.700  1.00  0.00    -0.274 OA
ATOM      5  C   UNL A   1      47.332  25.585  24.742  1.00  0.00     0.236 C 
ATOM      6  H   UNL A   1      46.050  24.616  26.000  1.00  0.00     0.163 HD
BRANCH   5   7
ATOM      7  C   UNL A   1      47.435  26.748  25.678  1.00  0.00     0.253 C 
BRANCH   7   8
ATOM      8  S   UNL A   1      46.127  27.914  25.443  1.00  0.00     0.220 S 
ATOM      9  O   UNL A   1      46.392  28.651  24.227  1.00  0.00    -0.212 OA
ATOM     10  O   UNL A   1      44.879  27.192  25.591  1.00  0.00    -0.212 OA
BRANCH   8  11
ATOM     11  N   UNL A   1      46.170  28.934  26.757  1.00  0.00    -0.210 NA
ATOM     12  H   UNL A   1      46.462  28.356  27.546  1.00  0.00     0.141 HD
BRANCH  11  13
ATOM     13  C   UNL A   1      46.990  30.147  26.830  1.00  0.00     0.135 C 
BRANCH  13  14
ATOM     14  C   UNL A   1      46.249  31.450  26.817  1.00  0.00    -0.015 A 
ATOM     15  C   UNL A   1      44.878  31.535  26.591  1.00  0.00     0.010 A 
ATOM     16  C   UNL A   1      46.916  32.650  27.037  1.00  0.00     0.118 A 
ATOM     17  C   UNL A   1      44.271  32.787  26.524  1.00  0.00     0.047 A 
ATOM     18  N   UNL A   1      46.352  33.879  26.943  1.00  0.00    -0.239 NA
ATOM     19  C   UNL A   1      45.033  33.942  26.681  1.00  0.00     0.128 A 
BRANCH  19  20
ATOM     20  N   UNL A   1      44.436  35.162  26.538  1.00  0.00    -0.352 N 
ATOM     21  C   UNL A   1      45.140  36.399  26.833  1.00  0.00     0.146 C 
ATOM     22  C   UNL A   1      43.091  35.293  26.000  1.00  0.00     0.146 C 
ATOM     23  C   UNL A   1      44.246  37.265  27.730  1.00  0.00     0.181 C 
ATOM     24  C   UNL A   1      42.279  36.237  26.904  1.00  0.00     0.181 C 
ATOM     25  O   UNL A   1      42.957  37.488  27.130  1.00  0.00    -0.378 OA
ENDBRANCH  19  20
ENDBRANCH  13  14
ENDBRANCH  11  13
ENDBRANCH   8  11
ENDBRANCH   7   8
ENDBRANCH   5   7
ENDBRANCH   2   3
ENDBRANCH   1   2
BRANCH   1  26
ATOM     26  C   UNL A   1      45.739  20.817  24.471  1.00  0.00     0.002 C 
BRANCH  26  27
ATOM     27  C   UNL A   1      45.938  19.558  25.314  1.00  0.00     0.002 C 
BRANCH  27  28
ATOM     28  C   UNL A   1      44.812  18.526  25.237  1.00  0.00     0.021 C 
BRANCH  28  29
ATOM     29  C   UNL A   1      43.826  18.566  26.398  1.00  0.00     0.116 C 
BRANCH  29  30
ATOM     30  N   UNL A   1      42.441  18.400  25.977  1.00  0.00    -0.352 N 
ATOM     31  C   UNL A   1      41.392  19.282  26.050  1.00  0.00     0.251 C 
ATOM     32  H   UNL A   1      42.226  17.524  25.583  1.00  0.00     0.163 HD
ATOM     33  O   UNL A   1      40.260  18.908  25.756  1.00  0.00    -0.269 OA
BRANCH  31  34
ATOM     34  C   UNL A   1      41.608  20.675  26.507  1.00  0.00     0.039 A 
ATOM     35  C   UNL A   1      41.311  21.006  27.833  1.00  0.00     0.014 A 
ATOM     36  C   UNL A   1      42.087  21.659  25.638  1.00  0.00     0.014 A 
ATOM     37  C   UNL A   1      41.555  22.300  28.301  1.00  0.00     0.010 A 
ATOM     38  C   UNL A   1      42.402  22.925  26.124  1.00  0.00     0.010 A 
ATOM     39  C   UNL A   1      42.137  23.262  27.460  1.00  0.00    -0.014 A 
BRANCH  39  40
ATOM     40  C   UNL A   1      42.467  24.627  27.947  1.00  0.00     0.031 A 
ATOM     41  C   UNL A   1      43.873  24.961  28.366  1.00  0.00     0.074 A 
ATOM     42  C   UNL A   1      41.490  25.546  28.078  1.00  0.00     0.049 A 
ATOM     43  N   UNL A   1      44.336  26.059  28.906  1.00  0.00    -0.248 NA
ATOM     44  C   UNL A   1      44.889  23.911  28.176  1.00  0.00     0.031 C 
ATOM     45  C   UNL A   1      40.079  25.342  27.742  1.00  0.00     0.029 A 
ATOM     46  N   UNL A   1      41.536  26.838  28.543  1.00  0.00    -0.354 N 
ATOM     47  C   UNL A   1      45.687  25.828  29.134  1.00  0.00     0.074 A 
ATOM     48  C   UNL A   1      45.960  24.469  28.721  1.00  0.00     0.031 C 
ATOM     49  C   UNL A   1      39.399  26.474  27.994  1.00  0.00     0.029 A 
ATOM     50  C   UNL A   1      40.314  27.466  28.546  1.00  0.00     0.049 A 
ATOM     51  H   UNL A   1      42.366  27.272  28.844  1.00  0.00     0.167 HD
ATOM     52  C   UNL A   1      46.625  26.677  29.620  1.00  0.00     0.031 A 
ATOM     53  C   UNL A   1      39.967  28.701  28.957  1.00  0.00     0.031 A 
ATOM     54  C   UNL A   1      46.361  28.033  30.017  1.00  0.00     0.049 A 
ATOM     55  C   UNL A   1      41.025  29.619  29.506  1.00  0.00     0.074 A 
ATOM     56  C   UNL A   1      47.252  28.982  30.490  1.00  0.00     0.029 A 
ATOM     57  N   UNL A   1      45.114  28.637  29.981  1.00  0.00    -0.354 N 
ATOM     58  N   UNL A   1      42.308  29.399  29.667  1.00  0.00    -0.248 NA
ATOM     59  C   UNL A   1      40.588  30.960  29.918  1.00  0.00     0.031 C 
ATOM     60  C   UNL A   1      46.537  30.149  30.776  1.00  0.00     0.029 A 
ATOM     61  C   UNL A   1      45.211  29.943  30.432  1.00  0.00     0.049 A 
ATOM     62  H   UNL A   1      44.284  28.203  29.680  1.00  0.00     0.167 HD
ATOM     63  C   UNL A   1      42.834  30.583  30.166  1.00  0.00     0.074 A 
ATOM     64  C   UNL A   1      41.737  31.523  30.266  1.00  0.00     0.031 C 
ATOM     65  C   UNL A   1      44.113  30.869  30.511  1.00  0.00     0.031 A 
BRANCH  52  66
ATOM     66  C   UNL A   1      48.031  26.162  29.741  1.00  0.00    -0.014 A 
ATOM     67  C   UNL A   1      48.926  26.247  28.663  1.00  0.00     0.009 A 
ATOM     68  C   UNL A   1      48.484  25.635  30.960  1.00  0.00     0.009 A 
ATOM     69  C   UNL A   1      50.238  25.788  28.795  1.00  0.00     0.001 A 
ATOM     70  C   UNL A   1      49.805  25.202  31.098  1.00  0.00     0.001 A 
ATOM     71  C   UNL A   1      50.678  25.271  30.013  1.00  0.00     0.000 A 
ENDBRANCH  52  66
BRANCH  53  72
ATOM     72  C   UNL A   1      38.553  29.154  28.868  1.00  0.00    -0.014 A 
ATOM     73  C   UNL A   1      38.061  29.726  27.683  1.00  0.00     0.009 A 
ATOM     74  C   UNL A   1      37.698  29.051  29.977  1.00  0.00     0.009 A 
ATOM     75  C   UNL A   1      36.756  30.219  27.625  1.00  0.00     0.001 A 
ATOM     76  C   UNL A   1      36.384  29.516  29.904  1.00  0.00     0.001 A 
ATOM     77  C   UNL A   1      35.918  30.113  28.733  1.00  0.00     0.000 A 
ENDBRANCH  53  72
BRANCH  65  78
ATOM     78  C   UNL A   1      44.405  32.267  30.978  1.00  0.00    -0.014 A 
ATOM     79  C   UNL A   1      44.747  33.284  30.074  1.00  0.00     0.009 A 
ATOM     80  C   UNL A   1      44.294  32.576  32.342  1.00  0.00     0.009 A 
ATOM     81  C   UNL A   1      45.007  34.576  30.534  1.00  0.00     0.001 A 
ATOM     82  C   UNL A   1      44.524  33.875  32.796  1.00  0.00     0.001 A 
ATOM     83  C   UNL A   1      44.890  34.872  31.892  1.00  0.00     0.000 A 
ENDBRANCH  65  78
ENDBRANCH  39  40
ENDBRANCH  31  34
ENDBRANCH  29  30
ENDBRANCH  28  29
ENDBRANCH  27  28
ENDBRANCH  26  27
ENDBRANCH   1  26
TORSDOF 18
ENDMDL
