MODEL 1
REMARK VINA RESULT:     -12.0      0.000      0.000
REMARK SMILES C[NH+]1CCC(C(=O)N2C[C@@H](C(=O)NCCCCCCNC(=O)c3ccc(-c4c5nc(c(-c6ccccc6)c6ccc([nH]6)c(-c6ccccc6)c6nc(c(-c7ccccc7)c7ccc4[nH]7)C=C6)C=C5)cc3)[C@H](c3ccc4c(c3)OCO4)C2)CC1
REMARK SMILES IDX 16 1 15 2 14 3 13 4 11 5 12 6 10 8 8 9 9 10 81 11 71 12 6 13
REMARK SMILES IDX 7 14 5 15 1 16 2 17 3 18 83 19 4 21 82 22 72 23 73 24 77 25
REMARK SMILES IDX 74 26 76 27 75 28 78 29 80 30 79 31 17 32 18 33 19 34 20 35
REMARK SMILES IDX 21 36 22 38 23 39 24 40 70 41 25 42 69 43 26 44 27 45 28 46
REMARK SMILES IDX 63 47 29 48 68 49 62 50 64 51 30 52 67 53 61 54 60 55 31 57
REMARK SMILES IDX 53 58 38 59 52 60 39 61 42 62 51 63 65 64 40 65 41 66 50 68
REMARK SMILES IDX 66 69 43 70 32 71 33 72 37 73 34 74 36 75 35 76 54 77 55 78
REMARK SMILES IDX 59 79 56 80 58 81 57 82 44 83 45 84 49 85 46 86 48 87 47 88
REMARK H PARENT 13 7 2 20 20 37 64 56 42 67
REMARK Flexibility Score: inf
ROOT
ATOM      1  C   UNL A   1      34.849  30.451  27.979  1.00  0.00     0.002 C 
ENDROOT
BRANCH   1   2
ATOM      2  C   UNL A   1      34.375  29.491  26.881  1.00  0.00     0.021 C 
BRANCH   2   3
ATOM      3  C   UNL A   1      33.263  30.027  25.980  1.00  0.00     0.116 C 
BRANCH   3   4
ATOM      4  N   UNL A   1      33.449  29.676  24.581  1.00  0.00    -0.356 N 
ATOM      5  C   UNL A   1      32.651  28.949  23.747  1.00  0.00     0.225 C 
ATOM      6  O   UNL A   1      32.957  28.890  22.555  1.00  0.00    -0.275 OA
ATOM      7  H   UNL A   1      34.277  30.017  24.174  1.00  0.00     0.163 HD
BRANCH   5   8
ATOM      8  C   UNL A   1      31.429  28.245  24.291  1.00  0.00     0.107 C 
ATOM      9  N   UNL A   1      30.420  26.227  24.768  1.00  0.00    -0.341 N 
ATOM     10  C   UNL A   1      31.740  26.793  24.600  1.00  0.00     0.133 C 
ATOM     11  C   UNL A   1      29.512  26.842  23.800  1.00  0.00     0.128 C 
ATOM     12  C   UNL A   1      30.272  28.087  23.277  1.00  0.00     0.053 C 
BRANCH   9  13
ATOM     13  C   UNL A   1      29.962  25.267  25.633  1.00  0.00     0.226 C 
ATOM     14  O   UNL A   1      29.133  25.569  26.501  1.00  0.00    -0.275 OA
BRANCH  13  15
ATOM     15  C   UNL A   1      30.686  23.920  25.761  1.00  0.00     0.090 C 
ATOM     16  C   UNL A   1      33.775  20.968  26.225  1.00  0.00     0.332 C 
ATOM     17  N   UNL A   1      33.016  22.181  25.931  1.00  0.00    -0.337 N 
ATOM     18  C   UNL A   1      32.440  22.743  27.158  1.00  0.00     0.262 C 
ATOM     19  C   UNL A   1      31.966  21.914  24.935  1.00  0.00     0.262 C 
ATOM     20  H   UNL A   1      33.657  22.868  25.535  1.00  0.00     0.347 HD
ATOM     21  C   UNL A   1      31.744  24.068  26.864  1.00  0.00     0.075 C 
ATOM     22  C   UNL A   1      31.292  23.232  24.542  1.00  0.00     0.075 C 
ENDBRANCH  13  15
ENDBRANCH   9  13
BRANCH  12  23
ATOM     23  C   UNL A   1      29.510  29.388  23.124  1.00  0.00    -0.038 A 
ATOM     24  C   UNL A   1      29.628  30.460  24.040  1.00  0.00     0.008 A 
ATOM     25  C   UNL A   1      28.792  29.587  21.929  1.00  0.00     0.054 A 
ATOM     26  C   UNL A   1      29.082  31.718  23.755  1.00  0.00     0.051 A 
ATOM     27  C   UNL A   1      28.305  30.847  21.656  1.00  0.00     0.166 A 
ATOM     28  C   UNL A   1      28.455  31.887  22.540  1.00  0.00     0.165 A 
ATOM     29  O   UNL A   1      27.725  31.235  20.489  1.00  0.00    -0.454 OA
ATOM     30  O   UNL A   1      27.982  33.059  22.039  1.00  0.00    -0.454 OA
ATOM     31  C   UNL A   1      27.672  32.661  20.687  1.00  0.00     0.468 C 
ENDBRANCH  12  23
ENDBRANCH   5   8
ENDBRANCH   3   4
ENDBRANCH   2   3
ENDBRANCH   1   2
BRANCH   1  32
ATOM     32  C   UNL A   1      34.828  31.942  27.628  1.00  0.00     0.002 C 
BRANCH  32  33
ATOM     33  C   UNL A   1      33.551  32.693  28.004  1.00  0.00     0.021 C 
BRANCH  33  34
ATOM     34  C   UNL A   1      33.661  34.212  28.012  1.00  0.00     0.116 C 
BRANCH  34  35
ATOM     35  N   UNL A   1      33.262  34.791  29.286  1.00  0.00    -0.352 N 
ATOM     36  C   UNL A   1      33.726  34.540  30.552  1.00  0.00     0.251 C 
ATOM     37  H   UNL A   1      32.548  35.466  29.231  1.00  0.00     0.163 HD
ATOM     38  O   UNL A   1      33.125  35.009  31.523  1.00  0.00    -0.269 OA
BRANCH  36  39
ATOM     39  C   UNL A   1      34.923  33.697  30.778  1.00  0.00     0.039 A 
ATOM     40  C   UNL A   1      36.169  34.165  30.348  1.00  0.00     0.014 A 
ATOM     41  C   UNL A   1      34.829  32.440  31.380  1.00  0.00     0.014 A 
ATOM     42  C   UNL A   1      37.320  33.403  30.573  1.00  0.00     0.010 A 
ATOM     43  C   UNL A   1      35.985  31.721  31.682  1.00  0.00     0.010 A 
ATOM     44  C   UNL A   1      37.243  32.188  31.273  1.00  0.00    -0.014 A 
BRANCH  44  45
ATOM     45  C   UNL A   1      38.460  31.389  31.574  1.00  0.00     0.031 A 
ATOM     46  C   UNL A   1      39.290  31.700  32.793  1.00  0.00     0.074 A 
ATOM     47  C   UNL A   1      38.860  30.425  30.719  1.00  0.00     0.049 A 
ATOM     48  N   UNL A   1      40.422  31.165  33.180  1.00  0.00    -0.248 NA
ATOM     49  C   UNL A   1      38.802  32.771  33.678  1.00  0.00     0.031 C 
ATOM     50  C   UNL A   1      38.176  30.052  29.478  1.00  0.00     0.029 A 
ATOM     51  N   UNL A   1      39.950  29.590  30.757  1.00  0.00    -0.354 N 
ATOM     52  C   UNL A   1      40.791  31.851  34.330  1.00  0.00     0.074 A 
ATOM     53  C   UNL A   1      39.788  32.867  34.559  1.00  0.00     0.031 C 
ATOM     54  C   UNL A   1      38.851  29.054  28.885  1.00  0.00     0.029 A 
ATOM     55  C   UNL A   1      40.035  28.742  29.679  1.00  0.00     0.049 A 
ATOM     56  H   UNL A   1      40.608  29.598  31.489  1.00  0.00     0.167 HD
ATOM     57  C   UNL A   1      41.861  31.645  35.135  1.00  0.00     0.031 A 
ATOM     58  C   UNL A   1      40.968  27.825  29.357  1.00  0.00     0.031 A 
ATOM     59  C   UNL A   1      42.840  30.612  34.932  1.00  0.00     0.049 A 
ATOM     60  C   UNL A   1      42.138  27.609  30.277  1.00  0.00     0.074 A 
ATOM     61  C   UNL A   1      43.910  30.273  35.741  1.00  0.00     0.029 A 
ATOM     62  N   UNL A   1      42.870  29.754  33.845  1.00  0.00    -0.354 N 
ATOM     63  N   UNL A   1      42.422  28.210  31.407  1.00  0.00    -0.248 NA
ATOM     64  C   UNL A   1      43.110  26.579  29.884  1.00  0.00     0.031 C 
ATOM     65  C   UNL A   1      44.622  29.245  35.116  1.00  0.00     0.029 A 
ATOM     66  C   UNL A   1      43.958  28.905  33.949  1.00  0.00     0.049 A 
ATOM     67  H   UNL A   1      42.214  29.749  33.110  1.00  0.00     0.167 HD
ATOM     68  C   UNL A   1      43.585  27.611  31.872  1.00  0.00     0.074 A 
ATOM     69  C   UNL A   1      43.942  26.586  30.914  1.00  0.00     0.031 C 
ATOM     70  C   UNL A   1      44.296  27.885  32.992  1.00  0.00     0.031 A 
BRANCH  57  71
ATOM     71  C   UNL A   1      42.037  32.556  36.319  1.00  0.00    -0.014 A 
ATOM     72  C   UNL A   1      41.494  32.237  37.573  1.00  0.00     0.009 A 
ATOM     73  C   UNL A   1      42.825  33.712  36.193  1.00  0.00     0.009 A 
ATOM     74  C   UNL A   1      41.718  33.070  38.672  1.00  0.00     0.001 A 
ATOM     75  C   UNL A   1      43.068  34.528  37.298  1.00  0.00     0.001 A 
ATOM     76  C   UNL A   1      42.510  34.210  38.535  1.00  0.00     0.000 A 
ENDBRANCH  57  71
BRANCH  58  77
ATOM     77  C   UNL A   1      40.848  27.038  28.100  1.00  0.00    -0.014 A 
ATOM     78  C   UNL A   1      40.110  25.844  28.068  1.00  0.00     0.009 A 
ATOM     79  C   UNL A   1      41.502  27.459  26.932  1.00  0.00     0.009 A 
ATOM     80  C   UNL A   1      40.066  25.068  26.908  1.00  0.00     0.001 A 
ATOM     81  C   UNL A   1      41.429  26.698  25.762  1.00  0.00     0.001 A 
ATOM     82  C   UNL A   1      40.723  25.496  25.755  1.00  0.00     0.000 A 
ENDBRANCH  58  77
BRANCH  70  83
ATOM     83  C   UNL A   1      45.507  27.038  33.267  1.00  0.00    -0.014 A 
ATOM     84  C   UNL A   1      46.785  27.434  32.843  1.00  0.00     0.009 A 
ATOM     85  C   UNL A   1      45.370  25.849  34.000  1.00  0.00     0.009 A 
ATOM     86  C   UNL A   1      47.897  26.637  33.119  1.00  0.00     0.001 A 
ATOM     87  C   UNL A   1      46.487  25.071  34.301  1.00  0.00     0.001 A 
ATOM     88  C   UNL A   1      47.748  25.459  33.851  1.00  0.00     0.000 A 
ENDBRANCH  70  83
ENDBRANCH  44  45
ENDBRANCH  36  39
ENDBRANCH  34  35
ENDBRANCH  33  34
ENDBRANCH  32  33
ENDBRANCH   1  32
TORSDOF 16
ENDMDL
MODEL 2
REMARK VINA RESULT:     -11.9      1.877      2.874
REMARK SMILES C[NH+]1CCC(C(=O)N2C[C@@H](C(=O)NCCCCCCNC(=O)c3ccc(-c4c5nc(c(-c6ccccc6)c6ccc([nH]6)c(-c6ccccc6)c6nc(c(-c7ccccc7)c7ccc4[nH]7)C=C6)C=C5)cc3)[C@H](c3ccc4c(c3)OCO4)C2)CC1
REMARK SMILES IDX 16 1 15 2 14 3 13 4 11 5 12 6 10 8 8 9 9 10 81 11 71 12 6 13
REMARK SMILES IDX 7 14 5 15 1 16 2 17 3 18 83 19 4 21 82 22 72 23 73 24 77 25
REMARK SMILES IDX 74 26 76 27 75 28 78 29 80 30 79 31 17 32 18 33 19 34 20 35
REMARK SMILES IDX 21 36 22 38 23 39 24 40 70 41 25 42 69 43 26 44 27 45 28 46
REMARK SMILES IDX 63 47 29 48 68 49 62 50 64 51 30 52 67 53 61 54 60 55 31 57
REMARK SMILES IDX 53 58 38 59 52 60 39 61 42 62 51 63 65 64 40 65 41 66 50 68
REMARK SMILES IDX 66 69 43 70 32 71 33 72 37 73 34 74 36 75 35 76 54 77 55 78
REMARK SMILES IDX 59 79 56 80 58 81 57 82 44 83 45 84 49 85 46 86 48 87 47 88
REMARK H PARENT 13 7 2 20 20 37 64 56 42 67
REMARK Flexibility Score: inf
ROOT
ATOM      1  C   UNL A   1      32.556  29.803  25.970  1.00  0.00     0.002 C 
ENDROOT
BRANCH   1   2
ATOM      2  C   UNL A   1      32.373  28.753  27.072  1.00  0.00     0.021 C 
BRANCH   2   3
ATOM      3  C   UNL A   1      32.436  27.299  26.609  1.00  0.00     0.116 C 
BRANCH   3   4
ATOM      4  N   UNL A   1      31.220  26.557  26.899  1.00  0.00    -0.356 N 
ATOM      5  C   UNL A   1      30.606  25.568  26.189  1.00  0.00     0.225 C 
ATOM      6  O   UNL A   1      29.643  24.995  26.702  1.00  0.00    -0.275 OA
ATOM      7  H   UNL A   1      30.771  26.808  27.739  1.00  0.00     0.163 HD
BRANCH   5   8
ATOM      8  C   UNL A   1      31.110  25.200  24.812  1.00  0.00     0.107 C 
ATOM      9  N   UNL A   1      32.878  24.425  23.551  1.00  0.00    -0.341 N 
ATOM     10  C   UNL A   1      32.383  24.380  24.909  1.00  0.00     0.133 C 
ATOM     11  C   UNL A   1      32.617  25.751  22.992  1.00  0.00     0.128 C 
ATOM     12  C   UNL A   1      31.599  26.399  23.964  1.00  0.00     0.053 C 
BRANCH   9  13
ATOM     13  C   UNL A   1      33.514  23.471  22.799  1.00  0.00     0.226 C 
ATOM     14  O   UNL A   1      33.749  23.688  21.604  1.00  0.00    -0.275 OA
BRANCH  13  15
ATOM     15  C   UNL A   1      33.645  22.030  23.312  1.00  0.00     0.090 C 
ATOM     16  C   UNL A   1      32.850  18.324  25.339  1.00  0.00     0.332 C 
ATOM     17  N   UNL A   1      32.902  19.727  24.932  1.00  0.00    -0.337 N 
ATOM     18  C   UNL A   1      32.301  19.904  23.605  1.00  0.00     0.262 C 
ATOM     19  C   UNL A   1      34.286  20.226  24.949  1.00  0.00     0.262 C 
ATOM     20  H   UNL A   1      32.362  20.272  25.603  1.00  0.00     0.347 HD
ATOM     21  C   UNL A   1      32.255  21.383  23.232  1.00  0.00     0.075 C 
ATOM     22  C   UNL A   1      34.287  21.731  24.664  1.00  0.00     0.075 C 
ENDBRANCH  13  15
ENDBRANCH   9  13
BRANCH  12  23
ATOM     23  C   UNL A   1      30.424  27.158  23.381  1.00  0.00    -0.038 A 
ATOM     24  C   UNL A   1      29.095  26.983  23.833  1.00  0.00     0.008 A 
ATOM     25  C   UNL A   1      30.705  28.195  22.471  1.00  0.00     0.054 A 
ATOM     26  C   UNL A   1      28.072  27.850  23.426  1.00  0.00     0.051 A 
ATOM     27  C   UNL A   1      29.688  29.058  22.123  1.00  0.00     0.166 A 
ATOM     28  C   UNL A   1      28.409  28.897  22.597  1.00  0.00     0.165 A 
ATOM     29  O   UNL A   1      29.829  30.188  21.381  1.00  0.00    -0.454 OA
ATOM     30  O   UNL A   1      27.585  29.904  22.204  1.00  0.00    -0.454 OA
ATOM     31  C   UNL A   1      28.534  30.789  21.573  1.00  0.00     0.468 C 
ENDBRANCH  12  23
ENDBRANCH   5   8
ENDBRANCH   3   4
ENDBRANCH   2   3
ENDBRANCH   1   2
BRANCH   1  32
ATOM     32  C   UNL A   1      31.341  30.686  25.670  1.00  0.00     0.002 C 
BRANCH  32  33
ATOM     33  C   UNL A   1      31.225  31.960  26.506  1.00  0.00     0.021 C 
BRANCH  33  34
ATOM     34  C   UNL A   1      32.546  32.579  26.946  1.00  0.00     0.116 C 
BRANCH  34  35
ATOM     35  N   UNL A   1      32.366  33.870  27.592  1.00  0.00    -0.352 N 
ATOM     36  C   UNL A   1      33.101  34.471  28.581  1.00  0.00     0.251 C 
ATOM     37  H   UNL A   1      31.597  34.393  27.269  1.00  0.00     0.163 HD
ATOM     38  O   UNL A   1      32.672  35.496  29.119  1.00  0.00    -0.269 OA
BRANCH  36  39
ATOM     39  C   UNL A   1      34.391  33.902  29.033  1.00  0.00     0.039 A 
ATOM     40  C   UNL A   1      34.413  33.112  30.189  1.00  0.00     0.014 A 
ATOM     41  C   UNL A   1      35.584  34.160  28.352  1.00  0.00     0.014 A 
ATOM     42  C   UNL A   1      35.613  32.538  30.622  1.00  0.00     0.010 A 
ATOM     43  C   UNL A   1      36.761  33.518  28.735  1.00  0.00     0.010 A 
ATOM     44  C   UNL A   1      36.792  32.708  29.880  1.00  0.00    -0.014 A 
BRANCH  44  45
ATOM     45  C   UNL A   1      38.067  32.062  30.291  1.00  0.00     0.031 A 
ATOM     46  C   UNL A   1      38.999  32.762  31.248  1.00  0.00     0.074 A 
ATOM     47  C   UNL A   1      38.422  30.876  29.757  1.00  0.00     0.049 A 
ATOM     48  N   UNL A   1      40.185  32.393  31.663  1.00  0.00    -0.248 NA
ATOM     49  C   UNL A   1      38.554  34.059  31.785  1.00  0.00     0.031 C 
ATOM     50  C   UNL A   1      37.636  30.112  28.785  1.00  0.00     0.029 A 
ATOM     51  N   UNL A   1      39.546  30.109  29.947  1.00  0.00    -0.354 N 
ATOM     52  C   UNL A   1      40.635  33.421  32.482  1.00  0.00     0.074 A 
ATOM     53  C   UNL A   1      39.616  34.447  32.476  1.00  0.00     0.031 C 
ATOM     54  C   UNL A   1      38.292  28.981  28.479  1.00  0.00     0.029 A 
ATOM     55  C   UNL A   1      39.562  28.956  29.198  1.00  0.00     0.049 A 
ATOM     56  H   UNL A   1      40.273  30.362  30.561  1.00  0.00     0.167 HD
ATOM     57  C   UNL A   1      41.787  33.499  33.191  1.00  0.00     0.031 A 
ATOM     58  C   UNL A   1      40.497  27.993  29.092  1.00  0.00     0.031 A 
ATOM     59  C   UNL A   1      42.786  32.465  33.229  1.00  0.00     0.049 A 
ATOM     60  C   UNL A   1      41.760  28.100  29.902  1.00  0.00     0.074 A 
ATOM     61  C   UNL A   1      43.945  32.419  33.985  1.00  0.00     0.029 A 
ATOM     62  N   UNL A   1      42.746  31.300  32.482  1.00  0.00    -0.354 N 
ATOM     63  N   UNL A   1      42.128  29.040  30.739  1.00  0.00    -0.248 NA
ATOM     64  C   UNL A   1      42.733  27.007  29.761  1.00  0.00     0.031 C 
ATOM     65  C   UNL A   1      44.635  31.249  33.654  1.00  0.00     0.029 A 
ATOM     66  C   UNL A   1      43.876  30.541  32.737  1.00  0.00     0.049 A 
ATOM     67  H   UNL A   1      42.022  31.049  31.863  1.00  0.00     0.167 HD
ATOM     68  C   UNL A   1      43.357  28.636  31.245  1.00  0.00     0.074 A 
ATOM     69  C   UNL A   1      43.662  27.358  30.637  1.00  0.00     0.031 C 
ATOM     70  C   UNL A   1      44.162  29.267  32.133  1.00  0.00     0.031 A 
BRANCH  57  71
ATOM     71  C   UNL A   1      42.040  34.748  33.989  1.00  0.00    -0.014 A 
ATOM     72  C   UNL A   1      41.673  34.837  35.341  1.00  0.00     0.009 A 
ATOM     73  C   UNL A   1      42.725  35.822  33.398  1.00  0.00     0.009 A 
ATOM     74  C   UNL A   1      41.967  35.986  36.079  1.00  0.00     0.001 A 
ATOM     75  C   UNL A   1      43.041  36.958  34.145  1.00  0.00     0.001 A 
ATOM     76  C   UNL A   1      42.657  37.042  35.482  1.00  0.00     0.000 A 
ENDBRANCH  57  71
BRANCH  58  77
ATOM     77  C   UNL A   1      40.288  26.837  28.178  1.00  0.00    -0.014 A 
ATOM     78  C   UNL A   1      39.572  25.707  28.603  1.00  0.00     0.009 A 
ATOM     79  C   UNL A   1      40.836  26.844  26.886  1.00  0.00     0.009 A 
ATOM     80  C   UNL A   1      39.446  24.592  27.770  1.00  0.00     0.001 A 
ATOM     81  C   UNL A   1      40.680  25.741  26.043  1.00  0.00     0.001 A 
ATOM     82  C   UNL A   1      39.999  24.611  26.490  1.00  0.00     0.000 A 
ENDBRANCH  58  77
BRANCH  70  83
ATOM     83  C   UNL A   1      45.430  28.568  32.534  1.00  0.00    -0.014 A 
ATOM     84  C   UNL A   1      45.456  27.665  33.608  1.00  0.00     0.009 A 
ATOM     85  C   UNL A   1      46.605  28.785  31.796  1.00  0.00     0.009 A 
ATOM     86  C   UNL A   1      46.644  27.019  33.956  1.00  0.00     0.001 A 
ATOM     87  C   UNL A   1      47.782  28.115  32.127  1.00  0.00     0.001 A 
ATOM     88  C   UNL A   1      47.803  27.240  33.213  1.00  0.00     0.000 A 
ENDBRANCH  70  83
ENDBRANCH  44  45
ENDBRANCH  36  39
ENDBRANCH  34  35
ENDBRANCH  33  34
ENDBRANCH  32  33
ENDBRANCH   1  32
TORSDOF 16
ENDMDL
MODEL 3
REMARK VINA RESULT:     -11.8      0.717      5.677
REMARK SMILES C[NH+]1CCC(C(=O)N2C[C@@H](C(=O)NCCCCCCNC(=O)c3ccc(-c4c5nc(c(-c6ccccc6)c6ccc([nH]6)c(-c6ccccc6)c6nc(c(-c7ccccc7)c7ccc4[nH]7)C=C6)C=C5)cc3)[C@H](c3ccc4c(c3)OCO4)C2)CC1
REMARK SMILES IDX 16 1 15 2 14 3 13 4 11 5 12 6 10 8 8 9 9 10 81 11 71 12 6 13
REMARK SMILES IDX 7 14 5 15 1 16 2 17 3 18 83 19 4 21 82 22 72 23 73 24 77 25
REMARK SMILES IDX 74 26 76 27 75 28 78 29 80 30 79 31 17 32 18 33 19 34 20 35
REMARK SMILES IDX 21 36 22 38 23 39 24 40 70 41 25 42 69 43 26 44 27 45 28 46
REMARK SMILES IDX 63 47 29 48 68 49 62 50 64 51 30 52 67 53 61 54 60 55 31 57
REMARK SMILES IDX 53 58 38 59 52 60 39 61 42 62 51 63 65 64 40 65 41 66 50 68
REMARK SMILES IDX 66 69 43 70 32 71 33 72 37 73 34 74 36 75 35 76 54 77 55 78
REMARK SMILES IDX 59 79 56 80 58 81 57 82 44 83 45 84 49 85 46 86 48 87 47 88
REMARK H PARENT 13 7 2 20 20 37 64 56 42 67
REMARK Flexibility Score: inf
ROOT
ATOM      1  C   UNL A   1      35.222  30.295  28.226  1.00  0.00     0.002 C 
ENDROOT
BRANCH   1   2
ATOM      2  C   UNL A   1      34.688  29.310  27.180  1.00  0.00     0.021 C 
BRANCH   2   3
ATOM      3  C   UNL A   1      33.467  29.786  26.396  1.00  0.00     0.116 C 
BRANCH   3   4
ATOM      4  N   UNL A   1      33.625  29.646  24.958  1.00  0.00    -0.356 N 
ATOM      5  C   UNL A   1      32.798  29.073  24.037  1.00  0.00     0.225 C 
ATOM      6  O   UNL A   1      33.087  29.187  22.845  1.00  0.00    -0.275 OA
ATOM      7  H   UNL A   1      34.457  30.024  24.593  1.00  0.00     0.163 HD
BRANCH   5   8
ATOM      8  C   UNL A   1      31.565  28.325  24.489  1.00  0.00     0.107 C 
ATOM      9  N   UNL A   1      30.584  26.271  24.860  1.00  0.00    -0.341 N 
ATOM     10  C   UNL A   1      31.896  26.875  24.787  1.00  0.00     0.133 C 
ATOM     11  C   UNL A   1      29.721  26.882  23.850  1.00  0.00     0.128 C 
ATOM     12  C   UNL A   1      30.478  28.159  23.401  1.00  0.00     0.053 C 
BRANCH   9  13
ATOM     13  C   UNL A   1      30.100  25.280  25.675  1.00  0.00     0.226 C 
ATOM     14  O   UNL A   1      29.291  25.562  26.568  1.00  0.00    -0.275 OA
BRANCH  13  15
ATOM     15  C   UNL A   1      30.777  23.904  25.720  1.00  0.00     0.090 C 
ATOM     16  C   UNL A   1      33.766  20.825  25.970  1.00  0.00     0.332 C 
ATOM     17  N   UNL A   1      33.046  22.077  25.753  1.00  0.00    -0.337 N 
ATOM     18  C   UNL A   1      32.514  22.595  27.019  1.00  0.00     0.262 C 
ATOM     19  C   UNL A   1      31.968  21.899  24.768  1.00  0.00     0.262 C 
ATOM     20  H   UNL A   1      33.703  22.761  25.379  1.00  0.00     0.347 HD
ATOM     21  C   UNL A   1      31.861  23.958  26.807  1.00  0.00     0.075 C 
ATOM     22  C   UNL A   1      31.334  23.258  24.455  1.00  0.00     0.075 C 
ENDBRANCH  13  15
ENDBRANCH   9  13
BRANCH  12  23
ATOM     23  C   UNL A   1      29.691  29.442  23.227  1.00  0.00    -0.038 A 
ATOM     24  C   UNL A   1      29.763  30.518  24.143  1.00  0.00     0.008 A 
ATOM     25  C   UNL A   1      28.996  29.623  22.015  1.00  0.00     0.054 A 
ATOM     26  C   UNL A   1      29.196  31.763  23.842  1.00  0.00     0.051 A 
ATOM     27  C   UNL A   1      28.488  30.870  21.728  1.00  0.00     0.166 A 
ATOM     28  C   UNL A   1      28.595  31.916  22.613  1.00  0.00     0.165 A 
ATOM     29  O   UNL A   1      27.928  31.244  20.547  1.00  0.00    -0.454 OA
ATOM     30  O   UNL A   1      28.108  33.076  22.098  1.00  0.00    -0.454 OA
ATOM     31  C   UNL A   1      27.838  32.668  20.740  1.00  0.00     0.468 C 
ENDBRANCH  12  23
ENDBRANCH   5   8
ENDBRANCH   3   4
ENDBRANCH   2   3
ENDBRANCH   1   2
BRANCH   1  32
ATOM     32  C   UNL A   1      35.320  31.760  27.787  1.00  0.00     0.002 C 
BRANCH  32  33
ATOM     33  C   UNL A   1      34.086  32.618  28.063  1.00  0.00     0.021 C 
BRANCH  33  34
ATOM     34  C   UNL A   1      34.361  34.083  28.375  1.00  0.00     0.116 C 
BRANCH  34  35
ATOM     35  N   UNL A   1      33.811  34.490  29.659  1.00  0.00    -0.352 N 
ATOM     36  C   UNL A   1      34.219  34.180  30.931  1.00  0.00     0.251 C 
ATOM     37  H   UNL A   1      33.023  35.078  29.606  1.00  0.00     0.163 HD
ATOM     38  O   UNL A   1      33.502  34.484  31.889  1.00  0.00    -0.269 OA
BRANCH  36  39
ATOM     39  C   UNL A   1      35.494  33.469  31.177  1.00  0.00     0.039 A 
ATOM     40  C   UNL A   1      35.474  32.284  31.920  1.00  0.00     0.014 A 
ATOM     41  C   UNL A   1      36.713  33.970  30.712  1.00  0.00     0.014 A 
ATOM     42  C   UNL A   1      36.660  31.576  32.144  1.00  0.00     0.010 A 
ATOM     43  C   UNL A   1      37.880  33.222  30.861  1.00  0.00     0.010 A 
ATOM     44  C   UNL A   1      37.870  32.021  31.587  1.00  0.00    -0.014 A 
BRANCH  44  45
ATOM     45  C   UNL A   1      39.132  31.256  31.764  1.00  0.00     0.031 A 
ATOM     46  C   UNL A   1      39.465  30.116  30.835  1.00  0.00     0.074 A 
ATOM     47  C   UNL A   1      39.951  31.539  32.798  1.00  0.00     0.049 A 
ATOM     48  N   UNL A   1      40.478  29.287  30.876  1.00  0.00    -0.248 NA
ATOM     49  C   UNL A   1      38.522  29.854  29.735  1.00  0.00     0.031 C 
ATOM     50  C   UNL A   1      39.727  32.585  33.798  1.00  0.00     0.029 A 
ATOM     51  N   UNL A   1      41.135  30.960  33.187  1.00  0.00    -0.354 N 
ATOM     52  C   UNL A   1      40.278  28.394  29.830  1.00  0.00     0.074 A 
ATOM     53  C   UNL A   1      39.030  28.754  29.197  1.00  0.00     0.031 C 
ATOM     54  C   UNL A   1      40.745  32.585  34.673  1.00  0.00     0.029 A 
ATOM     55  C   UNL A   1      41.675  31.516  34.322  1.00  0.00     0.049 A 
ATOM     56  H   UNL A   1      41.557  30.217  32.698  1.00  0.00     0.167 HD
ATOM     57  C   UNL A   1      41.071  27.374  29.423  1.00  0.00     0.031 A 
ATOM     58  C   UNL A   1      42.786  31.194  35.012  1.00  0.00     0.031 A 
ATOM     59  C   UNL A   1      42.330  27.035  30.026  1.00  0.00     0.049 A 
ATOM     60  C   UNL A   1      43.653  30.065  34.527  1.00  0.00     0.074 A 
ATOM     61  C   UNL A   1      43.242  26.073  29.629  1.00  0.00     0.029 A 
ATOM     62  N   UNL A   1      42.856  27.644  31.154  1.00  0.00    -0.354 N 
ATOM     63  N   UNL A   1      43.491  29.288  33.483  1.00  0.00    -0.248 NA
ATOM     64  C   UNL A   1      44.864  29.776  35.309  1.00  0.00     0.031 C 
ATOM     65  C   UNL A   1      44.295  26.062  30.548  1.00  0.00     0.029 A 
ATOM     66  C   UNL A   1      44.066  27.059  31.483  1.00  0.00     0.049 A 
ATOM     67  H   UNL A   1      42.431  28.384  31.646  1.00  0.00     0.167 HD
ATOM     68  C   UNL A   1      44.592  28.441  33.467  1.00  0.00     0.074 A 
ATOM     69  C   UNL A   1      45.424  28.813  34.592  1.00  0.00     0.031 C 
ATOM     70  C   UNL A   1      44.888  27.444  32.599  1.00  0.00     0.031 A 
BRANCH  57  71
ATOM     71  C   UNL A   1      40.603  26.539  28.262  1.00  0.00    -0.014 A 
ATOM     72  C   UNL A   1      41.123  26.726  26.972  1.00  0.00     0.009 A 
ATOM     73  C   UNL A   1      39.684  25.500  28.481  1.00  0.00     0.009 A 
ATOM     74  C   UNL A   1      40.715  25.902  25.920  1.00  0.00     0.001 A 
ATOM     75  C   UNL A   1      39.298  24.663  27.433  1.00  0.00     0.001 A 
ATOM     76  C   UNL A   1      39.809  24.868  26.153  1.00  0.00     0.000 A 
ENDBRANCH  57  71
BRANCH  58  77
ATOM     77  C   UNL A   1      43.149  31.941  36.247  1.00  0.00    -0.014 A 
ATOM     78  C   UNL A   1      43.977  33.072  36.182  1.00  0.00     0.009 A 
ATOM     79  C   UNL A   1      42.699  31.503  37.501  1.00  0.00     0.009 A 
ATOM     80  C   UNL A   1      44.381  33.724  37.351  1.00  0.00     0.001 A 
ATOM     81  C   UNL A   1      43.076  32.177  38.666  1.00  0.00     0.001 A 
ATOM     82  C   UNL A   1      43.928  33.276  38.591  1.00  0.00     0.000 A 
ENDBRANCH  58  77
BRANCH  70  83
ATOM     83  C   UNL A   1      46.183  26.711  32.804  1.00  0.00    -0.014 A 
ATOM     84  C   UNL A   1      47.377  27.163  32.222  1.00  0.00     0.009 A 
ATOM     85  C   UNL A   1      46.214  25.575  33.630  1.00  0.00     0.009 A 
ATOM     86  C   UNL A   1      48.571  26.471  32.436  1.00  0.00     0.001 A 
ATOM     87  C   UNL A   1      47.413  24.905  33.866  1.00  0.00     0.001 A 
ATOM     88  C   UNL A   1      48.589  25.347  33.261  1.00  0.00     0.000 A 
ENDBRANCH  70  83
ENDBRANCH  44  45
ENDBRANCH  36  39
ENDBRANCH  34  35
ENDBRANCH  33  34
ENDBRANCH  32  33
ENDBRANCH   1  32
TORSDOF 16
ENDMDL
