MODEL 1
REMARK VINA RESULT:     -11.8      0.000      0.000
REMARK SMILES Cc1cc(OCC(=O)N[C@@H](Cc2ccc(Cl)cc2)C(=O)NCCCCCCNC(=O)c2ccc(-c3c4nc(c(-c5ccccc5)c5ccc([nH]5)c(-c5ccccc5)c5nc(c(-c6ccccc6)c6ccc3[nH]6)C=C5)C=C4)cc2)c2c(C)c(C)c(=O)oc2c1
REMARK SMILES IDX 23 1 22 2 21 3 19 4 20 5 10 7 9 8 7 9 8 10 6 12 5 13 4 14
REMARK SMILES IDX 1 15 2 16 3 17 88 18 87 19 79 20 86 21 80 22 84 23 81 24
REMARK SMILES IDX 82 25 85 26 83 27 11 28 12 29 13 30 18 31 14 32 17 33 15 34
REMARK SMILES IDX 16 35 24 36 25 37 26 38 27 39 28 40 29 41 30 43 31 44 32 45
REMARK SMILES IDX 78 46 33 47 77 48 34 49 35 50 36 51 71 52 37 53 76 54 70 55
REMARK SMILES IDX 72 56 38 57 75 58 69 59 68 60 39 62 61 63 46 64 60 65 47 66
REMARK SMILES IDX 50 67 59 68 73 69 48 70 49 71 58 73 74 74 51 75 40 76 41 77
REMARK SMILES IDX 45 78 42 79 44 80 43 81 62 82 63 83 67 84 64 85 66 86 65 87
REMARK SMILES IDX 52 88 53 89 57 90 54 91 56 92 55 93
REMARK H PARENT 21 6 9 11 28 42 72 61 50 72
REMARK Flexibility Score: inf
ROOT
ATOM      1  C   UNL A   1      35.156  30.237  27.267  1.00  0.00     0.021 C 
ENDROOT
BRANCH   1   2
ATOM      2  C   UNL A   1      34.514  28.859  27.249  1.00  0.00     0.116 C 
BRANCH   2   3
ATOM      3  N   UNL A   1      33.100  28.855  27.542  1.00  0.00    -0.354 N 
ATOM      4  C   UNL A   1      32.169  27.890  27.290  1.00  0.00     0.242 C 
ATOM      5  O   UNL A   1      31.119  27.939  27.942  1.00  0.00    -0.273 OA
ATOM      6  H   UNL A   1      32.760  29.663  27.987  1.00  0.00     0.163 HD
BRANCH   4   7
ATOM      7  C   UNL A   1      32.404  26.723  26.298  1.00  0.00     0.175 C 
BRANCH   7   8
ATOM      8  N   UNL A   1      31.636  25.523  26.641  1.00  0.00    -0.341 N 
ATOM      9  C   UNL A   1      32.077  24.252  26.853  1.00  0.00     0.258 C 
ATOM     10  O   UNL A   1      31.272  23.428  27.295  1.00  0.00    -0.271 OA
ATOM     11  H   UNL A   1      30.664  25.653  26.731  1.00  0.00     0.164 HD
BRANCH   9  12
ATOM     12  C   UNL A   1      33.531  23.865  26.561  1.00  0.00     0.329 C 
BRANCH  12  13
ATOM     13  O   UNL A   1      33.784  23.073  25.413  1.00  0.00    -0.483 OA
BRANCH  13  14
ATOM     14  C   UNL A   1      34.878  22.255  25.351  1.00  0.00     0.131 A 
ATOM     15  C   UNL A   1      38.672  22.438  25.849  1.00  0.00     0.044 C 
ATOM     16  C   UNL A   1      37.298  21.913  25.559  1.00  0.00    -0.044 A 
ATOM     17  C   UNL A   1      36.179  22.748  25.591  1.00  0.00     0.050 A 
ATOM     18  C   UNL A   1      37.109  20.573  25.257  1.00  0.00     0.051 A 
ATOM     19  C   UNL A   1      35.822  20.093  24.990  1.00  0.00     0.142 A 
ATOM     20  C   UNL A   1      34.669  20.889  25.027  1.00  0.00     0.063 A 
ATOM     21  O   UNL A   1      35.788  18.725  24.672  1.00  0.00    -0.422 OA
ATOM     22  C   UNL A   1      33.371  20.206  24.730  1.00  0.00    -0.026 A 
ATOM     23  C   UNL A   1      34.618  18.086  24.334  1.00  0.00     0.339 A 
ATOM     24  C   UNL A   1      32.040  20.919  24.781  1.00  0.00     0.046 C 
ATOM     25  C   UNL A   1      33.374  18.893  24.395  1.00  0.00     0.038 A 
ATOM     26  O   UNL A   1      34.610  16.902  24.016  1.00  0.00    -0.246 OA
ATOM     27  C   UNL A   1      32.153  18.078  24.040  1.00  0.00     0.052 C 
ENDBRANCH  13  14
ENDBRANCH  12  13
ENDBRANCH   9  12
ENDBRANCH   7   8
BRANCH   7  28
ATOM     28  C   UNL A   1      32.353  27.118  24.801  1.00  0.00     0.070 C 
BRANCH  28  29
ATOM     29  C   UNL A   1      31.125  27.819  24.264  1.00  0.00    -0.045 A 
ATOM     30  C   UNL A   1      30.011  27.074  23.846  1.00  0.00     0.005 A 
ATOM     31  C   UNL A   1      31.072  29.220  24.170  1.00  0.00     0.005 A 
ATOM     32  C   UNL A   1      28.897  27.707  23.287  1.00  0.00     0.021 A 
ATOM     33  C   UNL A   1      29.969  29.852  23.586  1.00  0.00     0.021 A 
ATOM     34  C   UNL A   1      28.890  29.092  23.139  1.00  0.00     0.041 A 
ATOM     35  Cl  UNL A   1      27.555  29.867  22.377  1.00  0.00    -0.084 Cl
ENDBRANCH  28  29
ENDBRANCH   7  28
ENDBRANCH   4   7
ENDBRANCH   2   3
ENDBRANCH   1   2
BRANCH   1  36
ATOM     36  C   UNL A   1      34.640  31.173  28.360  1.00  0.00     0.002 C 
BRANCH  36  37
ATOM     37  C   UNL A   1      34.637  32.668  28.016  1.00  0.00     0.002 C 
BRANCH  37  38
ATOM     38  C   UNL A   1      33.328  33.416  28.278  1.00  0.00     0.021 C 
BRANCH  38  39
ATOM     39  C   UNL A   1      33.481  34.881  28.665  1.00  0.00     0.116 C 
BRANCH  39  40
ATOM     40  N   UNL A   1      32.988  35.166  30.002  1.00  0.00    -0.352 N 
ATOM     41  C   UNL A   1      33.441  34.728  31.225  1.00  0.00     0.251 C 
ATOM     42  H   UNL A   1      32.208  35.766  30.038  1.00  0.00     0.163 HD
ATOM     43  O   UNL A   1      32.794  34.962  32.237  1.00  0.00    -0.269 OA
BRANCH  41  44
ATOM     44  C   UNL A   1      34.694  33.943  31.314  1.00  0.00     0.039 A 
ATOM     45  C   UNL A   1      34.700  32.648  31.831  1.00  0.00     0.014 A 
ATOM     46  C   UNL A   1      35.887  34.521  30.869  1.00  0.00     0.014 A 
ATOM     47  C   UNL A   1      35.909  32.004  32.070  1.00  0.00     0.010 A 
ATOM     48  C   UNL A   1      37.094  33.830  31.019  1.00  0.00     0.010 A 
ATOM     49  C   UNL A   1      37.121  32.585  31.667  1.00  0.00    -0.014 A 
BRANCH  49  50
ATOM     50  C   UNL A   1      38.400  31.871  31.925  1.00  0.00     0.031 A 
ATOM     51  C   UNL A   1      39.222  32.175  33.150  1.00  0.00     0.074 A 
ATOM     52  C   UNL A   1      38.799  30.906  31.073  1.00  0.00     0.049 A 
ATOM     53  N   UNL A   1      40.349  31.633  33.536  1.00  0.00    -0.248 NA
ATOM     54  C   UNL A   1      38.720  33.220  34.057  1.00  0.00     0.031 C 
ATOM     55  C   UNL A   1      38.078  30.504  29.862  1.00  0.00     0.029 A 
ATOM     56  N   UNL A   1      39.885  30.068  31.106  1.00  0.00    -0.354 N 
ATOM     57  C   UNL A   1      40.699  32.280  34.715  1.00  0.00     0.074 A 
ATOM     58  C   UNL A   1      39.685  33.280  34.965  1.00  0.00     0.031 C 
ATOM     59  C   UNL A   1      38.706  29.459  29.305  1.00  0.00     0.029 A 
ATOM     60  C   UNL A   1      39.914  29.166  30.069  1.00  0.00     0.049 A 
ATOM     61  H   UNL A   1      40.577  30.109  31.804  1.00  0.00     0.167 HD
ATOM     62  C   UNL A   1      41.763  32.051  35.522  1.00  0.00     0.031 A 
ATOM     63  C   UNL A   1      40.814  28.215  29.752  1.00  0.00     0.031 A 
ATOM     64  C   UNL A   1      42.761  31.044  35.278  1.00  0.00     0.049 A 
ATOM     65  C   UNL A   1      42.014  28.020  30.634  1.00  0.00     0.074 A 
ATOM     66  C   UNL A   1      43.859  30.720  36.058  1.00  0.00     0.029 A 
ATOM     67  N   UNL A   1      42.786  30.198  34.180  1.00  0.00    -0.354 N 
ATOM     68  N   UNL A   1      42.319  28.629  31.753  1.00  0.00    -0.248 NA
ATOM     69  C   UNL A   1      42.994  27.009  30.212  1.00  0.00     0.031 C 
ATOM     70  C   UNL A   1      44.588  29.733  35.396  1.00  0.00     0.029 A 
ATOM     71  C   UNL A   1      43.901  29.378  34.245  1.00  0.00     0.049 A 
ATOM     72  H   UNL A   1      42.113  30.181  33.462  1.00  0.00     0.167 HD
ATOM     73  C   UNL A   1      43.513  28.065  32.180  1.00  0.00     0.074 A 
ATOM     74  C   UNL A   1      43.867  27.050  31.210  1.00  0.00     0.031 C 
ATOM     75  C   UNL A   1      44.249  28.368  33.277  1.00  0.00     0.031 A 
BRANCH  62  76
ATOM     76  C   UNL A   1      41.924  32.905  36.752  1.00  0.00    -0.014 A 
ATOM     77  C   UNL A   1      42.732  34.054  36.699  1.00  0.00     0.009 A 
ATOM     78  C   UNL A   1      41.380  32.518  37.987  1.00  0.00     0.009 A 
ATOM     79  C   UNL A   1      43.009  34.783  37.858  1.00  0.00     0.001 A 
ATOM     80  C   UNL A   1      41.632  33.268  39.137  1.00  0.00     0.001 A 
ATOM     81  C   UNL A   1      42.456  34.392  39.075  1.00  0.00     0.000 A 
ENDBRANCH  62  76
BRANCH  63  82
ATOM     82  C   UNL A   1      40.591  27.375  28.544  1.00  0.00    -0.014 A 
ATOM     83  C   UNL A   1      39.812  26.208  28.618  1.00  0.00     0.009 A 
ATOM     84  C   UNL A   1      41.210  27.697  27.326  1.00  0.00     0.009 A 
ATOM     85  C   UNL A   1      39.687  25.363  27.514  1.00  0.00     0.001 A 
ATOM     86  C   UNL A   1      41.053  26.868  26.212  1.00  0.00     0.001 A 
ATOM     87  C   UNL A   1      40.305  25.696  26.311  1.00  0.00     0.000 A 
ENDBRANCH  63  82
BRANCH  75  88
ATOM     88  C   UNL A   1      45.514  27.590  33.519  1.00  0.00    -0.014 A 
ATOM     89  C   UNL A   1      45.502  26.500  34.407  1.00  0.00     0.009 A 
ATOM     90  C   UNL A   1      46.737  28.004  32.970  1.00  0.00     0.009 A 
ATOM     91  C   UNL A   1      46.690  25.857  34.758  1.00  0.00     0.001 A 
ATOM     92  C   UNL A   1      47.919  27.337  33.298  1.00  0.00     0.001 A 
ATOM     93  C   UNL A   1      47.897  26.275  34.201  1.00  0.00     0.000 A 
ENDBRANCH  75  88
ENDBRANCH  49  50
ENDBRANCH  41  44
ENDBRANCH  39  40
ENDBRANCH  38  39
ENDBRANCH  37  38
ENDBRANCH  36  37
ENDBRANCH   1  36
TORSDOF 19
ENDMDL
MODEL 2
REMARK VINA RESULT:     -11.5      1.585      2.232
REMARK SMILES Cc1cc(OCC(=O)N[C@@H](Cc2ccc(Cl)cc2)C(=O)NCCCCCCNC(=O)c2ccc(-c3c4nc(c(-c5ccccc5)c5ccc([nH]5)c(-c5ccccc5)c5nc(c(-c6ccccc6)c6ccc3[nH]6)C=C5)C=C4)cc2)c2c(C)c(C)c(=O)oc2c1
REMARK SMILES IDX 23 1 22 2 21 3 19 4 20 5 10 7 9 8 7 9 8 10 6 12 5 13 4 14
REMARK SMILES IDX 1 15 2 16 3 17 88 18 87 19 79 20 86 21 80 22 84 23 81 24
REMARK SMILES IDX 82 25 85 26 83 27 11 28 12 29 13 30 18 31 14 32 17 33 15 34
REMARK SMILES IDX 16 35 24 36 25 37 26 38 27 39 28 40 29 41 30 43 31 44 32 45
REMARK SMILES IDX 78 46 33 47 77 48 34 49 35 50 36 51 71 52 37 53 76 54 70 55
REMARK SMILES IDX 72 56 38 57 75 58 69 59 68 60 39 62 61 63 46 64 60 65 47 66
REMARK SMILES IDX 50 67 59 68 73 69 48 70 49 71 58 73 74 74 51 75 40 76 41 77
REMARK SMILES IDX 45 78 42 79 44 80 43 81 62 82 63 83 67 84 64 85 66 86 65 87
REMARK SMILES IDX 52 88 53 89 57 90 54 91 56 92 55 93
REMARK H PARENT 21 6 9 11 28 42 72 61 50 72
REMARK Flexibility Score: inf
ROOT
ATOM      1  C   UNL A   1      31.792  27.859  27.294  1.00  0.00     0.021 C 
ENDROOT
BRANCH   1   2
ATOM      2  C   UNL A   1      31.789  26.444  26.740  1.00  0.00     0.116 C 
BRANCH   2   3
ATOM      3  N   UNL A   1      30.872  26.234  25.645  1.00  0.00    -0.354 N 
ATOM      4  C   UNL A   1      31.136  26.072  24.316  1.00  0.00     0.242 C 
ATOM      5  O   UNL A   1      30.251  25.549  23.627  1.00  0.00    -0.273 OA
ATOM      6  H   UNL A   1      29.920  26.203  25.892  1.00  0.00     0.163 HD
BRANCH   4   7
ATOM      7  C   UNL A   1      32.495  26.440  23.670  1.00  0.00     0.175 C 
BRANCH   7   8
ATOM      8  N   UNL A   1      33.031  25.369  22.825  1.00  0.00    -0.341 N 
ATOM      9  C   UNL A   1      33.842  24.330  23.165  1.00  0.00     0.258 C 
ATOM     10  O   UNL A   1      34.036  23.449  22.323  1.00  0.00    -0.271 OA
ATOM     11  H   UNL A   1      32.767  25.406  21.877  1.00  0.00     0.164 HD
BRANCH   9  12
ATOM     12  C   UNL A   1      34.482  24.254  24.556  1.00  0.00     0.329 C 
BRANCH  12  13
ATOM     13  O   UNL A   1      34.358  23.038  25.273  1.00  0.00    -0.483 OA
BRANCH  13  14
ATOM     14  C   UNL A   1      35.349  22.096  25.235  1.00  0.00     0.131 A 
ATOM     15  C   UNL A   1      39.132  21.838  25.778  1.00  0.00     0.044 C 
ATOM     16  C   UNL A   1      37.709  21.474  25.477  1.00  0.00    -0.044 A 
ATOM     17  C   UNL A   1      36.696  22.435  25.485  1.00  0.00     0.050 A 
ATOM     18  C   UNL A   1      37.367  20.161  25.191  1.00  0.00     0.051 A 
ATOM     19  C   UNL A   1      36.035  19.833  24.914  1.00  0.00     0.142 A 
ATOM     20  C   UNL A   1      34.984  20.759  24.926  1.00  0.00     0.063 A 
ATOM     21  O   UNL A   1      35.843  18.473  24.613  1.00  0.00    -0.422 OA
ATOM     22  C   UNL A   1      33.617  20.230  24.622  1.00  0.00    -0.026 A 
ATOM     23  C   UNL A   1      34.610  17.972  24.269  1.00  0.00     0.339 A 
ATOM     24  C   UNL A   1      32.379  21.094  24.648  1.00  0.00     0.046 C 
ATOM     25  C   UNL A   1      33.470  18.921  24.304  1.00  0.00     0.038 A 
ATOM     26  O   UNL A   1      34.467  16.793  23.966  1.00  0.00    -0.246 OA
ATOM     27  C   UNL A   1      32.165  18.249  23.945  1.00  0.00     0.052 C 
ENDBRANCH  13  14
ENDBRANCH  12  13
ENDBRANCH   9  12
ENDBRANCH   7   8
BRANCH   7  28
ATOM     28  C   UNL A   1      32.558  27.854  23.042  1.00  0.00     0.070 C 
BRANCH  28  29
ATOM     29  C   UNL A   1      31.340  28.748  23.112  1.00  0.00    -0.045 A 
ATOM     30  C   UNL A   1      31.191  29.659  24.170  1.00  0.00     0.005 A 
ATOM     31  C   UNL A   1      30.338  28.687  22.130  1.00  0.00     0.005 A 
ATOM     32  C   UNL A   1      30.039  30.443  24.280  1.00  0.00     0.021 A 
ATOM     33  C   UNL A   1      29.173  29.451  22.255  1.00  0.00     0.021 A 
ATOM     34  C   UNL A   1      29.025  30.320  23.334  1.00  0.00     0.041 A 
ATOM     35  Cl  UNL A   1      27.571  31.224  23.512  1.00  0.00    -0.084 Cl
ENDBRANCH  28  29
ENDBRANCH   7  28
ENDBRANCH   4   7
ENDBRANCH   2   3
ENDBRANCH   1   2
BRANCH   1  36
ATOM     36  C   UNL A   1      32.867  28.777  26.710  1.00  0.00     0.002 C 
BRANCH  36  37
ATOM     37  C   UNL A   1      33.216  30.017  27.542  1.00  0.00     0.002 C 
BRANCH  37  38
ATOM     38  C   UNL A   1      32.317  31.238  27.339  1.00  0.00     0.021 C 
BRANCH  38  39
ATOM     39  C   UNL A   1      33.021  32.485  26.819  1.00  0.00     0.116 C 
BRANCH  39  40
ATOM     40  N   UNL A   1      32.600  33.697  27.500  1.00  0.00    -0.352 N 
ATOM     41  C   UNL A   1      33.157  34.345  28.578  1.00  0.00     0.251 C 
ATOM     42  H   UNL A   1      31.790  34.121  27.133  1.00  0.00     0.163 HD
ATOM     43  O   UNL A   1      32.565  35.278  29.104  1.00  0.00    -0.269 OA
BRANCH  41  44
ATOM     44  C   UNL A   1      34.457  33.893  29.125  1.00  0.00     0.039 A 
ATOM     45  C   UNL A   1      35.661  34.285  28.540  1.00  0.00     0.014 A 
ATOM     46  C   UNL A   1      34.467  33.059  30.247  1.00  0.00     0.014 A 
ATOM     47  C   UNL A   1      36.854  33.706  28.958  1.00  0.00     0.010 A 
ATOM     48  C   UNL A   1      35.679  32.555  30.730  1.00  0.00     0.010 A 
ATOM     49  C   UNL A   1      36.879  32.834  30.059  1.00  0.00    -0.014 A 
BRANCH  49  50
ATOM     50  C   UNL A   1      38.170  32.236  30.493  1.00  0.00     0.031 A 
ATOM     51  C   UNL A   1      38.975  32.858  31.603  1.00  0.00     0.074 A 
ATOM     52  C   UNL A   1      38.594  31.095  29.914  1.00  0.00     0.049 A 
ATOM     53  N   UNL A   1      40.110  32.455  32.118  1.00  0.00    -0.248 NA
ATOM     54  C   UNL A   1      38.445  34.087  32.214  1.00  0.00     0.031 C 
ATOM     55  C   UNL A   1      37.891  30.385  28.843  1.00  0.00     0.029 A 
ATOM     56  N   UNL A   1      39.696  30.316  30.161  1.00  0.00    -0.354 N 
ATOM     57  C   UNL A   1      40.437  33.387  33.095  1.00  0.00     0.074 A 
ATOM     58  C   UNL A   1      39.401  34.395  33.080  1.00  0.00     0.031 C 
ATOM     59  C   UNL A   1      38.545  29.246  28.570  1.00  0.00     0.029 A 
ATOM     60  C   UNL A   1      39.752  29.182  29.387  1.00  0.00     0.049 A 
ATOM     61  H   UNL A   1      40.382  30.547  30.829  1.00  0.00     0.167 HD
ATOM     62  C   UNL A   1      41.498  33.392  33.937  1.00  0.00     0.031 A 
ATOM     63  C   UNL A   1      40.674  28.201  29.324  1.00  0.00     0.031 A 
ATOM     64  C   UNL A   1      42.518  32.377  33.958  1.00  0.00     0.049 A 
ATOM     65  C   UNL A   1      41.870  28.261  30.230  1.00  0.00     0.074 A 
ATOM     66  C   UNL A   1      43.616  32.286  34.798  1.00  0.00     0.029 A 
ATOM     67  N   UNL A   1      42.570  31.282  33.111  1.00  0.00    -0.354 N 
ATOM     68  N   UNL A   1      42.153  29.141  31.159  1.00  0.00    -0.248 NA
ATOM     69  C   UNL A   1      42.873  27.198  30.080  1.00  0.00     0.031 C 
ATOM     70  C   UNL A   1      44.370  31.179  34.410  1.00  0.00     0.029 A 
ATOM     71  C   UNL A   1      43.700  30.529  33.385  1.00  0.00     0.049 A 
ATOM     72  H   UNL A   1      41.903  31.070  32.419  1.00  0.00     0.167 HD
ATOM     73  C   UNL A   1      43.355  28.728  31.719  1.00  0.00     0.074 A 
ATOM     74  C   UNL A   1      43.737  27.508  31.038  1.00  0.00     0.031 C 
ATOM     75  C   UNL A   1      44.076  29.314  32.705  1.00  0.00     0.031 A 
BRANCH  62  76
ATOM     76  C   UNL A   1      41.633  34.533  34.911  1.00  0.00    -0.014 A 
ATOM     77  C   UNL A   1      42.382  35.667  34.554  1.00  0.00     0.009 A 
ATOM     78  C   UNL A   1      41.124  34.443  36.216  1.00  0.00     0.009 A 
ATOM     79  C   UNL A   1      42.637  36.674  35.487  1.00  0.00     0.001 A 
ATOM     80  C   UNL A   1      41.353  35.468  37.137  1.00  0.00     0.001 A 
ATOM     81  C   UNL A   1      42.119  36.576  36.777  1.00  0.00     0.000 A 
ENDBRANCH  62  76
BRANCH  63  82
ATOM     82  C   UNL A   1      40.477  27.078  28.367  1.00  0.00    -0.014 A 
ATOM     83  C   UNL A   1      41.011  27.143  27.068  1.00  0.00     0.009 A 
ATOM     84  C   UNL A   1      39.698  25.967  28.721  1.00  0.00     0.009 A 
ATOM     85  C   UNL A   1      40.740  26.141  26.136  1.00  0.00     0.001 A 
ATOM     86  C   UNL A   1      39.459  24.947  27.795  1.00  0.00     0.001 A 
ATOM     87  C   UNL A   1      39.967  25.042  26.501  1.00  0.00     0.000 A 
ENDBRANCH  63  82
BRANCH  75  88
ATOM     88  C   UNL A   1      45.354  28.651  33.139  1.00  0.00    -0.014 A 
ATOM     89  C   UNL A   1      45.334  27.730  34.201  1.00  0.00     0.009 A 
ATOM     90  C   UNL A   1      46.589  29.021  32.587  1.00  0.00     0.009 A 
ATOM     91  C   UNL A   1      46.524  27.214  34.717  1.00  0.00     0.001 A 
ATOM     92  C   UNL A   1      47.776  28.477  33.083  1.00  0.00     0.001 A 
ATOM     93  C   UNL A   1      47.743  27.586  34.155  1.00  0.00     0.000 A 
ENDBRANCH  75  88
ENDBRANCH  49  50
ENDBRANCH  41  44
ENDBRANCH  39  40
ENDBRANCH  38  39
ENDBRANCH  37  38
ENDBRANCH  36  37
ENDBRANCH   1  36
TORSDOF 19
ENDMDL
MODEL 3
REMARK VINA RESULT:     -11.2      1.293      2.449
REMARK SMILES Cc1cc(OCC(=O)N[C@@H](Cc2ccc(Cl)cc2)C(=O)NCCCCCCNC(=O)c2ccc(-c3c4nc(c(-c5ccccc5)c5ccc([nH]5)c(-c5ccccc5)c5nc(c(-c6ccccc6)c6ccc3[nH]6)C=C5)C=C4)cc2)c2c(C)c(C)c(=O)oc2c1
REMARK SMILES IDX 23 1 22 2 21 3 19 4 20 5 10 7 9 8 7 9 8 10 6 12 5 13 4 14
REMARK SMILES IDX 1 15 2 16 3 17 88 18 87 19 79 20 86 21 80 22 84 23 81 24
REMARK SMILES IDX 82 25 85 26 83 27 11 28 12 29 13 30 18 31 14 32 17 33 15 34
REMARK SMILES IDX 16 35 24 36 25 37 26 38 27 39 28 40 29 41 30 43 31 44 32 45
REMARK SMILES IDX 78 46 33 47 77 48 34 49 35 50 36 51 71 52 37 53 76 54 70 55
REMARK SMILES IDX 72 56 38 57 75 58 69 59 68 60 39 62 61 63 46 64 60 65 47 66
REMARK SMILES IDX 50 67 59 68 73 69 48 70 49 71 58 73 74 74 51 75 40 76 41 77
REMARK SMILES IDX 45 78 42 79 44 80 43 81 62 82 63 83 67 84 64 85 66 86 65 87
REMARK SMILES IDX 52 88 53 89 57 90 54 91 56 92 55 93
REMARK H PARENT 21 6 9 11 28 42 72 61 50 72
REMARK Flexibility Score: inf
ROOT
ATOM      1  C   UNL A   1      32.743  29.024  27.251  1.00  0.00     0.021 C 
ENDROOT
BRANCH   1   2
ATOM      2  C   UNL A   1      32.845  27.560  26.853  1.00  0.00     0.116 C 
BRANCH   2   3
ATOM      3  N   UNL A   1      31.614  26.818  26.986  1.00  0.00    -0.354 N 
ATOM      4  C   UNL A   1      30.805  26.305  26.014  1.00  0.00     0.242 C 
ATOM      5  O   UNL A   1      30.021  25.410  26.352  1.00  0.00    -0.273 OA
ATOM      6  H   UNL A   1      31.314  26.660  27.910  1.00  0.00     0.163 HD
BRANCH   4   7
ATOM      7  C   UNL A   1      30.886  26.737  24.529  1.00  0.00     0.175 C 
BRANCH   7   8
ATOM      8  N   UNL A   1      31.941  26.037  23.790  1.00  0.00    -0.341 N 
ATOM      9  C   UNL A   1      32.175  24.699  23.688  1.00  0.00     0.258 C 
ATOM     10  O   UNL A   1      33.024  24.323  22.875  1.00  0.00    -0.271 OA
ATOM     11  H   UNL A   1      32.569  26.615  23.300  1.00  0.00     0.164 HD
BRANCH   9  12
ATOM     12  C   UNL A   1      31.398  23.696  24.547  1.00  0.00     0.329 C 
BRANCH  12  13
ATOM     13  O   UNL A   1      32.113  23.000  25.555  1.00  0.00    -0.483 OA
BRANCH  13  14
ATOM     14  C   UNL A   1      32.812  21.862  25.260  1.00  0.00     0.131 A 
ATOM     15  C   UNL A   1      32.154  18.247  24.175  1.00  0.00     0.044 C 
ATOM     16  C   UNL A   1      32.861  19.506  24.579  1.00  0.00    -0.044 A 
ATOM     17  C   UNL A   1      32.153  20.663  24.910  1.00  0.00     0.050 A 
ATOM     18  C   UNL A   1      34.246  19.547  24.625  1.00  0.00     0.051 A 
ATOM     19  C   UNL A   1      34.896  20.727  25.002  1.00  0.00     0.142 A 
ATOM     20  C   UNL A   1      34.229  21.917  25.326  1.00  0.00     0.063 A 
ATOM     21  O   UNL A   1      36.297  20.612  25.032  1.00  0.00    -0.422 OA
ATOM     22  C   UNL A   1      35.084  23.089  25.692  1.00  0.00    -0.026 A 
ATOM     23  C   UNL A   1      37.103  21.654  25.425  1.00  0.00     0.339 A 
ATOM     24  C   UNL A   1      34.514  24.450  26.015  1.00  0.00     0.046 C 
ATOM     25  C   UNL A   1      36.430  22.937  25.743  1.00  0.00     0.038 A 
ATOM     26  O   UNL A   1      38.321  21.525  25.489  1.00  0.00    -0.246 OA
ATOM     27  C   UNL A   1      37.418  24.015  26.124  1.00  0.00     0.052 C 
ENDBRANCH  13  14
ENDBRANCH  12  13
ENDBRANCH   9  12
ENDBRANCH   7   8
BRANCH   7  28
ATOM     28  C   UNL A   1      29.524  26.813  23.796  1.00  0.00     0.070 C 
BRANCH  28  29
ATOM     29  C   UNL A   1      29.124  28.102  23.114  1.00  0.00    -0.045 A 
ATOM     30  C   UNL A   1      30.073  28.847  22.395  1.00  0.00     0.005 A 
ATOM     31  C   UNL A   1      27.805  28.583  23.185  1.00  0.00     0.005 A 
ATOM     32  C   UNL A   1      29.730  30.072  21.817  1.00  0.00     0.021 A 
ATOM     33  C   UNL A   1      27.469  29.822  22.630  1.00  0.00     0.021 A 
ATOM     34  C   UNL A   1      28.435  30.565  21.955  1.00  0.00     0.041 A 
ATOM     35  Cl  UNL A   1      28.032  32.111  21.314  1.00  0.00    -0.084 Cl
ENDBRANCH  28  29
ENDBRANCH   7  28
ENDBRANCH   4   7
ENDBRANCH   2   3
ENDBRANCH   1   2
BRANCH   1  36
ATOM     36  C   UNL A   1      33.970  29.870  26.912  1.00  0.00     0.002 C 
BRANCH  36  37
ATOM     37  C   UNL A   1      34.078  31.218  27.636  1.00  0.00     0.002 C 
BRANCH  37  38
ATOM     38  C   UNL A   1      32.820  32.089  27.625  1.00  0.00     0.021 C 
BRANCH  38  39
ATOM     39  C   UNL A   1      33.042  33.548  27.250  1.00  0.00     0.116 C 
BRANCH  39  40
ATOM     40  N   UNL A   1      32.742  34.464  28.337  1.00  0.00    -0.352 N 
ATOM     41  C   UNL A   1      33.327  34.590  29.575  1.00  0.00     0.251 C 
ATOM     42  H   UNL A   1      32.003  35.091  28.160  1.00  0.00     0.163 HD
ATOM     43  O   UNL A   1      32.830  35.328  30.415  1.00  0.00    -0.269 OA
BRANCH  41  44
ATOM     44  C   UNL A   1      34.541  33.808  29.905  1.00  0.00     0.039 A 
ATOM     45  C   UNL A   1      34.484  32.718  30.773  1.00  0.00     0.014 A 
ATOM     46  C   UNL A   1      35.761  34.177  29.330  1.00  0.00     0.014 A 
ATOM     47  C   UNL A   1      35.661  32.116  31.206  1.00  0.00     0.010 A 
ATOM     48  C   UNL A   1      36.933  33.505  29.690  1.00  0.00     0.010 A 
ATOM     49  C   UNL A   1      36.900  32.500  30.670  1.00  0.00    -0.014 A 
BRANCH  49  50
ATOM     50  C   UNL A   1      38.143  31.833  31.141  1.00  0.00     0.031 A 
ATOM     51  C   UNL A   1      38.766  32.205  32.460  1.00  0.00     0.074 A 
ATOM     52  C   UNL A   1      38.686  30.850  30.396  1.00  0.00     0.049 A 
ATOM     53  N   UNL A   1      39.837  31.709  33.030  1.00  0.00    -0.248 NA
ATOM     54  C   UNL A   1      38.112  33.266  33.242  1.00  0.00     0.031 C 
ATOM     55  C   UNL A   1      38.162  30.385  29.109  1.00  0.00     0.029 A 
ATOM     56  N   UNL A   1      39.775  30.046  30.621  1.00  0.00    -0.354 N 
ATOM     57  C   UNL A   1      39.993  32.408  34.221  1.00  0.00     0.074 A 
ATOM     58  C   UNL A   1      38.929  33.386  34.279  1.00  0.00     0.031 C 
ATOM     59  C   UNL A   1      38.891  29.340  28.692  1.00  0.00     0.029 A 
ATOM     60  C   UNL A   1      39.979  29.109  29.636  1.00  0.00     0.049 A 
ATOM     61  H   UNL A   1      40.355  30.132  31.412  1.00  0.00     0.167 HD
ATOM     62  C   UNL A   1      40.930  32.239  35.185  1.00  0.00     0.031 A 
ATOM     63  C   UNL A   1      40.938  28.174  29.493  1.00  0.00     0.031 A 
ATOM     64  C   UNL A   1      41.977  31.253  35.130  1.00  0.00     0.049 A 
ATOM     65  C   UNL A   1      41.998  28.045  30.549  1.00  0.00     0.074 A 
ATOM     66  C   UNL A   1      42.954  30.989  36.075  1.00  0.00     0.029 A 
ATOM     67  N   UNL A   1      42.184  30.369  34.082  1.00  0.00    -0.354 N 
ATOM     68  N   UNL A   1      42.119  28.703  31.676  1.00  0.00    -0.248 NA
ATOM     69  C   UNL A   1      43.053  27.049  30.316  1.00  0.00     0.031 C 
ATOM     70  C   UNL A   1      43.797  30.001  35.567  1.00  0.00     0.029 A 
ATOM     71  C   UNL A   1      43.296  29.585  34.343  1.00  0.00     0.049 A 
ATOM     72  H   UNL A   1      41.626  30.308  33.274  1.00  0.00     0.167 HD
ATOM     73  C   UNL A   1      43.250  28.189  32.296  1.00  0.00     0.074 A 
ATOM     74  C   UNL A   1      43.768  27.151  31.430  1.00  0.00     0.031 C 
ATOM     75  C   UNL A   1      43.807  28.552  33.477  1.00  0.00     0.031 A 
BRANCH  62  76
ATOM     76  C   UNL A   1      40.887  33.140  36.390  1.00  0.00    -0.014 A 
ATOM     77  C   UNL A   1      41.663  34.311  36.410  1.00  0.00     0.009 A 
ATOM     78  C   UNL A   1      40.178  32.779  37.547  1.00  0.00     0.009 A 
ATOM     79  C   UNL A   1      41.748  35.089  37.567  1.00  0.00     0.001 A 
ATOM     80  C   UNL A   1      40.240  33.577  38.692  1.00  0.00     0.001 A 
ATOM     81  C   UNL A   1      41.034  34.724  38.706  1.00  0.00     0.000 A 
ENDBRANCH  62  76
BRANCH  63  82
ATOM     82  C   UNL A   1      40.916  27.286  28.299  1.00  0.00    -0.014 A 
ATOM     83  C   UNL A   1      40.401  25.981  28.388  1.00  0.00     0.009 A 
ATOM     84  C   UNL A   1      41.471  27.711  27.083  1.00  0.00     0.009 A 
ATOM     85  C   UNL A   1      40.475  25.111  27.299  1.00  0.00     0.001 A 
ATOM     86  C   UNL A   1      41.511  26.849  25.984  1.00  0.00     0.001 A 
ATOM     87  C   UNL A   1      41.026  25.547  26.097  1.00  0.00     0.000 A 
ENDBRANCH  63  82
BRANCH  75  88
ATOM     88  C   UNL A   1      45.041  27.821  33.933  1.00  0.00    -0.014 A 
ATOM     89  C   UNL A   1      44.914  26.687  34.755  1.00  0.00     0.009 A 
ATOM     90  C   UNL A   1      46.323  28.316  33.655  1.00  0.00     0.009 A 
ATOM     91  C   UNL A   1      46.042  26.081  35.309  1.00  0.00     0.001 A 
ATOM     92  C   UNL A   1      47.453  27.687  34.183  1.00  0.00     0.001 A 
ATOM     93  C   UNL A   1      47.311  26.580  35.020  1.00  0.00     0.000 A 
ENDBRANCH  75  88
ENDBRANCH  49  50
ENDBRANCH  41  44
ENDBRANCH  39  40
ENDBRANCH  38  39
ENDBRANCH  37  38
ENDBRANCH  36  37
ENDBRANCH   1  36
TORSDOF 19
ENDMDL
