MODEL 1
REMARK VINA RESULT:     -11.1      0.000      0.000
REMARK SMILES O=C(NCCCCCCNC(=O)[C@H]1CS[C@]2(c3ccccc3)CCC(=O)N12)c1ccc(-c2c3nc(c(-c4ccccc4)c4ccc([nH]4)c(-c4ccccc4)c4nc(c(-c5ccccc5)c5ccc2[nH]5)C=C4)C=C3)cc1
REMARK SMILES IDX 6 1 5 2 4 3 3 4 1 5 2 6 28 8 29 9 75 10 30 11 74 12 31 13
REMARK SMILES IDX 32 14 33 15 68 16 34 17 73 18 67 19 69 20 35 21 72 22 66 23
REMARK SMILES IDX 65 24 36 26 58 27 43 28 57 29 44 30 47 31 56 32 70 33 45 34
REMARK SMILES IDX 46 35 55 37 71 38 48 39 37 40 38 41 42 42 39 43 41 44 40 45
REMARK SMILES IDX 59 46 60 47 64 48 61 49 63 50 62 51 49 52 50 53 54 54 51 55
REMARK SMILES IDX 53 56 52 57 7 58 8 59 9 60 10 61 11 62 12 64 13 65 14 66
REMARK SMILES IDX 27 67 15 68 16 69 25 70 23 71 24 72 26 73 17 74 18 75 22 76
REMARK SMILES IDX 19 77 21 78 20 79
REMARK H PARENT 3 7 69 25 47 36 10 63
REMARK Flexibility Score: inf
ROOT
ATOM      1  C   UNL A   1      33.582  27.105  25.212  1.00  0.00     0.002 C 
ENDROOT
BRANCH   1   2
ATOM      2  C   UNL A   1      34.000  28.454  25.798  1.00  0.00     0.021 C 
BRANCH   2   3
ATOM      3  C   UNL A   1      33.662  28.637  27.272  1.00  0.00     0.116 C 
BRANCH   3   4
ATOM      4  N   UNL A   1      33.632  30.037  27.655  1.00  0.00    -0.352 N 
ATOM      5  O   UNL A   1      34.340  31.900  28.710  1.00  0.00    -0.269 OA
ATOM      6  C   UNL A   1      34.596  30.776  28.291  1.00  0.00     0.251 C 
ATOM      7  H   UNL A   1      32.807  30.522  27.426  1.00  0.00     0.163 HD
BRANCH   6   8
ATOM      8  C   UNL A   1      35.949  30.210  28.484  1.00  0.00     0.039 A 
ATOM      9  C   UNL A   1      36.904  30.272  27.465  1.00  0.00     0.014 A 
ATOM     10  C   UNL A   1      36.280  29.656  29.725  1.00  0.00     0.014 A 
ATOM     11  C   UNL A   1      38.161  29.704  27.656  1.00  0.00     0.010 A 
ATOM     12  C   UNL A   1      37.561  29.143  29.937  1.00  0.00     0.010 A 
ATOM     13  C   UNL A   1      38.508  29.159  28.901  1.00  0.00    -0.014 A 
BRANCH  13  14
ATOM     14  C   UNL A   1      39.904  28.724  29.149  1.00  0.00     0.031 A 
ATOM     15  C   UNL A   1      40.917  29.652  29.749  1.00  0.00     0.074 A 
ATOM     16  C   UNL A   1      40.253  27.472  28.794  1.00  0.00     0.049 A 
ATOM     17  N   UNL A   1      42.184  29.431  29.999  1.00  0.00    -0.248 NA
ATOM     18  C   UNL A   1      40.460  31.003  30.112  1.00  0.00     0.031 C 
ATOM     19  C   UNL A   1      39.355  26.487  28.183  1.00  0.00     0.029 A 
ATOM     20  N   UNL A   1      41.451  26.814  28.890  1.00  0.00    -0.354 N 
ATOM     21  C   UNL A   1      42.680  30.615  30.527  1.00  0.00     0.074 A 
ATOM     22  C   UNL A   1      41.582  31.559  30.553  1.00  0.00     0.031 C 
ATOM     23  C   UNL A   1      40.029  25.347  27.975  1.00  0.00     0.029 A 
ATOM     24  C   UNL A   1      41.415  25.537  28.386  1.00  0.00     0.049 A 
ATOM     25  H   UNL A   1      42.259  27.217  29.282  1.00  0.00     0.167 HD
ATOM     26  C   UNL A   1      43.938  30.886  30.947  1.00  0.00     0.031 A 
ATOM     27  C   UNL A   1      42.394  24.626  28.238  1.00  0.00     0.031 A 
ATOM     28  C   UNL A   1      45.024  29.941  30.928  1.00  0.00     0.049 A 
ATOM     29  C   UNL A   1      43.784  24.972  28.678  1.00  0.00     0.074 A 
ATOM     30  C   UNL A   1      46.312  30.100  31.411  1.00  0.00     0.029 A 
ATOM     31  N   UNL A   1      44.954  28.669  30.383  1.00  0.00    -0.354 N 
ATOM     32  N   UNL A   1      44.218  26.072  29.245  1.00  0.00    -0.248 NA
ATOM     33  C   UNL A   1      44.822  23.957  28.451  1.00  0.00     0.031 C 
ATOM     34  C   UNL A   1      47.037  28.943  31.108  1.00  0.00     0.029 A 
ATOM     35  C   UNL A   1      46.188  28.049  30.476  1.00  0.00     0.049 A 
ATOM     36  H   UNL A   1      44.147  28.267  29.988  1.00  0.00     0.167 HD
ATOM     37  C   UNL A   1      45.577  25.880  29.445  1.00  0.00     0.074 A 
ATOM     38  C   UNL A   1      45.891  24.550  28.963  1.00  0.00     0.031 C 
ATOM     39  C   UNL A   1      46.486  26.734  29.976  1.00  0.00     0.031 A 
BRANCH  26  40
ATOM     40  C   UNL A   1      44.229  32.272  31.447  1.00  0.00    -0.014 A 
ATOM     41  C   UNL A   1      44.099  32.599  32.805  1.00  0.00     0.009 A 
ATOM     42  C   UNL A   1      44.721  33.240  30.557  1.00  0.00     0.009 A 
ATOM     43  C   UNL A   1      44.441  33.876  33.259  1.00  0.00     0.001 A 
ATOM     44  C   UNL A   1      45.078  34.509  31.016  1.00  0.00     0.001 A 
ATOM     45  C   UNL A   1      44.935  34.827  32.365  1.00  0.00     0.000 A 
ENDBRANCH  26  40
BRANCH  27  46
ATOM     46  C   UNL A   1      42.095  23.319  27.604  1.00  0.00    -0.014 A 
ATOM     47  C   UNL A   1      41.528  22.275  28.347  1.00  0.00     0.009 A 
ATOM     48  C   UNL A   1      42.369  23.116  26.241  1.00  0.00     0.009 A 
ATOM     49  C   UNL A   1      41.257  21.045  27.741  1.00  0.00     0.001 A 
ATOM     50  C   UNL A   1      42.072  21.896  25.633  1.00  0.00     0.001 A 
ATOM     51  C   UNL A   1      41.524  20.859  26.386  1.00  0.00     0.000 A 
ENDBRANCH  27  46
BRANCH  39  52
ATOM     52  C   UNL A   1      47.902  26.249  30.059  1.00  0.00    -0.014 A 
ATOM     53  C   UNL A   1      48.756  26.339  28.949  1.00  0.00     0.009 A 
ATOM     54  C   UNL A   1      48.397  25.730  31.263  1.00  0.00     0.009 A 
ATOM     55  C   UNL A   1      50.075  25.894  29.038  1.00  0.00     0.001 A 
ATOM     56  C   UNL A   1      49.723  25.307  31.357  1.00  0.00     0.001 A 
ATOM     57  C   UNL A   1      50.559  25.383  30.243  1.00  0.00     0.000 A 
ENDBRANCH  39  52
ENDBRANCH  13  14
ENDBRANCH   6   8
ENDBRANCH   3   4
ENDBRANCH   2   3
ENDBRANCH   1   2
BRANCH   1  58
ATOM     58  C   UNL A   1      33.549  27.039  23.681  1.00  0.00     0.002 C 
BRANCH  58  59
ATOM     59  C   UNL A   1      32.152  26.926  23.052  1.00  0.00     0.021 C 
BRANCH  59  60
ATOM     60  C   UNL A   1      31.773  25.515  22.596  1.00  0.00     0.116 C 
BRANCH  60  61
ATOM     61  N   UNL A   1      32.944  24.770  22.181  1.00  0.00    -0.354 N 
ATOM     62  C   UNL A   1      33.556  23.720  22.806  1.00  0.00     0.243 C 
ATOM     63  H   UNL A   1      33.353  25.058  21.333  1.00  0.00     0.163 HD
ATOM     64  O   UNL A   1      34.695  23.433  22.436  1.00  0.00    -0.273 OA
BRANCH  62  65
ATOM     65  C   UNL A   1      32.773  22.926  23.863  1.00  0.00     0.186 C 
ATOM     66  C   UNL A   1      32.825  21.411  23.625  1.00  0.00     0.107 C 
ATOM     67  N   UNL A   1      33.153  23.188  25.250  1.00  0.00    -0.311 N 
ATOM     68  S   UNL A   1      33.294  20.612  25.199  1.00  0.00    -0.126 SA
ATOM     69  C   UNL A   1      33.929  22.171  25.951  1.00  0.00     0.115 C 
ATOM     70  C   UNL A   1      32.152  23.748  26.048  1.00  0.00     0.224 C 
ATOM     71  C   UNL A   1      33.446  22.333  27.408  1.00  0.00     0.055 C 
ATOM     72  C   UNL A   1      32.078  22.975  27.331  1.00  0.00     0.104 C 
ATOM     73  O   UNL A   1      31.322  24.570  25.688  1.00  0.00    -0.275 OA
BRANCH  69  74
ATOM     74  C   UNL A   1      35.465  22.254  25.805  1.00  0.00    -0.012 A 
ATOM     75  C   UNL A   1      36.243  21.154  25.396  1.00  0.00     0.007 A 
ATOM     76  C   UNL A   1      36.189  23.424  26.123  1.00  0.00     0.007 A 
ATOM     77  C   UNL A   1      37.634  21.233  25.243  1.00  0.00     0.000 A 
ATOM     78  C   UNL A   1      37.580  23.509  25.972  1.00  0.00     0.000 A 
ATOM     79  C   UNL A   1      38.303  22.415  25.521  1.00  0.00     0.000 A 
ENDBRANCH  69  74
ENDBRANCH  62  65
ENDBRANCH  60  61
ENDBRANCH  59  60
ENDBRANCH  58  59
ENDBRANCH   1  58
TORSDOF 14
ENDMDL
MODEL 2
REMARK VINA RESULT:     -10.7      2.494      7.890
REMARK SMILES O=C(NCCCCCCNC(=O)[C@H]1CS[C@]2(c3ccccc3)CCC(=O)N12)c1ccc(-c2c3nc(c(-c4ccccc4)c4ccc([nH]4)c(-c4ccccc4)c4nc(c(-c5ccccc5)c5ccc2[nH]5)C=C4)C=C3)cc1
REMARK SMILES IDX 6 1 5 2 4 3 3 4 1 5 2 6 28 8 29 9 75 10 30 11 74 12 31 13
REMARK SMILES IDX 32 14 33 15 68 16 34 17 73 18 67 19 69 20 35 21 72 22 66 23
REMARK SMILES IDX 65 24 36 26 58 27 43 28 57 29 44 30 47 31 56 32 70 33 45 34
REMARK SMILES IDX 46 35 55 37 71 38 48 39 37 40 38 41 42 42 39 43 41 44 40 45
REMARK SMILES IDX 59 46 60 47 64 48 61 49 63 50 62 51 49 52 50 53 54 54 51 55
REMARK SMILES IDX 53 56 52 57 7 58 8 59 9 60 10 61 11 62 12 64 13 65 14 66
REMARK SMILES IDX 27 67 15 68 16 69 25 70 23 71 24 72 26 73 17 74 18 75 22 76
REMARK SMILES IDX 19 77 21 78 20 79
REMARK H PARENT 3 7 69 25 47 36 10 63
REMARK Flexibility Score: inf
ROOT
ATOM      1  C   UNL A   1      34.787  22.533  25.417  1.00  0.00     0.002 C 
ENDROOT
BRANCH   1   2
ATOM      2  C   UNL A   1      35.882  22.995  24.455  1.00  0.00     0.021 C 
BRANCH   2   3
ATOM      3  C   UNL A   1      37.076  23.661  25.127  1.00  0.00     0.116 C 
BRANCH   3   4
ATOM      4  N   UNL A   1      38.118  22.705  25.459  1.00  0.00    -0.352 N 
ATOM      5  O   UNL A   1      40.155  22.040  26.160  1.00  0.00    -0.269 OA
ATOM      6  C   UNL A   1      39.298  22.916  26.125  1.00  0.00     0.251 C 
ATOM      7  H   UNL A   1      37.954  21.780  25.167  1.00  0.00     0.163 HD
BRANCH   6   8
ATOM      8  C   UNL A   1      39.544  24.212  26.795  1.00  0.00     0.039 A 
ATOM      9  C   UNL A   1      39.109  24.435  28.105  1.00  0.00     0.014 A 
ATOM     10  C   UNL A   1      40.266  25.198  26.115  1.00  0.00     0.014 A 
ATOM     11  C   UNL A   1      39.322  25.674  28.705  1.00  0.00     0.010 A 
ATOM     12  C   UNL A   1      40.534  26.417  26.741  1.00  0.00     0.010 A 
ATOM     13  C   UNL A   1      40.059  26.665  28.038  1.00  0.00    -0.014 A 
BRANCH  13  14
ATOM     14  C   UNL A   1      40.435  27.907  28.755  1.00  0.00     0.031 A 
ATOM     15  C   UNL A   1      41.767  28.048  29.430  1.00  0.00     0.074 A 
ATOM     16  C   UNL A   1      39.534  28.907  28.811  1.00  0.00     0.049 A 
ATOM     17  N   UNL A   1      42.232  29.058  30.122  1.00  0.00    -0.248 NA
ATOM     18  C   UNL A   1      42.697  26.913  29.323  1.00  0.00     0.031 C 
ATOM     19  C   UNL A   1      38.198  28.873  28.208  1.00  0.00     0.029 A 
ATOM     20  N   UNL A   1      39.599  30.140  29.404  1.00  0.00    -0.354 N 
ATOM     21  C   UNL A   1      43.495  28.676  30.550  1.00  0.00     0.074 A 
ATOM     22  C   UNL A   1      43.724  27.337  30.050  1.00  0.00     0.031 C 
ATOM     23  C   UNL A   1      37.578  30.037  28.447  1.00  0.00     0.029 A 
ATOM     24  C   UNL A   1      38.447  30.876  29.264  1.00  0.00     0.049 A 
ATOM     25  H   UNL A   1      40.394  30.468  29.884  1.00  0.00     0.167 HD
ATOM     26  C   UNL A   1      44.379  29.382  31.294  1.00  0.00     0.031 A 
ATOM     27  C   UNL A   1      38.111  32.079  29.762  1.00  0.00     0.031 A 
ATOM     28  C   UNL A   1      44.150  30.717  31.781  1.00  0.00     0.049 A 
ATOM     29  C   UNL A   1      39.099  32.817  30.615  1.00  0.00     0.074 A 
ATOM     30  C   UNL A   1      45.021  31.542  32.473  1.00  0.00     0.029 A 
ATOM     31  N   UNL A   1      42.961  31.415  31.643  1.00  0.00    -0.354 N 
ATOM     32  N   UNL A   1      40.319  32.471  30.947  1.00  0.00    -0.248 NA
ATOM     33  C   UNL A   1      38.661  34.105  31.170  1.00  0.00     0.031 C 
ATOM     34  C   UNL A   1      44.339  32.718  32.801  1.00  0.00     0.029 A 
ATOM     35  C   UNL A   1      43.060  32.642  32.276  1.00  0.00     0.049 A 
ATOM     36  H   UNL A   1      42.165  31.086  31.166  1.00  0.00     0.167 HD
ATOM     37  C   UNL A   1      40.796  33.500  31.746  1.00  0.00     0.074 A 
ATOM     38  C   UNL A   1      39.744  34.493  31.828  1.00  0.00     0.031 C 
ATOM     39  C   UNL A   1      41.998  33.609  32.362  1.00  0.00     0.031 A 
BRANCH  26  40
ATOM     40  C   UNL A   1      45.678  28.721  31.657  1.00  0.00    -0.014 A 
ATOM     41  C   UNL A   1      45.799  27.941  32.817  1.00  0.00     0.009 A 
ATOM     42  C   UNL A   1      46.770  28.813  30.780  1.00  0.00     0.009 A 
ATOM     43  C   UNL A   1      46.997  27.279  33.099  1.00  0.00     0.001 A 
ATOM     44  C   UNL A   1      47.960  28.136  31.056  1.00  0.00     0.001 A 
ATOM     45  C   UNL A   1      48.074  27.372  32.216  1.00  0.00     0.000 A 
ENDBRANCH  26  40
BRANCH  27  46
ATOM     46  C   UNL A   1      36.760  32.634  29.501  1.00  0.00    -0.014 A 
ATOM     47  C   UNL A   1      36.473  33.279  28.291  1.00  0.00     0.009 A 
ATOM     48  C   UNL A   1      35.747  32.509  30.465  1.00  0.00     0.009 A 
ATOM     49  C   UNL A   1      35.199  33.805  28.058  1.00  0.00     0.001 A 
ATOM     50  C   UNL A   1      34.469  33.009  30.218  1.00  0.00     0.001 A 
ATOM     51  C   UNL A   1      34.198  33.665  29.018  1.00  0.00     0.000 A 
ENDBRANCH  27  46
BRANCH  39  52
ATOM     52  C   UNL A   1      42.231  34.845  33.178  1.00  0.00    -0.014 A 
ATOM     53  C   UNL A   1      41.741  34.941  34.489  1.00  0.00     0.009 A 
ATOM     54  C   UNL A   1      42.974  35.907  32.645  1.00  0.00     0.009 A 
ATOM     55  C   UNL A   1      41.971  36.092  35.244  1.00  0.00     0.001 A 
ATOM     56  C   UNL A   1      43.223  37.048  33.409  1.00  0.00     0.001 A 
ATOM     57  C   UNL A   1      42.715  37.142  34.705  1.00  0.00     0.000 A 
ENDBRANCH  39  52
ENDBRANCH  13  14
ENDBRANCH   6   8
ENDBRANCH   3   4
ENDBRANCH   2   3
ENDBRANCH   1   2
BRANCH   1  58
ATOM     58  C   UNL A   1      33.549  21.918  24.754  1.00  0.00     0.002 C 
BRANCH  58  59
ATOM     59  C   UNL A   1      32.254  21.985  25.577  1.00  0.00     0.021 C 
BRANCH  59  60
ATOM     60  C   UNL A   1      31.250  23.034  25.096  1.00  0.00     0.116 C 
BRANCH  60  61
ATOM     61  N   UNL A   1      31.120  24.110  26.056  1.00  0.00    -0.354 N 
ATOM     62  C   UNL A   1      31.328  25.449  25.875  1.00  0.00     0.243 C 
ATOM     63  H   UNL A   1      30.844  23.841  26.962  1.00  0.00     0.163 HD
ATOM     64  O   UNL A   1      31.448  26.140  26.887  1.00  0.00    -0.273 OA
BRANCH  62  65
ATOM     65  C   UNL A   1      31.325  26.014  24.446  1.00  0.00     0.186 C 
ATOM     66  C   UNL A   1      30.161  26.981  24.194  1.00  0.00     0.107 C 
ATOM     67  N   UNL A   1      32.565  26.667  24.030  1.00  0.00    -0.311 N 
ATOM     68  S   UNL A   1      30.846  28.498  23.441  1.00  0.00    -0.126 SA
ATOM     69  C   UNL A   1      32.578  28.123  23.947  1.00  0.00     0.115 C 
ATOM     70  C   UNL A   1      33.230  26.061  22.961  1.00  0.00     0.224 C 
ATOM     71  C   UNL A   1      33.572  28.381  22.795  1.00  0.00     0.055 C 
ATOM     72  C   UNL A   1      33.585  27.119  21.959  1.00  0.00     0.104 C 
ATOM     73  O   UNL A   1      33.310  24.859  22.753  1.00  0.00    -0.275 OA
BRANCH  69  74
ATOM     74  C   UNL A   1      32.938  28.884  25.243  1.00  0.00    -0.012 A 
ATOM     75  C   UNL A   1      32.222  30.017  25.675  1.00  0.00     0.007 A 
ATOM     76  C   UNL A   1      34.040  28.520  26.049  1.00  0.00     0.007 A 
ATOM     77  C   UNL A   1      32.534  30.696  26.861  1.00  0.00     0.000 A 
ATOM     78  C   UNL A   1      34.356  29.195  27.236  1.00  0.00     0.000 A 
ATOM     79  C   UNL A   1      33.595  30.279  27.648  1.00  0.00     0.000 A 
ENDBRANCH  69  74
ENDBRANCH  62  65
ENDBRANCH  60  61
ENDBRANCH  59  60
ENDBRANCH  58  59
ENDBRANCH   1  58
TORSDOF 14
ENDMDL
MODEL 3
REMARK VINA RESULT:     -10.7      1.996      7.438
REMARK SMILES O=C(NCCCCCCNC(=O)[C@H]1CS[C@]2(c3ccccc3)CCC(=O)N12)c1ccc(-c2c3nc(c(-c4ccccc4)c4ccc([nH]4)c(-c4ccccc4)c4nc(c(-c5ccccc5)c5ccc2[nH]5)C=C4)C=C3)cc1
REMARK SMILES IDX 6 1 5 2 4 3 3 4 1 5 2 6 28 8 29 9 75 10 30 11 74 12 31 13
REMARK SMILES IDX 32 14 33 15 68 16 34 17 73 18 67 19 69 20 35 21 72 22 66 23
REMARK SMILES IDX 65 24 36 26 58 27 43 28 57 29 44 30 47 31 56 32 70 33 45 34
REMARK SMILES IDX 46 35 55 37 71 38 48 39 37 40 38 41 42 42 39 43 41 44 40 45
REMARK SMILES IDX 59 46 60 47 64 48 61 49 63 50 62 51 49 52 50 53 54 54 51 55
REMARK SMILES IDX 53 56 52 57 7 58 8 59 9 60 10 61 11 62 12 64 13 65 14 66
REMARK SMILES IDX 27 67 15 68 16 69 25 70 23 71 24 72 26 73 17 74 18 75 22 76
REMARK SMILES IDX 19 77 21 78 20 79
REMARK H PARENT 3 7 69 25 47 36 10 63
REMARK Flexibility Score: inf
ROOT
ATOM      1  C   UNL A   1      36.739  20.926  24.626  1.00  0.00     0.002 C 
ENDROOT
BRANCH   1   2
ATOM      2  C   UNL A   1      37.766  19.856  24.998  1.00  0.00     0.021 C 
BRANCH   2   3
ATOM      3  C   UNL A   1      38.978  20.377  25.759  1.00  0.00     0.116 C 
BRANCH   3   4
ATOM      4  N   UNL A   1      40.038  19.388  25.840  1.00  0.00    -0.352 N 
ATOM      5  O   UNL A   1      42.168  18.656  25.953  1.00  0.00    -0.269 OA
ATOM      6  C   UNL A   1      41.371  19.575  26.107  1.00  0.00     0.251 C 
ATOM      7  H   UNL A   1      39.763  18.457  25.682  1.00  0.00     0.163 HD
BRANCH   6   8
ATOM      8  C   UNL A   1      41.850  20.895  26.571  1.00  0.00     0.039 A 
ATOM      9  C   UNL A   1      42.239  21.878  25.656  1.00  0.00     0.014 A 
ATOM     10  C   UNL A   1      41.859  21.167  27.942  1.00  0.00     0.014 A 
ATOM     11  C   UNL A   1      42.718  23.102  26.115  1.00  0.00     0.010 A 
ATOM     12  C   UNL A   1      42.279  22.418  28.399  1.00  0.00     0.010 A 
ATOM     13  C   UNL A   1      42.717  23.392  27.488  1.00  0.00    -0.014 A 
BRANCH  13  14
ATOM     14  C   UNL A   1      43.055  24.760  27.950  1.00  0.00     0.031 A 
ATOM     15  C   UNL A   1      41.989  25.773  28.241  1.00  0.00     0.074 A 
ATOM     16  C   UNL A   1      44.356  25.084  28.078  1.00  0.00     0.049 A 
ATOM     17  N   UNL A   1      42.124  27.018  28.623  1.00  0.00    -0.248 NA
ATOM     18  C   UNL A   1      40.591  25.342  28.079  1.00  0.00     0.031 C 
ATOM     19  C   UNL A   1      45.481  24.185  27.803  1.00  0.00     0.029 A 
ATOM     20  N   UNL A   1      44.954  26.255  28.466  1.00  0.00    -0.354 N 
ATOM     21  C   UNL A   1      40.837  27.526  28.727  1.00  0.00     0.074 A 
ATOM     22  C   UNL A   1      39.931  26.460  28.359  1.00  0.00     0.031 C 
ATOM     23  C   UNL A   1      46.631  24.831  28.047  1.00  0.00     0.029 A 
ATOM     24  C   UNL A   1      46.327  26.201  28.442  1.00  0.00     0.049 A 
ATOM     25  H   UNL A   1      44.450  27.056  28.736  1.00  0.00     0.167 HD
ATOM     26  C   UNL A   1      40.452  28.771  29.095  1.00  0.00     0.031 A 
ATOM     27  C   UNL A   1      47.244  27.156  28.679  1.00  0.00     0.031 A 
ATOM     28  C   UNL A   1      41.358  29.826  29.470  1.00  0.00     0.049 A 
ATOM     29  C   UNL A   1      46.784  28.534  29.046  1.00  0.00     0.074 A 
ATOM     30  C   UNL A   1      41.056  31.094  29.937  1.00  0.00     0.029 A 
ATOM     31  N   UNL A   1      42.739  29.741  29.405  1.00  0.00    -0.354 N 
ATOM     32  N   UNL A   1      45.561  28.976  29.213  1.00  0.00    -0.248 NA
ATOM     33  C   UNL A   1      47.827  29.548  29.249  1.00  0.00     0.031 C 
ATOM     34  C   UNL A   1      42.255  31.795  30.102  1.00  0.00     0.029 A 
ATOM     35  C   UNL A   1      43.303  30.948  29.779  1.00  0.00     0.049 A 
ATOM     36  H   UNL A   1      43.244  28.941  29.132  1.00  0.00     0.167 HD
ATOM     37  C   UNL A   1      45.688  30.317  29.544  1.00  0.00     0.074 A 
ATOM     38  C   UNL A   1      47.107  30.610  29.579  1.00  0.00     0.031 C 
ATOM     39  C   UNL A   1      44.714  31.227  29.791  1.00  0.00     0.031 A 
BRANCH  26  40
ATOM     40  C   UNL A   1      38.983  29.083  29.091  1.00  0.00    -0.014 A 
ATOM     41  C   UNL A   1      38.210  28.966  30.256  1.00  0.00     0.009 A 
ATOM     42  C   UNL A   1      38.384  29.581  27.923  1.00  0.00     0.009 A 
ATOM     43  C   UNL A   1      36.861  29.327  30.246  1.00  0.00     0.001 A 
ATOM     44  C   UNL A   1      37.040  29.957  27.920  1.00  0.00     0.001 A 
ATOM     45  C   UNL A   1      36.279  29.827  29.081  1.00  0.00     0.000 A 
ENDBRANCH  26  40
BRANCH  27  46
ATOM     46  C   UNL A   1      48.687  26.845  28.529  1.00  0.00    -0.014 A 
ATOM     47  C   UNL A   1      49.332  27.011  27.296  1.00  0.00     0.009 A 
ATOM     48  C   UNL A   1      49.429  26.388  29.630  1.00  0.00     0.009 A 
ATOM     49  C   UNL A   1      50.689  26.708  27.164  1.00  0.00     0.001 A 
ATOM     50  C   UNL A   1      50.790  26.113  29.502  1.00  0.00     0.001 A 
ATOM     51  C   UNL A   1      51.418  26.265  28.267  1.00  0.00     0.000 A 
ENDBRANCH  27  46
BRANCH  39  52
ATOM     52  C   UNL A   1      45.158  32.621  30.117  1.00  0.00    -0.014 A 
ATOM     53  C   UNL A   1      45.290  33.586  29.107  1.00  0.00     0.009 A 
ATOM     54  C   UNL A   1      45.413  32.983  31.447  1.00  0.00     0.009 A 
ATOM     55  C   UNL A   1      45.695  34.884  29.422  1.00  0.00     0.001 A 
ATOM     56  C   UNL A   1      45.795  34.287  31.763  1.00  0.00     0.001 A 
ATOM     57  C   UNL A   1      45.942  35.234  30.749  1.00  0.00     0.000 A 
ENDBRANCH  39  52
ENDBRANCH  13  14
ENDBRANCH   6   8
ENDBRANCH   3   4
ENDBRANCH   2   3
ENDBRANCH   1   2
BRANCH   1  58
ATOM     58  C   UNL A   1      35.452  20.916  25.458  1.00  0.00     0.002 C 
BRANCH  58  59
ATOM     59  C   UNL A   1      34.254  20.198  24.818  1.00  0.00     0.021 C 
BRANCH  59  60
ATOM     60  C   UNL A   1      32.960  21.014  24.802  1.00  0.00     0.116 C 
BRANCH  60  61
ATOM     61  N   UNL A   1      33.003  22.079  25.782  1.00  0.00    -0.354 N 
ATOM     62  C   UNL A   1      32.829  23.423  25.594  1.00  0.00     0.243 C 
ATOM     63  H   UNL A   1      33.182  21.799  26.708  1.00  0.00     0.163 HD
ATOM     64  O   UNL A   1      33.198  24.168  26.501  1.00  0.00    -0.273 OA
BRANCH  62  65
ATOM     65  C   UNL A   1      32.128  23.908  24.315  1.00  0.00     0.186 C 
ATOM     66  C   UNL A   1      30.635  24.194  24.531  1.00  0.00     0.107 C 
ATOM     67  N   UNL A   1      32.732  25.075  23.676  1.00  0.00    -0.311 N 
ATOM     68  S   UNL A   1      30.277  25.849  23.846  1.00  0.00    -0.126 SA
ATOM     69  C   UNL A   1      32.048  26.357  23.803  1.00  0.00     0.115 C 
ATOM     70  C   UNL A   1      33.236  24.858  22.391  1.00  0.00     0.224 C 
ATOM     71  C   UNL A   1      32.403  27.055  22.473  1.00  0.00     0.055 C 
ATOM     72  C   UNL A   1      32.738  25.951  21.493  1.00  0.00     0.104 C 
ATOM     73  O   UNL A   1      33.792  23.843  21.999  1.00  0.00    -0.275 OA
BRANCH  69  74
ATOM     74  C   UNL A   1      32.397  27.204  25.047  1.00  0.00    -0.012 A 
ATOM     75  C   UNL A   1      33.665  27.787  25.230  1.00  0.00     0.007 A 
ATOM     76  C   UNL A   1      31.480  27.404  26.103  1.00  0.00     0.007 A 
ATOM     77  C   UNL A   1      33.977  28.574  26.348  1.00  0.00     0.000 A 
ATOM     78  C   UNL A   1      31.786  28.190  27.223  1.00  0.00     0.000 A 
ATOM     79  C   UNL A   1      33.033  28.785  27.340  1.00  0.00     0.000 A 
ENDBRANCH  69  74
ENDBRANCH  62  65
ENDBRANCH  60  61
ENDBRANCH  59  60
ENDBRANCH  58  59
ENDBRANCH   1  58
TORSDOF 14
ENDMDL
