MODEL 1
REMARK VINA RESULT:     -13.4      0.000      0.000
REMARK SMILES C[C@]12C(=O)N(c3ccc(C(=O)NCCCCCCNC(=O)c4ccc(-c5c6nc(c(-c7ccccc7)c7ccc([nH]7)c(-c7ccccc7)c7nc(c(-c8ccccc8)c8ccc5[nH]8)C=C7)C=C6)cc4)cc3)C(=O)[C@@H]1[C@H]1c3ccccc3[C@@H]2c2ccccc21
REMARK SMILES IDX 16 1 15 2 14 3 13 4 12 5 10 6 11 7 9 9 6 10 7 11 71 12 8 13
REMARK SMILES IDX 70 14 5 15 1 16 2 17 3 18 74 19 82 20 4 21 72 22 75 23 81 24
REMARK SMILES IDX 83 25 73 26 76 27 88 28 80 29 84 30 77 31 87 32 79 33 85 34
REMARK SMILES IDX 78 35 86 36 17 37 18 38 19 39 20 40 21 42 22 43 23 44 69 45
REMARK SMILES IDX 24 46 68 47 25 48 26 49 27 50 62 51 28 52 67 53 61 54 63 55
REMARK SMILES IDX 29 56 66 57 60 58 59 59 30 61 52 62 37 63 51 64 38 65 41 66
REMARK SMILES IDX 50 67 64 68 39 69 40 70 49 72 65 73 42 74 31 75 32 76 36 77
REMARK SMILES IDX 33 78 35 79 34 80 53 81 54 82 58 83 55 84 57 85 56 86 43 87
REMARK SMILES IDX 44 88 48 89 45 90 47 91 46 92
REMARK H PARENT 12 8 19 41 63 60 41 71
REMARK Flexibility Score: inf
ROOT
ATOM      1  C   UNL A   1      35.065  33.275  28.942  1.00  0.00     0.002 C 
ENDROOT
BRANCH   1   2
ATOM      2  C   UNL A   1      34.990  31.767  29.195  1.00  0.00     0.002 C 
BRANCH   2   3
ATOM      3  C   UNL A   1      35.649  30.841  28.170  1.00  0.00     0.021 C 
BRANCH   3   4
ATOM      4  C   UNL A   1      34.719  30.071  27.242  1.00  0.00     0.116 C 
BRANCH   4   5
ATOM      5  N   UNL A   1      33.510  30.796  26.918  1.00  0.00    -0.352 N 
ATOM      6  C   UNL A   1      32.359  30.351  26.322  1.00  0.00     0.251 C 
ATOM      7  O   UNL A   1      31.462  31.149  26.060  1.00  0.00    -0.269 OA
ATOM      8  H   UNL A   1      33.514  31.750  27.161  1.00  0.00     0.163 HD
BRANCH   6   9
ATOM      9  C   UNL A   1      32.189  28.925  25.960  1.00  0.00     0.039 A 
ATOM     10  C   UNL A   1      31.625  26.213  25.349  1.00  0.00     0.052 A 
ATOM     11  C   UNL A   1      30.964  27.268  24.693  1.00  0.00     0.027 A 
ATOM     12  C   UNL A   1      32.635  26.556  26.265  1.00  0.00     0.027 A 
ATOM     13  C   UNL A   1      31.230  28.606  25.005  1.00  0.00     0.016 A 
ATOM     14  C   UNL A   1      32.888  27.895  26.595  1.00  0.00     0.016 A 
BRANCH  10  15
ATOM     15  N   UNL A   1      31.096  24.872  25.320  1.00  0.00    -0.250 N 
ATOM     16  C   UNL A   1      30.271  21.859  25.931  1.00  0.00     0.024 C 
ATOM     17  C   UNL A   1      31.599  22.611  25.682  1.00  0.00     0.071 C 
ATOM     18  C   UNL A   1      31.438  23.963  26.332  1.00  0.00     0.241 C 
ATOM     19  C   UNL A   1      31.798  23.043  24.218  1.00  0.00     0.107 C 
ATOM     20  C   UNL A   1      32.881  21.804  26.071  1.00  0.00     0.066 C 
ATOM     21  O   UNL A   1      31.561  24.135  27.537  1.00  0.00    -0.273 OA
ATOM     22  C   UNL A   1      30.852  24.192  24.094  1.00  0.00     0.238 C 
ATOM     23  C   UNL A   1      32.676  22.046  23.417  1.00  0.00     0.063 C 
ATOM     24  C   UNL A   1      34.115  22.474  25.416  1.00  0.00    -0.036 A 
ATOM     25  C   UNL A   1      32.722  20.469  25.334  1.00  0.00    -0.036 A 
ATOM     26  O   UNL A   1      30.190  24.506  23.130  1.00  0.00    -0.274 OA
ATOM     27  C   UNL A   1      34.081  22.487  23.973  1.00  0.00    -0.036 A 
ATOM     28  C   UNL A   1      32.545  20.609  23.925  1.00  0.00    -0.036 A 
ATOM     29  C   UNL A   1      35.073  23.212  26.092  1.00  0.00     0.005 A 
ATOM     30  C   UNL A   1      32.799  19.218  25.930  1.00  0.00     0.005 A 
ATOM     31  C   UNL A   1      35.018  23.200  23.234  1.00  0.00     0.004 A 
ATOM     32  C   UNL A   1      32.459  19.478  23.124  1.00  0.00     0.004 A 
ATOM     33  C   UNL A   1      35.996  23.948  25.341  1.00  0.00     0.000 A 
ATOM     34  C   UNL A   1      32.711  18.090  25.116  1.00  0.00     0.000 A 
ATOM     35  C   UNL A   1      35.976  23.934  23.934  1.00  0.00     0.000 A 
ATOM     36  C   UNL A   1      32.542  18.218  23.729  1.00  0.00     0.000 A 
ENDBRANCH  10  15
ENDBRANCH   6   9
ENDBRANCH   4   5
ENDBRANCH   3   4
ENDBRANCH   2   3
ENDBRANCH   1   2
BRANCH   1  37
ATOM     37  C   UNL A   1      33.745  34.040  28.847  1.00  0.00     0.021 C 
BRANCH  37  38
ATOM     38  C   UNL A   1      33.721  35.438  29.448  1.00  0.00     0.116 C 
BRANCH  38  39
ATOM     39  N   UNL A   1      32.714  35.615  30.478  1.00  0.00    -0.352 N 
ATOM     40  C   UNL A   1      32.784  35.315  31.820  1.00  0.00     0.251 C 
ATOM     41  H   UNL A   1      31.861  36.003  30.175  1.00  0.00     0.163 HD
ATOM     42  O   UNL A   1      31.802  35.463  32.539  1.00  0.00    -0.269 OA
BRANCH  40  43
ATOM     43  C   UNL A   1      34.033  34.756  32.389  1.00  0.00     0.039 A 
ATOM     44  C   UNL A   1      35.234  35.469  32.352  1.00  0.00     0.014 A 
ATOM     45  C   UNL A   1      34.002  33.470  32.937  1.00  0.00     0.014 A 
ATOM     46  C   UNL A   1      36.426  34.835  32.698  1.00  0.00     0.010 A 
ATOM     47  C   UNL A   1      35.190  32.861  33.352  1.00  0.00     0.010 A 
ATOM     48  C   UNL A   1      36.420  33.516  33.182  1.00  0.00    -0.014 A 
BRANCH  48  49
ATOM     49  C   UNL A   1      37.703  32.826  33.465  1.00  0.00     0.031 A 
ATOM     50  C   UNL A   1      38.417  33.044  34.774  1.00  0.00     0.074 A 
ATOM     51  C   UNL A   1      38.207  31.954  32.570  1.00  0.00     0.049 A 
ATOM     52  N   UNL A   1      39.536  32.512  35.202  1.00  0.00    -0.248 NA
ATOM     53  C   UNL A   1      37.796  33.977  35.729  1.00  0.00     0.031 C 
ATOM     54  C   UNL A   1      37.600  31.628  31.279  1.00  0.00     0.029 A 
ATOM     55  N   UNL A   1      39.327  31.162  32.624  1.00  0.00    -0.354 N 
ATOM     56  C   UNL A   1      39.760  33.056  36.460  1.00  0.00     0.074 A 
ATOM     57  C   UNL A   1      38.674  33.977  36.722  1.00  0.00     0.031 C 
ATOM     58  C   UNL A   1      38.326  30.666  30.687  1.00  0.00     0.029 A 
ATOM     59  C   UNL A   1      39.473  30.346  31.530  1.00  0.00     0.049 A 
ATOM     60  H   UNL A   1      39.963  31.178  33.375  1.00  0.00     0.167 HD
ATOM     61  C   UNL A   1      40.772  32.809  37.325  1.00  0.00     0.031 A 
ATOM     62  C   UNL A   1      40.426  29.443  31.232  1.00  0.00     0.031 A 
ATOM     63  C   UNL A   1      41.848  31.887  37.078  1.00  0.00     0.049 A 
ATOM     64  C   UNL A   1      41.563  29.219  32.186  1.00  0.00     0.074 A 
ATOM     65  C   UNL A   1      42.914  31.569  37.904  1.00  0.00     0.029 A 
ATOM     66  N   UNL A   1      41.993  31.132  35.927  1.00  0.00    -0.354 N 
ATOM     67  N   UNL A   1      41.765  29.756  33.364  1.00  0.00    -0.248 NA
ATOM     68  C   UNL A   1      42.608  28.274  31.764  1.00  0.00     0.031 C 
ATOM     69  C   UNL A   1      43.724  30.648  37.235  1.00  0.00     0.029 A 
ATOM     70  C   UNL A   1      43.140  30.361  36.013  1.00  0.00     0.049 A 
ATOM     71  H   UNL A   1      41.374  31.143  35.161  1.00  0.00     0.167 HD
ATOM     72  C   UNL A   1      42.953  29.209  33.829  1.00  0.00     0.074 A 
ATOM     73  C   UNL A   1      43.419  28.286  32.814  1.00  0.00     0.031 C 
ATOM     74  C   UNL A   1      43.597  29.452  34.995  1.00  0.00     0.031 A 
BRANCH  61  75
ATOM     75  C   UNL A   1      40.776  33.556  38.626  1.00  0.00    -0.014 A 
ATOM     76  C   UNL A   1      40.079  33.040  39.730  1.00  0.00     0.009 A 
ATOM     77  C   UNL A   1      41.405  34.805  38.741  1.00  0.00     0.009 A 
ATOM     78  C   UNL A   1      40.009  33.761  40.923  1.00  0.00     0.001 A 
ATOM     79  C   UNL A   1      41.351  35.514  39.942  1.00  0.00     0.001 A 
ATOM     80  C   UNL A   1      40.649  34.995  41.030  1.00  0.00     0.000 A 
ENDBRANCH  61  75
BRANCH  62  81
ATOM     81  C   UNL A   1      40.330  28.675  29.965  1.00  0.00    -0.014 A 
ATOM     82  C   UNL A   1      40.935  29.156  28.792  1.00  0.00     0.009 A 
ATOM     83  C   UNL A   1      39.594  27.483  29.914  1.00  0.00     0.009 A 
ATOM     84  C   UNL A   1      40.787  28.466  27.588  1.00  0.00     0.001 A 
ATOM     85  C   UNL A   1      39.467  26.784  28.711  1.00  0.00     0.001 A 
ATOM     86  C   UNL A   1      40.056  27.280  27.548  1.00  0.00     0.000 A 
ENDBRANCH  62  81
BRANCH  74  87
ATOM     87  C   UNL A   1      44.877  28.713  35.252  1.00  0.00    -0.014 A 
ATOM     88  C   UNL A   1      44.854  27.506  35.968  1.00  0.00     0.009 A 
ATOM     89  C   UNL A   1      46.111  29.256  34.866  1.00  0.00     0.009 A 
ATOM     90  C   UNL A   1      46.044  26.859  36.300  1.00  0.00     0.001 A 
ATOM     91  C   UNL A   1      47.300  28.597  35.183  1.00  0.00     0.001 A 
ATOM     92  C   UNL A   1      47.266  27.403  35.905  1.00  0.00     0.000 A 
ENDBRANCH  74  87
ENDBRANCH  48  49
ENDBRANCH  40  43
ENDBRANCH  38  39
ENDBRANCH  37  38
ENDBRANCH   1  37
TORSDOF 14
ENDMDL
MODEL 2
REMARK VINA RESULT:     -13.4      0.885      5.606
REMARK SMILES C[C@]12C(=O)N(c3ccc(C(=O)NCCCCCCNC(=O)c4ccc(-c5c6nc(c(-c7ccccc7)c7ccc([nH]7)c(-c7ccccc7)c7nc(c(-c8ccccc8)c8ccc5[nH]8)C=C7)C=C6)cc4)cc3)C(=O)[C@@H]1[C@H]1c3ccccc3[C@@H]2c2ccccc21
REMARK SMILES IDX 16 1 15 2 14 3 13 4 12 5 10 6 11 7 9 9 6 10 7 11 71 12 8 13
REMARK SMILES IDX 70 14 5 15 1 16 2 17 3 18 74 19 82 20 4 21 72 22 75 23 81 24
REMARK SMILES IDX 83 25 73 26 76 27 88 28 80 29 84 30 77 31 87 32 79 33 85 34
REMARK SMILES IDX 78 35 86 36 17 37 18 38 19 39 20 40 21 42 22 43 23 44 69 45
REMARK SMILES IDX 24 46 68 47 25 48 26 49 27 50 62 51 28 52 67 53 61 54 63 55
REMARK SMILES IDX 29 56 66 57 60 58 59 59 30 61 52 62 37 63 51 64 38 65 41 66
REMARK SMILES IDX 50 67 64 68 39 69 40 70 49 72 65 73 42 74 31 75 32 76 36 77
REMARK SMILES IDX 33 78 35 79 34 80 53 81 54 82 58 83 55 84 57 85 56 86 43 87
REMARK SMILES IDX 44 88 48 89 45 90 47 91 46 92
REMARK H PARENT 12 8 19 41 63 60 41 71
REMARK Flexibility Score: inf
ROOT
ATOM      1  C   UNL A   1      34.370  34.893  28.273  1.00  0.00     0.002 C 
ENDROOT
BRANCH   1   2
ATOM      2  C   UNL A   1      34.023  33.407  28.411  1.00  0.00     0.002 C 
BRANCH   2   3
ATOM      3  C   UNL A   1      32.912  32.852  27.518  1.00  0.00     0.021 C 
BRANCH   3   4
ATOM      4  C   UNL A   1      33.011  31.382  27.131  1.00  0.00     0.116 C 
BRANCH   4   5
ATOM      5  N   UNL A   1      34.300  30.800  27.433  1.00  0.00    -0.352 N 
ATOM      6  C   UNL A   1      34.723  29.503  27.304  1.00  0.00     0.251 C 
ATOM      7  O   UNL A   1      35.846  29.188  27.691  1.00  0.00    -0.269 OA
ATOM      8  H   UNL A   1      34.973  31.427  27.783  1.00  0.00     0.163 HD
BRANCH   6   9
ATOM      9  C   UNL A   1      33.835  28.464  26.731  1.00  0.00     0.039 A 
ATOM     10  C   UNL A   1      32.152  26.355  25.857  1.00  0.00     0.052 A 
ATOM     11  C   UNL A   1      31.776  27.207  26.912  1.00  0.00     0.027 A 
ATOM     12  C   UNL A   1      33.361  26.640  25.199  1.00  0.00     0.027 A 
ATOM     13  C   UNL A   1      32.613  28.238  27.355  1.00  0.00     0.016 A 
ATOM     14  C   UNL A   1      34.212  27.658  25.655  1.00  0.00     0.016 A 
BRANCH  10  15
ATOM     15  N   UNL A   1      31.498  25.086  25.659  1.00  0.00    -0.250 N 
ATOM     16  C   UNL A   1      30.380  22.114  25.883  1.00  0.00     0.024 C 
ATOM     17  C   UNL A   1      31.778  22.759  25.736  1.00  0.00     0.071 C 
ATOM     18  C   UNL A   1      31.736  24.029  26.550  1.00  0.00     0.241 C 
ATOM     19  C   UNL A   1      32.041  23.349  24.339  1.00  0.00     0.107 C 
ATOM     20  C   UNL A   1      32.971  21.791  26.028  1.00  0.00     0.066 C 
ATOM     21  O   UNL A   1      31.854  24.038  27.767  1.00  0.00    -0.273 OA
ATOM     22  C   UNL A   1      31.211  24.590  24.355  1.00  0.00     0.238 C 
ATOM     23  C   UNL A   1      32.834  22.379  23.424  1.00  0.00     0.063 C 
ATOM     24  C   UNL A   1      34.274  22.414  25.467  1.00  0.00    -0.036 A 
ATOM     25  C   UNL A   1      32.697  20.579  25.128  1.00  0.00    -0.036 A 
ATOM     26  O   UNL A   1      30.598  25.084  23.436  1.00  0.00    -0.274 OA
ATOM     27  C   UNL A   1      34.265  22.610  24.037  1.00  0.00    -0.036 A 
ATOM     28  C   UNL A   1      32.558  20.910  23.746  1.00  0.00    -0.036 A 
ATOM     29  C   UNL A   1      35.286  22.966  26.234  1.00  0.00     0.005 A 
ATOM     30  C   UNL A   1      32.646  19.262  25.563  1.00  0.00     0.005 A 
ATOM     31  C   UNL A   1      35.278  23.315  23.398  1.00  0.00     0.004 A 
ATOM     32  C   UNL A   1      32.379  19.900  22.810  1.00  0.00     0.004 A 
ATOM     33  C   UNL A   1      36.287  23.698  25.586  1.00  0.00     0.000 A 
ATOM     34  C   UNL A   1      32.464  18.258  24.614  1.00  0.00     0.000 A 
ATOM     35  C   UNL A   1      36.290  23.861  24.189  1.00  0.00     0.000 A 
ATOM     36  C   UNL A   1      32.332  18.573  23.252  1.00  0.00     0.000 A 
ENDBRANCH  10  15
ENDBRANCH   6   9
ENDBRANCH   4   5
ENDBRANCH   3   4
ENDBRANCH   2   3
ENDBRANCH   1   2
BRANCH   1  37
ATOM     37  C   UNL A   1      33.539  35.889  29.081  1.00  0.00     0.021 C 
BRANCH  37  38
ATOM     38  C   UNL A   1      32.588  35.304  30.116  1.00  0.00     0.116 C 
BRANCH  38  39
ATOM     39  N   UNL A   1      32.452  36.116  31.311  1.00  0.00    -0.352 N 
ATOM     40  C   UNL A   1      33.193  36.084  32.471  1.00  0.00     0.251 C 
ATOM     41  H   UNL A   1      31.728  36.783  31.290  1.00  0.00     0.163 HD
ATOM     42  O   UNL A   1      32.889  36.798  33.419  1.00  0.00    -0.269 OA
BRANCH  40  43
ATOM     43  C   UNL A   1      34.328  35.139  32.597  1.00  0.00     0.039 A 
ATOM     44  C   UNL A   1      34.175  33.894  33.213  1.00  0.00     0.014 A 
ATOM     45  C   UNL A   1      35.582  35.531  32.121  1.00  0.00     0.014 A 
ATOM     46  C   UNL A   1      35.299  33.124  33.506  1.00  0.00     0.010 A 
ATOM     47  C   UNL A   1      36.700  34.723  32.351  1.00  0.00     0.010 A 
ATOM     48  C   UNL A   1      36.577  33.540  33.097  1.00  0.00    -0.014 A 
BRANCH  48  49
ATOM     49  C   UNL A   1      37.772  32.753  33.491  1.00  0.00     0.031 A 
ATOM     50  C   UNL A   1      38.346  31.716  32.561  1.00  0.00     0.074 A 
ATOM     51  C   UNL A   1      38.384  33.006  34.664  1.00  0.00     0.049 A 
ATOM     52  N   UNL A   1      39.395  30.948  32.728  1.00  0.00    -0.248 NA
ATOM     53  C   UNL A   1      37.659  31.515  31.275  1.00  0.00     0.031 C 
ATOM     54  C   UNL A   1      37.950  34.003  35.643  1.00  0.00     0.029 A 
ATOM     55  N   UNL A   1      39.517  32.464  35.218  1.00  0.00    -0.354 N 
ATOM     56  C   UNL A   1      39.481  30.166  31.584  1.00  0.00     0.074 A 
ATOM     57  C   UNL A   1      38.367  30.533  30.736  1.00  0.00     0.031 C 
ATOM     58  C   UNL A   1      38.836  34.040  36.651  1.00  0.00     0.029 A 
ATOM     59  C   UNL A   1      39.868  33.034  36.417  1.00  0.00     0.049 A 
ATOM     60  H   UNL A   1      40.029  31.737  34.796  1.00  0.00     0.167 HD
ATOM     61  C   UNL A   1      40.406  29.231  31.262  1.00  0.00     0.031 A 
ATOM     62  C   UNL A   1      40.901  32.777  37.241  1.00  0.00     0.031 A 
ATOM     63  C   UNL A   1      41.522  28.868  32.093  1.00  0.00     0.049 A 
ATOM     64  C   UNL A   1      41.887  31.704  36.884  1.00  0.00     0.074 A 
ATOM     65  C   UNL A   1      42.513  27.933  31.841  1.00  0.00     0.029 A 
ATOM     66  N   UNL A   1      41.800  29.423  33.330  1.00  0.00    -0.354 N 
ATOM     67  N   UNL A   1      41.942  30.964  35.804  1.00  0.00    -0.248 NA
ATOM     68  C   UNL A   1      42.948  31.424  37.863  1.00  0.00     0.031 C 
ATOM     69  C   UNL A   1      43.370  27.899  32.944  1.00  0.00     0.029 A 
ATOM     70  C   UNL A   1      42.937  28.841  33.861  1.00  0.00     0.049 A 
ATOM     71  H   UNL A   1      41.267  30.128  33.766  1.00  0.00     0.167 HD
ATOM     72  C   UNL A   1      43.045  30.137  35.968  1.00  0.00     0.074 A 
ATOM     73  C   UNL A   1      43.640  30.476  37.244  1.00  0.00     0.031 C 
ATOM     74  C   UNL A   1      43.517  29.182  35.134  1.00  0.00     0.031 A 
BRANCH  61  75
ATOM     75  C   UNL A   1      40.248  28.516  29.952  1.00  0.00    -0.014 A 
ATOM     76  C   UNL A   1      40.736  29.103  28.773  1.00  0.00     0.009 A 
ATOM     77  C   UNL A   1      39.554  27.300  29.870  1.00  0.00     0.009 A 
ATOM     78  C   UNL A   1      40.528  28.488  27.537  1.00  0.00     0.001 A 
ATOM     79  C   UNL A   1      39.366  26.676  28.635  1.00  0.00     0.001 A 
ATOM     80  C   UNL A   1      39.848  27.273  27.470  1.00  0.00     0.000 A 
ENDBRANCH  61  75
BRANCH  62  81
ATOM     81  C   UNL A   1      41.051  33.569  38.487  1.00  0.00    -0.014 A 
ATOM     82  C   UNL A   1      40.447  33.142  39.681  1.00  0.00     0.009 A 
ATOM     83  C   UNL A   1      41.760  34.778  38.477  1.00  0.00     0.009 A 
ATOM     84  C   UNL A   1      40.534  33.921  40.835  1.00  0.00     0.001 A 
ATOM     85  C   UNL A   1      41.864  35.544  39.640  1.00  0.00     0.001 A 
ATOM     86  C   UNL A   1      41.244  35.120  40.815  1.00  0.00     0.000 A 
ENDBRANCH  62  81
BRANCH  74  87
ATOM     87  C   UNL A   1      44.743  28.429  35.559  1.00  0.00    -0.014 A 
ATOM     88  C   UNL A   1      46.012  28.887  35.172  1.00  0.00     0.009 A 
ATOM     89  C   UNL A   1      44.637  27.221  36.263  1.00  0.00     0.009 A 
ATOM     90  C   UNL A   1      47.154  28.144  35.476  1.00  0.00     0.001 A 
ATOM     91  C   UNL A   1      45.783  26.489  36.581  1.00  0.00     0.001 A 
ATOM     92  C   UNL A   1      47.038  26.948  36.182  1.00  0.00     0.000 A 
ENDBRANCH  74  87
ENDBRANCH  48  49
ENDBRANCH  40  43
ENDBRANCH  38  39
ENDBRANCH  37  38
ENDBRANCH   1  37
TORSDOF 14
ENDMDL
MODEL 3
REMARK VINA RESULT:     -13.3      3.237      8.424
REMARK SMILES C[C@]12C(=O)N(c3ccc(C(=O)NCCCCCCNC(=O)c4ccc(-c5c6nc(c(-c7ccccc7)c7ccc([nH]7)c(-c7ccccc7)c7nc(c(-c8ccccc8)c8ccc5[nH]8)C=C7)C=C6)cc4)cc3)C(=O)[C@@H]1[C@H]1c3ccccc3[C@@H]2c2ccccc21
REMARK SMILES IDX 16 1 15 2 14 3 13 4 12 5 10 6 11 7 9 9 6 10 7 11 71 12 8 13
REMARK SMILES IDX 70 14 5 15 1 16 2 17 3 18 74 19 82 20 4 21 72 22 75 23 81 24
REMARK SMILES IDX 83 25 73 26 76 27 88 28 80 29 84 30 77 31 87 32 79 33 85 34
REMARK SMILES IDX 78 35 86 36 17 37 18 38 19 39 20 40 21 42 22 43 23 44 69 45
REMARK SMILES IDX 24 46 68 47 25 48 26 49 27 50 62 51 28 52 67 53 61 54 63 55
REMARK SMILES IDX 29 56 66 57 60 58 59 59 30 61 52 62 37 63 51 64 38 65 41 66
REMARK SMILES IDX 50 67 64 68 39 69 40 70 49 72 65 73 42 74 31 75 32 76 36 77
REMARK SMILES IDX 33 78 35 79 34 80 53 81 54 82 58 83 55 84 57 85 56 86 43 87
REMARK SMILES IDX 44 88 48 89 45 90 47 91 46 92
REMARK H PARENT 12 8 19 41 63 60 41 71
REMARK Flexibility Score: inf
ROOT
ATOM      1  C   UNL A   1      41.394  25.545  26.215  1.00  0.00     0.002 C 
ENDROOT
BRANCH   1   2
ATOM      2  C   UNL A   1      40.882  24.841  27.475  1.00  0.00     0.002 C 
BRANCH   2   3
ATOM      3  C   UNL A   1      39.372  24.842  27.726  1.00  0.00     0.021 C 
BRANCH   3   4
ATOM      4  C   UNL A   1      38.481  24.447  26.556  1.00  0.00     0.116 C 
BRANCH   4   5
ATOM      5  N   UNL A   1      38.579  23.044  26.215  1.00  0.00    -0.352 N 
ATOM      6  C   UNL A   1      37.665  22.230  25.599  1.00  0.00     0.251 C 
ATOM      7  O   UNL A   1      37.909  21.034  25.466  1.00  0.00    -0.269 OA
ATOM      8  H   UNL A   1      39.427  22.610  26.462  1.00  0.00     0.163 HD
BRANCH   6   9
ATOM      9  C   UNL A   1      36.370  22.765  25.116  1.00  0.00     0.039 A 
ATOM     10  C   UNL A   1      33.980  23.758  23.955  1.00  0.00     0.052 A 
ATOM     11  C   UNL A   1      34.397  22.429  23.757  1.00  0.00     0.027 A 
ATOM     12  C   UNL A   1      34.754  24.554  24.818  1.00  0.00     0.027 A 
ATOM     13  C   UNL A   1      35.585  21.943  24.315  1.00  0.00     0.016 A 
ATOM     14  C   UNL A   1      35.955  24.076  25.361  1.00  0.00     0.016 A 
BRANCH  10  15
ATOM     15  N   UNL A   1      32.998  24.365  23.092  1.00  0.00    -0.250 N 
ATOM     16  C   UNL A   1      31.390  26.200  21.047  1.00  0.00     0.024 C 
ATOM     17  C   UNL A   1      32.011  26.393  22.450  1.00  0.00     0.071 C 
ATOM     18  C   UNL A   1      33.283  25.582  22.455  1.00  0.00     0.241 C 
ATOM     19  C   UNL A   1      31.237  25.676  23.571  1.00  0.00     0.107 C 
ATOM     20  C   UNL A   1      32.140  27.885  22.900  1.00  0.00     0.066 C 
ATOM     21  O   UNL A   1      34.319  25.976  21.937  1.00  0.00    -0.273 OA
ATOM     22  C   UNL A   1      31.603  24.246  23.348  1.00  0.00     0.238 C 
ATOM     23  C   UNL A   1      30.256  26.621  24.314  1.00  0.00     0.063 C 
ATOM     24  C   UNL A   1      32.382  27.930  24.430  1.00  0.00    -0.036 A 
ATOM     25  C   UNL A   1      30.728  28.456  22.711  1.00  0.00    -0.036 A 
ATOM     26  O   UNL A   1      30.906  23.269  23.503  1.00  0.00    -0.274 OA
ATOM     27  C   UNL A   1      31.306  27.373  25.214  1.00  0.00    -0.036 A 
ATOM     28  C   UNL A   1      29.718  27.735  23.415  1.00  0.00    -0.036 A 
ATOM     29  C   UNL A   1      33.588  28.244  25.036  1.00  0.00     0.005 A 
ATOM     30  C   UNL A   1      30.425  29.600  21.985  1.00  0.00     0.005 A 
ATOM     31  C   UNL A   1      31.436  27.175  26.583  1.00  0.00     0.004 A 
ATOM     32  C   UNL A   1      28.405  28.185  23.389  1.00  0.00     0.004 A 
ATOM     33  C   UNL A   1      33.720  28.017  26.410  1.00  0.00     0.000 A 
ATOM     34  C   UNL A   1      29.103  30.041  21.966  1.00  0.00     0.000 A 
ATOM     35  C   UNL A   1      32.657  27.502  27.175  1.00  0.00     0.000 A 
ATOM     36  C   UNL A   1      28.104  29.341  22.660  1.00  0.00     0.000 A 
ENDBRANCH  10  15
ENDBRANCH   6   9
ENDBRANCH   4   5
ENDBRANCH   3   4
ENDBRANCH   2   3
ENDBRANCH   1   2
BRANCH   1  37
ATOM     37  C   UNL A   1      42.461  24.826  25.391  1.00  0.00     0.021 C 
BRANCH  37  38
ATOM     38  C   UNL A   1      42.881  23.445  25.872  1.00  0.00     0.116 C 
BRANCH  38  39
ATOM     39  N   UNL A   1      44.316  23.228  25.851  1.00  0.00    -0.352 N 
ATOM     40  C   UNL A   1      45.282  23.734  26.692  1.00  0.00     0.251 C 
ATOM     41  H   UNL A   1      44.645  22.638  25.135  1.00  0.00     0.163 HD
ATOM     42  O   UNL A   1      46.467  23.505  26.480  1.00  0.00    -0.269 OA
BRANCH  40  43
ATOM     43  C   UNL A   1      44.893  24.610  27.823  1.00  0.00     0.039 A 
ATOM     44  C   UNL A   1      44.327  24.086  28.988  1.00  0.00     0.014 A 
ATOM     45  C   UNL A   1      45.068  25.990  27.692  1.00  0.00     0.014 A 
ATOM     46  C   UNL A   1      43.779  24.947  29.938  1.00  0.00     0.010 A 
ATOM     47  C   UNL A   1      44.582  26.851  28.681  1.00  0.00     0.010 A 
ATOM     48  C   UNL A   1      43.882  26.339  29.784  1.00  0.00    -0.014 A 
BRANCH  48  49
ATOM     49  C   UNL A   1      43.220  27.242  30.760  1.00  0.00     0.031 A 
ATOM     50  C   UNL A   1      43.883  27.570  32.072  1.00  0.00     0.074 A 
ATOM     51  C   UNL A   1      42.043  27.818  30.447  1.00  0.00     0.049 A 
ATOM     52  N   UNL A   1      43.464  28.352  33.036  1.00  0.00    -0.248 NA
ATOM     53  C   UNL A   1      45.188  26.942  32.339  1.00  0.00     0.031 C 
ATOM     54  C   UNL A   1      41.309  27.610  29.199  1.00  0.00     0.029 A 
ATOM     55  N   UNL A   1      41.274  28.717  31.143  1.00  0.00    -0.354 N 
ATOM     56  C   UNL A   1      44.438  28.297  34.024  1.00  0.00     0.074 A 
ATOM     57  C   UNL A   1      45.463  27.388  33.556  1.00  0.00     0.031 C 
ATOM     58  C   UNL A   1      40.224  28.401  29.194  1.00  0.00     0.029 A 
ATOM     59  C   UNL A   1      40.158  29.130  30.457  1.00  0.00     0.049 A 
ATOM     60  H   UNL A   1      41.502  29.036  32.046  1.00  0.00     0.167 HD
ATOM     61  C   UNL A   1      44.483  28.948  35.210  1.00  0.00     0.031 A 
ATOM     62  C   UNL A   1      39.185  29.993  30.804  1.00  0.00     0.031 A 
ATOM     63  C   UNL A   1      43.476  29.862  35.677  1.00  0.00     0.049 A 
ATOM     64  C   UNL A   1      39.233  30.667  32.144  1.00  0.00     0.074 A 
ATOM     65  C   UNL A   1      43.445  30.571  36.867  1.00  0.00     0.029 A 
ATOM     66  N   UNL A   1      42.328  30.197  34.980  1.00  0.00    -0.354 N 
ATOM     67  N   UNL A   1      40.156  30.589  33.071  1.00  0.00    -0.248 NA
ATOM     68  C   UNL A   1      38.101  31.540  32.489  1.00  0.00     0.031 C 
ATOM     69  C   UNL A   1      42.258  31.309  36.903  1.00  0.00     0.029 A 
ATOM     70  C   UNL A   1      41.574  31.091  35.719  1.00  0.00     0.049 A 
ATOM     71  H   UNL A   1      42.086  29.850  34.090  1.00  0.00     0.167 HD
ATOM     72  C   UNL A   1      39.722  31.407  34.105  1.00  0.00     0.074 A 
ATOM     73  C   UNL A   1      38.462  31.985  33.687  1.00  0.00     0.031 C 
ATOM     74  C   UNL A   1      40.318  31.654  35.296  1.00  0.00     0.031 A 
BRANCH  61  75
ATOM     75  C   UNL A   1      45.661  28.689  36.104  1.00  0.00    -0.014 A 
ATOM     76  C   UNL A   1      45.554  27.752  37.145  1.00  0.00     0.009 A 
ATOM     77  C   UNL A   1      46.849  29.422  35.967  1.00  0.00     0.009 A 
ATOM     78  C   UNL A   1      46.613  27.558  38.033  1.00  0.00     0.001 A 
ATOM     79  C   UNL A   1      47.915  29.209  36.843  1.00  0.00     0.001 A 
ATOM     80  C   UNL A   1      47.795  28.282  37.878  1.00  0.00     0.000 A 
ENDBRANCH  61  75
BRANCH  62  81
ATOM     81  C   UNL A   1      38.084  30.270  29.849  1.00  0.00    -0.014 A 
ATOM     82  C   UNL A   1      38.072  31.457  29.099  1.00  0.00     0.009 A 
ATOM     83  C   UNL A   1      37.017  29.370  29.718  1.00  0.00     0.009 A 
ATOM     84  C   UNL A   1      37.002  31.746  28.250  1.00  0.00     0.001 A 
ATOM     85  C   UNL A   1      35.959  29.652  28.851  1.00  0.00     0.001 A 
ATOM     86  C   UNL A   1      35.948  30.843  28.125  1.00  0.00     0.000 A 
ENDBRANCH  62  81
BRANCH  74  87
ATOM     87  C   UNL A   1      39.628  32.593  36.240  1.00  0.00    -0.014 A 
ATOM     88  C   UNL A   1      40.002  33.945  36.277  1.00  0.00     0.009 A 
ATOM     89  C   UNL A   1      38.674  32.122  37.153  1.00  0.00     0.009 A 
ATOM     90  C   UNL A   1      39.439  34.808  37.217  1.00  0.00     0.001 A 
ATOM     91  C   UNL A   1      38.099  32.992  38.081  1.00  0.00     0.001 A 
ATOM     92  C   UNL A   1      38.486  34.332  38.117  1.00  0.00     0.000 A 
ENDBRANCH  74  87
ENDBRANCH  48  49
ENDBRANCH  40  43
ENDBRANCH  38  39
ENDBRANCH  37  38
ENDBRANCH   1  37
TORSDOF 14
ENDMDL
