MODEL 1
REMARK VINA RESULT:     -11.1      0.000      0.000
REMARK SMILES Cc1cc(C[N@H+]2CC[C@](C)(C(=O)NCCCCCCNC(=O)c3ccc(-c4c5nc(c(-c6ccccc6)c6ccc([nH]6)c(-c6ccccc6)c6nc(c(-c7ccccc7)c7ccc4[nH]7)C=C6)C=C5)cc3)C2)c2ccccc2n1
REMARK SMILES IDX 16 1 15 2 14 3 13 4 11 5 12 6 9 8 6 9 7 10 71 11 8 13 10 14
REMARK SMILES IDX 5 15 4 16 1 17 2 18 3 19 78 20 77 21 72 22 76 23 73 24 75 25
REMARK SMILES IDX 74 26 17 27 18 28 19 29 20 30 21 31 22 33 23 34 24 35 70 36
REMARK SMILES IDX 25 37 69 38 26 39 27 40 28 41 63 42 29 43 68 44 62 45 64 46
REMARK SMILES IDX 30 47 67 48 61 49 60 50 31 52 53 53 38 54 52 55 39 56 42 57
REMARK SMILES IDX 51 58 65 59 40 60 41 61 50 63 66 64 43 65 32 66 33 67 37 68
REMARK SMILES IDX 34 69 36 70 35 71 54 72 55 73 59 74 56 75 58 76 57 77 44 78
REMARK SMILES IDX 45 79 49 80 46 81 48 82 47 83
REMARK H PARENT 13 7 6 12 20 32 64 51 42 62
REMARK Flexibility Score: inf
ROOT
ATOM      1  C   UNL A   1      35.776  21.109  24.648  1.00  0.00     0.002 C 
ENDROOT
BRANCH   1   2
ATOM      2  C   UNL A   1      34.344  20.577  24.760  1.00  0.00     0.021 C 
BRANCH   2   3
ATOM      3  C   UNL A   1      33.674  20.860  26.102  1.00  0.00     0.116 C 
BRANCH   3   4
ATOM      4  N   UNL A   1      32.237  21.060  25.984  1.00  0.00    -0.355 N 
ATOM      5  C   UNL A   1      31.485  22.202  25.910  1.00  0.00     0.231 C 
ATOM      6  O   UNL A   1      30.274  22.068  25.729  1.00  0.00    -0.274 OA
ATOM      7  H   UNL A   1      31.714  20.227  25.951  1.00  0.00     0.163 HD
BRANCH   5   8
ATOM      8  C   UNL A   1      32.138  23.582  26.023  1.00  0.00     0.100 C 
ATOM      9  N   UNL A   1      33.724  24.851  24.703  1.00  0.00    -0.330 N 
ATOM     10  C   UNL A   1      34.206  24.816  26.076  1.00  0.00     0.263 C 
ATOM     11  C   UNL A   1      32.478  24.100  24.622  1.00  0.00     0.279 C 
ATOM     12  H   UNL A   1      34.433  24.378  24.142  1.00  0.00     0.348 HD
ATOM     13  C   UNL A   1      33.545  23.558  26.648  1.00  0.00     0.084 C 
ATOM     14  C   UNL A   1      31.251  24.510  26.878  1.00  0.00     0.028 C 
BRANCH   9  15
ATOM     15  C   UNL A   1      33.799  26.106  23.950  1.00  0.00     0.299 C 
BRANCH  15  16
ATOM     16  C   UNL A   1      32.791  27.182  24.320  1.00  0.00     0.017 A 
ATOM     17  C   UNL A   1      29.419  28.366  23.059  1.00  0.00     0.067 C 
ATOM     18  C   UNL A   1      30.738  28.311  23.764  1.00  0.00     0.038 A 
ATOM     19  C   UNL A   1      31.613  27.255  23.564  1.00  0.00     0.033 A 
ATOM     20  N   UNL A   1      31.025  29.336  24.593  1.00  0.00    -0.253 NA
ATOM     21  C   UNL A   1      32.133  29.267  25.347  1.00  0.00     0.071 A 
ATOM     22  C   UNL A   1      33.003  28.158  25.332  1.00  0.00     0.009 A 
ATOM     23  C   UNL A   1      32.430  30.344  26.174  1.00  0.00     0.029 A 
ATOM     24  C   UNL A   1      34.023  28.105  26.315  1.00  0.00     0.011 A 
ATOM     25  C   UNL A   1      33.518  30.331  27.049  1.00  0.00     0.002 A 
ATOM     26  C   UNL A   1      34.293  29.188  27.150  1.00  0.00     0.001 A 
ENDBRANCH  15  16
ENDBRANCH   9  15
ENDBRANCH   5   8
ENDBRANCH   3   4
ENDBRANCH   2   3
ENDBRANCH   1   2
BRANCH   1  27
ATOM     27  C   UNL A   1      35.952  22.320  23.723  1.00  0.00     0.002 C 
BRANCH  27  28
ATOM     28  C   UNL A   1      37.015  23.331  24.161  1.00  0.00     0.021 C 
BRANCH  28  29
ATOM     29  C   UNL A   1      37.453  23.206  25.617  1.00  0.00     0.116 C 
BRANCH  29  30
ATOM     30  N   UNL A   1      38.696  22.465  25.759  1.00  0.00    -0.352 N 
ATOM     31  C   UNL A   1      39.921  22.897  26.212  1.00  0.00     0.251 C 
ATOM     32  H   UNL A   1      38.656  21.518  25.492  1.00  0.00     0.163 HD
ATOM     33  O   UNL A   1      40.912  22.192  26.101  1.00  0.00    -0.269 OA
BRANCH  31  34
ATOM     34  C   UNL A   1      40.033  24.240  26.821  1.00  0.00     0.039 A 
ATOM     35  C   UNL A   1      39.555  24.442  28.120  1.00  0.00     0.014 A 
ATOM     36  C   UNL A   1      40.617  25.290  26.112  1.00  0.00     0.014 A 
ATOM     37  C   UNL A   1      39.731  25.684  28.735  1.00  0.00     0.010 A 
ATOM     38  C   UNL A   1      40.850  26.505  26.748  1.00  0.00     0.010 A 
ATOM     39  C   UNL A   1      40.413  26.712  28.067  1.00  0.00    -0.014 A 
BRANCH  39  40
ATOM     40  C   UNL A   1      40.687  28.025  28.707  1.00  0.00     0.031 A 
ATOM     41  C   UNL A   1      41.990  28.240  29.426  1.00  0.00     0.074 A 
ATOM     42  C   UNL A   1      39.729  28.972  28.739  1.00  0.00     0.049 A 
ATOM     43  N   UNL A   1      42.350  29.230  30.202  1.00  0.00    -0.248 NA
ATOM     44  C   UNL A   1      43.011  27.190  29.275  1.00  0.00     0.031 C 
ATOM     45  C   UNL A   1      38.418  28.882  28.092  1.00  0.00     0.029 A 
ATOM     46  N   UNL A   1      39.703  30.193  29.369  1.00  0.00    -0.354 N 
ATOM     47  C   UNL A   1      43.620  28.903  30.662  1.00  0.00     0.074 A 
ATOM     48  C   UNL A   1      43.959  27.614  30.101  1.00  0.00     0.031 C 
ATOM     49  C   UNL A   1      37.720  30.000  28.353  1.00  0.00     0.029 A 
ATOM     50  C   UNL A   1      38.509  30.861  29.230  1.00  0.00     0.049 A 
ATOM     51  H   UNL A   1      40.468  30.555  29.872  1.00  0.00     0.167 HD
ATOM     52  C   UNL A   1      44.432  29.616  31.476  1.00  0.00     0.031 A 
ATOM     53  C   UNL A   1      38.087  32.021  29.770  1.00  0.00     0.031 A 
ATOM     54  C   UNL A   1      44.107  30.913  32.006  1.00  0.00     0.049 A 
ATOM     55  C   UNL A   1      39.005  32.779  30.691  1.00  0.00     0.074 A 
ATOM     56  C   UNL A   1      44.897  31.746  32.780  1.00  0.00     0.029 A 
ATOM     57  N   UNL A   1      42.899  31.563  31.817  1.00  0.00    -0.354 N 
ATOM     58  N   UNL A   1      40.227  32.486  31.065  1.00  0.00    -0.248 NA
ATOM     59  C   UNL A   1      38.487  34.032  31.262  1.00  0.00     0.031 C 
ATOM     60  C   UNL A   1      44.145  32.877  33.105  1.00  0.00     0.029 A 
ATOM     61  C   UNL A   1      42.912  32.775  32.482  1.00  0.00     0.049 A 
ATOM     62  H   UNL A   1      42.145  31.214  31.288  1.00  0.00     0.167 HD
ATOM     63  C   UNL A   1      40.637  33.539  31.874  1.00  0.00     0.074 A 
ATOM     64  C   UNL A   1      39.538  34.477  31.937  1.00  0.00     0.031 C 
ATOM     65  C   UNL A   1      41.823  33.713  32.505  1.00  0.00     0.031 A 
BRANCH  52  66
ATOM     66  C   UNL A   1      45.753  29.014  31.861  1.00  0.00    -0.014 A 
ATOM     67  C   UNL A   1      46.914  29.260  31.114  1.00  0.00     0.009 A 
ATOM     68  C   UNL A   1      45.849  28.253  33.038  1.00  0.00     0.009 A 
ATOM     69  C   UNL A   1      48.142  28.738  31.527  1.00  0.00     0.001 A 
ATOM     70  C   UNL A   1      47.081  27.756  33.462  1.00  0.00     0.001 A 
ATOM     71  C   UNL A   1      48.226  27.995  32.704  1.00  0.00     0.000 A 
ENDBRANCH  52  66
BRANCH  53  72
ATOM     72  C   UNL A   1      36.725  32.542  29.475  1.00  0.00    -0.014 A 
ATOM     73  C   UNL A   1      36.495  33.317  28.327  1.00  0.00     0.009 A 
ATOM     74  C   UNL A   1      35.661  32.312  30.360  1.00  0.00     0.009 A 
ATOM     75  C   UNL A   1      35.240  33.885  28.095  1.00  0.00     0.001 A 
ATOM     76  C   UNL A   1      34.398  32.853  30.107  1.00  0.00     0.001 A 
ATOM     77  C   UNL A   1      34.192  33.650  28.984  1.00  0.00     0.000 A 
ENDBRANCH  53  72
BRANCH  65  78
ATOM     78  C   UNL A   1      42.033  34.996  33.257  1.00  0.00    -0.014 A 
ATOM     79  C   UNL A   1      41.448  35.216  34.511  1.00  0.00     0.009 A 
ATOM     80  C   UNL A   1      42.911  35.960  32.734  1.00  0.00     0.009 A 
ATOM     81  C   UNL A   1      41.723  36.387  35.221  1.00  0.00     0.001 A 
ATOM     82  C   UNL A   1      43.206  37.115  33.458  1.00  0.00     0.001 A 
ATOM     83  C   UNL A   1      42.609  37.330  34.698  1.00  0.00     0.000 A 
ENDBRANCH  65  78
ENDBRANCH  39  40
ENDBRANCH  31  34
ENDBRANCH  29  30
ENDBRANCH  28  29
ENDBRANCH  27  28
ENDBRANCH   1  27
TORSDOF 15
ENDMDL
MODEL 2
REMARK VINA RESULT:     -11.1      2.362      3.729
REMARK SMILES Cc1cc(C[N@H+]2CC[C@](C)(C(=O)NCCCCCCNC(=O)c3ccc(-c4c5nc(c(-c6ccccc6)c6ccc([nH]6)c(-c6ccccc6)c6nc(c(-c7ccccc7)c7ccc4[nH]7)C=C6)C=C5)cc3)C2)c2ccccc2n1
REMARK SMILES IDX 16 1 15 2 14 3 13 4 11 5 12 6 9 8 6 9 7 10 71 11 8 13 10 14
REMARK SMILES IDX 5 15 4 16 1 17 2 18 3 19 78 20 77 21 72 22 76 23 73 24 75 25
REMARK SMILES IDX 74 26 17 27 18 28 19 29 20 30 21 31 22 33 23 34 24 35 70 36
REMARK SMILES IDX 25 37 69 38 26 39 27 40 28 41 63 42 29 43 68 44 62 45 64 46
REMARK SMILES IDX 30 47 67 48 61 49 60 50 31 52 53 53 38 54 52 55 39 56 42 57
REMARK SMILES IDX 51 58 65 59 40 60 41 61 50 63 66 64 43 65 32 66 33 67 37 68
REMARK SMILES IDX 34 69 36 70 35 71 54 72 55 73 59 74 56 75 58 76 57 77 44 78
REMARK SMILES IDX 45 79 49 80 46 81 48 82 47 83
REMARK H PARENT 13 7 6 12 20 32 64 51 42 62
REMARK Flexibility Score: inf
ROOT
ATOM      1  C   UNL A   1      37.466  22.390  25.734  1.00  0.00     0.002 C 
ENDROOT
BRANCH   1   2
ATOM      2  C   UNL A   1      36.517  23.577  25.546  1.00  0.00     0.021 C 
BRANCH   2   3
ATOM      3  C   UNL A   1      35.117  23.357  26.115  1.00  0.00     0.116 C 
BRANCH   3   4
ATOM      4  N   UNL A   1      34.446  22.205  25.531  1.00  0.00    -0.355 N 
ATOM      5  C   UNL A   1      33.357  22.114  24.706  1.00  0.00     0.231 C 
ATOM      6  O   UNL A   1      33.054  20.992  24.297  1.00  0.00    -0.274 OA
ATOM      7  H   UNL A   1      34.845  21.338  25.773  1.00  0.00     0.163 HD
BRANCH   5   8
ATOM      8  C   UNL A   1      32.574  23.363  24.296  1.00  0.00     0.100 C 
ATOM      9  N   UNL A   1      30.421  24.314  24.871  1.00  0.00    -0.330 N 
ATOM     10  C   UNL A   1      30.502  24.224  23.420  1.00  0.00     0.263 C 
ATOM     11  C   UNL A   1      31.652  23.786  25.444  1.00  0.00     0.279 C 
ATOM     12  H   UNL A   1      29.643  23.715  25.148  1.00  0.00     0.348 HD
ATOM     13  C   UNL A   1      31.529  23.111  23.193  1.00  0.00     0.084 C 
ATOM     14  C   UNL A   1      33.548  24.447  23.791  1.00  0.00     0.028 C 
BRANCH   9  15
ATOM     15  C   UNL A   1      29.861  25.521  25.484  1.00  0.00     0.299 C 
BRANCH  15  16
ATOM     16  C   UNL A   1      30.310  26.851  24.899  1.00  0.00     0.017 A 
ATOM     17  C   UNL A   1      29.087  29.253  22.235  1.00  0.00     0.067 C 
ATOM     18  C   UNL A   1      29.956  28.549  23.230  1.00  0.00     0.038 A 
ATOM     19  C   UNL A   1      29.510  27.420  23.898  1.00  0.00     0.033 A 
ATOM     20  N   UNL A   1      31.185  29.070  23.435  1.00  0.00    -0.253 NA
ATOM     21  C   UNL A   1      31.949  28.556  24.411  1.00  0.00     0.071 A 
ATOM     22  C   UNL A   1      31.519  27.509  25.252  1.00  0.00     0.009 A 
ATOM     23  C   UNL A   1      33.223  29.083  24.591  1.00  0.00     0.029 A 
ATOM     24  C   UNL A   1      32.324  27.189  26.374  1.00  0.00     0.011 A 
ATOM     25  C   UNL A   1      34.060  28.665  25.626  1.00  0.00     0.002 A 
ATOM     26  C   UNL A   1      33.591  27.743  26.548  1.00  0.00     0.001 A 
ENDBRANCH  15  16
ENDBRANCH   9  15
ENDBRANCH   5   8
ENDBRANCH   3   4
ENDBRANCH   2   3
ENDBRANCH   1   2
BRANCH   1  27
ATOM     27  C   UNL A   1      37.434  21.344  24.613  1.00  0.00     0.002 C 
BRANCH  27  28
ATOM     28  C   UNL A   1      38.265  20.083  24.868  1.00  0.00     0.021 C 
BRANCH  28  29
ATOM     29  C   UNL A   1      39.203  20.170  26.068  1.00  0.00     0.116 C 
BRANCH  29  30
ATOM     30  N   UNL A   1      40.345  19.278  25.941  1.00  0.00    -0.352 N 
ATOM     31  C   UNL A   1      41.688  19.565  26.032  1.00  0.00     0.251 C 
ATOM     32  H   UNL A   1      40.127  18.335  25.765  1.00  0.00     0.163 HD
ATOM     33  O   UNL A   1      42.526  18.732  25.724  1.00  0.00    -0.269 OA
BRANCH  31  34
ATOM     34  C   UNL A   1      42.111  20.906  26.490  1.00  0.00     0.039 A 
ATOM     35  C   UNL A   1      42.501  21.858  25.543  1.00  0.00     0.014 A 
ATOM     36  C   UNL A   1      42.110  21.220  27.849  1.00  0.00     0.014 A 
ATOM     37  C   UNL A   1      42.822  23.153  25.957  1.00  0.00     0.010 A 
ATOM     38  C   UNL A   1      42.367  22.526  28.254  1.00  0.00     0.010 A 
ATOM     39  C   UNL A   1      42.721  23.506  27.312  1.00  0.00    -0.014 A 
BRANCH  39  40
ATOM     40  C   UNL A   1      42.982  24.888  27.791  1.00  0.00     0.031 A 
ATOM     41  C   UNL A   1      44.366  25.265  28.244  1.00  0.00     0.074 A 
ATOM     42  C   UNL A   1      41.963  25.758  27.926  1.00  0.00     0.049 A 
ATOM     43  N   UNL A   1      44.765  26.344  28.866  1.00  0.00    -0.248 NA
ATOM     44  C   UNL A   1      45.436  24.286  27.990  1.00  0.00     0.031 C 
ATOM     45  C   UNL A   1      40.573  25.512  27.535  1.00  0.00     0.029 A 
ATOM     46  N   UNL A   1      41.937  27.025  28.458  1.00  0.00    -0.354 N 
ATOM     47  C   UNL A   1      46.120  26.157  29.112  1.00  0.00     0.074 A 
ATOM     48  C   UNL A   1      46.471  24.852  28.596  1.00  0.00     0.031 C 
ATOM     49  C   UNL A   1      39.833  26.593  27.835  1.00  0.00     0.029 A 
ATOM     50  C   UNL A   1      40.681  27.586  28.487  1.00  0.00     0.049 A 
ATOM     51  H   UNL A   1      42.742  27.488  28.786  1.00  0.00     0.167 HD
ATOM     52  C   UNL A   1      46.993  27.000  29.710  1.00  0.00     0.031 A 
ATOM     53  C   UNL A   1      40.257  28.754  29.007  1.00  0.00     0.031 A 
ATOM     54  C   UNL A   1      46.650  28.310  30.192  1.00  0.00     0.049 A 
ATOM     55  C   UNL A   1      41.249  29.659  29.688  1.00  0.00     0.074 A 
ATOM     56  C   UNL A   1      47.483  29.266  30.745  1.00  0.00     0.029 A 
ATOM     57  N   UNL A   1      45.373  28.847  30.177  1.00  0.00    -0.354 N 
ATOM     58  N   UNL A   1      42.539  29.494  29.855  1.00  0.00    -0.248 NA
ATOM     59  C   UNL A   1      40.727  30.916  30.248  1.00  0.00     0.031 C 
ATOM     60  C   UNL A   1      46.701  30.362  31.116  1.00  0.00     0.029 A 
ATOM     61  C   UNL A   1      45.392  30.111  30.737  1.00  0.00     0.049 A 
ATOM     62  H   UNL A   1      44.574  28.397  29.820  1.00  0.00     0.167 HD
ATOM     63  C   UNL A   1      42.986  30.644  30.496  1.00  0.00     0.074 A 
ATOM     64  C   UNL A   1      41.835  31.498  30.686  1.00  0.00     0.031 C 
ATOM     65  C   UNL A   1      44.243  30.963  30.887  1.00  0.00     0.031 A 
BRANCH  52  66
ATOM     66  C   UNL A   1      48.410  26.536  29.893  1.00  0.00    -0.014 A 
ATOM     67  C   UNL A   1      49.429  26.935  29.016  1.00  0.00     0.009 A 
ATOM     68  C   UNL A   1      48.742  25.752  31.010  1.00  0.00     0.009 A 
ATOM     69  C   UNL A   1      50.749  26.540  29.242  1.00  0.00     0.001 A 
ATOM     70  C   UNL A   1      50.065  25.382  31.249  1.00  0.00     0.001 A 
ATOM     71  C   UNL A   1      51.068  25.772  30.362  1.00  0.00     0.000 A 
ENDBRANCH  52  66
BRANCH  53  72
ATOM     72  C   UNL A   1      38.823  29.142  28.926  1.00  0.00    -0.014 A 
ATOM     73  C   UNL A   1      37.969  28.942  30.022  1.00  0.00     0.009 A 
ATOM     74  C   UNL A   1      38.288  29.668  27.739  1.00  0.00     0.009 A 
ATOM     75  C   UNL A   1      36.604  29.219  29.918  1.00  0.00     0.001 A 
ATOM     76  C   UNL A   1      36.929  29.977  27.650  1.00  0.00     0.001 A 
ATOM     77  C   UNL A   1      36.086  29.739  28.733  1.00  0.00     0.000 A 
ENDBRANCH  53  72
BRANCH  65  78
ATOM     78  C   UNL A   1      44.465  32.320  31.490  1.00  0.00    -0.014 A 
ATOM     79  C   UNL A   1      44.397  32.527  32.875  1.00  0.00     0.009 A 
ATOM     80  C   UNL A   1      44.839  33.387  30.657  1.00  0.00     0.009 A 
ATOM     81  C   UNL A   1      44.683  33.784  33.413  1.00  0.00     0.001 A 
ATOM     82  C   UNL A   1      45.151  34.633  31.200  1.00  0.00     0.001 A 
ATOM     83  C   UNL A   1      45.069  34.831  32.576  1.00  0.00     0.000 A 
ENDBRANCH  65  78
ENDBRANCH  39  40
ENDBRANCH  31  34
ENDBRANCH  29  30
ENDBRANCH  28  29
ENDBRANCH  27  28
ENDBRANCH   1  27
TORSDOF 15
ENDMDL
MODEL 3
REMARK VINA RESULT:     -11.0      2.633      6.824
REMARK SMILES Cc1cc(C[N@H+]2CC[C@](C)(C(=O)NCCCCCCNC(=O)c3ccc(-c4c5nc(c(-c6ccccc6)c6ccc([nH]6)c(-c6ccccc6)c6nc(c(-c7ccccc7)c7ccc4[nH]7)C=C6)C=C5)cc3)C2)c2ccccc2n1
REMARK SMILES IDX 16 1 15 2 14 3 13 4 11 5 12 6 9 8 6 9 7 10 71 11 8 13 10 14
REMARK SMILES IDX 5 15 4 16 1 17 2 18 3 19 78 20 77 21 72 22 76 23 73 24 75 25
REMARK SMILES IDX 74 26 17 27 18 28 19 29 20 30 21 31 22 33 23 34 24 35 70 36
REMARK SMILES IDX 25 37 69 38 26 39 27 40 28 41 63 42 29 43 68 44 62 45 64 46
REMARK SMILES IDX 30 47 67 48 61 49 60 50 31 52 53 53 38 54 52 55 39 56 42 57
REMARK SMILES IDX 51 58 65 59 40 60 41 61 50 63 66 64 43 65 32 66 33 67 37 68
REMARK SMILES IDX 34 69 36 70 35 71 54 72 55 73 59 74 56 75 58 76 57 77 44 78
REMARK SMILES IDX 45 79 49 80 46 81 48 82 47 83
REMARK H PARENT 13 7 6 12 20 32 64 51 42 62
REMARK Flexibility Score: inf
ROOT
ATOM      1  C   UNL A   1      35.948  20.976  25.331  1.00  0.00     0.002 C 
ENDROOT
BRANCH   1   2
ATOM      2  C   UNL A   1      34.785  21.326  24.399  1.00  0.00     0.021 C 
BRANCH   2   3
ATOM      3  C   UNL A   1      33.412  20.915  24.928  1.00  0.00     0.116 C 
BRANCH   3   4
ATOM      4  N   UNL A   1      33.202  21.305  26.313  1.00  0.00    -0.355 N 
ATOM      5  C   UNL A   1      32.692  22.450  26.865  1.00  0.00     0.231 C 
ATOM      6  O   UNL A   1      32.554  22.472  28.090  1.00  0.00    -0.274 OA
ATOM      7  H   UNL A   1      33.475  20.625  26.971  1.00  0.00     0.163 HD
BRANCH   5   8
ATOM      8  C   UNL A   1      32.291  23.635  25.985  1.00  0.00     0.100 C 
ATOM      9  N   UNL A   1      30.198  24.675  25.343  1.00  0.00    -0.330 N 
ATOM     10  C   UNL A   1      30.947  24.382  24.129  1.00  0.00     0.263 C 
ATOM     11  C   UNL A   1      30.970  24.224  26.493  1.00  0.00     0.279 C 
ATOM     12  H   UNL A   1      29.340  24.127  25.285  1.00  0.00     0.348 HD
ATOM     13  C   UNL A   1      31.874  23.240  24.556  1.00  0.00     0.084 C 
ATOM     14  C   UNL A   1      33.465  24.630  25.880  1.00  0.00     0.028 C 
BRANCH   9  15
ATOM     15  C   UNL A   1      29.507  25.960  25.465  1.00  0.00     0.299 C 
BRANCH  15  16
ATOM     16  C   UNL A   1      30.231  27.177  24.911  1.00  0.00     0.017 A 
ATOM     17  C   UNL A   1      30.058  29.312  21.783  1.00  0.00     0.067 C 
ATOM     18  C   UNL A   1      30.535  28.679  23.054  1.00  0.00     0.038 A 
ATOM     19  C   UNL A   1      29.809  27.672  23.668  1.00  0.00     0.033 A 
ATOM     20  N   UNL A   1      31.699  29.139  23.558  1.00  0.00    -0.253 NA
ATOM     21  C   UNL A   1      32.100  28.699  24.761  1.00  0.00     0.071 A 
ATOM     22  C   UNL A   1      31.348  27.794  25.537  1.00  0.00     0.009 A 
ATOM     23  C   UNL A   1      33.315  29.160  25.255  1.00  0.00     0.029 A 
ATOM     24  C   UNL A   1      31.766  27.560  26.871  1.00  0.00     0.011 A 
ATOM     25  C   UNL A   1      33.779  28.817  26.526  1.00  0.00     0.002 A 
ATOM     26  C   UNL A   1      32.979  28.048  27.355  1.00  0.00     0.001 A 
ENDBRANCH  15  16
ENDBRANCH   9  15
ENDBRANCH   5   8
ENDBRANCH   3   4
ENDBRANCH   2   3
ENDBRANCH   1   2
BRANCH   1  27
ATOM     27  C   UNL A   1      37.339  21.032  24.688  1.00  0.00     0.002 C 
BRANCH  27  28
ATOM     28  C   UNL A   1      38.196  19.775  24.866  1.00  0.00     0.021 C 
BRANCH  28  29
ATOM     29  C   UNL A   1      39.133  19.808  26.069  1.00  0.00     0.116 C 
BRANCH  29  30
ATOM     30  N   UNL A   1      40.390  19.123  25.809  1.00  0.00    -0.352 N 
ATOM     31  C   UNL A   1      41.676  19.603  25.894  1.00  0.00     0.251 C 
ATOM     32  H   UNL A   1      40.308  18.182  25.533  1.00  0.00     0.163 HD
ATOM     33  O   UNL A   1      42.615  18.948  25.469  1.00  0.00    -0.269 OA
BRANCH  31  34
ATOM     34  C   UNL A   1      41.912  20.936  26.490  1.00  0.00     0.039 A 
ATOM     35  C   UNL A   1      41.956  21.062  27.881  1.00  0.00     0.014 A 
ATOM     36  C   UNL A   1      42.100  22.051  25.672  1.00  0.00     0.014 A 
ATOM     37  C   UNL A   1      42.262  22.300  28.453  1.00  0.00     0.010 A 
ATOM     38  C   UNL A   1      42.467  23.266  26.240  1.00  0.00     0.010 A 
ATOM     39  C   UNL A   1      42.556  23.402  27.636  1.00  0.00    -0.014 A 
BRANCH  39  40
ATOM     40  C   UNL A   1      42.956  24.718  28.196  1.00  0.00     0.031 A 
ATOM     41  C   UNL A   1      41.902  25.755  28.474  1.00  0.00     0.074 A 
ATOM     42  C   UNL A   1      44.261  25.019  28.344  1.00  0.00     0.049 A 
ATOM     43  N   UNL A   1      42.049  27.018  28.782  1.00  0.00    -0.248 NA
ATOM     44  C   UNL A   1      40.499  25.321  28.362  1.00  0.00     0.031 C 
ATOM     45  C   UNL A   1      45.380  24.107  28.097  1.00  0.00     0.029 A 
ATOM     46  N   UNL A   1      44.868  26.195  28.715  1.00  0.00    -0.354 N 
ATOM     47  C   UNL A   1      40.762  27.537  28.861  1.00  0.00     0.074 A 
ATOM     48  C   UNL A   1      39.848  26.461  28.545  1.00  0.00     0.031 C 
ATOM     49  C   UNL A   1      46.535  24.755  28.329  1.00  0.00     0.029 A 
ATOM     50  C   UNL A   1      46.242  26.140  28.687  1.00  0.00     0.049 A 
ATOM     51  H   UNL A   1      44.366  27.000  28.978  1.00  0.00     0.167 HD
ATOM     52  C   UNL A   1      40.378  28.795  29.175  1.00  0.00     0.031 A 
ATOM     53  C   UNL A   1      47.160  27.103  28.896  1.00  0.00     0.031 A 
ATOM     54  C   UNL A   1      41.286  29.854  29.522  1.00  0.00     0.049 A 
ATOM     55  C   UNL A   1      46.701  28.499  29.219  1.00  0.00     0.074 A 
ATOM     56  C   UNL A   1      40.987  31.144  29.926  1.00  0.00     0.029 A 
ATOM     57  N   UNL A   1      42.667  29.746  29.506  1.00  0.00    -0.354 N 
ATOM     58  N   UNL A   1      45.479  28.957  29.353  1.00  0.00    -0.248 NA
ATOM     59  C   UNL A   1      47.747  29.513  29.425  1.00  0.00     0.031 C 
ATOM     60  C   UNL A   1      42.188  31.833  30.102  1.00  0.00     0.029 A 
ATOM     61  C   UNL A   1      43.234  30.955  29.867  1.00  0.00     0.049 A 
ATOM     62  H   UNL A   1      43.169  28.932  29.273  1.00  0.00     0.167 HD
ATOM     63  C   UNL A   1      45.614  30.295  29.703  1.00  0.00     0.074 A 
ATOM     64  C   UNL A   1      47.032  30.576  29.763  1.00  0.00     0.031 C 
ATOM     65  C   UNL A   1      44.646  31.208  29.956  1.00  0.00     0.031 A 
BRANCH  52  66
ATOM     66  C   UNL A   1      38.910  29.113  29.149  1.00  0.00    -0.014 A 
ATOM     67  C   UNL A   1      38.119  29.009  30.303  1.00  0.00     0.009 A 
ATOM     68  C   UNL A   1      38.329  29.603  27.968  1.00  0.00     0.009 A 
ATOM     69  C   UNL A   1      36.770  29.368  30.268  1.00  0.00     0.001 A 
ATOM     70  C   UNL A   1      36.988  29.987  27.943  1.00  0.00     0.001 A 
ATOM     71  C   UNL A   1      36.208  29.865  29.092  1.00  0.00     0.000 A 
ENDBRANCH  52  66
BRANCH  53  72
ATOM     72  C   UNL A   1      48.613  26.797  28.795  1.00  0.00    -0.014 A 
ATOM     73  C   UNL A   1      49.278  26.903  27.563  1.00  0.00     0.009 A 
ATOM     74  C   UNL A   1      49.332  26.352  29.915  1.00  0.00     0.009 A 
ATOM     75  C   UNL A   1      50.618  26.529  27.446  1.00  0.00     0.001 A 
ATOM     76  C   UNL A   1      50.682  26.012  29.802  1.00  0.00     0.001 A 
ATOM     77  C   UNL A   1      51.320  26.086  28.566  1.00  0.00     0.000 A 
ENDBRANCH  53  72
BRANCH  65  78
ATOM     78  C   UNL A   1      45.075  32.578  30.398  1.00  0.00    -0.014 A 
ATOM     79  C   UNL A   1      45.366  32.859  31.740  1.00  0.00     0.009 A 
ATOM     80  C   UNL A   1      45.278  33.577  29.431  1.00  0.00     0.009 A 
ATOM     81  C   UNL A   1      45.836  34.121  32.109  1.00  0.00     0.001 A 
ATOM     82  C   UNL A   1      45.773  34.827  29.799  1.00  0.00     0.001 A 
ATOM     83  C   UNL A   1      46.048  35.099  31.138  1.00  0.00     0.000 A 
ENDBRANCH  65  78
ENDBRANCH  39  40
ENDBRANCH  31  34
ENDBRANCH  29  30
ENDBRANCH  28  29
ENDBRANCH  27  28
ENDBRANCH   1  27
TORSDOF 15
ENDMDL
