MODEL 1
REMARK VINA RESULT:     -10.6      0.000      0.000
REMARK SMILES CCOc1cc(/C=C(/F)C(=O)NCCCCCCNC(=O)c2ccc(-c3c4nc(c(-c5ccccc5)c5ccc([nH]5)c(-c5ccccc5)c5nc(c(-c6ccccc6)c6ccc3[nH]6)C=C5)C=C4)cc2)ccc1O
REMARK SMILES IDX 15 1 14 2 13 3 12 4 10 5 11 6 8 8 7 9 9 10 6 11 4 12 5 13
REMARK SMILES IDX 72 14 71 15 70 16 3 17 2 18 1 19 73 20 16 22 17 23 18 24
REMARK SMILES IDX 19 25 20 26 21 28 22 29 23 30 69 31 24 32 68 33 25 34 26 35
REMARK SMILES IDX 27 36 62 37 28 38 67 39 61 40 63 41 29 42 66 43 60 44 59 45
REMARK SMILES IDX 30 47 52 48 37 49 51 50 38 51 41 52 50 53 64 54 39 55 40 56
REMARK SMILES IDX 49 58 65 59 42 60 31 61 32 62 36 63 33 64 35 65 34 66 53 67
REMARK SMILES IDX 54 68 58 69 55 70 57 71 56 72 43 73 44 74 48 75 45 76 47 77
REMARK SMILES IDX 46 78
REMARK H PARENT 12 7 73 21 19 27 63 46 41 57
REMARK Flexibility Score: inf
ROOT
ATOM      1  C   UNL A   1      36.251  23.186  24.669  1.00  0.00     0.002 C 
ENDROOT
BRANCH   1   2
ATOM      2  C   UNL A   1      34.957  23.751  24.071  1.00  0.00     0.021 C 
BRANCH   2   3
ATOM      3  C   UNL A   1      34.092  24.588  25.014  1.00  0.00     0.116 C 
BRANCH   3   4
ATOM      4  N   UNL A   1      32.795  23.988  25.273  1.00  0.00    -0.350 N 
ATOM      5  C   UNL A   1      32.407  22.881  25.965  1.00  0.00     0.280 C 
ATOM      6  O   UNL A   1      31.196  22.673  26.053  1.00  0.00    -0.267 OA
ATOM      7  H   UNL A   1      32.046  24.482  24.868  1.00  0.00     0.163 HD
BRANCH   5   8
ATOM      8  C   UNL A   1      33.414  21.979  26.595  1.00  0.00     0.188 C 
ATOM      9  C   UNL A   1      33.800  20.759  26.191  1.00  0.00     0.053 C 
ATOM     10  F   UNL A   1      33.946  22.419  27.757  1.00  0.00    -0.201 F 
BRANCH   9  11
ATOM     11  C   UNL A   1      33.428  19.941  25.025  1.00  0.00    -0.019 A 
ATOM     12  C   UNL A   1      33.176  17.837  23.833  1.00  0.00     0.161 A 
ATOM     13  C   UNL A   1      33.640  18.558  24.938  1.00  0.00     0.058 A 
ATOM     14  C   UNL A   1      32.441  18.484  22.840  1.00  0.00     0.157 A 
ATOM     15  C   UNL A   1      32.224  19.852  22.904  1.00  0.00     0.051 A 
ATOM     16  C   UNL A   1      32.711  20.575  23.995  1.00  0.00     0.012 A 
BRANCH  12  17
ATOM     17  O   UNL A   1      33.342  16.476  23.839  1.00  0.00    -0.490 OA
BRANCH  17  18
ATOM     18  C   UNL A   1      33.636  15.961  25.145  1.00  0.00     0.226 C 
ATOM     19  C   UNL A   1      32.483  15.058  25.550  1.00  0.00     0.049 C 
ENDBRANCH  17  18
ENDBRANCH  12  17
BRANCH  14  20
ATOM     20  O   UNL A   1      31.846  17.797  21.821  1.00  0.00    -0.504 OA
ATOM     21  H   UNL A   1      30.977  17.463  21.927  1.00  0.00     0.293 HD
ENDBRANCH  14  20
ENDBRANCH   9  11
ENDBRANCH   5   8
ENDBRANCH   3   4
ENDBRANCH   2   3
ENDBRANCH   1   2
BRANCH   1  22
ATOM     22  C   UNL A   1      36.905  22.030  23.908  1.00  0.00     0.002 C 
BRANCH  22  23
ATOM     23  C   UNL A   1      37.288  20.812  24.747  1.00  0.00     0.021 C 
BRANCH  23  24
ATOM     24  C   UNL A   1      38.471  21.017  25.685  1.00  0.00     0.116 C 
BRANCH  24  25
ATOM     25  N   UNL A   1      39.415  19.912  25.649  1.00  0.00    -0.352 N 
ATOM     26  C   UNL A   1      40.753  19.900  25.973  1.00  0.00     0.251 C 
ATOM     27  H   UNL A   1      39.046  19.050  25.351  1.00  0.00     0.163 HD
ATOM     28  O   UNL A   1      41.441  18.917  25.746  1.00  0.00    -0.269 OA
BRANCH  26  29
ATOM     29  C   UNL A   1      41.364  21.108  26.573  1.00  0.00     0.039 A 
ATOM     30  C   UNL A   1      41.900  22.084  25.729  1.00  0.00     0.014 A 
ATOM     31  C   UNL A   1      41.380  21.287  27.959  1.00  0.00     0.014 A 
ATOM     32  C   UNL A   1      42.376  23.279  26.272  1.00  0.00     0.010 A 
ATOM     33  C   UNL A   1      41.789  22.506  28.491  1.00  0.00     0.010 A 
ATOM     34  C   UNL A   1      42.282  23.518  27.653  1.00  0.00    -0.014 A 
BRANCH  34  35
ATOM     35  C   UNL A   1      42.668  24.825  28.242  1.00  0.00     0.031 A 
ATOM     36  C   UNL A   1      41.636  25.897  28.450  1.00  0.00     0.074 A 
ATOM     37  C   UNL A   1      43.965  25.077  28.511  1.00  0.00     0.049 A 
ATOM     38  N   UNL A   1      41.797  27.130  28.861  1.00  0.00    -0.248 NA
ATOM     39  C   UNL A   1      40.243  25.544  28.134  1.00  0.00     0.031 C 
ATOM     40  C   UNL A   1      45.070  24.135  28.325  1.00  0.00     0.029 A 
ATOM     41  N   UNL A   1      44.573  26.212  28.989  1.00  0.00    -0.354 N 
ATOM     42  C   UNL A   1      40.532  27.703  28.836  1.00  0.00     0.074 A 
ATOM     43  C   UNL A   1      39.622  26.698  28.328  1.00  0.00     0.031 C 
ATOM     44  C   UNL A   1      46.216  24.721  28.705  1.00  0.00     0.029 A 
ATOM     45  C   UNL A   1      45.936  26.093  29.115  1.00  0.00     0.049 A 
ATOM     46  H   UNL A   1      44.080  27.033  29.218  1.00  0.00     0.167 HD
ATOM     47  C   UNL A   1      40.157  28.947  29.218  1.00  0.00     0.031 A 
ATOM     48  C   UNL A   1      46.861  26.992  29.504  1.00  0.00     0.031 A 
ATOM     49  C   UNL A   1      41.060  29.944  29.727  1.00  0.00     0.049 A 
ATOM     50  C   UNL A   1      46.424  28.379  29.885  1.00  0.00     0.074 A 
ATOM     51  C   UNL A   1      40.766  31.215  30.190  1.00  0.00     0.029 A 
ATOM     52  N   UNL A   1      42.432  29.786  29.835  1.00  0.00    -0.354 N 
ATOM     53  N   UNL A   1      45.215  28.885  29.916  1.00  0.00    -0.248 NA
ATOM     54  C   UNL A   1      47.481  29.317  30.290  1.00  0.00     0.031 C 
ATOM     55  C   UNL A   1      41.969  31.846  30.525  1.00  0.00     0.029 A 
ATOM     56  C   UNL A   1      43.004  30.946  30.328  1.00  0.00     0.049 A 
ATOM     57  H   UNL A   1      42.927  28.968  29.596  1.00  0.00     0.167 HD
ATOM     58  C   UNL A   1      45.363  30.189  30.369  1.00  0.00     0.074 A 
ATOM     59  C   UNL A   1      46.776  30.393  30.613  1.00  0.00     0.031 C 
ATOM     60  C   UNL A   1      44.412  31.135  30.565  1.00  0.00     0.031 A 
BRANCH  47  61
ATOM     61  C   UNL A   1      38.702  29.301  29.086  1.00  0.00    -0.014 A 
ATOM     62  C   UNL A   1      37.827  29.205  30.180  1.00  0.00     0.009 A 
ATOM     63  C   UNL A   1      38.205  29.771  27.860  1.00  0.00     0.009 A 
ATOM     64  C   UNL A   1      36.477  29.534  30.039  1.00  0.00     0.001 A 
ATOM     65  C   UNL A   1      36.862  30.128  27.730  1.00  0.00     0.001 A 
ATOM     66  C   UNL A   1      35.997  30.001  28.816  1.00  0.00     0.000 A 
ENDBRANCH  47  61
BRANCH  48  67
ATOM     67  C   UNL A   1      48.297  26.609  29.555  1.00  0.00    -0.014 A 
ATOM     68  C   UNL A   1      49.128  26.822  28.444  1.00  0.00     0.009 A 
ATOM     69  C   UNL A   1      48.842  26.023  30.708  1.00  0.00     0.009 A 
ATOM     70  C   UNL A   1      50.469  26.434  28.480  1.00  0.00     0.001 A 
ATOM     71  C   UNL A   1      50.190  25.663  30.750  1.00  0.00     0.001 A 
ATOM     72  C   UNL A   1      51.000  25.859  29.634  1.00  0.00     0.000 A 
ENDBRANCH  48  67
BRANCH  60  73
ATOM     73  C   UNL A   1      44.862  32.464  31.100  1.00  0.00    -0.014 A 
ATOM     74  C   UNL A   1      45.236  33.508  30.240  1.00  0.00     0.009 A 
ATOM     75  C   UNL A   1      44.860  32.692  32.486  1.00  0.00     0.009 A 
ATOM     76  C   UNL A   1      45.628  34.743  30.759  1.00  0.00     0.001 A 
ATOM     77  C   UNL A   1      45.225  33.936  33.000  1.00  0.00     0.001 A 
ATOM     78  C   UNL A   1      45.616  34.959  32.138  1.00  0.00     0.000 A 
ENDBRANCH  60  73
ENDBRANCH  34  35
ENDBRANCH  26  29
ENDBRANCH  24  25
ENDBRANCH  23  24
ENDBRANCH  22  23
ENDBRANCH   1  22
TORSDOF 17
ENDMDL
MODEL 2
REMARK VINA RESULT:     -10.4      3.715      8.460
REMARK SMILES CCOc1cc(/C=C(/F)C(=O)NCCCCCCNC(=O)c2ccc(-c3c4nc(c(-c5ccccc5)c5ccc([nH]5)c(-c5ccccc5)c5nc(c(-c6ccccc6)c6ccc3[nH]6)C=C5)C=C4)cc2)ccc1O
REMARK SMILES IDX 15 1 14 2 13 3 12 4 10 5 11 6 8 8 7 9 9 10 6 11 4 12 5 13
REMARK SMILES IDX 72 14 71 15 70 16 3 17 2 18 1 19 73 20 16 22 17 23 18 24
REMARK SMILES IDX 19 25 20 26 21 28 22 29 23 30 69 31 24 32 68 33 25 34 26 35
REMARK SMILES IDX 27 36 62 37 28 38 67 39 61 40 63 41 29 42 66 43 60 44 59 45
REMARK SMILES IDX 30 47 52 48 37 49 51 50 38 51 41 52 50 53 64 54 39 55 40 56
REMARK SMILES IDX 49 58 65 59 42 60 31 61 32 62 36 63 33 64 35 65 34 66 53 67
REMARK SMILES IDX 54 68 58 69 55 70 57 71 56 72 43 73 44 74 48 75 45 76 47 77
REMARK SMILES IDX 46 78
REMARK H PARENT 12 7 73 21 19 27 63 46 41 57
REMARK Flexibility Score: inf
ROOT
ATOM      1  C   UNL A   1      33.748  26.140  25.749  1.00  0.00     0.002 C 
ENDROOT
BRANCH   1   2
ATOM      2  C   UNL A   1      33.296  24.921  24.936  1.00  0.00     0.021 C 
BRANCH   2   3
ATOM      3  C   UNL A   1      33.914  24.776  23.546  1.00  0.00     0.116 C 
BRANCH   3   4
ATOM      4  N   UNL A   1      32.960  25.007  22.476  1.00  0.00    -0.350 N 
ATOM      5  C   UNL A   1      32.481  26.139  21.887  1.00  0.00     0.280 C 
ATOM      6  O   UNL A   1      31.708  25.992  20.940  1.00  0.00    -0.267 OA
ATOM      7  H   UNL A   1      32.583  24.179  22.100  1.00  0.00     0.163 HD
BRANCH   5   8
ATOM      8  C   UNL A   1      32.897  27.487  22.370  1.00  0.00     0.188 C 
ATOM      9  C   UNL A   1      32.114  28.500  22.770  1.00  0.00     0.053 C 
ATOM     10  F   UNL A   1      34.224  27.739  22.328  1.00  0.00    -0.201 F 
BRANCH   9  11
ATOM     11  C   UNL A   1      30.654  28.624  22.915  1.00  0.00    -0.019 A 
ATOM     12  C   UNL A   1      28.517  29.728  22.559  1.00  0.00     0.161 A 
ATOM     13  C   UNL A   1      29.912  29.726  22.466  1.00  0.00     0.058 A 
ATOM     14  C   UNL A   1      27.852  28.601  23.041  1.00  0.00     0.157 A 
ATOM     15  C   UNL A   1      28.567  27.502  23.496  1.00  0.00     0.051 A 
ATOM     16  C   UNL A   1      29.961  27.513  23.426  1.00  0.00     0.012 A 
BRANCH  12  17
ATOM     17  O   UNL A   1      27.839  30.796  22.033  1.00  0.00    -0.490 OA
BRANCH  17  18
ATOM     18  C   UNL A   1      28.713  31.863  21.636  1.00  0.00     0.226 C 
ATOM     19  C   UNL A   1      28.483  33.021  22.593  1.00  0.00     0.049 C 
ENDBRANCH  17  18
ENDBRANCH  12  17
BRANCH  14  20
ATOM     20  O   UNL A   1      26.490  28.501  23.016  1.00  0.00    -0.504 OA
ATOM     21  H   UNL A   1      25.963  29.201  23.348  1.00  0.00     0.293 HD
ENDBRANCH  14  20
ENDBRANCH   9  11
ENDBRANCH   5   8
ENDBRANCH   3   4
ENDBRANCH   2   3
ENDBRANCH   1   2
BRANCH   1  22
ATOM     22  C   UNL A   1      32.661  27.156  26.113  1.00  0.00     0.002 C 
BRANCH  22  23
ATOM     23  C   UNL A   1      33.063  28.226  27.127  1.00  0.00     0.021 C 
BRANCH  23  24
ATOM     24  C   UNL A   1      33.870  29.386  26.558  1.00  0.00     0.116 C 
BRANCH  24  25
ATOM     25  N   UNL A   1      33.795  30.582  27.383  1.00  0.00    -0.352 N 
ATOM     26  C   UNL A   1      34.680  31.042  28.331  1.00  0.00     0.251 C 
ATOM     27  H   UNL A   1      32.997  31.141  27.243  1.00  0.00     0.163 HD
ATOM     28  O   UNL A   1      34.394  31.992  29.042  1.00  0.00    -0.269 OA
BRANCH  26  29
ATOM     29  C   UNL A   1      35.979  30.351  28.506  1.00  0.00     0.039 A 
ATOM     30  C   UNL A   1      36.919  30.410  27.475  1.00  0.00     0.014 A 
ATOM     31  C   UNL A   1      36.273  29.675  29.692  1.00  0.00     0.014 A 
ATOM     32  C   UNL A   1      38.189  29.863  27.668  1.00  0.00     0.010 A 
ATOM     33  C   UNL A   1      37.560  29.192  29.909  1.00  0.00     0.010 A 
ATOM     34  C   UNL A   1      38.534  29.290  28.903  1.00  0.00    -0.014 A 
BRANCH  34  35
ATOM     35  C   UNL A   1      39.912  28.808  29.176  1.00  0.00     0.031 A 
ATOM     36  C   UNL A   1      40.926  29.726  29.798  1.00  0.00     0.074 A 
ATOM     37  C   UNL A   1      40.274  27.570  28.787  1.00  0.00     0.049 A 
ATOM     38  N   UNL A   1      42.198  29.519  30.025  1.00  0.00    -0.248 NA
ATOM     39  C   UNL A   1      40.452  31.062  30.197  1.00  0.00     0.031 C 
ATOM     40  C   UNL A   1      39.396  26.590  28.144  1.00  0.00     0.029 A 
ATOM     41  N   UNL A   1      41.486  26.928  28.866  1.00  0.00    -0.354 N 
ATOM     42  C   UNL A   1      42.680  30.701  30.576  1.00  0.00     0.074 A 
ATOM     43  C   UNL A   1      41.574  31.634  30.607  1.00  0.00     0.031 C 
ATOM     44  C   UNL A   1      40.091  25.466  27.907  1.00  0.00     0.029 A 
ATOM     45  C   UNL A   1      41.471  25.660  28.337  1.00  0.00     0.049 A 
ATOM     46  H   UNL A   1      42.289  27.337  29.262  1.00  0.00     0.167 HD
ATOM     47  C   UNL A   1      43.925  30.978  31.031  1.00  0.00     0.031 A 
ATOM     48  C   UNL A   1      42.462  24.758  28.198  1.00  0.00     0.031 A 
ATOM     49  C   UNL A   1      45.023  30.049  31.004  1.00  0.00     0.049 A 
ATOM     50  C   UNL A   1      43.845  25.105  28.675  1.00  0.00     0.074 A 
ATOM     51  C   UNL A   1      46.307  30.220  31.491  1.00  0.00     0.029 A 
ATOM     52  N   UNL A   1      44.968  28.777  30.457  1.00  0.00    -0.354 N 
ATOM     53  N   UNL A   1      44.268  26.204  29.251  1.00  0.00    -0.248 NA
ATOM     54  C   UNL A   1      44.885  24.083  28.487  1.00  0.00     0.031 C 
ATOM     55  C   UNL A   1      47.046  29.071  31.187  1.00  0.00     0.029 A 
ATOM     56  C   UNL A   1      46.203  28.163  30.565  1.00  0.00     0.049 A 
ATOM     57  H   UNL A   1      44.168  28.371  30.051  1.00  0.00     0.167 HD
ATOM     58  C   UNL A   1      45.615  25.996  29.519  1.00  0.00     0.074 A 
ATOM     59  C   UNL A   1      45.935  24.661  29.055  1.00  0.00     0.031 C 
ATOM     60  C   UNL A   1      46.508  26.835  30.098  1.00  0.00     0.031 A 
BRANCH  47  61
ATOM     61  C   UNL A   1      44.166  32.353  31.588  1.00  0.00    -0.014 A 
ATOM     62  C   UNL A   1      43.989  32.627  32.954  1.00  0.00     0.009 A 
ATOM     63  C   UNL A   1      44.610  33.382  30.742  1.00  0.00     0.009 A 
ATOM     64  C   UNL A   1      44.214  33.911  33.453  1.00  0.00     0.001 A 
ATOM     65  C   UNL A   1      44.864  34.657  31.250  1.00  0.00     0.001 A 
ATOM     66  C   UNL A   1      44.656  34.924  32.602  1.00  0.00     0.000 A 
ENDBRANCH  47  61
BRANCH  48  67
ATOM     67  C   UNL A   1      42.184  23.434  27.581  1.00  0.00    -0.014 A 
ATOM     68  C   UNL A   1      42.422  23.225  26.214  1.00  0.00     0.009 A 
ATOM     69  C   UNL A   1      41.673  22.378  28.350  1.00  0.00     0.009 A 
ATOM     70  C   UNL A   1      42.131  21.992  25.626  1.00  0.00     0.001 A 
ATOM     71  C   UNL A   1      41.411  21.137  27.766  1.00  0.00     0.001 A 
ATOM     72  C   UNL A   1      41.630  20.948  26.403  1.00  0.00     0.000 A 
ENDBRANCH  48  67
BRANCH  60  73
ATOM     73  C   UNL A   1      47.907  26.325  30.293  1.00  0.00    -0.014 A 
ATOM     74  C   UNL A   1      48.881  26.465  29.292  1.00  0.00     0.009 A 
ATOM     75  C   UNL A   1      48.270  25.743  31.518  1.00  0.00     0.009 A 
ATOM     76  C   UNL A   1      50.182  26.006  29.504  1.00  0.00     0.001 A 
ATOM     77  C   UNL A   1      49.578  25.311  31.738  1.00  0.00     0.001 A 
ATOM     78  C   UNL A   1      50.531  25.435  30.729  1.00  0.00     0.000 A 
ENDBRANCH  60  73
ENDBRANCH  34  35
ENDBRANCH  26  29
ENDBRANCH  24  25
ENDBRANCH  23  24
ENDBRANCH  22  23
ENDBRANCH   1  22
TORSDOF 17
ENDMDL
MODEL 3
REMARK VINA RESULT:     -10.4      4.920      9.779
REMARK SMILES CCOc1cc(/C=C(/F)C(=O)NCCCCCCNC(=O)c2ccc(-c3c4nc(c(-c5ccccc5)c5ccc([nH]5)c(-c5ccccc5)c5nc(c(-c6ccccc6)c6ccc3[nH]6)C=C5)C=C4)cc2)ccc1O
REMARK SMILES IDX 15 1 14 2 13 3 12 4 10 5 11 6 8 8 7 9 9 10 6 11 4 12 5 13
REMARK SMILES IDX 72 14 71 15 70 16 3 17 2 18 1 19 73 20 16 22 17 23 18 24
REMARK SMILES IDX 19 25 20 26 21 28 22 29 23 30 69 31 24 32 68 33 25 34 26 35
REMARK SMILES IDX 27 36 62 37 28 38 67 39 61 40 63 41 29 42 66 43 60 44 59 45
REMARK SMILES IDX 30 47 52 48 37 49 51 50 38 51 41 52 50 53 64 54 39 55 40 56
REMARK SMILES IDX 49 58 65 59 42 60 31 61 32 62 36 63 33 64 35 65 34 66 53 67
REMARK SMILES IDX 54 68 58 69 55 70 57 71 56 72 43 73 44 74 48 75 45 76 47 77
REMARK SMILES IDX 46 78
REMARK H PARENT 12 7 73 21 19 27 63 46 41 57
REMARK Flexibility Score: inf
ROOT
ATOM      1  C   UNL A   1      32.762  29.579  26.451  1.00  0.00     0.002 C 
ENDROOT
BRANCH   1   2
ATOM      2  C   UNL A   1      32.311  28.129  26.660  1.00  0.00     0.021 C 
BRANCH   2   3
ATOM      3  C   UNL A   1      33.295  27.050  26.210  1.00  0.00     0.116 C 
BRANCH   3   4
ATOM      4  N   UNL A   1      32.725  26.135  25.236  1.00  0.00    -0.350 N 
ATOM      5  C   UNL A   1      32.505  26.227  23.894  1.00  0.00     0.280 C 
ATOM      6  O   UNL A   1      32.051  25.229  23.334  1.00  0.00    -0.267 OA
ATOM      7  H   UNL A   1      32.440  25.276  25.624  1.00  0.00     0.163 HD
BRANCH   5   8
ATOM      8  C   UNL A   1      32.820  27.480  23.151  1.00  0.00     0.188 C 
ATOM      9  C   UNL A   1      31.971  28.435  22.742  1.00  0.00     0.053 C 
ATOM     10  F   UNL A   1      34.112  27.632  22.783  1.00  0.00    -0.201 F 
BRANCH   9  11
ATOM     11  C   UNL A   1      30.519  28.605  22.910  1.00  0.00    -0.019 A 
ATOM     12  C   UNL A   1      28.427  29.821  22.673  1.00  0.00     0.161 A 
ATOM     13  C   UNL A   1      29.820  29.771  22.567  1.00  0.00     0.058 A 
ATOM     14  C   UNL A   1      27.718  28.683  23.060  1.00  0.00     0.157 A 
ATOM     15  C   UNL A   1      28.390  27.521  23.408  1.00  0.00     0.051 A 
ATOM     16  C   UNL A   1      29.783  27.481  23.327  1.00  0.00     0.012 A 
BRANCH  12  17
ATOM     17  O   UNL A   1      27.791  30.959  22.250  1.00  0.00    -0.490 OA
BRANCH  17  18
ATOM     18  C   UNL A   1      28.708  31.981  21.834  1.00  0.00     0.226 C 
ATOM     19  C   UNL A   1      28.742  33.035  22.929  1.00  0.00     0.049 C 
ENDBRANCH  17  18
ENDBRANCH  12  17
BRANCH  14  20
ATOM     20  O   UNL A   1      26.354  28.641  23.037  1.00  0.00    -0.504 OA
ATOM     21  H   UNL A   1      25.869  28.751  23.832  1.00  0.00     0.293 HD
ENDBRANCH  14  20
ENDBRANCH   9  11
ENDBRANCH   5   8
ENDBRANCH   3   4
ENDBRANCH   2   3
ENDBRANCH   1   2
BRANCH   1  22
ATOM     22  C   UNL A   1      31.732  30.530  25.833  1.00  0.00     0.002 C 
BRANCH  22  23
ATOM     23  C   UNL A   1      31.433  31.798  26.632  1.00  0.00     0.021 C 
BRANCH  23  24
ATOM     24  C   UNL A   1      32.643  32.451  27.287  1.00  0.00     0.116 C 
BRANCH  24  25
ATOM     25  N   UNL A   1      32.415  33.847  27.624  1.00  0.00    -0.352 N 
ATOM     26  C   UNL A   1      33.101  34.653  28.505  1.00  0.00     0.251 C 
ATOM     27  H   UNL A   1      31.663  34.277  27.157  1.00  0.00     0.163 HD
ATOM     28  O   UNL A   1      32.687  35.767  28.783  1.00  0.00    -0.269 OA
BRANCH  26  29
ATOM     29  C   UNL A   1      34.336  34.142  29.143  1.00  0.00     0.039 A 
ATOM     30  C   UNL A   1      34.231  33.412  30.329  1.00  0.00     0.014 A 
ATOM     31  C   UNL A   1      35.585  34.358  28.555  1.00  0.00     0.014 A 
ATOM     32  C   UNL A   1      35.372  32.827  30.882  1.00  0.00     0.010 A 
ATOM     33  C   UNL A   1      36.708  33.716  29.068  1.00  0.00     0.010 A 
ATOM     34  C   UNL A   1      36.612  32.936  30.231  1.00  0.00    -0.014 A 
BRANCH  34  35
ATOM     35  C   UNL A   1      37.815  32.225  30.730  1.00  0.00     0.031 A 
ATOM     36  C   UNL A   1      38.636  32.813  31.843  1.00  0.00     0.074 A 
ATOM     37  C   UNL A   1      38.217  31.089  30.125  1.00  0.00     0.049 A 
ATOM     38  N   UNL A   1      39.768  32.390  32.347  1.00  0.00    -0.248 NA
ATOM     39  C   UNL A   1      38.130  34.054  32.453  1.00  0.00     0.031 C 
ATOM     40  C   UNL A   1      37.528  30.429  29.014  1.00  0.00     0.029 A 
ATOM     41  N   UNL A   1      39.314  30.295  30.354  1.00  0.00    -0.354 N 
ATOM     42  C   UNL A   1      40.117  33.319  33.320  1.00  0.00     0.074 A 
ATOM     43  C   UNL A   1      39.102  34.350  33.303  1.00  0.00     0.031 C 
ATOM     44  C   UNL A   1      38.205  29.321  28.674  1.00  0.00     0.029 A 
ATOM     45  C   UNL A   1      39.398  29.216  29.508  1.00  0.00     0.049 A 
ATOM     46  H   UNL A   1      39.977  30.482  31.057  1.00  0.00     0.167 HD
ATOM     47  C   UNL A   1      41.177  33.306  34.163  1.00  0.00     0.031 A 
ATOM     48  C   UNL A   1      40.338  28.258  29.402  1.00  0.00     0.031 A 
ATOM     49  C   UNL A   1      42.183  32.278  34.182  1.00  0.00     0.049 A 
ATOM     50  C   UNL A   1      41.526  28.287  30.323  1.00  0.00     0.074 A 
ATOM     51  C   UNL A   1      43.266  32.150  35.035  1.00  0.00     0.029 A 
ATOM     52  N   UNL A   1      42.235  31.206  33.306  1.00  0.00    -0.354 N 
ATOM     53  N   UNL A   1      41.808  29.138  31.280  1.00  0.00    -0.248 NA
ATOM     54  C   UNL A   1      42.522  27.220  30.153  1.00  0.00     0.031 C 
ATOM     55  C   UNL A   1      44.004  31.030  34.639  1.00  0.00     0.029 A 
ATOM     56  C   UNL A   1      43.347  30.428  33.577  1.00  0.00     0.049 A 
ATOM     57  H   UNL A   1      41.576  31.025  32.596  1.00  0.00     0.167 HD
ATOM     58  C   UNL A   1      42.998  28.694  31.842  1.00  0.00     0.074 A 
ATOM     59  C   UNL A   1      43.377  27.491  31.129  1.00  0.00     0.031 C 
ATOM     60  C   UNL A   1      43.713  29.235  32.859  1.00  0.00     0.031 A 
BRANCH  47  61
ATOM     61  C   UNL A   1      41.305  34.451  35.129  1.00  0.00    -0.014 A 
ATOM     62  C   UNL A   1      40.705  34.403  36.398  1.00  0.00     0.009 A 
ATOM     63  C   UNL A   1      42.065  35.578  34.780  1.00  0.00     0.009 A 
ATOM     64  C   UNL A   1      40.832  35.477  37.281  1.00  0.00     0.001 A 
ATOM     65  C   UNL A   1      42.215  36.637  35.676  1.00  0.00     0.001 A 
ATOM     66  C   UNL A   1      41.591  36.590  36.922  1.00  0.00     0.000 A 
ENDBRANCH  47  61
BRANCH  48  67
ATOM     67  C   UNL A   1      40.196  27.183  28.385  1.00  0.00    -0.014 A 
ATOM     68  C   UNL A   1      39.492  26.007  28.689  1.00  0.00     0.009 A 
ATOM     69  C   UNL A   1      40.768  27.321  27.111  1.00  0.00     0.009 A 
ATOM     70  C   UNL A   1      39.385  24.983  27.745  1.00  0.00     0.001 A 
ATOM     71  C   UNL A   1      40.634  26.307  26.160  1.00  0.00     0.001 A 
ATOM     72  C   UNL A   1      39.952  25.135  26.480  1.00  0.00     0.000 A 
ENDBRANCH  48  67
BRANCH  60  73
ATOM     73  C   UNL A   1      44.960  28.513  33.285  1.00  0.00    -0.014 A 
ATOM     74  C   UNL A   1      44.918  27.490  34.244  1.00  0.00     0.009 A 
ATOM     75  C   UNL A   1      46.186  28.828  32.677  1.00  0.00     0.009 A 
ATOM     76  C   UNL A   1      46.086  26.816  34.608  1.00  0.00     0.001 A 
ATOM     77  C   UNL A   1      47.346  28.134  33.022  1.00  0.00     0.001 A 
ATOM     78  C   UNL A   1      47.297  27.134  33.992  1.00  0.00     0.000 A 
ENDBRANCH  60  73
ENDBRANCH  34  35
ENDBRANCH  26  29
ENDBRANCH  24  25
ENDBRANCH  23  24
ENDBRANCH  22  23
ENDBRANCH   1  22
TORSDOF 17
ENDMDL
