MODEL 1
REMARK VINA RESULT:     -10.8      0.000      0.000
REMARK SMILES CCC(C)(C)NC(=O)[C@@H](C)Oc1ccc(C)nc1C(=O)NCCCCCCNC(=O)c1ccc(-c2c3nc(c(-c4ccccc4)c4ccc([nH]4)c(-c4ccccc4)c4nc(c(-c5ccccc5)c5ccc2[nH]5)C=C4)C=C3)cc1
REMARK SMILES IDX 23 1 22 2 21 3 19 4 20 5 18 7 12 8 13 9 14 10 17 11 15 12
REMARK SMILES IDX 16 13 11 14 9 15 10 16 7 17 6 18 8 20 3 21 4 22 5 23 2 24
REMARK SMILES IDX 1 25 24 26 25 27 26 28 27 29 28 30 29 31 30 33 31 34 32 35
REMARK SMILES IDX 78 36 33 37 77 38 34 39 35 40 36 41 71 42 37 43 76 44 70 45
REMARK SMILES IDX 72 46 38 47 75 48 69 49 68 50 39 52 61 53 46 54 60 55 47 56
REMARK SMILES IDX 50 57 59 58 73 59 48 60 49 61 58 63 74 64 51 65 40 66 41 67
REMARK SMILES IDX 45 68 42 69 44 70 43 71 62 72 63 73 67 74 64 75 66 76 65 77
REMARK SMILES IDX 52 78 53 79 57 80 54 81 56 82 55 83
REMARK H PARENT 21 6 6 19 28 32 72 51 50 62
REMARK Flexibility Score: inf
ROOT
ATOM      1  C   UNL A   1      37.219  23.550  25.221  1.00  0.00     0.021 C 
ENDROOT
BRANCH   1   2
ATOM      2  C   UNL A   1      35.780  23.958  25.544  1.00  0.00     0.116 C 
BRANCH   2   3
ATOM      3  N   UNL A   1      35.289  23.133  26.624  1.00  0.00    -0.351 N 
ATOM      4  C   UNL A   1      34.287  22.199  26.736  1.00  0.00     0.273 C 
ATOM      5  O   UNL A   1      34.046  21.849  27.898  1.00  0.00    -0.267 OA
ATOM      6  H   UNL A   1      35.782  23.269  27.466  1.00  0.00     0.163 HD
BRANCH   4   7
ATOM      7  C   UNL A   1      33.571  21.510  25.597  1.00  0.00     0.170 A 
ATOM      8  C   UNL A   1      32.993  22.081  24.460  1.00  0.00     0.151 A 
ATOM      9  C   UNL A   1      32.651  21.208  23.421  1.00  0.00     0.051 A 
ATOM     10  C   UNL A   1      32.561  19.837  23.664  1.00  0.00     0.027 A 
ATOM     11  N   UNL A   1      33.460  20.167  25.837  1.00  0.00    -0.244 NA
ATOM     12  C   UNL A   1      32.861  19.376  24.929  1.00  0.00     0.038 A 
ATOM     13  C   UNL A   1      32.457  18.007  25.387  1.00  0.00     0.067 C 
BRANCH   8  14
ATOM     14  O   UNL A   1      32.593  23.389  24.501  1.00  0.00    -0.478 OA
BRANCH  14  15
ATOM     15  C   UNL A   1      31.307  23.747  24.986  1.00  0.00     0.259 C 
ATOM     16  C   UNL A   1      30.545  24.509  23.880  1.00  0.00     0.064 C 
BRANCH  15  17
ATOM     17  C   UNL A   1      30.979  24.531  26.283  1.00  0.00     0.261 C 
ATOM     18  N   UNL A   1      30.828  25.880  26.321  1.00  0.00    -0.348 N 
ATOM     19  H   UNL A   1      29.903  26.154  26.513  1.00  0.00     0.164 HD
ATOM     20  O   UNL A   1      30.617  23.908  27.291  1.00  0.00    -0.271 OA
BRANCH  18  21
ATOM     21  C   UNL A   1      31.739  27.038  26.139  1.00  0.00     0.034 C 
ATOM     22  C   UNL A   1      31.643  27.888  27.432  1.00  0.00     0.034 C 
ATOM     23  C   UNL A   1      31.137  27.871  24.988  1.00  0.00     0.034 C 
BRANCH  21  24
ATOM     24  C   UNL A   1      33.243  26.822  25.852  1.00  0.00     0.024 C 
ATOM     25  C   UNL A   1      33.753  26.779  24.424  1.00  0.00     0.006 C 
ENDBRANCH  21  24
ENDBRANCH  18  21
ENDBRANCH  15  17
ENDBRANCH  14  15
ENDBRANCH   8  14
ENDBRANCH   4   7
ENDBRANCH   2   3
ENDBRANCH   1   2
BRANCH   1  26
ATOM     26  C   UNL A   1      37.599  22.145  25.693  1.00  0.00     0.002 C 
BRANCH  26  27
ATOM     27  C   UNL A   1      37.445  21.066  24.612  1.00  0.00     0.002 C 
BRANCH  27  28
ATOM     28  C   UNL A   1      38.329  19.824  24.793  1.00  0.00     0.021 C 
BRANCH  28  29
ATOM     29  C   UNL A   1      39.110  19.785  26.104  1.00  0.00     0.116 C 
BRANCH  29  30
ATOM     30  N   UNL A   1      40.380  19.094  25.942  1.00  0.00    -0.352 N 
ATOM     31  C   UNL A   1      41.653  19.603  25.924  1.00  0.00     0.251 C 
ATOM     32  H   UNL A   1      40.315  18.118  25.827  1.00  0.00     0.163 HD
ATOM     33  O   UNL A   1      42.576  18.937  25.467  1.00  0.00    -0.269 OA
BRANCH  31  34
ATOM     34  C   UNL A   1      41.921  20.951  26.466  1.00  0.00     0.039 A 
ATOM     35  C   UNL A   1      42.272  21.980  25.588  1.00  0.00     0.014 A 
ATOM     36  C   UNL A   1      41.891  21.184  27.844  1.00  0.00     0.014 A 
ATOM     37  C   UNL A   1      42.554  23.253  26.088  1.00  0.00     0.010 A 
ATOM     38  C   UNL A   1      42.108  22.467  28.337  1.00  0.00     0.010 A 
ATOM     39  C   UNL A   1      42.456  23.510  27.465  1.00  0.00    -0.014 A 
BRANCH  39  40
ATOM     40  C   UNL A   1      42.730  24.859  28.018  1.00  0.00     0.031 A 
ATOM     41  C   UNL A   1      44.123  25.229  28.449  1.00  0.00     0.074 A 
ATOM     42  C   UNL A   1      41.716  25.725  28.195  1.00  0.00     0.049 A 
ATOM     43  N   UNL A   1      44.548  26.335  29.006  1.00  0.00    -0.248 NA
ATOM     44  C   UNL A   1      45.168  24.213  28.251  1.00  0.00     0.031 C 
ATOM     45  C   UNL A   1      40.317  25.474  27.848  1.00  0.00     0.029 A 
ATOM     46  N   UNL A   1      41.710  26.994  28.718  1.00  0.00    -0.354 N 
ATOM     47  C   UNL A   1      45.902  26.138  29.246  1.00  0.00     0.074 A 
ATOM     48  C   UNL A   1      46.216  24.792  28.816  1.00  0.00     0.031 C 
ATOM     49  C   UNL A   1      39.591  26.567  28.137  1.00  0.00     0.029 A 
ATOM     50  C   UNL A   1      40.466  27.577  28.724  1.00  0.00     0.049 A 
ATOM     51  H   UNL A   1      42.518  27.443  29.055  1.00  0.00     0.167 HD
ATOM     52  C   UNL A   1      46.808  27.003  29.764  1.00  0.00     0.031 A 
ATOM     53  C   UNL A   1      40.075  28.790  29.154  1.00  0.00     0.031 A 
ATOM     54  C   UNL A   1      46.497  28.345  30.179  1.00  0.00     0.049 A 
ATOM     55  C   UNL A   1      41.092  29.728  29.736  1.00  0.00     0.074 A 
ATOM     56  C   UNL A   1      47.355  29.323  30.652  1.00  0.00     0.029 A 
ATOM     57  N   UNL A   1      45.224  28.895  30.175  1.00  0.00    -0.354 N 
ATOM     58  N   UNL A   1      42.381  29.553  29.897  1.00  0.00    -0.248 NA
ATOM     59  C   UNL A   1      40.599  31.037  30.189  1.00  0.00     0.031 C 
ATOM     60  C   UNL A   1      46.593  30.450  30.981  1.00  0.00     0.029 A 
ATOM     61  C   UNL A   1      45.269  30.190  30.664  1.00  0.00     0.049 A 
ATOM     62  H   UNL A   1      44.411  28.434  29.870  1.00  0.00     0.167 HD
ATOM     63  C   UNL A   1      42.860  30.735  30.445  1.00  0.00     0.074 A 
ATOM     64  C   UNL A   1      41.723  31.624  30.579  1.00  0.00     0.031 C 
ATOM     65  C   UNL A   1      44.127  31.058  30.801  1.00  0.00     0.031 A 
BRANCH  52  66
ATOM     66  C   UNL A   1      48.218  26.505  29.923  1.00  0.00    -0.014 A 
ATOM     67  C   UNL A   1      48.635  25.853  31.096  1.00  0.00     0.009 A 
ATOM     68  C   UNL A   1      49.143  26.688  28.884  1.00  0.00     0.009 A 
ATOM     69  C   UNL A   1      49.961  25.441  31.244  1.00  0.00     0.001 A 
ATOM     70  C   UNL A   1      50.461  26.247  29.023  1.00  0.00     0.001 A 
ATOM     71  C   UNL A   1      50.872  25.636  30.206  1.00  0.00     0.000 A 
ENDBRANCH  52  66
BRANCH  53  72
ATOM     72  C   UNL A   1      38.654  29.198  29.012  1.00  0.00    -0.014 A 
ATOM     73  C   UNL A   1      38.179  29.678  27.782  1.00  0.00     0.009 A 
ATOM     74  C   UNL A   1      37.762  29.087  30.090  1.00  0.00     0.009 A 
ATOM     75  C   UNL A   1      36.842  30.052  27.638  1.00  0.00     0.001 A 
ATOM     76  C   UNL A   1      36.421  29.440  29.936  1.00  0.00     0.001 A 
ATOM     77  C   UNL A   1      35.963  29.927  28.712  1.00  0.00     0.000 A 
ENDBRANCH  53  72
BRANCH  65  78
ATOM     78  C   UNL A   1      44.354  32.439  31.345  1.00  0.00    -0.014 A 
ATOM     79  C   UNL A   1      44.634  33.519  30.493  1.00  0.00     0.009 A 
ATOM     80  C   UNL A   1      44.251  32.668  32.726  1.00  0.00     0.009 A 
ATOM     81  C   UNL A   1      44.836  34.797  31.020  1.00  0.00     0.001 A 
ATOM     82  C   UNL A   1      44.427  33.951  33.246  1.00  0.00     0.001 A 
ATOM     83  C   UNL A   1      44.727  35.012  32.394  1.00  0.00     0.000 A 
ENDBRANCH  65  78
ENDBRANCH  39  40
ENDBRANCH  31  34
ENDBRANCH  29  30
ENDBRANCH  28  29
ENDBRANCH  27  28
ENDBRANCH  26  27
ENDBRANCH   1  26
TORSDOF 18
ENDMDL
MODEL 2
REMARK VINA RESULT:     -10.5      3.330      8.954
REMARK SMILES CCC(C)(C)NC(=O)[C@@H](C)Oc1ccc(C)nc1C(=O)NCCCCCCNC(=O)c1ccc(-c2c3nc(c(-c4ccccc4)c4ccc([nH]4)c(-c4ccccc4)c4nc(c(-c5ccccc5)c5ccc2[nH]5)C=C4)C=C3)cc1
REMARK SMILES IDX 23 1 22 2 21 3 19 4 20 5 18 7 12 8 13 9 14 10 17 11 15 12
REMARK SMILES IDX 16 13 11 14 9 15 10 16 7 17 6 18 8 20 3 21 4 22 5 23 2 24
REMARK SMILES IDX 1 25 24 26 25 27 26 28 27 29 28 30 29 31 30 33 31 34 32 35
REMARK SMILES IDX 78 36 33 37 77 38 34 39 35 40 36 41 71 42 37 43 76 44 70 45
REMARK SMILES IDX 72 46 38 47 75 48 69 49 68 50 39 52 61 53 46 54 60 55 47 56
REMARK SMILES IDX 50 57 59 58 73 59 48 60 49 61 58 63 74 64 51 65 40 66 41 67
REMARK SMILES IDX 45 68 42 69 44 70 43 71 62 72 63 73 67 74 64 75 66 76 65 77
REMARK SMILES IDX 52 78 53 79 57 80 54 81 56 82 55 83
REMARK H PARENT 21 6 6 19 28 32 72 51 50 62
REMARK Flexibility Score: inf
ROOT
ATOM      1  C   UNL A   1      32.105  28.693  27.282  1.00  0.00     0.021 C 
ENDROOT
BRANCH   1   2
ATOM      2  C   UNL A   1      33.121  27.660  26.789  1.00  0.00     0.116 C 
BRANCH   2   3
ATOM      3  N   UNL A   1      33.622  28.074  25.499  1.00  0.00    -0.351 N 
ATOM      4  C   UNL A   1      33.109  28.065  24.225  1.00  0.00     0.273 C 
ATOM      5  O   UNL A   1      33.936  28.325  23.342  1.00  0.00    -0.267 OA
ATOM      6  H   UNL A   1      34.534  28.444  25.543  1.00  0.00     0.163 HD
BRANCH   4   7
ATOM      7  C   UNL A   1      31.657  27.889  23.844  1.00  0.00     0.170 A 
ATOM      8  C   UNL A   1      30.840  26.770  24.025  1.00  0.00     0.151 A 
ATOM      9  C   UNL A   1      29.464  26.960  23.851  1.00  0.00     0.051 A 
ATOM     10  C   UNL A   1      28.994  28.096  23.191  1.00  0.00     0.027 A 
ATOM     11  N   UNL A   1      31.194  28.991  23.176  1.00  0.00    -0.244 NA
ATOM     12  C   UNL A   1      29.915  29.030  22.762  1.00  0.00     0.038 A 
ATOM     13  C   UNL A   1      29.564  30.078  21.751  1.00  0.00     0.067 C 
BRANCH   8  14
ATOM     14  O   UNL A   1      31.416  25.534  24.135  1.00  0.00    -0.478 OA
BRANCH  14  15
ATOM     15  C   UNL A   1      31.841  24.818  22.984  1.00  0.00     0.259 C 
ATOM     16  C   UNL A   1      31.440  23.335  23.136  1.00  0.00     0.064 C 
BRANCH  15  17
ATOM     17  C   UNL A   1      33.271  24.766  22.386  1.00  0.00     0.261 C 
ATOM     18  N   UNL A   1      34.148  23.759  22.638  1.00  0.00    -0.348 N 
ATOM     19  H   UNL A   1      34.332  23.210  21.842  1.00  0.00     0.164 HD
ATOM     20  O   UNL A   1      33.572  25.543  21.469  1.00  0.00    -0.271 OA
BRANCH  18  21
ATOM     21  C   UNL A   1      34.892  23.296  23.835  1.00  0.00     0.034 C 
ATOM     22  C   UNL A   1      34.916  24.484  24.831  1.00  0.00     0.034 C 
ATOM     23  C   UNL A   1      36.340  23.053  23.364  1.00  0.00     0.034 C 
BRANCH  21  24
ATOM     24  C   UNL A   1      34.418  22.054  24.627  1.00  0.00     0.024 C 
ATOM     25  C   UNL A   1      35.426  21.163  25.328  1.00  0.00     0.006 C 
ENDBRANCH  21  24
ENDBRANCH  18  21
ENDBRANCH  15  17
ENDBRANCH  14  15
ENDBRANCH   8  14
ENDBRANCH   4   7
ENDBRANCH   2   3
ENDBRANCH   1   2
BRANCH   1  26
ATOM     26  C   UNL A   1      32.481  30.145  26.977  1.00  0.00     0.002 C 
BRANCH  26  27
ATOM     27  C   UNL A   1      31.355  30.950  26.316  1.00  0.00     0.002 C 
BRANCH  27  28
ATOM     28  C   UNL A   1      31.371  32.459  26.603  1.00  0.00     0.021 C 
BRANCH  28  29
ATOM     29  C   UNL A   1      32.725  33.008  27.045  1.00  0.00     0.116 C 
BRANCH  29  30
ATOM     30  N   UNL A   1      32.571  34.229  27.820  1.00  0.00    -0.352 N 
ATOM     31  C   UNL A   1      33.221  34.626  28.961  1.00  0.00     0.251 C 
ATOM     32  H   UNL A   1      31.903  34.864  27.474  1.00  0.00     0.163 HD
ATOM     33  O   UNL A   1      32.755  35.524  29.653  1.00  0.00    -0.269 OA
BRANCH  31  34
ATOM     34  C   UNL A   1      34.489  33.979  29.356  1.00  0.00     0.039 A 
ATOM     35  C   UNL A   1      35.651  34.260  28.632  1.00  0.00     0.014 A 
ATOM     36  C   UNL A   1      34.518  33.045  30.397  1.00  0.00     0.014 A 
ATOM     37  C   UNL A   1      36.851  33.636  28.978  1.00  0.00     0.010 A 
ATOM     38  C   UNL A   1      35.726  32.473  30.783  1.00  0.00     0.010 A 
ATOM     39  C   UNL A   1      36.902  32.751  30.068  1.00  0.00    -0.014 A 
BRANCH  39  40
ATOM     40  C   UNL A   1      38.168  32.092  30.467  1.00  0.00     0.031 A 
ATOM     41  C   UNL A   1      39.075  32.743  31.474  1.00  0.00     0.074 A 
ATOM     42  C   UNL A   1      38.535  30.941  29.873  1.00  0.00     0.049 A 
ATOM     43  N   UNL A   1      40.247  32.350  31.907  1.00  0.00    -0.248 NA
ATOM     44  C   UNL A   1      38.615  34.016  32.052  1.00  0.00     0.031 C 
ATOM     45  C   UNL A   1      37.760  30.226  28.859  1.00  0.00     0.029 A 
ATOM     46  N   UNL A   1      39.660  30.173  30.038  1.00  0.00    -0.354 N 
ATOM     47  C   UNL A   1      40.673  33.337  32.787  1.00  0.00     0.074 A 
ATOM     48  C   UNL A   1      39.656  34.367  32.791  1.00  0.00     0.031 C 
ATOM     49  C   UNL A   1      38.417  29.107  28.514  1.00  0.00     0.029 A 
ATOM     50  C   UNL A   1      39.674  29.047  29.253  1.00  0.00     0.049 A 
ATOM     51  H   UNL A   1      40.387  30.407  30.659  1.00  0.00     0.167 HD
ATOM     52  C   UNL A   1      41.802  33.378  33.535  1.00  0.00     0.031 A 
ATOM     53  C   UNL A   1      40.597  28.073  29.141  1.00  0.00     0.031 A 
ATOM     54  C   UNL A   1      42.806  32.348  33.539  1.00  0.00     0.049 A 
ATOM     55  C   UNL A   1      41.845  28.144  29.971  1.00  0.00     0.074 A 
ATOM     56  C   UNL A   1      43.951  32.262  34.312  1.00  0.00     0.029 A 
ATOM     57  N   UNL A   1      42.786  31.226  32.725  1.00  0.00    -0.354 N 
ATOM     58  N   UNL A   1      42.206  29.051  30.847  1.00  0.00    -0.248 NA
ATOM     59  C   UNL A   1      42.814  27.052  29.801  1.00  0.00     0.031 C 
ATOM     60  C   UNL A   1      44.650  31.110  33.929  1.00  0.00     0.029 A 
ATOM     61  C   UNL A   1      43.912  30.455  32.956  1.00  0.00     0.049 A 
ATOM     62  H   UNL A   1      42.075  31.009  32.080  1.00  0.00     0.167 HD
ATOM     63  C   UNL A   1      43.427  28.627  31.352  1.00  0.00     0.074 A 
ATOM     64  C   UNL A   1      43.741  27.376  30.691  1.00  0.00     0.031 C 
ATOM     65  C   UNL A   1      44.216  29.218  32.283  1.00  0.00     0.031 A 
BRANCH  52  66
ATOM     66  C   UNL A   1      42.009  34.593  34.397  1.00  0.00    -0.014 A 
ATOM     67  C   UNL A   1      42.650  35.741  33.900  1.00  0.00     0.009 A 
ATOM     68  C   UNL A   1      41.555  34.592  35.724  1.00  0.00     0.009 A 
ATOM     69  C   UNL A   1      42.876  36.841  34.730  1.00  0.00     0.001 A 
ATOM     70  C   UNL A   1      41.754  35.705  36.543  1.00  0.00     0.001 A 
ATOM     71  C   UNL A   1      42.425  36.823  36.050  1.00  0.00     0.000 A 
ENDBRANCH  52  66
BRANCH  53  72
ATOM     72  C   UNL A   1      40.349  26.926  28.232  1.00  0.00    -0.014 A 
ATOM     73  C   UNL A   1      40.850  26.947  26.921  1.00  0.00     0.009 A 
ATOM     74  C   UNL A   1      39.640  25.798  28.672  1.00  0.00     0.009 A 
ATOM     75  C   UNL A   1      40.631  25.867  26.064  1.00  0.00     0.001 A 
ATOM     76  C   UNL A   1      39.443  24.710  27.820  1.00  0.00     0.001 A 
ATOM     77  C   UNL A   1      39.934  24.748  26.515  1.00  0.00     0.000 A 
ENDBRANCH  53  72
BRANCH  65  78
ATOM     78  C   UNL A   1      45.482  28.503  32.660  1.00  0.00    -0.014 A 
ATOM     79  C   UNL A   1      45.497  27.540  33.680  1.00  0.00     0.009 A 
ATOM     80  C   UNL A   1      46.667  28.773  31.959  1.00  0.00     0.009 A 
ATOM     81  C   UNL A   1      46.684  26.883  34.011  1.00  0.00     0.001 A 
ATOM     82  C   UNL A   1      47.845  28.096  32.273  1.00  0.00     0.001 A 
ATOM     83  C   UNL A   1      47.855  27.158  33.304  1.00  0.00     0.000 A 
ENDBRANCH  65  78
ENDBRANCH  39  40
ENDBRANCH  31  34
ENDBRANCH  29  30
ENDBRANCH  28  29
ENDBRANCH  27  28
ENDBRANCH  26  27
ENDBRANCH   1  26
TORSDOF 18
ENDMDL
MODEL 3
REMARK VINA RESULT:     -10.3      1.319      5.945
REMARK SMILES CCC(C)(C)NC(=O)[C@@H](C)Oc1ccc(C)nc1C(=O)NCCCCCCNC(=O)c1ccc(-c2c3nc(c(-c4ccccc4)c4ccc([nH]4)c(-c4ccccc4)c4nc(c(-c5ccccc5)c5ccc2[nH]5)C=C4)C=C3)cc1
REMARK SMILES IDX 23 1 22 2 21 3 19 4 20 5 18 7 12 8 13 9 14 10 17 11 15 12
REMARK SMILES IDX 16 13 11 14 9 15 10 16 7 17 6 18 8 20 3 21 4 22 5 23 2 24
REMARK SMILES IDX 1 25 24 26 25 27 26 28 27 29 28 30 29 31 30 33 31 34 32 35
REMARK SMILES IDX 78 36 33 37 77 38 34 39 35 40 36 41 71 42 37 43 76 44 70 45
REMARK SMILES IDX 72 46 38 47 75 48 69 49 68 50 39 52 61 53 46 54 60 55 47 56
REMARK SMILES IDX 50 57 59 58 73 59 48 60 49 61 58 63 74 64 51 65 40 66 41 67
REMARK SMILES IDX 45 68 42 69 44 70 43 71 62 72 63 73 67 74 64 75 66 76 65 77
REMARK SMILES IDX 52 78 53 79 57 80 54 81 56 82 55 83
REMARK H PARENT 21 6 6 19 28 32 72 51 50 62
REMARK Flexibility Score: inf
ROOT
ATOM      1  C   UNL A   1      36.470  23.034  24.561  1.00  0.00     0.021 C 
ENDROOT
BRANCH   1   2
ATOM      2  C   UNL A   1      35.937  23.837  25.750  1.00  0.00     0.116 C 
BRANCH   2   3
ATOM      3  N   UNL A   1      35.420  22.921  26.741  1.00  0.00    -0.351 N 
ATOM      4  C   UNL A   1      34.320  22.100  26.804  1.00  0.00     0.273 C 
ATOM      5  O   UNL A   1      34.114  21.611  27.922  1.00  0.00    -0.267 OA
ATOM      6  H   UNL A   1      35.980  22.874  27.550  1.00  0.00     0.163 HD
BRANCH   4   7
ATOM      7  C   UNL A   1      33.451  21.673  25.644  1.00  0.00     0.170 A 
ATOM      8  C   UNL A   1      32.381  22.357  25.060  1.00  0.00     0.151 A 
ATOM      9  C   UNL A   1      31.931  21.884  23.822  1.00  0.00     0.051 A 
ATOM     10  C   UNL A   1      32.291  20.606  23.392  1.00  0.00     0.027 A 
ATOM     11  N   UNL A   1      33.783  20.411  25.229  1.00  0.00    -0.244 NA
ATOM     12  C   UNL A   1      33.127  19.857  24.194  1.00  0.00     0.038 A 
ATOM     13  C   UNL A   1      33.279  18.378  24.011  1.00  0.00     0.067 C 
BRANCH   8  14
ATOM     14  O   UNL A   1      31.699  23.283  25.800  1.00  0.00    -0.478 OA
BRANCH  14  15
ATOM     15  C   UNL A   1      31.599  24.634  25.373  1.00  0.00     0.259 C 
ATOM     16  C   UNL A   1      32.742  25.451  26.012  1.00  0.00     0.064 C 
BRANCH  15  17
ATOM     17  C   UNL A   1      30.361  25.563  25.481  1.00  0.00     0.261 C 
ATOM     18  N   UNL A   1      29.833  26.227  24.420  1.00  0.00    -0.348 N 
ATOM     19  H   UNL A   1      28.941  25.895  24.170  1.00  0.00     0.164 HD
ATOM     20  O   UNL A   1      29.678  25.543  26.514  1.00  0.00    -0.271 OA
BRANCH  18  21
ATOM     21  C   UNL A   1      30.292  27.340  23.551  1.00  0.00     0.034 C 
ATOM     22  C   UNL A   1      31.117  28.296  24.449  1.00  0.00     0.034 C 
ATOM     23  C   UNL A   1      29.016  28.090  23.119  1.00  0.00     0.034 C 
BRANCH  21  24
ATOM     24  C   UNL A   1      31.144  27.057  22.291  1.00  0.00     0.024 C 
ATOM     25  C   UNL A   1      32.607  26.676  22.426  1.00  0.00     0.006 C 
ENDBRANCH  21  24
ENDBRANCH  18  21
ENDBRANCH  15  17
ENDBRANCH  14  15
ENDBRANCH   8  14
ENDBRANCH   4   7
ENDBRANCH   2   3
ENDBRANCH   1   2
BRANCH   1  26
ATOM     26  C   UNL A   1      37.558  22.019  24.920  1.00  0.00     0.002 C 
BRANCH  26  27
ATOM     27  C   UNL A   1      37.216  20.578  24.522  1.00  0.00     0.002 C 
BRANCH  27  28
ATOM     28  C   UNL A   1      38.268  19.525  24.897  1.00  0.00     0.021 C 
BRANCH  28  29
ATOM     29  C   UNL A   1      39.263  19.973  25.966  1.00  0.00     0.116 C 
BRANCH  29  30
ATOM     30  N   UNL A   1      40.422  19.095  26.009  1.00  0.00    -0.352 N 
ATOM     31  C   UNL A   1      41.754  19.412  26.069  1.00  0.00     0.251 C 
ATOM     32  H   UNL A   1      40.219  18.131  25.992  1.00  0.00     0.163 HD
ATOM     33  O   UNL A   1      42.601  18.572  25.783  1.00  0.00    -0.269 OA
BRANCH  31  34
ATOM     34  C   UNL A   1      42.177  20.764  26.489  1.00  0.00     0.039 A 
ATOM     35  C   UNL A   1      42.548  21.695  25.515  1.00  0.00     0.014 A 
ATOM     36  C   UNL A   1      42.271  21.092  27.845  1.00  0.00     0.014 A 
ATOM     37  C   UNL A   1      42.974  22.968  25.898  1.00  0.00     0.010 A 
ATOM     38  C   UNL A   1      42.633  22.381  28.225  1.00  0.00     0.010 A 
ATOM     39  C   UNL A   1      43.002  23.327  27.256  1.00  0.00    -0.014 A 
BRANCH  39  40
ATOM     40  C   UNL A   1      43.433  24.679  27.687  1.00  0.00     0.031 A 
ATOM     41  C   UNL A   1      42.408  25.717  28.051  1.00  0.00     0.074 A 
ATOM     42  C   UNL A   1      44.741  24.993  27.686  1.00  0.00     0.049 A 
ATOM     43  N   UNL A   1      42.586  26.968  28.397  1.00  0.00    -0.248 NA
ATOM     44  C   UNL A   1      40.997  25.302  27.996  1.00  0.00     0.031 C 
ATOM     45  C   UNL A   1      45.830  24.085  27.322  1.00  0.00     0.029 A 
ATOM     46  N   UNL A   1      45.375  26.169  27.998  1.00  0.00    -0.354 N 
ATOM     47  C   UNL A   1      41.312  27.493  28.575  1.00  0.00     0.074 A 
ATOM     48  C   UNL A   1      40.372  26.440  28.256  1.00  0.00     0.031 C 
ATOM     49  C   UNL A   1      47.001  24.729  27.463  1.00  0.00     0.029 A 
ATOM     50  C   UNL A   1      46.742  26.101  27.887  1.00  0.00     0.049 A 
ATOM     51  H   UNL A   1      44.896  26.984  28.274  1.00  0.00     0.167 HD
ATOM     52  C   UNL A   1      40.955  28.736  28.981  1.00  0.00     0.031 A 
ATOM     53  C   UNL A   1      47.682  27.039  28.105  1.00  0.00     0.031 A 
ATOM     54  C   UNL A   1      41.891  29.778  29.309  1.00  0.00     0.049 A 
ATOM     55  C   UNL A   1      47.264  28.412  28.542  1.00  0.00     0.074 A 
ATOM     56  C   UNL A   1      41.633  31.048  29.795  1.00  0.00     0.029 A 
ATOM     57  N   UNL A   1      43.267  29.670  29.178  1.00  0.00    -0.354 N 
ATOM     58  N   UNL A   1      46.059  28.876  28.770  1.00  0.00    -0.248 NA
ATOM     59  C   UNL A   1      48.338  29.391  28.760  1.00  0.00     0.031 C 
ATOM     60  C   UNL A   1      42.851  31.726  29.912  1.00  0.00     0.029 A 
ATOM     61  C   UNL A   1      43.871  30.861  29.547  1.00  0.00     0.049 A 
ATOM     62  H   UNL A   1      43.743  28.867  28.869  1.00  0.00     0.167 HD
ATOM     63  C   UNL A   1      46.230  30.191  29.182  1.00  0.00     0.074 A 
ATOM     64  C   UNL A   1      47.656  30.446  29.183  1.00  0.00     0.031 C 
ATOM     65  C   UNL A   1      45.290  31.103  29.533  1.00  0.00     0.031 A 
BRANCH  52  66
ATOM     66  C   UNL A   1      39.483  29.031  29.072  1.00  0.00    -0.014 A 
ATOM     67  C   UNL A   1      38.752  28.752  30.239  1.00  0.00     0.009 A 
ATOM     68  C   UNL A   1      38.817  29.599  27.975  1.00  0.00     0.009 A 
ATOM     69  C   UNL A   1      37.376  28.988  30.286  1.00  0.00     0.001 A 
ATOM     70  C   UNL A   1      37.448  29.863  28.036  1.00  0.00     0.001 A 
ATOM     71  C   UNL A   1      36.726  29.546  29.186  1.00  0.00     0.000 A 
ENDBRANCH  52  66
BRANCH  53  72
ATOM     72  C   UNL A   1      49.117  26.692  27.947  1.00  0.00    -0.014 A 
ATOM     73  C   UNL A   1      49.826  26.125  29.017  1.00  0.00     0.009 A 
ATOM     74  C   UNL A   1      49.778  26.899  26.727  1.00  0.00     0.009 A 
ATOM     75  C   UNL A   1      51.172  25.786  28.872  1.00  0.00     0.001 A 
ATOM     76  C   UNL A   1      51.118  26.538  26.578  1.00  0.00     0.001 A 
ATOM     77  C   UNL A   1      51.815  25.986  27.653  1.00  0.00     0.000 A 
ENDBRANCH  53  72
BRANCH  65  78
ATOM     78  C   UNL A   1      45.779  32.453  29.973  1.00  0.00    -0.014 A 
ATOM     79  C   UNL A   1      45.931  33.505  29.056  1.00  0.00     0.009 A 
ATOM     80  C   UNL A   1      46.057  32.684  31.329  1.00  0.00     0.009 A 
ATOM     81  C   UNL A   1      46.382  34.754  29.487  1.00  0.00     0.001 A 
ATOM     82  C   UNL A   1      46.481  33.941  31.760  1.00  0.00     0.001 A 
ATOM     83  C   UNL A   1      46.652  34.972  30.838  1.00  0.00     0.000 A 
ENDBRANCH  65  78
ENDBRANCH  39  40
ENDBRANCH  31  34
ENDBRANCH  29  30
ENDBRANCH  28  29
ENDBRANCH  27  28
ENDBRANCH  26  27
ENDBRANCH   1  26
TORSDOF 18
ENDMDL
