MODEL 1
REMARK VINA RESULT:      -9.1      0.000      0.000
REMARK SMILES CCCCCCCCNC(=O)Oc1cccc(-c2ccc([C@@H](C)C(=O)NCCCCCCNC(=O)c3ccc(-c4c5nc(c(-c6ccccc6)c6ccc([nH]6)c(-c6ccccc6)c6nc(c(-c7ccccc7)c7ccc4[nH]7)C=C6)C=C5)cc3)cc2F)c1
REMARK SMILES IDX 22 1 23 2 21 3 18 4 19 5 85 6 20 7 84 8 86 9 17 10 13 11
REMARK SMILES IDX 14 12 87 13 15 14 16 15 12 16 10 17 9 18 11 20 8 21 7 22
REMARK SMILES IDX 6 23 5 24 4 25 3 26 2 27 1 28 24 29 25 30 26 31 27 33 28 34
REMARK SMILES IDX 29 35 30 36 31 37 32 38 33 39 34 40 35 42 36 43 37 44 83 45
REMARK SMILES IDX 38 46 82 47 39 48 40 49 41 50 76 51 42 52 81 53 75 54 77 55
REMARK SMILES IDX 43 56 80 57 74 58 73 59 44 61 66 62 51 63 65 64 52 65 55 66
REMARK SMILES IDX 64 67 78 68 53 69 54 70 63 72 79 73 56 74 45 75 46 76 50 77
REMARK SMILES IDX 47 78 49 79 48 80 67 81 68 82 72 83 69 84 71 85 70 86 57 87
REMARK SMILES IDX 58 88 62 89 59 90 61 91 60 92
REMARK H PARENT 9 19 26 32 33 41 77 60 55 71
REMARK Flexibility Score: inf
ROOT
ATOM      1  C   UNL A   1      42.053  25.133  27.250  1.00  0.00     0.105 C 
ATOM      2  C   UNL A   1      43.156  24.570  28.146  1.00  0.00     0.023 C 
ENDROOT
BRANCH   1   3
ATOM      3  C   UNL A   1      41.375  26.400  27.749  1.00  0.00    -0.033 A 
ATOM      4  C   UNL A   1      39.943  28.735  28.585  1.00  0.00     0.018 A 
ATOM      5  C   UNL A   1      40.436  27.799  29.508  1.00  0.00     0.012 A 
ATOM      6  C   UNL A   1      40.225  28.486  27.234  1.00  0.00     0.131 A 
ATOM      7  C   UNL A   1      41.165  26.676  29.103  1.00  0.00     0.005 A 
ATOM      8  C   UNL A   1      40.906  27.338  26.817  1.00  0.00     0.044 A 
ATOM      9  F   UNL A   1      39.847  29.356  26.284  1.00  0.00    -0.206 F 
BRANCH   4  10
ATOM     10  C   UNL A   1      39.142  29.895  29.038  1.00  0.00    -0.012 A 
ATOM     11  C   UNL A   1      37.002  31.004  29.358  1.00  0.00     0.133 A 
ATOM     12  C   UNL A   1      37.612  32.091  29.972  1.00  0.00     0.047 A 
ATOM     13  C   UNL A   1      37.747  29.920  28.890  1.00  0.00     0.056 A 
ATOM     14  C   UNL A   1      38.991  32.088  30.132  1.00  0.00     0.004 A 
ATOM     15  C   UNL A   1      39.746  31.006  29.662  1.00  0.00     0.009 A 
BRANCH  11  16
ATOM     16  O   UNL A   1      35.628  31.100  29.101  1.00  0.00    -0.410 OA
BRANCH  16  17
ATOM     17  C   UNL A   1      35.232  31.633  27.885  1.00  0.00     0.412 C 
ATOM     18  N   UNL A   1      34.675  30.699  27.057  1.00  0.00    -0.321 N 
ATOM     19  H   UNL A   1      34.403  31.005  26.163  1.00  0.00     0.167 HD
ATOM     20  O   UNL A   1      35.354  32.800  27.534  1.00  0.00    -0.224 OA
BRANCH  18  21
ATOM     21  C   UNL A   1      34.446  29.302  27.368  1.00  0.00     0.119 C 
BRANCH  21  22
ATOM     22  C   UNL A   1      33.849  28.544  26.182  1.00  0.00     0.021 C 
BRANCH  22  23
ATOM     23  C   UNL A   1      32.834  27.458  26.563  1.00  0.00     0.002 C 
BRANCH  23  24
ATOM     24  C   UNL A   1      31.791  27.135  25.488  1.00  0.00     0.000 C 
BRANCH  24  25
ATOM     25  C   UNL A   1      31.216  28.354  24.759  1.00  0.00    -0.000 C 
BRANCH  25  26
ATOM     26  C   UNL A   1      30.702  28.077  23.342  1.00  0.00    -0.000 C 
BRANCH  26  27
ATOM     27  C   UNL A   1      29.180  28.102  23.182  1.00  0.00    -0.003 C 
ATOM     28  C   UNL A   1      28.674  29.314  22.414  1.00  0.00     0.004 C 
ENDBRANCH  26  27
ENDBRANCH  25  26
ENDBRANCH  24  25
ENDBRANCH  23  24
ENDBRANCH  22  23
ENDBRANCH  21  22
ENDBRANCH  18  21
ENDBRANCH  16  17
ENDBRANCH  11  16
ENDBRANCH   4  10
ENDBRANCH   1   3
BRANCH   1  29
ATOM     29  C   UNL A   1      41.070  24.075  26.726  1.00  0.00     0.227 C 
ATOM     30  O   UNL A   1      39.857  24.213  26.920  1.00  0.00    -0.274 OA
ATOM     31  N   UNL A   1      41.450  22.968  26.032  1.00  0.00    -0.356 N 
ATOM     32  H   UNL A   1      40.700  22.428  25.692  1.00  0.00     0.163 HD
BRANCH  31  33
ATOM     33  C   UNL A   1      42.757  22.441  25.702  1.00  0.00     0.116 C 
BRANCH  33  34
ATOM     34  C   UNL A   1      43.396  23.198  24.537  1.00  0.00     0.021 C 
BRANCH  34  35
ATOM     35  C   UNL A   1      44.597  22.478  23.915  1.00  0.00     0.002 C 
BRANCH  35  36
ATOM     36  C   UNL A   1      45.958  23.135  24.177  1.00  0.00     0.002 C 
BRANCH  36  37
ATOM     37  C   UNL A   1      45.949  24.300  25.173  1.00  0.00     0.021 C 
BRANCH  37  38
ATOM     38  C   UNL A   1      47.311  24.944  25.419  1.00  0.00     0.116 C 
BRANCH  38  39
ATOM     39  N   UNL A   1      47.530  26.094  24.556  1.00  0.00    -0.352 N 
ATOM     40  C   UNL A   1      47.012  27.362  24.627  1.00  0.00     0.251 C 
ATOM     41  H   UNL A   1      48.147  25.938  23.805  1.00  0.00     0.163 HD
ATOM     42  O   UNL A   1      47.133  28.127  23.674  1.00  0.00    -0.269 OA
BRANCH  40  43
ATOM     43  C   UNL A   1      46.297  27.814  25.839  1.00  0.00     0.039 A 
ATOM     44  C   UNL A   1      47.042  28.305  26.916  1.00  0.00     0.014 A 
ATOM     45  C   UNL A   1      44.907  27.716  25.937  1.00  0.00     0.014 A 
ATOM     46  C   UNL A   1      46.389  28.750  28.067  1.00  0.00     0.010 A 
ATOM     47  C   UNL A   1      44.251  28.221  27.059  1.00  0.00     0.010 A 
ATOM     48  C   UNL A   1      44.986  28.739  28.135  1.00  0.00    -0.014 A 
BRANCH  48  49
ATOM     49  C   UNL A   1      44.279  29.289  29.319  1.00  0.00     0.031 A 
ATOM     50  C   UNL A   1      43.841  30.727  29.352  1.00  0.00     0.074 A 
ATOM     51  C   UNL A   1      44.080  28.501  30.393  1.00  0.00     0.049 A 
ATOM     52  N   UNL A   1      43.223  31.378  30.305  1.00  0.00    -0.248 NA
ATOM     53  C   UNL A   1      44.159  31.546  28.172  1.00  0.00     0.031 C 
ATOM     54  C   UNL A   1      44.505  27.105  30.507  1.00  0.00     0.029 A 
ATOM     55  N   UNL A   1      43.475  28.766  31.595  1.00  0.00    -0.354 N 
ATOM     56  C   UNL A   1      43.094  32.684  29.848  1.00  0.00     0.074 A 
ATOM     57  C   UNL A   1      43.738  32.743  28.554  1.00  0.00     0.031 C 
ATOM     58  C   UNL A   1      44.120  26.625  31.700  1.00  0.00     0.029 A 
ATOM     59  C   UNL A   1      43.454  27.688  32.447  1.00  0.00     0.049 A 
ATOM     60  H   UNL A   1      43.091  29.642  31.825  1.00  0.00     0.167 HD
ATOM     61  C   UNL A   1      42.480  33.735  30.444  1.00  0.00     0.031 A 
ATOM     62  C   UNL A   1      42.956  27.566  33.691  1.00  0.00     0.031 A 
ATOM     63  C   UNL A   1      41.835  33.675  31.729  1.00  0.00     0.049 A 
ATOM     64  C   UNL A   1      42.274  28.743  34.329  1.00  0.00     0.074 A 
ATOM     65  C   UNL A   1      41.124  34.666  32.385  1.00  0.00     0.029 A 
ATOM     66  N   UNL A   1      41.828  32.563  32.558  1.00  0.00    -0.354 N 
ATOM     67  N   UNL A   1      42.086  29.948  33.848  1.00  0.00    -0.248 NA
ATOM     68  C   UNL A   1      41.726  28.536  35.675  1.00  0.00     0.031 C 
ATOM     69  C   UNL A   1      40.735  34.169  33.634  1.00  0.00     0.029 A 
ATOM     70  C   UNL A   1      41.154  32.853  33.732  1.00  0.00     0.049 A 
ATOM     71  H   UNL A   1      42.242  31.696  32.343  1.00  0.00     0.167 HD
ATOM     72  C   UNL A   1      41.381  30.639  34.824  1.00  0.00     0.074 A 
ATOM     73  C   UNL A   1      41.158  29.711  35.915  1.00  0.00     0.031 C 
ATOM     74  C   UNL A   1      40.955  31.925  34.817  1.00  0.00     0.031 A 
BRANCH  61  75
ATOM     75  C   UNL A   1      42.493  35.047  29.709  1.00  0.00    -0.014 A 
ATOM     76  C   UNL A   1      41.522  35.352  28.742  1.00  0.00     0.009 A 
ATOM     77  C   UNL A   1      43.479  36.002  30.004  1.00  0.00     0.009 A 
ATOM     78  C   UNL A   1      41.564  36.567  28.053  1.00  0.00     0.001 A 
ATOM     79  C   UNL A   1      43.501  37.228  29.335  1.00  0.00     0.001 A 
ATOM     80  C   UNL A   1      42.551  37.505  28.353  1.00  0.00     0.000 A 
ENDBRANCH  61  75
BRANCH  62  81
ATOM     81  C   UNL A   1      43.063  26.267  34.403  1.00  0.00    -0.014 A 
ATOM     82  C   UNL A   1      44.318  25.750  34.756  1.00  0.00     0.009 A 
ATOM     83  C   UNL A   1      41.909  25.549  34.752  1.00  0.00     0.009 A 
ATOM     84  C   UNL A   1      44.416  24.531  35.429  1.00  0.00     0.001 A 
ATOM     85  C   UNL A   1      42.009  24.343  35.448  1.00  0.00     0.001 A 
ATOM     86  C   UNL A   1      43.262  23.832  35.780  1.00  0.00     0.000 A 
ENDBRANCH  62  81
BRANCH  74  87
ATOM     87  C   UNL A   1      40.193  32.398  36.022  1.00  0.00    -0.014 A 
ATOM     88  C   UNL A   1      38.794  32.297  36.084  1.00  0.00     0.009 A 
ATOM     89  C   UNL A   1      40.886  32.932  37.120  1.00  0.00     0.009 A 
ATOM     90  C   UNL A   1      38.102  32.753  37.208  1.00  0.00     0.001 A 
ATOM     91  C   UNL A   1      40.193  33.361  38.253  1.00  0.00     0.001 A 
ATOM     92  C   UNL A   1      38.802  33.281  38.292  1.00  0.00     0.000 A 
ENDBRANCH  74  87
ENDBRANCH  48  49
ENDBRANCH  40  43
ENDBRANCH  38  39
ENDBRANCH  37  38
ENDBRANCH  36  37
ENDBRANCH  35  36
ENDBRANCH  34  35
ENDBRANCH  33  34
ENDBRANCH  31  33
ENDBRANCH   1  29
TORSDOF 24
ENDMDL
MODEL 2
REMARK VINA RESULT:      -8.8      3.669      9.882
REMARK SMILES CCCCCCCCNC(=O)Oc1cccc(-c2ccc([C@@H](C)C(=O)NCCCCCCNC(=O)c3ccc(-c4c5nc(c(-c6ccccc6)c6ccc([nH]6)c(-c6ccccc6)c6nc(c(-c7ccccc7)c7ccc4[nH]7)C=C6)C=C5)cc3)cc2F)c1
REMARK SMILES IDX 22 1 23 2 21 3 18 4 19 5 85 6 20 7 84 8 86 9 17 10 13 11
REMARK SMILES IDX 14 12 87 13 15 14 16 15 12 16 10 17 9 18 11 20 8 21 7 22
REMARK SMILES IDX 6 23 5 24 4 25 3 26 2 27 1 28 24 29 25 30 26 31 27 33 28 34
REMARK SMILES IDX 29 35 30 36 31 37 32 38 33 39 34 40 35 42 36 43 37 44 83 45
REMARK SMILES IDX 38 46 82 47 39 48 40 49 41 50 76 51 42 52 81 53 75 54 77 55
REMARK SMILES IDX 43 56 80 57 74 58 73 59 44 61 66 62 51 63 65 64 52 65 55 66
REMARK SMILES IDX 64 67 78 68 53 69 54 70 63 72 79 73 56 74 45 75 46 76 50 77
REMARK SMILES IDX 47 78 49 79 48 80 67 81 68 82 72 83 69 84 71 85 70 86 57 87
REMARK SMILES IDX 58 88 62 89 59 90 61 91 60 92
REMARK H PARENT 9 19 26 32 33 41 77 60 55 71
REMARK Flexibility Score: inf
ROOT
ATOM      1  C   UNL A   1      40.514  27.747  27.717  1.00  0.00     0.105 C 
ATOM      2  C   UNL A   1      39.989  28.949  26.932  1.00  0.00     0.023 C 
ENDROOT
BRANCH   1   3
ATOM      3  C   UNL A   1      41.584  26.917  27.026  1.00  0.00    -0.033 A 
ATOM      4  C   UNL A   1      43.594  25.234  25.873  1.00  0.00     0.018 A 
ATOM      5  C   UNL A   1      42.382  25.497  25.214  1.00  0.00     0.012 A 
ATOM      6  C   UNL A   1      43.784  25.873  27.106  1.00  0.00     0.131 A 
ATOM      7  C   UNL A   1      41.414  26.346  25.761  1.00  0.00     0.005 A 
ATOM      8  C   UNL A   1      42.799  26.680  27.684  1.00  0.00     0.044 A 
ATOM      9  F   UNL A   1      44.936  25.730  27.780  1.00  0.00    -0.206 F 
BRANCH   4  10
ATOM     10  C   UNL A   1      44.584  24.302  25.289  1.00  0.00    -0.012 A 
ATOM     11  C   UNL A   1      45.176  22.123  24.385  1.00  0.00     0.133 A 
ATOM     12  C   UNL A   1      46.470  22.544  24.108  1.00  0.00     0.047 A 
ATOM     13  C   UNL A   1      44.241  22.978  24.972  1.00  0.00     0.056 A 
ATOM     14  C   UNL A   1      46.833  23.850  24.411  1.00  0.00     0.004 A 
ATOM     15  C   UNL A   1      45.902  24.713  25.003  1.00  0.00     0.009 A 
BRANCH  11  16
ATOM     16  O   UNL A   1      44.886  20.767  24.184  1.00  0.00    -0.410 OA
BRANCH  16  17
ATOM     17  C   UNL A   1      45.414  19.851  25.079  1.00  0.00     0.412 C 
ATOM     18  N   UNL A   1      44.450  19.109  25.702  1.00  0.00    -0.321 N 
ATOM     19  H   UNL A   1      44.756  18.461  26.377  1.00  0.00     0.167 HD
ATOM     20  O   UNL A   1      46.601  19.690  25.332  1.00  0.00    -0.224 OA
BRANCH  18  21
ATOM     21  C   UNL A   1      43.023  19.181  25.466  1.00  0.00     0.119 C 
BRANCH  21  22
ATOM     22  C   UNL A   1      42.238  19.373  26.764  1.00  0.00     0.021 C 
BRANCH  22  23
ATOM     23  C   UNL A   1      40.878  20.063  26.594  1.00  0.00     0.002 C 
BRANCH  23  24
ATOM     24  C   UNL A   1      40.943  21.564  26.293  1.00  0.00     0.000 C 
BRANCH  24  25
ATOM     25  C   UNL A   1      40.428  22.471  27.416  1.00  0.00    -0.000 C 
BRANCH  25  26
ATOM     26  C   UNL A   1      41.507  23.288  28.133  1.00  0.00    -0.000 C 
BRANCH  26  27
ATOM     27  C   UNL A   1      42.584  22.465  28.847  1.00  0.00    -0.003 C 
ATOM     28  C   UNL A   1      43.543  23.312  29.671  1.00  0.00     0.004 C 
ENDBRANCH  26  27
ENDBRANCH  25  26
ENDBRANCH  24  25
ENDBRANCH  23  24
ENDBRANCH  22  23
ENDBRANCH  21  22
ENDBRANCH  18  21
ENDBRANCH  16  17
ENDBRANCH  11  16
ENDBRANCH   4  10
ENDBRANCH   1   3
BRANCH   1  29
ATOM     29  C   UNL A   1      39.414  26.904  28.380  1.00  0.00     0.227 C 
ATOM     30  O   UNL A   1      39.049  25.846  27.853  1.00  0.00    -0.274 OA
ATOM     31  N   UNL A   1      38.800  27.242  29.546  1.00  0.00    -0.356 N 
ATOM     32  H   UNL A   1      38.177  26.561  29.886  1.00  0.00     0.163 HD
BRANCH  31  33
ATOM     33  C   UNL A   1      38.900  28.422  30.378  1.00  0.00     0.116 C 
BRANCH  33  34
ATOM     34  C   UNL A   1      37.612  29.246  30.351  1.00  0.00     0.021 C 
BRANCH  34  35
ATOM     35  C   UNL A   1      37.634  30.397  29.340  1.00  0.00     0.002 C 
BRANCH  35  36
ATOM     36  C   UNL A   1      36.646  30.260  28.174  1.00  0.00     0.002 C 
BRANCH  36  37
ATOM     37  C   UNL A   1      35.406  31.156  28.250  1.00  0.00     0.021 C 
BRANCH  37  38
ATOM     38  C   UNL A   1      35.692  32.654  28.179  1.00  0.00     0.116 C 
BRANCH  38  39
ATOM     39  N   UNL A   1      34.733  33.426  28.953  1.00  0.00    -0.352 N 
ATOM     40  C   UNL A   1      34.667  33.650  30.304  1.00  0.00     0.251 C 
ATOM     41  H   UNL A   1      34.022  33.855  28.424  1.00  0.00     0.163 HD
ATOM     42  O   UNL A   1      33.651  34.135  30.795  1.00  0.00    -0.269 OA
BRANCH  40  43
ATOM     43  C   UNL A   1      35.806  33.301  31.179  1.00  0.00     0.039 A 
ATOM     44  C   UNL A   1      36.931  34.131  31.182  1.00  0.00     0.014 A 
ATOM     45  C   UNL A   1      35.789  32.143  31.961  1.00  0.00     0.014 A 
ATOM     46  C   UNL A   1      38.014  33.830  32.011  1.00  0.00     0.010 A 
ATOM     47  C   UNL A   1      36.841  31.878  32.836  1.00  0.00     0.010 A 
ATOM     48  C   UNL A   1      37.965  32.717  32.866  1.00  0.00    -0.014 A 
BRANCH  48  49
ATOM     49  C   UNL A   1      39.074  32.436  33.812  1.00  0.00     0.031 A 
ATOM     50  C   UNL A   1      40.306  31.706  33.355  1.00  0.00     0.074 A 
ATOM     51  C   UNL A   1      38.944  32.794  35.104  1.00  0.00     0.049 A 
ATOM     52  N   UNL A   1      41.365  31.365  34.046  1.00  0.00    -0.248 NA
ATOM     53  C   UNL A   1      40.343  31.282  31.948  1.00  0.00     0.031 C 
ATOM     54  C   UNL A   1      37.776  33.459  35.684  1.00  0.00     0.029 A 
ATOM     55  N   UNL A   1      39.802  32.641  36.163  1.00  0.00    -0.354 N 
ATOM     56  C   UNL A   1      42.186  30.674  33.163  1.00  0.00     0.074 A 
ATOM     57  C   UNL A   1      41.481  30.603  31.902  1.00  0.00     0.031 C 
ATOM     58  C   UNL A   1      38.003  33.686  36.988  1.00  0.00     0.029 A 
ATOM     59  C   UNL A   1      39.314  33.152  37.342  1.00  0.00     0.049 A 
ATOM     60  H   UNL A   1      40.682  32.208  36.087  1.00  0.00     0.167 HD
ATOM     61  C   UNL A   1      43.420  30.159  33.378  1.00  0.00     0.031 A 
ATOM     62  C   UNL A   1      39.859  33.186  38.572  1.00  0.00     0.031 A 
ATOM     63  C   UNL A   1      44.123  30.234  34.632  1.00  0.00     0.049 A 
ATOM     64  C   UNL A   1      41.232  32.615  38.785  1.00  0.00     0.074 A 
ATOM     65  C   UNL A   1      45.406  29.806  34.929  1.00  0.00     0.029 A 
ATOM     66  N   UNL A   1      43.599  30.767  35.800  1.00  0.00    -0.354 N 
ATOM     67  N   UNL A   1      42.030  32.039  37.919  1.00  0.00    -0.248 NA
ATOM     68  C   UNL A   1      41.782  32.711  40.143  1.00  0.00     0.031 C 
ATOM     69  C   UNL A   1      45.636  30.030  36.291  1.00  0.00     0.029 A 
ATOM     70  C   UNL A   1      44.519  30.649  36.828  1.00  0.00     0.049 A 
ATOM     71  H   UNL A   1      42.704  31.168  35.885  1.00  0.00     0.167 HD
ATOM     72  C   UNL A   1      43.184  31.721  38.621  1.00  0.00     0.074 A 
ATOM     73  C   UNL A   1      42.989  32.187  39.979  1.00  0.00     0.031 C 
ATOM     74  C   UNL A   1      44.305  31.100  38.180  1.00  0.00     0.031 A 
BRANCH  61  75
ATOM     75  C   UNL A   1      44.083  29.455  32.226  1.00  0.00    -0.014 A 
ATOM     76  C   UNL A   1      44.911  30.145  31.326  1.00  0.00     0.009 A 
ATOM     77  C   UNL A   1      43.893  28.074  32.050  1.00  0.00     0.009 A 
ATOM     78  C   UNL A   1      45.499  29.477  30.249  1.00  0.00     0.001 A 
ATOM     79  C   UNL A   1      44.506  27.404  30.990  1.00  0.00     0.001 A 
ATOM     80  C   UNL A   1      45.299  28.107  30.084  1.00  0.00     0.000 A 
ENDBRANCH  61  75
BRANCH  62  81
ATOM     81  C   UNL A   1      39.109  33.811  39.692  1.00  0.00    -0.014 A 
ATOM     82  C   UNL A   1      38.275  33.035  40.510  1.00  0.00     0.009 A 
ATOM     83  C   UNL A   1      39.242  35.182  39.961  1.00  0.00     0.009 A 
ATOM     84  C   UNL A   1      37.575  33.624  41.565  1.00  0.00     0.001 A 
ATOM     85  C   UNL A   1      38.560  35.762  41.032  1.00  0.00     0.001 A 
ATOM     86  C   UNL A   1      37.722  34.984  41.829  1.00  0.00     0.000 A 
ENDBRANCH  62  81
BRANCH  74  87
ATOM     87  C   UNL A   1      45.412  30.903  39.176  1.00  0.00    -0.014 A 
ATOM     88  C   UNL A   1      46.386  31.892  39.387  1.00  0.00     0.009 A 
ATOM     89  C   UNL A   1      45.469  29.719  39.930  1.00  0.00     0.009 A 
ATOM     90  C   UNL A   1      47.414  31.684  40.309  1.00  0.00     0.001 A 
ATOM     91  C   UNL A   1      46.482  29.528  40.870  1.00  0.00     0.001 A 
ATOM     92  C   UNL A   1      47.459  30.505  41.052  1.00  0.00     0.000 A 
ENDBRANCH  74  87
ENDBRANCH  48  49
ENDBRANCH  40  43
ENDBRANCH  38  39
ENDBRANCH  37  38
ENDBRANCH  36  37
ENDBRANCH  35  36
ENDBRANCH  34  35
ENDBRANCH  33  34
ENDBRANCH  31  33
ENDBRANCH   1  29
TORSDOF 24
ENDMDL
MODEL 3
REMARK VINA RESULT:      -8.7      3.617      9.551
REMARK SMILES CCCCCCCCNC(=O)Oc1cccc(-c2ccc([C@@H](C)C(=O)NCCCCCCNC(=O)c3ccc(-c4c5nc(c(-c6ccccc6)c6ccc([nH]6)c(-c6ccccc6)c6nc(c(-c7ccccc7)c7ccc4[nH]7)C=C6)C=C5)cc3)cc2F)c1
REMARK SMILES IDX 22 1 23 2 21 3 18 4 19 5 85 6 20 7 84 8 86 9 17 10 13 11
REMARK SMILES IDX 14 12 87 13 15 14 16 15 12 16 10 17 9 18 11 20 8 21 7 22
REMARK SMILES IDX 6 23 5 24 4 25 3 26 2 27 1 28 24 29 25 30 26 31 27 33 28 34
REMARK SMILES IDX 29 35 30 36 31 37 32 38 33 39 34 40 35 42 36 43 37 44 83 45
REMARK SMILES IDX 38 46 82 47 39 48 40 49 41 50 76 51 42 52 81 53 75 54 77 55
REMARK SMILES IDX 43 56 80 57 74 58 73 59 44 61 66 62 51 63 65 64 52 65 55 66
REMARK SMILES IDX 64 67 78 68 53 69 54 70 63 72 79 73 56 74 45 75 46 76 50 77
REMARK SMILES IDX 47 78 49 79 48 80 67 81 68 82 72 83 69 84 71 85 70 86 57 87
REMARK SMILES IDX 58 88 62 89 59 90 61 91 60 92
REMARK H PARENT 9 19 26 32 33 41 77 60 55 71
REMARK Flexibility Score: inf
ROOT
ATOM      1  C   UNL A   1      40.473  27.547  27.821  1.00  0.00     0.105 C 
ATOM      2  C   UNL A   1      39.956  28.776  27.073  1.00  0.00     0.023 C 
ENDROOT
BRANCH   1   3
ATOM      3  C   UNL A   1      41.569  26.757  27.124  1.00  0.00    -0.033 A 
ATOM      4  C   UNL A   1      43.620  25.139  25.950  1.00  0.00     0.018 A 
ATOM      5  C   UNL A   1      42.445  25.465  25.253  1.00  0.00     0.012 A 
ATOM      6  C   UNL A   1      43.754  25.684  27.235  1.00  0.00     0.131 A 
ATOM      7  C   UNL A   1      41.458  26.283  25.814  1.00  0.00     0.005 A 
ATOM      8  C   UNL A   1      42.748  26.457  27.822  1.00  0.00     0.044 A 
ATOM      9  F   UNL A   1      44.870  25.478  27.953  1.00  0.00    -0.206 F 
BRANCH   4  10
ATOM     10  C   UNL A   1      44.631  24.241  25.348  1.00  0.00    -0.012 A 
ATOM     11  C   UNL A   1      45.275  22.088  24.419  1.00  0.00     0.133 A 
ATOM     12  C   UNL A   1      46.554  22.548  24.133  1.00  0.00     0.047 A 
ATOM     13  C   UNL A   1      44.322  22.911  25.022  1.00  0.00     0.056 A 
ATOM     14  C   UNL A   1      46.882  23.861  24.444  1.00  0.00     0.004 A 
ATOM     15  C   UNL A   1      45.934  24.692  25.053  1.00  0.00     0.009 A 
BRANCH  11  16
ATOM     16  O   UNL A   1      45.021  20.725  24.209  1.00  0.00    -0.410 OA
BRANCH  16  17
ATOM     17  C   UNL A   1      45.591  19.817  25.085  1.00  0.00     0.412 C 
ATOM     18  N   UNL A   1      44.670  18.974  25.642  1.00  0.00    -0.321 N 
ATOM     19  H   UNL A   1      45.005  18.325  26.302  1.00  0.00     0.167 HD
ATOM     20  O   UNL A   1      46.779  19.740  25.375  1.00  0.00    -0.224 OA
BRANCH  18  21
ATOM     21  C   UNL A   1      43.251  18.943  25.356  1.00  0.00     0.119 C 
BRANCH  21  22
ATOM     22  C   UNL A   1      42.413  19.306  26.583  1.00  0.00     0.021 C 
BRANCH  22  23
ATOM     23  C   UNL A   1      41.204  20.204  26.289  1.00  0.00     0.002 C 
BRANCH  23  24
ATOM     24  C   UNL A   1      41.529  21.683  26.062  1.00  0.00     0.000 C 
BRANCH  24  25
ATOM     25  C   UNL A   1      40.700  22.663  26.900  1.00  0.00    -0.000 C 
BRANCH  25  26
ATOM     26  C   UNL A   1      41.315  23.040  28.252  1.00  0.00    -0.000 C 
BRANCH  26  27
ATOM     27  C   UNL A   1      42.706  22.459  28.521  1.00  0.00    -0.003 C 
ATOM     28  C   UNL A   1      43.399  23.085  29.722  1.00  0.00     0.004 C 
ENDBRANCH  26  27
ENDBRANCH  25  26
ENDBRANCH  24  25
ENDBRANCH  23  24
ENDBRANCH  22  23
ENDBRANCH  21  22
ENDBRANCH  18  21
ENDBRANCH  16  17
ENDBRANCH  11  16
ENDBRANCH   4  10
ENDBRANCH   1   3
BRANCH   1  29
ATOM     29  C   UNL A   1      39.365  26.666  28.419  1.00  0.00     0.227 C 
ATOM     30  O   UNL A   1      38.983  25.661  27.808  1.00  0.00    -0.274 OA
ATOM     31  N   UNL A   1      38.763  26.913  29.613  1.00  0.00    -0.356 N 
ATOM     32  H   UNL A   1      38.133  26.214  29.900  1.00  0.00     0.163 HD
BRANCH  31  33
ATOM     33  C   UNL A   1      38.884  28.017  30.541  1.00  0.00     0.116 C 
BRANCH  33  34
ATOM     34  C   UNL A   1      37.643  28.910  30.525  1.00  0.00     0.021 C 
BRANCH  34  35
ATOM     35  C   UNL A   1      37.700  30.033  29.483  1.00  0.00     0.002 C 
BRANCH  35  36
ATOM     36  C   UNL A   1      36.730  29.878  28.305  1.00  0.00     0.002 C 
BRANCH  36  37
ATOM     37  C   UNL A   1      35.447  30.712  28.391  1.00  0.00     0.021 C 
BRANCH  37  38
ATOM     38  C   UNL A   1      35.617  32.187  28.034  1.00  0.00     0.116 C 
BRANCH  38  39
ATOM     39  N   UNL A   1      34.717  33.036  28.798  1.00  0.00    -0.352 N 
ATOM     40  C   UNL A   1      34.748  33.389  30.123  1.00  0.00     0.251 C 
ATOM     41  H   UNL A   1      33.969  33.417  28.283  1.00  0.00     0.163 HD
ATOM     42  O   UNL A   1      33.771  33.926  30.636  1.00  0.00    -0.269 OA
BRANCH  40  43
ATOM     43  C   UNL A   1      35.948  33.119  30.943  1.00  0.00     0.039 A 
ATOM     44  C   UNL A   1      37.097  33.884  30.726  1.00  0.00     0.014 A 
ATOM     45  C   UNL A   1      35.959  32.091  31.890  1.00  0.00     0.014 A 
ATOM     46  C   UNL A   1      38.239  33.657  31.497  1.00  0.00     0.010 A 
ATOM     47  C   UNL A   1      37.076  31.909  32.704  1.00  0.00     0.010 A 
ATOM     48  C   UNL A   1      38.227  32.687  32.513  1.00  0.00    -0.014 A 
BRANCH  48  49
ATOM     49  C   UNL A   1      39.406  32.496  33.395  1.00  0.00     0.031 A 
ATOM     50  C   UNL A   1      39.500  33.210  34.715  1.00  0.00     0.074 A 
ATOM     51  C   UNL A   1      40.421  31.716  32.978  1.00  0.00     0.049 A 
ATOM     52  N   UNL A   1      40.459  33.170  35.606  1.00  0.00    -0.248 NA
ATOM     53  C   UNL A   1      38.386  34.102  35.069  1.00  0.00     0.031 C 
ATOM     54  C   UNL A   1      40.475  31.012  31.696  1.00  0.00     0.029 A 
ATOM     55  N   UNL A   1      41.607  31.392  33.587  1.00  0.00    -0.354 N 
ATOM     56  C   UNL A   1      40.073  34.042  36.616  1.00  0.00     0.074 A 
ATOM     57  C   UNL A   1      38.817  34.631  36.205  1.00  0.00     0.031 C 
ATOM     58  C   UNL A   1      41.619  30.313  31.626  1.00  0.00     0.029 A 
ATOM     59  C   UNL A   1      42.394  30.547  32.842  1.00  0.00     0.049 A 
ATOM     60  H   UNL A   1      41.869  31.730  34.473  1.00  0.00     0.167 HD
ATOM     61  C   UNL A   1      40.699  34.316  37.786  1.00  0.00     0.031 A 
ATOM     62  C   UNL A   1      43.603  30.021  33.103  1.00  0.00     0.031 A 
ATOM     63  C   UNL A   1      41.946  33.727  38.195  1.00  0.00     0.049 A 
ATOM     64  C   UNL A   1      44.275  30.333  34.410  1.00  0.00     0.074 A 
ATOM     65  C   UNL A   1      42.624  33.886  39.393  1.00  0.00     0.029 A 
ATOM     66  N   UNL A   1      42.708  32.870  37.416  1.00  0.00    -0.354 N 
ATOM     67  N   UNL A   1      43.856  31.095  35.392  1.00  0.00    -0.248 NA
ATOM     68  C   UNL A   1      45.580  29.702  34.648  1.00  0.00     0.031 C 
ATOM     69  C   UNL A   1      43.822  33.168  39.314  1.00  0.00     0.029 A 
ATOM     70  C   UNL A   1      43.864  32.518  38.093  1.00  0.00     0.049 A 
ATOM     71  H   UNL A   1      42.463  32.559  36.515  1.00  0.00     0.167 HD
ATOM     72  C   UNL A   1      44.836  31.020  36.372  1.00  0.00     0.074 A 
ATOM     73  C   UNL A   1      45.859  30.123  35.874  1.00  0.00     0.031 C 
ATOM     74  C   UNL A   1      44.883  31.638  37.578  1.00  0.00     0.031 A 
BRANCH  61  75
ATOM     75  C   UNL A   1      40.042  35.313  38.701  1.00  0.00    -0.014 A 
ATOM     76  C   UNL A   1      39.212  34.901  39.756  1.00  0.00     0.009 A 
ATOM     77  C   UNL A   1      40.274  36.686  38.518  1.00  0.00     0.009 A 
ATOM     78  C   UNL A   1      38.593  35.842  40.581  1.00  0.00     0.001 A 
ATOM     79  C   UNL A   1      39.677  37.625  39.363  1.00  0.00     0.001 A 
ATOM     80  C   UNL A   1      38.829  37.203  40.386  1.00  0.00     0.000 A 
ENDBRANCH  61  75
BRANCH  62  81
ATOM     81  C   UNL A   1      44.244  29.118  32.112  1.00  0.00    -0.014 A 
ATOM     82  C   UNL A   1      44.002  27.738  32.147  1.00  0.00     0.009 A 
ATOM     83  C   UNL A   1      45.083  29.638  31.114  1.00  0.00     0.009 A 
ATOM     84  C   UNL A   1      44.603  26.892  31.212  1.00  0.00     0.001 A 
ATOM     85  C   UNL A   1      45.661  28.793  30.164  1.00  0.00     0.001 A 
ATOM     86  C   UNL A   1      45.425  27.420  30.218  1.00  0.00     0.000 A 
ENDBRANCH  62  81
BRANCH  74  87
ATOM     87  C   UNL A   1      46.076  31.352  38.445  1.00  0.00    -0.014 A 
ATOM     88  C   UNL A   1      47.226  32.154  38.387  1.00  0.00     0.009 A 
ATOM     89  C   UNL A   1      46.039  30.279  39.350  1.00  0.00     0.009 A 
ATOM     90  C   UNL A   1      48.330  31.865  39.193  1.00  0.00     0.001 A 
ATOM     91  C   UNL A   1      47.132  30.010  40.174  1.00  0.00     0.001 A 
ATOM     92  C   UNL A   1      48.280  30.797  40.088  1.00  0.00     0.000 A 
ENDBRANCH  74  87
ENDBRANCH  48  49
ENDBRANCH  40  43
ENDBRANCH  38  39
ENDBRANCH  37  38
ENDBRANCH  36  37
ENDBRANCH  35  36
ENDBRANCH  34  35
ENDBRANCH  33  34
ENDBRANCH  31  33
ENDBRANCH   1  29
TORSDOF 24
ENDMDL
