MODEL 1
REMARK VINA RESULT:     -12.4      0.000      0.000
REMARK SMILES Cc1coc2cc3c(cc12)[C@@H](C)[C@H](CCC(=O)N[C@@H](Cc1c[nH]c2ccccc12)C(=O)NCCCCCCNC(=O)c1ccc(-c2c4nc(c(-c5ccccc5)c5ccc([nH]5)c(-c5ccccc5)c5nc(c(-c6ccccc6)c6ccc2[nH]6)C=C5)C=C4)cc1)C(=O)O3
REMARK SMILES IDX 34 1 33 2 32 3 30 4 31 5 19 7 18 8 16 9 17 10 15 12 14 13
REMARK SMILES IDX 13 14 1 15 2 16 3 17 10 18 4 19 5 20 9 21 6 22 8 23 7 24
REMARK SMILES IDX 11 25 92 26 12 27 90 28 91 29 20 30 21 31 22 32 29 33 23 34
REMARK SMILES IDX 24 35 28 36 25 38 27 39 26 40 35 41 36 42 37 43 38 44 39 45
REMARK SMILES IDX 40 46 41 48 42 49 43 50 89 51 44 52 88 53 45 54 46 55 47 56
REMARK SMILES IDX 82 57 48 58 87 59 81 60 83 61 49 62 86 63 80 64 79 65 50 67
REMARK SMILES IDX 72 68 57 69 71 70 58 71 61 72 70 73 84 74 59 75 60 76 69 78
REMARK SMILES IDX 85 79 62 80 51 81 52 82 56 83 53 84 55 85 54 86 73 87 74 88
REMARK SMILES IDX 78 89 75 90 77 91 76 92 63 93 64 94 68 95 65 96 67 97 66 98
REMARK H PARENT 32 6 18 11 23 37 39 47 83 66 61 77
REMARK Flexibility Score: inf
ROOT
ATOM      1  C   UNL A   1      34.383  25.860  25.410  1.00  0.00     0.021 C 
ENDROOT
BRANCH   1   2
ATOM      2  C   UNL A   1      34.051  24.477  25.919  1.00  0.00     0.116 C 
BRANCH   2   3
ATOM      3  N   UNL A   1      32.796  24.292  26.577  1.00  0.00    -0.354 N 
ATOM      4  C   UNL A   1      31.929  23.266  26.324  1.00  0.00     0.242 C 
ATOM      5  O   UNL A   1      31.045  23.046  27.159  1.00  0.00    -0.273 OA
ATOM      6  H   UNL A   1      32.538  24.950  27.262  1.00  0.00     0.163 HD
BRANCH   4   7
ATOM      7  C   UNL A   1      32.070  22.350  25.068  1.00  0.00     0.175 C 
BRANCH   7   8
ATOM      8  N   UNL A   1      31.904  20.909  25.352  1.00  0.00    -0.344 N 
ATOM      9  C   UNL A   1      32.729  19.828  25.375  1.00  0.00     0.220 C 
ATOM     10  O   UNL A   1      32.260  18.770  25.805  1.00  0.00    -0.275 OA
ATOM     11  H   UNL A   1      30.974  20.676  25.577  1.00  0.00     0.164 HD
BRANCH   9  12
ATOM     12  C   UNL A   1      34.161  19.875  24.872  1.00  0.00     0.101 C 
BRANCH  12  13
ATOM     13  C   UNL A   1      35.122  20.767  25.693  1.00  0.00     0.026 C 
BRANCH  13  14
ATOM     14  C   UNL A   1      36.364  21.173  24.884  1.00  0.00     0.107 C 
ATOM     15  C   UNL A   1      40.605  25.744  28.321  1.00  0.00     0.048 C 
ATOM     16  C   UNL A   1      40.841  24.309  28.052  1.00  0.00    -0.005 A 
ATOM     17  C   UNL A   1      41.907  23.542  28.480  1.00  0.00     0.199 A 
ATOM     18  C   UNL A   1      40.018  23.430  27.295  1.00  0.00     0.024 A 
ATOM     19  O   UNL A   1      41.814  22.271  28.014  1.00  0.00    -0.464 OA
ATOM     20  C   UNL A   1      40.670  22.205  27.288  1.00  0.00     0.137 A 
ATOM     21  C   UNL A   1      38.795  23.550  26.613  1.00  0.00     0.020 A 
ATOM     22  C   UNL A   1      40.208  21.083  26.621  1.00  0.00     0.095 A 
ATOM     23  C   UNL A   1      38.270  22.429  25.952  1.00  0.00    -0.001 A 
ATOM     24  C   UNL A   1      38.994  21.243  25.955  1.00  0.00     0.138 A 
ATOM     25  C   UNL A   1      36.973  22.544  25.215  1.00  0.00     0.034 C 
ATOM     26  O   UNL A   1      38.576  20.111  25.258  1.00  0.00    -0.426 OA
ATOM     27  C   UNL A   1      37.181  23.401  23.945  1.00  0.00     0.014 C 
ATOM     28  C   UNL A   1      37.306  19.983  24.764  1.00  0.00     0.314 C 
ATOM     29  O   UNL A   1      36.958  18.920  24.275  1.00  0.00    -0.251 OA
ENDBRANCH  13  14
ENDBRANCH  12  13
ENDBRANCH   9  12
ENDBRANCH   7   8
BRANCH   7  30
ATOM     30  C   UNL A   1      31.352  22.916  23.789  1.00  0.00     0.072 C 
BRANCH  30  31
ATOM     31  C   UNL A   1      31.695  24.238  23.134  1.00  0.00    -0.020 A 
ATOM     32  C   UNL A   1      32.749  24.591  22.316  1.00  0.00     0.087 A 
ATOM     33  C   UNL A   1      31.040  25.511  23.380  1.00  0.00     0.003 A 
ATOM     34  N   UNL A   1      32.401  25.734  21.651  1.00  0.00    -0.361 N 
ATOM     35  C   UNL A   1      31.395  26.361  22.331  1.00  0.00     0.046 A 
ATOM     36  C   UNL A   1      30.197  26.039  24.382  1.00  0.00     0.010 A 
ATOM     37  H   UNL A   1      32.810  26.056  20.815  1.00  0.00     0.166 HD
ATOM     38  C   UNL A   1      30.839  27.625  22.126  1.00  0.00     0.026 A 
ATOM     39  C   UNL A   1      29.759  27.371  24.279  1.00  0.00     0.001 A 
ATOM     40  C   UNL A   1      30.036  28.133  23.145  1.00  0.00     0.002 A 
ENDBRANCH  30  31
ENDBRANCH   7  30
ENDBRANCH   4   7
ENDBRANCH   2   3
ENDBRANCH   1   2
BRANCH   1  41
ATOM     41  C   UNL A   1      33.454  26.950  25.917  1.00  0.00     0.002 C 
BRANCH  41  42
ATOM     42  C   UNL A   1      33.289  28.165  24.996  1.00  0.00     0.002 C 
BRANCH  42  43
ATOM     43  C   UNL A   1      33.001  29.517  25.665  1.00  0.00     0.021 C 
BRANCH  43  44
ATOM     44  C   UNL A   1      33.174  29.568  27.183  1.00  0.00     0.116 C 
BRANCH  44  45
ATOM     45  N   UNL A   1      33.468  30.886  27.698  1.00  0.00    -0.352 N 
ATOM     46  C   UNL A   1      34.600  31.576  28.012  1.00  0.00     0.251 C 
ATOM     47  H   UNL A   1      32.652  31.413  27.861  1.00  0.00     0.163 HD
ATOM     48  O   UNL A   1      34.438  32.751  28.352  1.00  0.00    -0.269 OA
BRANCH  46  49
ATOM     49  C   UNL A   1      35.974  31.010  28.041  1.00  0.00     0.039 A 
ATOM     50  C   UNL A   1      36.361  29.784  27.503  1.00  0.00     0.014 A 
ATOM     51  C   UNL A   1      36.928  31.765  28.751  1.00  0.00     0.014 A 
ATOM     52  C   UNL A   1      37.620  29.268  27.785  1.00  0.00     0.010 A 
ATOM     53  C   UNL A   1      38.197  31.266  29.013  1.00  0.00     0.010 A 
ATOM     54  C   UNL A   1      38.519  29.988  28.581  1.00  0.00    -0.014 A 
BRANCH  54  55
ATOM     55  C   UNL A   1      39.810  29.375  28.866  1.00  0.00     0.031 A 
ATOM     56  C   UNL A   1      40.041  29.049  30.298  1.00  0.00     0.074 A 
ATOM     57  C   UNL A   1      40.745  29.090  27.938  1.00  0.00     0.049 A 
ATOM     58  N   UNL A   1      40.900  29.592  31.097  1.00  0.00    -0.248 NA
ATOM     59  C   UNL A   1      39.131  28.097  30.948  1.00  0.00     0.031 C 
ATOM     60  C   UNL A   1      40.640  29.107  26.478  1.00  0.00     0.029 A 
ATOM     61  N   UNL A   1      42.013  28.640  28.147  1.00  0.00    -0.354 N 
ATOM     62  C   UNL A   1      40.740  28.964  32.327  1.00  0.00     0.074 A 
ATOM     63  C   UNL A   1      39.570  28.129  32.207  1.00  0.00     0.031 C 
ATOM     64  C   UNL A   1      41.714  28.475  25.945  1.00  0.00     0.029 A 
ATOM     65  C   UNL A   1      42.650  28.162  27.011  1.00  0.00     0.049 A 
ATOM     66  H   UNL A   1      42.444  28.654  29.032  1.00  0.00     0.167 HD
ATOM     67  C   UNL A   1      41.676  29.059  33.311  1.00  0.00     0.031 A 
ATOM     68  C   UNL A   1      43.848  27.528  26.970  1.00  0.00     0.031 A 
ATOM     69  C   UNL A   1      42.570  30.165  33.098  1.00  0.00     0.049 A 
ATOM     70  C   UNL A   1      44.595  27.910  28.191  1.00  0.00     0.074 A 
ATOM     71  C   UNL A   1      42.408  31.536  33.042  1.00  0.00     0.029 A 
ATOM     72  N   UNL A   1      43.788  29.909  32.517  1.00  0.00    -0.354 N 
ATOM     73  N   UNL A   1      45.043  29.112  28.410  1.00  0.00    -0.248 NA
ATOM     74  C   UNL A   1      44.467  27.062  29.364  1.00  0.00     0.031 C 
ATOM     75  C   UNL A   1      43.273  31.962  31.994  1.00  0.00     0.029 A 
ATOM     76  C   UNL A   1      43.964  30.843  31.526  1.00  0.00     0.049 A 
ATOM     77  H   UNL A   1      44.415  29.192  32.763  1.00  0.00     0.167 HD
ATOM     78  C   UNL A   1      44.829  29.322  29.763  1.00  0.00     0.074 A 
ATOM     79  C   UNL A   1      44.560  27.994  30.315  1.00  0.00     0.031 C 
ATOM     80  C   UNL A   1      44.617  30.574  30.262  1.00  0.00     0.031 A 
BRANCH  67  81
ATOM     81  C   UNL A   1      41.967  27.959  34.298  1.00  0.00    -0.014 A 
ATOM     82  C   UNL A   1      42.693  26.801  33.962  1.00  0.00     0.009 A 
ATOM     83  C   UNL A   1      41.739  28.186  35.667  1.00  0.00     0.009 A 
ATOM     84  C   UNL A   1      43.179  25.921  34.932  1.00  0.00     0.001 A 
ATOM     85  C   UNL A   1      42.258  27.328  36.645  1.00  0.00     0.001 A 
ATOM     86  C   UNL A   1      42.981  26.198  36.276  1.00  0.00     0.000 A 
ENDBRANCH  67  81
BRANCH  68  87
ATOM     87  C   UNL A   1      44.206  26.314  26.202  1.00  0.00    -0.014 A 
ATOM     88  C   UNL A   1      43.212  25.604  25.505  1.00  0.00     0.009 A 
ATOM     89  C   UNL A   1      45.436  25.672  26.427  1.00  0.00     0.009 A 
ATOM     90  C   UNL A   1      43.416  24.279  25.104  1.00  0.00     0.001 A 
ATOM     91  C   UNL A   1      45.639  24.345  26.025  1.00  0.00     0.001 A 
ATOM     92  C   UNL A   1      44.622  23.643  25.382  1.00  0.00     0.000 A 
ENDBRANCH  68  87
BRANCH  80  93
ATOM     93  C   UNL A   1      44.810  31.761  29.342  1.00  0.00    -0.014 A 
ATOM     94  C   UNL A   1      43.847  31.996  28.349  1.00  0.00     0.009 A 
ATOM     95  C   UNL A   1      45.991  32.526  29.311  1.00  0.00     0.009 A 
ATOM     96  C   UNL A   1      44.058  32.950  27.349  1.00  0.00     0.001 A 
ATOM     97  C   UNL A   1      46.191  33.501  28.326  1.00  0.00     0.001 A 
ATOM     98  C   UNL A   1      45.230  33.703  27.339  1.00  0.00     0.000 A 
ENDBRANCH  80  93
ENDBRANCH  54  55
ENDBRANCH  46  49
ENDBRANCH  44  45
ENDBRANCH  43  44
ENDBRANCH  42  43
ENDBRANCH  41  42
ENDBRANCH   1  41
TORSDOF 19
ENDMDL
MODEL 2
REMARK VINA RESULT:     -12.2      2.288      8.228
REMARK SMILES Cc1coc2cc3c(cc12)[C@@H](C)[C@H](CCC(=O)N[C@@H](Cc1c[nH]c2ccccc12)C(=O)NCCCCCCNC(=O)c1ccc(-c2c4nc(c(-c5ccccc5)c5ccc([nH]5)c(-c5ccccc5)c5nc(c(-c6ccccc6)c6ccc2[nH]6)C=C5)C=C4)cc1)C(=O)O3
REMARK SMILES IDX 34 1 33 2 32 3 30 4 31 5 19 7 18 8 16 9 17 10 15 12 14 13
REMARK SMILES IDX 13 14 1 15 2 16 3 17 10 18 4 19 5 20 9 21 6 22 8 23 7 24
REMARK SMILES IDX 11 25 92 26 12 27 90 28 91 29 20 30 21 31 22 32 29 33 23 34
REMARK SMILES IDX 24 35 28 36 25 38 27 39 26 40 35 41 36 42 37 43 38 44 39 45
REMARK SMILES IDX 40 46 41 48 42 49 43 50 89 51 44 52 88 53 45 54 46 55 47 56
REMARK SMILES IDX 82 57 48 58 87 59 81 60 83 61 49 62 86 63 80 64 79 65 50 67
REMARK SMILES IDX 72 68 57 69 71 70 58 71 61 72 70 73 84 74 59 75 60 76 69 78
REMARK SMILES IDX 85 79 62 80 51 81 52 82 56 83 53 84 55 85 54 86 73 87 74 88
REMARK SMILES IDX 78 89 75 90 77 91 76 92 63 93 64 94 68 95 65 96 67 97 66 98
REMARK H PARENT 32 6 18 11 23 37 39 47 83 66 61 77
REMARK Flexibility Score: inf
ROOT
ATOM      1  C   UNL A   1      34.252  25.429  25.271  1.00  0.00     0.021 C 
ENDROOT
BRANCH   1   2
ATOM      2  C   UNL A   1      33.972  26.419  24.165  1.00  0.00     0.116 C 
BRANCH   2   3
ATOM      3  N   UNL A   1      33.753  25.905  22.850  1.00  0.00    -0.354 N 
ATOM      4  C   UNL A   1      32.603  26.074  22.130  1.00  0.00     0.242 C 
ATOM      5  O   UNL A   1      32.652  25.857  20.915  1.00  0.00    -0.273 OA
ATOM      6  H   UNL A   1      34.483  25.394  22.432  1.00  0.00     0.163 HD
BRANCH   4   7
ATOM      7  C   UNL A   1      31.282  26.586  22.784  1.00  0.00     0.175 C 
BRANCH   7   8
ATOM      8  N   UNL A   1      30.617  27.669  22.031  1.00  0.00    -0.344 N 
ATOM      9  C   UNL A   1      30.232  28.943  22.310  1.00  0.00     0.220 C 
ATOM     10  O   UNL A   1      29.819  29.627  21.369  1.00  0.00    -0.275 OA
ATOM     11  H   UNL A   1      30.399  27.406  21.108  1.00  0.00     0.164 HD
BRANCH   9  12
ATOM     12  C   UNL A   1      30.266  29.525  23.712  1.00  0.00     0.101 C 
BRANCH  12  13
ATOM     13  C   UNL A   1      31.678  29.798  24.283  1.00  0.00     0.026 C 
BRANCH  13  14
ATOM     14  C   UNL A   1      31.669  29.908  25.815  1.00  0.00     0.107 C 
ATOM     15  C   UNL A   1      38.181  29.791  28.694  1.00  0.00     0.048 C 
ATOM     16  C   UNL A   1      37.265  30.945  28.558  1.00  0.00    -0.005 A 
ATOM     17  C   UNL A   1      37.519  32.259  28.900  1.00  0.00     0.199 A 
ATOM     18  C   UNL A   1      35.936  30.933  28.052  1.00  0.00     0.024 A 
ATOM     19  O   UNL A   1      36.437  33.043  28.671  1.00  0.00    -0.464 OA
ATOM     20  C   UNL A   1      35.471  32.236  28.163  1.00  0.00     0.137 A 
ATOM     21  C   UNL A   1      35.082  29.953  27.518  1.00  0.00     0.020 A 
ATOM     22  C   UNL A   1      34.196  32.638  27.807  1.00  0.00     0.095 A 
ATOM     23  C   UNL A   1      33.790  30.322  27.111  1.00  0.00    -0.001 A 
ATOM     24  C   UNL A   1      33.378  31.638  27.285  1.00  0.00     0.138 A 
ATOM     25  C   UNL A   1      32.867  29.288  26.548  1.00  0.00     0.034 C 
ATOM     26  O   UNL A   1      32.088  32.062  26.976  1.00  0.00    -0.426 OA
ATOM     27  C   UNL A   1      32.417  28.336  27.681  1.00  0.00     0.014 C 
ATOM     28  C   UNL A   1      31.228  31.308  26.224  1.00  0.00     0.314 C 
ATOM     29  O   UNL A   1      30.159  31.784  25.878  1.00  0.00    -0.251 OA
ENDBRANCH  13  14
ENDBRANCH  12  13
ENDBRANCH   9  12
ENDBRANCH   7   8
BRANCH   7  30
ATOM     30  C   UNL A   1      30.366  25.435  23.343  1.00  0.00     0.072 C 
BRANCH  30  31
ATOM     31  C   UNL A   1      30.785  24.464  24.428  1.00  0.00    -0.020 A 
ATOM     32  C   UNL A   1      30.700  24.558  25.802  1.00  0.00     0.087 A 
ATOM     33  C   UNL A   1      31.550  23.245  24.237  1.00  0.00     0.003 A 
ATOM     34  N   UNL A   1      30.802  23.295  26.317  1.00  0.00    -0.361 N 
ATOM     35  C   UNL A   1      31.394  22.480  25.394  1.00  0.00     0.046 A 
ATOM     36  C   UNL A   1      32.367  22.711  23.216  1.00  0.00     0.010 A 
ATOM     37  H   UNL A   1      30.498  23.017  27.211  1.00  0.00     0.166 HD
ATOM     38  C   UNL A   1      31.849  21.167  25.532  1.00  0.00     0.026 A 
ATOM     39  C   UNL A   1      32.973  21.457  23.406  1.00  0.00     0.001 A 
ATOM     40  C   UNL A   1      32.678  20.678  24.524  1.00  0.00     0.002 A 
ENDBRANCH  30  31
ENDBRANCH   7  30
ENDBRANCH   4   7
ENDBRANCH   2   3
ENDBRANCH   1   2
BRANCH   1  41
ATOM     41  C   UNL A   1      35.251  24.346  24.900  1.00  0.00     0.002 C 
BRANCH  41  42
ATOM     42  C   UNL A   1      35.765  23.489  26.064  1.00  0.00     0.002 C 
BRANCH  42  43
ATOM     43  C   UNL A   1      36.578  22.237  25.705  1.00  0.00     0.021 C 
BRANCH  43  44
ATOM     44  C   UNL A   1      38.018  22.477  25.246  1.00  0.00     0.116 C 
BRANCH  44  45
ATOM     45  N   UNL A   1      39.008  21.763  26.019  1.00  0.00    -0.352 N 
ATOM     46  C   UNL A   1      39.898  22.090  26.998  1.00  0.00     0.251 C 
ATOM     47  H   UNL A   1      39.049  20.808  25.781  1.00  0.00     0.163 HD
ATOM     48  O   UNL A   1      40.532  21.150  27.486  1.00  0.00    -0.269 OA
BRANCH  46  49
ATOM     49  C   UNL A   1      40.201  23.469  27.460  1.00  0.00     0.039 A 
ATOM     50  C   UNL A   1      41.442  23.929  27.895  1.00  0.00     0.014 A 
ATOM     51  C   UNL A   1      39.098  24.343  27.528  1.00  0.00     0.014 A 
ATOM     52  C   UNL A   1      41.549  25.172  28.507  1.00  0.00     0.010 A 
ATOM     53  C   UNL A   1      39.204  25.598  28.113  1.00  0.00     0.010 A 
ATOM     54  C   UNL A   1      40.418  25.985  28.660  1.00  0.00    -0.014 A 
BRANCH  54  55
ATOM     55  C   UNL A   1      40.593  27.262  29.339  1.00  0.00     0.031 A 
ATOM     56  C   UNL A   1      41.542  28.195  28.675  1.00  0.00     0.074 A 
ATOM     57  C   UNL A   1      39.955  27.624  30.469  1.00  0.00     0.049 A 
ATOM     58  N   UNL A   1      42.692  28.588  29.115  1.00  0.00    -0.248 NA
ATOM     59  C   UNL A   1      41.233  28.644  27.310  1.00  0.00     0.031 C 
ATOM     60  C   UNL A   1      38.831  26.977  31.149  1.00  0.00     0.029 A 
ATOM     61  N   UNL A   1      40.165  28.739  31.222  1.00  0.00    -0.354 N 
ATOM     62  C   UNL A   1      43.207  29.446  28.149  1.00  0.00     0.074 A 
ATOM     63  C   UNL A   1      42.318  29.360  27.016  1.00  0.00     0.031 C 
ATOM     64  C   UNL A   1      38.319  27.825  32.074  1.00  0.00     0.029 A 
ATOM     65  C   UNL A   1      39.177  28.994  32.163  1.00  0.00     0.049 A 
ATOM     66  H   UNL A   1      40.954  29.317  31.109  1.00  0.00     0.167 HD
ATOM     67  C   UNL A   1      44.248  30.284  28.411  1.00  0.00     0.031 A 
ATOM     68  C   UNL A   1      39.069  30.107  32.930  1.00  0.00     0.031 A 
ATOM     69  C   UNL A   1      44.977  29.885  29.585  1.00  0.00     0.049 A 
ATOM     70  C   UNL A   1      40.413  30.724  33.011  1.00  0.00     0.074 A 
ATOM     71  C   UNL A   1      45.716  28.769  29.925  1.00  0.00     0.029 A 
ATOM     72  N   UNL A   1      44.690  30.519  30.769  1.00  0.00    -0.354 N 
ATOM     73  N   UNL A   1      41.415  30.178  33.638  1.00  0.00    -0.248 NA
ATOM     74  C   UNL A   1      40.761  31.737  32.029  1.00  0.00     0.031 C 
ATOM     75  C   UNL A   1      45.396  28.523  31.291  1.00  0.00     0.029 A 
ATOM     76  C   UNL A   1      44.544  29.541  31.722  1.00  0.00     0.049 A 
ATOM     77  H   UNL A   1      44.606  31.489  30.909  1.00  0.00     0.167 HD
ATOM     78  C   UNL A   1      42.513  30.440  32.834  1.00  0.00     0.074 A 
ATOM     79  C   UNL A   1      42.066  31.480  31.908  1.00  0.00     0.031 C 
ATOM     80  C   UNL A   1      43.590  29.601  32.809  1.00  0.00     0.031 A 
BRANCH  67  81
ATOM     81  C   UNL A   1      44.409  31.639  27.777  1.00  0.00    -0.014 A 
ATOM     82  C   UNL A   1      44.915  31.820  26.475  1.00  0.00     0.009 A 
ATOM     83  C   UNL A   1      43.807  32.757  28.381  1.00  0.00     0.009 A 
ATOM     84  C   UNL A   1      44.817  33.042  25.804  1.00  0.00     0.001 A 
ATOM     85  C   UNL A   1      43.673  33.972  27.697  1.00  0.00     0.001 A 
ATOM     86  C   UNL A   1      44.175  34.112  26.407  1.00  0.00     0.000 A 
ENDBRANCH  67  81
BRANCH  68  87
ATOM     87  C   UNL A   1      37.848  30.892  33.222  1.00  0.00    -0.014 A 
ATOM     88  C   UNL A   1      36.819  30.973  32.268  1.00  0.00     0.009 A 
ATOM     89  C   UNL A   1      37.840  31.821  34.277  1.00  0.00     0.009 A 
ATOM     90  C   UNL A   1      35.854  31.984  32.329  1.00  0.00     0.001 A 
ATOM     91  C   UNL A   1      36.874  32.834  34.336  1.00  0.00     0.001 A 
ATOM     92  C   UNL A   1      35.894  32.927  33.351  1.00  0.00     0.000 A 
ENDBRANCH  68  87
BRANCH  80  93
ATOM     93  C   UNL A   1      43.654  28.476  33.820  1.00  0.00    -0.014 A 
ATOM     94  C   UNL A   1      43.167  27.215  33.443  1.00  0.00     0.009 A 
ATOM     95  C   UNL A   1      44.002  28.673  35.169  1.00  0.00     0.009 A 
ATOM     96  C   UNL A   1      43.016  26.189  34.381  1.00  0.00     0.001 A 
ATOM     97  C   UNL A   1      43.878  27.638  36.103  1.00  0.00     0.001 A 
ATOM     98  C   UNL A   1      43.374  26.401  35.710  1.00  0.00     0.000 A 
ENDBRANCH  80  93
ENDBRANCH  54  55
ENDBRANCH  46  49
ENDBRANCH  44  45
ENDBRANCH  43  44
ENDBRANCH  42  43
ENDBRANCH  41  42
ENDBRANCH   1  41
TORSDOF 19
ENDMDL
MODEL 3
REMARK VINA RESULT:     -12.1      1.380      2.283
REMARK SMILES Cc1coc2cc3c(cc12)[C@@H](C)[C@H](CCC(=O)N[C@@H](Cc1c[nH]c2ccccc12)C(=O)NCCCCCCNC(=O)c1ccc(-c2c4nc(c(-c5ccccc5)c5ccc([nH]5)c(-c5ccccc5)c5nc(c(-c6ccccc6)c6ccc2[nH]6)C=C5)C=C4)cc1)C(=O)O3
REMARK SMILES IDX 34 1 33 2 32 3 30 4 31 5 19 7 18 8 16 9 17 10 15 12 14 13
REMARK SMILES IDX 13 14 1 15 2 16 3 17 10 18 4 19 5 20 9 21 6 22 8 23 7 24
REMARK SMILES IDX 11 25 92 26 12 27 90 28 91 29 20 30 21 31 22 32 29 33 23 34
REMARK SMILES IDX 24 35 28 36 25 38 27 39 26 40 35 41 36 42 37 43 38 44 39 45
REMARK SMILES IDX 40 46 41 48 42 49 43 50 89 51 44 52 88 53 45 54 46 55 47 56
REMARK SMILES IDX 82 57 48 58 87 59 81 60 83 61 49 62 86 63 80 64 79 65 50 67
REMARK SMILES IDX 72 68 57 69 71 70 58 71 61 72 70 73 84 74 59 75 60 76 69 78
REMARK SMILES IDX 85 79 62 80 51 81 52 82 56 83 53 84 55 85 54 86 73 87 74 88
REMARK SMILES IDX 78 89 75 90 77 91 76 92 63 93 64 94 68 95 65 96 67 97 66 98
REMARK H PARENT 32 6 18 11 23 37 39 47 83 66 61 77
REMARK Flexibility Score: inf
ROOT
ATOM      1  C   UNL A   1      33.796  26.554  24.324  1.00  0.00     0.021 C 
ENDROOT
BRANCH   1   2
ATOM      2  C   UNL A   1      32.653  26.192  23.405  1.00  0.00     0.116 C 
BRANCH   2   3
ATOM      3  N   UNL A   1      32.451  24.809  23.104  1.00  0.00    -0.354 N 
ATOM      4  C   UNL A   1      31.330  24.097  23.430  1.00  0.00     0.242 C 
ATOM      5  O   UNL A   1      31.150  23.020  22.852  1.00  0.00    -0.273 OA
ATOM      6  H   UNL A   1      33.171  24.337  22.626  1.00  0.00     0.163 HD
BRANCH   4   7
ATOM      7  C   UNL A   1      30.270  24.635  24.442  1.00  0.00     0.175 C 
BRANCH   7   8
ATOM      8  N   UNL A   1      30.270  23.936  25.743  1.00  0.00    -0.344 N 
ATOM      9  C   UNL A   1      31.221  23.380  26.540  1.00  0.00     0.220 C 
ATOM     10  O   UNL A   1      30.866  22.996  27.659  1.00  0.00    -0.275 OA
ATOM     11  H   UNL A   1      29.366  23.852  26.124  1.00  0.00     0.164 HD
BRANCH   9  12
ATOM     12  C   UNL A   1      32.661  23.194  26.096  1.00  0.00     0.101 C 
BRANCH  12  13
ATOM     13  C   UNL A   1      33.056  21.748  25.714  1.00  0.00     0.026 C 
BRANCH  13  14
ATOM     14  C   UNL A   1      34.216  21.714  24.707  1.00  0.00     0.107 C 
ATOM     15  C   UNL A   1      39.833  25.594  26.732  1.00  0.00     0.048 C 
ATOM     16  C   UNL A   1      39.705  24.120  26.706  1.00  0.00    -0.005 A 
ATOM     17  C   UNL A   1      40.631  23.193  27.142  1.00  0.00     0.199 A 
ATOM     18  C   UNL A   1      38.603  23.362  26.224  1.00  0.00     0.024 A 
ATOM     19  O   UNL A   1      40.192  21.927  26.933  1.00  0.00    -0.464 OA
ATOM     20  C   UNL A   1      38.962  22.029  26.367  1.00  0.00     0.137 A 
ATOM     21  C   UNL A   1      37.345  23.668  25.677  1.00  0.00     0.020 A 
ATOM     22  C   UNL A   1      38.169  20.964  25.976  1.00  0.00     0.095 A 
ATOM     23  C   UNL A   1      36.492  22.620  25.299  1.00  0.00    -0.001 A 
ATOM     24  C   UNL A   1      36.932  21.308  25.437  1.00  0.00     0.138 A 
ATOM     25  C   UNL A   1      35.153  22.931  24.708  1.00  0.00     0.034 C 
ATOM     26  O   UNL A   1      36.174  20.219  25.013  1.00  0.00    -0.426 OA
ATOM     27  C   UNL A   1      35.345  23.509  23.286  1.00  0.00     0.014 C 
ATOM     28  C   UNL A   1      34.845  20.328  24.700  1.00  0.00     0.314 C 
ATOM     29  O   UNL A   1      34.203  19.318  24.458  1.00  0.00    -0.251 OA
ENDBRANCH  13  14
ENDBRANCH  12  13
ENDBRANCH   9  12
ENDBRANCH   7   8
BRANCH   7  30
ATOM     30  C   UNL A   1      30.165  26.204  24.471  1.00  0.00     0.072 C 
BRANCH  30  31
ATOM     31  C   UNL A   1      29.017  26.992  23.872  1.00  0.00    -0.020 A 
ATOM     32  C   UNL A   1      27.672  26.697  23.784  1.00  0.00     0.087 A 
ATOM     33  C   UNL A   1      29.132  28.205  23.082  1.00  0.00     0.003 A 
ATOM     34  N   UNL A   1      27.000  27.866  23.559  1.00  0.00    -0.361 N 
ATOM     35  C   UNL A   1      27.867  28.794  23.053  1.00  0.00     0.046 A 
ATOM     36  C   UNL A   1      30.166  28.862  22.379  1.00  0.00     0.010 A 
ATOM     37  H   UNL A   1      26.042  28.017  23.732  1.00  0.00     0.166 HD
ATOM     38  C   UNL A   1      27.604  30.059  22.524  1.00  0.00     0.026 A 
ATOM     39  C   UNL A   1      29.880  30.057  21.696  1.00  0.00     0.001 A 
ATOM     40  C   UNL A   1      28.632  30.669  21.809  1.00  0.00     0.002 A 
ENDBRANCH  30  31
ENDBRANCH   7  30
ENDBRANCH   4   7
ENDBRANCH   2   3
ENDBRANCH   1   2
BRANCH   1  41
ATOM     41  C   UNL A   1      33.363  27.000  25.711  1.00  0.00     0.002 C 
BRANCH  41  42
ATOM     42  C   UNL A   1      34.129  28.193  26.295  1.00  0.00     0.002 C 
BRANCH  42  43
ATOM     43  C   UNL A   1      33.396  29.542  26.338  1.00  0.00     0.021 C 
BRANCH  43  44
ATOM     44  C   UNL A   1      33.391  30.263  27.687  1.00  0.00     0.116 C 
BRANCH  44  45
ATOM     45  N   UNL A   1      33.967  31.588  27.647  1.00  0.00    -0.352 N 
ATOM     46  C   UNL A   1      35.218  32.109  27.788  1.00  0.00     0.251 C 
ATOM     47  H   UNL A   1      33.291  32.283  27.477  1.00  0.00     0.163 HD
ATOM     48  O   UNL A   1      35.323  33.323  27.592  1.00  0.00    -0.269 OA
BRANCH  46  49
ATOM     49  C   UNL A   1      36.423  31.351  28.217  1.00  0.00     0.039 A 
ATOM     50  C   UNL A   1      37.383  31.792  29.124  1.00  0.00     0.014 A 
ATOM     51  C   UNL A   1      36.625  30.115  27.571  1.00  0.00     0.014 A 
ATOM     52  C   UNL A   1      38.572  31.089  29.277  1.00  0.00     0.010 A 
ATOM     53  C   UNL A   1      37.799  29.394  27.739  1.00  0.00     0.010 A 
ATOM     54  C   UNL A   1      38.799  29.916  28.546  1.00  0.00    -0.014 A 
BRANCH  54  55
ATOM     55  C   UNL A   1      40.080  29.245  28.728  1.00  0.00     0.031 A 
ATOM     56  C   UNL A   1      40.368  28.825  30.125  1.00  0.00     0.074 A 
ATOM     57  C   UNL A   1      40.958  28.986  27.739  1.00  0.00     0.049 A 
ATOM     58  N   UNL A   1      41.283  29.290  30.910  1.00  0.00    -0.248 NA
ATOM     59  C   UNL A   1      39.457  27.865  30.762  1.00  0.00     0.031 C 
ATOM     60  C   UNL A   1      40.784  29.096  26.290  1.00  0.00     0.029 A 
ATOM     61  N   UNL A   1      42.219  28.484  27.857  1.00  0.00    -0.354 N 
ATOM     62  C   UNL A   1      41.161  28.594  32.108  1.00  0.00     0.074 A 
ATOM     63  C   UNL A   1      39.957  27.806  31.997  1.00  0.00     0.031 C 
ATOM     64  C   UNL A   1      41.808  28.463  25.667  1.00  0.00     0.029 A 
ATOM     65  C   UNL A   1      42.782  28.056  26.664  1.00  0.00     0.049 A 
ATOM     66  H   UNL A   1      42.692  28.430  28.719  1.00  0.00     0.167 HD
ATOM     67  C   UNL A   1      42.146  28.598  33.047  1.00  0.00     0.031 A 
ATOM     68  C   UNL A   1      43.954  27.386  26.526  1.00  0.00     0.031 A 
ATOM     69  C   UNL A   1      43.068  29.686  32.855  1.00  0.00     0.049 A 
ATOM     70  C   UNL A   1      44.772  27.669  27.727  1.00  0.00     0.074 A 
ATOM     71  C   UNL A   1      42.951  31.062  32.889  1.00  0.00     0.029 A 
ATOM     72  N   UNL A   1      44.246  29.426  32.199  1.00  0.00    -0.354 N 
ATOM     73  N   UNL A   1      45.272  28.840  27.995  1.00  0.00    -0.248 NA
ATOM     74  C   UNL A   1      44.671  26.755  28.853  1.00  0.00     0.031 C 
ATOM     75  C   UNL A   1      43.780  31.523  31.825  1.00  0.00     0.029 A 
ATOM     76  C   UNL A   1      44.407  30.412  31.258  1.00  0.00     0.049 A 
ATOM     77  H   UNL A   1      44.859  28.676  32.371  1.00  0.00     0.167 HD
ATOM     78  C   UNL A   1      45.132  28.974  29.367  1.00  0.00     0.074 A 
ATOM     79  C   UNL A   1      44.842  27.625  29.852  1.00  0.00     0.031 C 
ATOM     80  C   UNL A   1      44.988  30.200  29.949  1.00  0.00     0.031 A 
BRANCH  67  81
ATOM     81  C   UNL A   1      42.444  27.432  33.951  1.00  0.00    -0.014 A 
ATOM     82  C   UNL A   1      41.620  27.072  35.035  1.00  0.00     0.009 A 
ATOM     83  C   UNL A   1      43.429  26.502  33.572  1.00  0.00     0.009 A 
ATOM     84  C   UNL A   1      41.758  25.851  35.699  1.00  0.00     0.001 A 
ATOM     85  C   UNL A   1      43.544  25.260  34.209  1.00  0.00     0.001 A 
ATOM     86  C   UNL A   1      42.705  24.934  35.270  1.00  0.00     0.000 A 
ENDBRANCH  67  81
BRANCH  68  87
ATOM     87  C   UNL A   1      44.231  26.210  25.670  1.00  0.00    -0.014 A 
ATOM     88  C   UNL A   1      43.215  25.271  25.415  1.00  0.00     0.009 A 
ATOM     89  C   UNL A   1      45.556  25.837  25.389  1.00  0.00     0.009 A 
ATOM     90  C   UNL A   1      43.518  23.985  24.956  1.00  0.00     0.001 A 
ATOM     91  C   UNL A   1      45.859  24.547  24.930  1.00  0.00     0.001 A 
ATOM     92  C   UNL A   1      44.841  23.616  24.734  1.00  0.00     0.000 A 
ENDBRANCH  68  87
BRANCH  80  93
ATOM     93  C   UNL A   1      45.179  31.434  29.093  1.00  0.00    -0.014 A 
ATOM     94  C   UNL A   1      46.368  32.165  29.236  1.00  0.00     0.009 A 
ATOM     95  C   UNL A   1      44.155  31.986  28.300  1.00  0.00     0.009 A 
ATOM     96  C   UNL A   1      46.526  33.412  28.624  1.00  0.00     0.001 A 
ATOM     97  C   UNL A   1      44.324  33.222  27.664  1.00  0.00     0.001 A 
ATOM     98  C   UNL A   1      45.505  33.939  27.837  1.00  0.00     0.000 A 
ENDBRANCH  80  93
ENDBRANCH  54  55
ENDBRANCH  46  49
ENDBRANCH  44  45
ENDBRANCH  43  44
ENDBRANCH  42  43
ENDBRANCH  41  42
ENDBRANCH   1  41
TORSDOF 19
ENDMDL
