MODEL 1
REMARK VINA RESULT:     -11.4      0.000      0.000
REMARK SMILES O=C(NCCCCCCNC(=O)c1ccc(-c2c3nc(c(-c4ccccc4)c4ccc([nH]4)c(-c4ccccc4)c4nc(c(-c5ccccc5)c5ccc2[nH]5)C=C4)C=C3)cc1)C1=Cc2c(ccc(Cl)c2Cl)O[C@H]1C(F)(F)F
REMARK SMILES IDX 7 1 6 2 5 3 4 4 3 5 1 6 2 7 61 9 62 10 72 11 63 12 71 13
REMARK SMILES IDX 64 14 69 15 65 16 67 17 70 18 66 19 68 20 73 21 74 22 75 23
REMARK SMILES IDX 76 24 8 25 9 26 10 27 11 28 12 30 13 31 14 32 60 33 15 34
REMARK SMILES IDX 59 35 16 36 17 37 18 38 53 39 19 40 58 41 52 42 54 43 20 44
REMARK SMILES IDX 57 45 51 46 50 47 21 49 43 50 28 51 42 52 29 53 32 54 41 55
REMARK SMILES IDX 55 56 30 57 31 58 40 60 56 61 33 62 22 63 23 64 27 65 24 66
REMARK SMILES IDX 26 67 25 68 44 69 45 70 49 71 46 72 48 73 47 74 34 75 35 76
REMARK SMILES IDX 39 77 36 78 38 79 37 80
REMARK H PARENT 3 8 10 29 54 48 32 59
REMARK Flexibility Score: inf
ROOT
ATOM      1  C   UNL A   1      36.086  20.527  24.975  1.00  0.00     0.002 C 
ENDROOT
BRANCH   1   2
ATOM      2  C   UNL A   1      34.756  19.765  24.925  1.00  0.00     0.002 C 
BRANCH   2   3
ATOM      3  C   UNL A   1      33.587  20.361  25.711  1.00  0.00     0.021 C 
BRANCH   3   4
ATOM      4  C   UNL A   1      33.917  21.528  26.635  1.00  0.00     0.116 C 
BRANCH   4   5
ATOM      5  N   UNL A   1      32.787  22.293  27.123  1.00  0.00    -0.352 N 
ATOM      6  O   UNL A   1      31.302  23.990  27.166  1.00  0.00    -0.270 OA
ATOM      7  C   UNL A   1      32.225  23.423  26.588  1.00  0.00     0.251 C 
ATOM      8  H   UNL A   1      32.367  21.956  27.947  1.00  0.00     0.163 HD
BRANCH   7   9
ATOM      9  C   UNL A   1      32.741  23.998  25.319  1.00  0.00     0.067 C 
ATOM     10  C   UNL A   1      33.412  25.161  25.379  1.00  0.00     0.027 C 
ATOM     11  C   UNL A   1      32.047  23.584  24.051  1.00  0.00     0.314 C 
ATOM     12  C   UNL A   1      32.587  26.270  24.835  1.00  0.00     0.037 A 
ATOM     13  O   UNL A   1      31.393  24.703  23.377  1.00  0.00    -0.475 OA
ATOM     14  C   UNL A   1      31.589  25.962  23.893  1.00  0.00     0.129 A 
ATOM     15  C   UNL A   1      32.661  27.566  25.382  1.00  0.00     0.070 A 
ATOM     16  C   UNL A   1      30.643  26.918  23.533  1.00  0.00     0.049 A 
ATOM     17  C   UNL A   1      31.685  28.511  25.039  1.00  0.00     0.060 A 
ATOM     18  Cl  UNL A   1      33.897  27.943  26.540  1.00  0.00    -0.082 Cl
ATOM     19  C   UNL A   1      30.674  28.181  24.128  1.00  0.00     0.026 A 
ATOM     20  Cl  UNL A   1      31.617  30.078  25.765  1.00  0.00    -0.083 Cl
BRANCH  11  21
ATOM     21  C   UNL A   1      32.981  22.834  23.076  1.00  0.00     0.429 C 
ATOM     22  F   UNL A   1      34.257  22.756  23.518  1.00  0.00    -0.167 F 
ATOM     23  F   UNL A   1      32.551  21.565  22.871  1.00  0.00    -0.167 F 
ATOM     24  F   UNL A   1      33.029  23.435  21.861  1.00  0.00    -0.167 F 
ENDBRANCH  11  21
ENDBRANCH   7   9
ENDBRANCH   4   5
ENDBRANCH   3   4
ENDBRANCH   2   3
ENDBRANCH   1   2
BRANCH   1  25
ATOM     25  C   UNL A   1      37.367  19.690  24.930  1.00  0.00     0.021 C 
BRANCH  25  26
ATOM     26  C   UNL A   1      38.622  20.338  25.509  1.00  0.00     0.116 C 
BRANCH  26  27
ATOM     27  N   UNL A   1      39.732  19.412  25.641  1.00  0.00    -0.352 N 
ATOM     28  C   UNL A   1      41.024  19.614  26.062  1.00  0.00     0.251 C 
ATOM     29  H   UNL A   1      39.525  18.484  25.385  1.00  0.00     0.163 HD
ATOM     30  O   UNL A   1      41.840  18.702  25.959  1.00  0.00    -0.269 OA
BRANCH  28  31
ATOM     31  C   UNL A   1      41.461  20.916  26.623  1.00  0.00     0.039 A 
ATOM     32  C   UNL A   1      41.943  21.893  25.743  1.00  0.00     0.014 A 
ATOM     33  C   UNL A   1      41.456  21.170  27.997  1.00  0.00     0.014 A 
ATOM     34  C   UNL A   1      42.365  23.132  26.233  1.00  0.00     0.010 A 
ATOM     35  C   UNL A   1      41.806  22.433  28.477  1.00  0.00     0.010 A 
ATOM     36  C   UNL A   1      42.272  23.427  27.602  1.00  0.00    -0.014 A 
BRANCH  36  37
ATOM     37  C   UNL A   1      42.664  24.760  28.130  1.00  0.00     0.031 A 
ATOM     38  C   UNL A   1      41.629  25.832  28.347  1.00  0.00     0.074 A 
ATOM     39  C   UNL A   1      43.962  25.028  28.374  1.00  0.00     0.049 A 
ATOM     40  N   UNL A   1      41.788  27.064  28.764  1.00  0.00    -0.248 NA
ATOM     41  C   UNL A   1      40.235  25.482  28.031  1.00  0.00     0.031 C 
ATOM     42  C   UNL A   1      45.071  24.091  28.180  1.00  0.00     0.029 A 
ATOM     43  N   UNL A   1      44.569  26.170  28.834  1.00  0.00    -0.354 N 
ATOM     44  C   UNL A   1      40.523  27.638  28.743  1.00  0.00     0.074 A 
ATOM     45  C   UNL A   1      39.616  26.638  28.224  1.00  0.00     0.031 C 
ATOM     46  C   UNL A   1      46.216  24.684  28.552  1.00  0.00     0.029 A 
ATOM     47  C   UNL A   1      45.932  26.054  28.967  1.00  0.00     0.049 A 
ATOM     48  H   UNL A   1      44.075  26.994  29.050  1.00  0.00     0.167 HD
ATOM     49  C   UNL A   1      40.144  28.879  29.135  1.00  0.00     0.031 A 
ATOM     50  C   UNL A   1      46.853  26.950  29.371  1.00  0.00     0.031 A 
ATOM     51  C   UNL A   1      41.043  29.874  29.658  1.00  0.00     0.049 A 
ATOM     52  C   UNL A   1      46.412  28.329  29.776  1.00  0.00     0.074 A 
ATOM     53  C   UNL A   1      40.747  31.138  30.137  1.00  0.00     0.029 A 
ATOM     54  N   UNL A   1      42.418  29.720  29.764  1.00  0.00    -0.354 N 
ATOM     55  N   UNL A   1      45.203  28.833  29.813  1.00  0.00    -0.248 NA
ATOM     56  C   UNL A   1      47.467  29.261  30.202  1.00  0.00     0.031 C 
ATOM     57  C   UNL A   1      41.947  31.771  30.474  1.00  0.00     0.029 A 
ATOM     58  C   UNL A   1      42.985  30.878  30.268  1.00  0.00     0.049 A 
ATOM     59  H   UNL A   1      42.916  28.907  29.517  1.00  0.00     0.167 HD
ATOM     60  C   UNL A   1      45.347  30.128  30.296  1.00  0.00     0.074 A 
ATOM     61  C   UNL A   1      46.758  30.325  30.551  1.00  0.00     0.031 C 
ATOM     62  C   UNL A   1      44.393  31.067  30.512  1.00  0.00     0.031 A 
BRANCH  49  63
ATOM     63  C   UNL A   1      38.689  29.236  28.993  1.00  0.00    -0.014 A 
ATOM     64  C   UNL A   1      38.169  29.726  27.783  1.00  0.00     0.009 A 
ATOM     65  C   UNL A   1      37.817  29.055  30.079  1.00  0.00     0.009 A 
ATOM     66  C   UNL A   1      36.819  30.070  27.679  1.00  0.00     0.001 A 
ATOM     67  C   UNL A   1      36.461  29.368  29.962  1.00  0.00     0.001 A 
ATOM     68  C   UNL A   1      35.965  29.886  28.766  1.00  0.00     0.000 A 
ENDBRANCH  49  63
BRANCH  50  69
ATOM     69  C   UNL A   1      48.288  26.564  29.434  1.00  0.00    -0.014 A 
ATOM     70  C   UNL A   1      49.139  26.811  28.347  1.00  0.00     0.009 A 
ATOM     71  C   UNL A   1      48.814  25.947  30.580  1.00  0.00     0.009 A 
ATOM     72  C   UNL A   1      50.481  26.428  28.396  1.00  0.00     0.001 A 
ATOM     73  C   UNL A   1      50.163  25.592  30.638  1.00  0.00     0.001 A 
ATOM     74  C   UNL A   1      50.993  25.823  29.544  1.00  0.00     0.000 A 
ENDBRANCH  50  69
BRANCH  62  75
ATOM     75  C   UNL A   1      44.839  32.384  31.083  1.00  0.00    -0.014 A 
ATOM     76  C   UNL A   1      44.932  32.588  32.468  1.00  0.00     0.009 A 
ATOM     77  C   UNL A   1      45.209  33.425  30.217  1.00  0.00     0.009 A 
ATOM     78  C   UNL A   1      45.353  33.821  32.974  1.00  0.00     0.001 A 
ATOM     79  C   UNL A   1      45.660  34.645  30.724  1.00  0.00     0.001 A 
ATOM     80  C   UNL A   1      45.722  34.845  32.102  1.00  0.00     0.000 A 
ENDBRANCH  62  75
ENDBRANCH  36  37
ENDBRANCH  28  31
ENDBRANCH  26  27
ENDBRANCH  25  26
ENDBRANCH   1  25
TORSDOF 14
ENDMDL
MODEL 2
REMARK VINA RESULT:     -11.4      0.353      5.918
REMARK SMILES O=C(NCCCCCCNC(=O)c1ccc(-c2c3nc(c(-c4ccccc4)c4ccc([nH]4)c(-c4ccccc4)c4nc(c(-c5ccccc5)c5ccc2[nH]5)C=C4)C=C3)cc1)C1=Cc2c(ccc(Cl)c2Cl)O[C@H]1C(F)(F)F
REMARK SMILES IDX 7 1 6 2 5 3 4 4 3 5 1 6 2 7 61 9 62 10 72 11 63 12 71 13
REMARK SMILES IDX 64 14 69 15 65 16 67 17 70 18 66 19 68 20 73 21 74 22 75 23
REMARK SMILES IDX 76 24 8 25 9 26 10 27 11 28 12 30 13 31 14 32 60 33 15 34
REMARK SMILES IDX 59 35 16 36 17 37 18 38 53 39 19 40 58 41 52 42 54 43 20 44
REMARK SMILES IDX 57 45 51 46 50 47 21 49 43 50 28 51 42 52 29 53 32 54 41 55
REMARK SMILES IDX 55 56 30 57 31 58 40 60 56 61 33 62 22 63 23 64 27 65 24 66
REMARK SMILES IDX 26 67 25 68 44 69 45 70 49 71 46 72 48 73 47 74 34 75 35 76
REMARK SMILES IDX 39 77 36 78 38 79 37 80
REMARK H PARENT 3 8 10 29 54 48 32 59
REMARK Flexibility Score: inf
ROOT
ATOM      1  C   UNL A   1      35.978  20.416  24.838  1.00  0.00     0.002 C 
ENDROOT
BRANCH   1   2
ATOM      2  C   UNL A   1      34.646  19.658  24.875  1.00  0.00     0.002 C 
BRANCH   2   3
ATOM      3  C   UNL A   1      33.552  20.225  25.782  1.00  0.00     0.021 C 
BRANCH   3   4
ATOM      4  C   UNL A   1      33.931  21.440  26.622  1.00  0.00     0.116 C 
BRANCH   4   5
ATOM      5  N   UNL A   1      32.828  22.224  27.139  1.00  0.00    -0.352 N 
ATOM      6  O   UNL A   1      31.402  23.969  27.246  1.00  0.00    -0.270 OA
ATOM      7  C   UNL A   1      32.305  23.392  26.646  1.00  0.00     0.251 C 
ATOM      8  H   UNL A   1      32.397  21.873  27.951  1.00  0.00     0.163 HD
BRANCH   7   9
ATOM      9  C   UNL A   1      32.840  23.995  25.398  1.00  0.00     0.067 C 
ATOM     10  C   UNL A   1      33.512  25.154  25.495  1.00  0.00     0.027 C 
ATOM     11  C   UNL A   1      32.164  23.611  24.111  1.00  0.00     0.314 C 
ATOM     12  C   UNL A   1      32.697  26.277  24.964  1.00  0.00     0.037 A 
ATOM     13  O   UNL A   1      31.521  24.746  23.453  1.00  0.00    -0.475 OA
ATOM     14  C   UNL A   1      31.712  25.992  24.000  1.00  0.00     0.129 A 
ATOM     15  C   UNL A   1      32.765  27.560  25.541  1.00  0.00     0.070 A 
ATOM     16  C   UNL A   1      30.772  26.958  23.650  1.00  0.00     0.049 A 
ATOM     17  C   UNL A   1      31.795  28.515  25.205  1.00  0.00     0.060 A 
ATOM     18  Cl  UNL A   1      33.985  27.909  26.726  1.00  0.00    -0.082 Cl
ATOM     19  C   UNL A   1      30.797  28.207  24.274  1.00  0.00     0.026 A 
ATOM     20  Cl  UNL A   1      31.719  30.066  25.966  1.00  0.00    -0.083 Cl
BRANCH  11  21
ATOM     21  C   UNL A   1      33.110  22.882  23.133  1.00  0.00     0.429 C 
ATOM     22  F   UNL A   1      34.395  22.856  23.558  1.00  0.00    -0.167 F 
ATOM     23  F   UNL A   1      32.724  21.596  22.952  1.00  0.00    -0.167 F 
ATOM     24  F   UNL A   1      33.121  23.467  21.910  1.00  0.00    -0.167 F 
ENDBRANCH  11  21
ENDBRANCH   7   9
ENDBRANCH   4   5
ENDBRANCH   3   4
ENDBRANCH   2   3
ENDBRANCH   1   2
BRANCH   1  25
ATOM     25  C   UNL A   1      37.257  19.577  24.925  1.00  0.00     0.021 C 
BRANCH  25  26
ATOM     26  C   UNL A   1      38.470  20.253  25.559  1.00  0.00     0.116 C 
BRANCH  26  27
ATOM     27  N   UNL A   1      39.627  19.380  25.648  1.00  0.00    -0.352 N 
ATOM     28  C   UNL A   1      40.919  19.639  26.035  1.00  0.00     0.251 C 
ATOM     29  H   UNL A   1      39.456  18.446  25.387  1.00  0.00     0.163 HD
ATOM     30  O   UNL A   1      41.774  18.769  25.898  1.00  0.00    -0.269 OA
BRANCH  28  31
ATOM     31  C   UNL A   1      41.309  20.954  26.599  1.00  0.00     0.039 A 
ATOM     32  C   UNL A   1      41.833  21.922  25.734  1.00  0.00     0.014 A 
ATOM     33  C   UNL A   1      41.220  21.230  27.966  1.00  0.00     0.014 A 
ATOM     34  C   UNL A   1      42.213  23.173  26.227  1.00  0.00     0.010 A 
ATOM     35  C   UNL A   1      41.529  22.504  28.445  1.00  0.00     0.010 A 
ATOM     36  C   UNL A   1      42.036  23.489  27.583  1.00  0.00    -0.014 A 
BRANCH  36  37
ATOM     37  C   UNL A   1      42.383  24.834  28.112  1.00  0.00     0.031 A 
ATOM     38  C   UNL A   1      43.799  25.159  28.508  1.00  0.00     0.074 A 
ATOM     39  C   UNL A   1      41.414  25.756  28.284  1.00  0.00     0.049 A 
ATOM     40  N   UNL A   1      44.282  26.264  29.022  1.00  0.00    -0.248 NA
ATOM     41  C   UNL A   1      44.800  24.097  28.324  1.00  0.00     0.031 C 
ATOM     42  C   UNL A   1      39.997  25.563  27.969  1.00  0.00     0.029 A 
ATOM     43  N   UNL A   1      41.476  27.039  28.768  1.00  0.00    -0.354 N 
ATOM     44  C   UNL A   1      45.632  26.022  29.239  1.00  0.00     0.074 A 
ATOM     45  C   UNL A   1      45.883  24.651  28.849  1.00  0.00     0.031 C 
ATOM     46  C   UNL A   1      39.331  26.698  28.236  1.00  0.00     0.029 A 
ATOM     47  C   UNL A   1      40.261  27.681  28.781  1.00  0.00     0.049 A 
ATOM     48  H   UNL A   1      42.310  27.459  29.077  1.00  0.00     0.167 HD
ATOM     49  C   UNL A   1      46.585  26.867  29.704  1.00  0.00     0.031 A 
ATOM     50  C   UNL A   1      39.929  28.921  29.190  1.00  0.00     0.031 A 
ATOM     51  C   UNL A   1      46.341  28.233  30.086  1.00  0.00     0.049 A 
ATOM     52  C   UNL A   1      40.998  29.831  29.727  1.00  0.00     0.074 A 
ATOM     53  C   UNL A   1      47.250  29.185  30.512  1.00  0.00     0.029 A 
ATOM     54  N   UNL A   1      45.093  28.840  30.095  1.00  0.00    -0.354 N 
ATOM     55  N   UNL A   1      42.283  29.608  29.862  1.00  0.00    -0.248 NA
ATOM     56  C   UNL A   1      40.569  31.169  30.161  1.00  0.00     0.031 C 
ATOM     57  C   UNL A   1      46.545  30.348  30.838  1.00  0.00     0.029 A 
ATOM     58  C   UNL A   1      45.206  30.143  30.552  1.00  0.00     0.049 A 
ATOM     59  H   UNL A   1      44.253  28.409  29.817  1.00  0.00     0.167 HD
ATOM     60  C   UNL A   1      42.820  30.786  30.366  1.00  0.00     0.074 A 
ATOM     61  C   UNL A   1      41.725  31.724  30.499  1.00  0.00     0.031 C 
ATOM     62  C   UNL A   1      44.108  31.066  30.686  1.00  0.00     0.031 A 
BRANCH  49  63
ATOM     63  C   UNL A   1      47.983  26.326  29.843  1.00  0.00    -0.014 A 
ATOM     64  C   UNL A   1      48.431  25.754  31.045  1.00  0.00     0.009 A 
ATOM     65  C   UNL A   1      48.858  26.366  28.746  1.00  0.00     0.009 A 
ATOM     66  C   UNL A   1      49.738  25.275  31.158  1.00  0.00     0.001 A 
ATOM     67  C   UNL A   1      50.154  25.856  28.851  1.00  0.00     0.001 A 
ATOM     68  C   UNL A   1      50.597  25.322  30.060  1.00  0.00     0.000 A 
ENDBRANCH  49  63
BRANCH  50  69
ATOM     69  C   UNL A   1      38.520  29.384  29.089  1.00  0.00    -0.014 A 
ATOM     70  C   UNL A   1      37.648  29.255  30.179  1.00  0.00     0.009 A 
ATOM     71  C   UNL A   1      38.039  29.958  27.901  1.00  0.00     0.009 A 
ATOM     72  C   UNL A   1      36.317  29.669  30.077  1.00  0.00     0.001 A 
ATOM     73  C   UNL A   1      36.716  30.398  27.811  1.00  0.00     0.001 A 
ATOM     74  C   UNL A   1      35.854  30.245  28.895  1.00  0.00     0.000 A 
ENDBRANCH  50  69
BRANCH  62  75
ATOM     75  C   UNL A   1      44.409  32.453  31.181  1.00  0.00    -0.014 A 
ATOM     76  C   UNL A   1      44.716  33.497  30.294  1.00  0.00     0.009 A 
ATOM     77  C   UNL A   1      44.347  32.728  32.556  1.00  0.00     0.009 A 
ATOM     78  C   UNL A   1      44.990  34.779  30.779  1.00  0.00     0.001 A 
ATOM     79  C   UNL A   1      44.588  34.016  33.036  1.00  0.00     0.001 A 
ATOM     80  C   UNL A   1      44.919  35.038  32.147  1.00  0.00     0.000 A 
ENDBRANCH  62  75
ENDBRANCH  36  37
ENDBRANCH  28  31
ENDBRANCH  26  27
ENDBRANCH  25  26
ENDBRANCH   1  25
TORSDOF 14
ENDMDL
MODEL 3
REMARK VINA RESULT:     -11.3      3.688      8.673
REMARK SMILES O=C(NCCCCCCNC(=O)c1ccc(-c2c3nc(c(-c4ccccc4)c4ccc([nH]4)c(-c4ccccc4)c4nc(c(-c5ccccc5)c5ccc2[nH]5)C=C4)C=C3)cc1)C1=Cc2c(ccc(Cl)c2Cl)O[C@H]1C(F)(F)F
REMARK SMILES IDX 7 1 6 2 5 3 4 4 3 5 1 6 2 7 61 9 62 10 72 11 63 12 71 13
REMARK SMILES IDX 64 14 69 15 65 16 67 17 70 18 66 19 68 20 73 21 74 22 75 23
REMARK SMILES IDX 76 24 8 25 9 26 10 27 11 28 12 30 13 31 14 32 60 33 15 34
REMARK SMILES IDX 59 35 16 36 17 37 18 38 53 39 19 40 58 41 52 42 54 43 20 44
REMARK SMILES IDX 57 45 51 46 50 47 21 49 43 50 28 51 42 52 29 53 32 54 41 55
REMARK SMILES IDX 55 56 30 57 31 58 40 60 56 61 33 62 22 63 23 64 27 65 24 66
REMARK SMILES IDX 26 67 25 68 44 69 45 70 49 71 46 72 48 73 47 74 34 75 35 76
REMARK SMILES IDX 39 77 36 78 38 79 37 80
REMARK H PARENT 3 8 10 29 54 48 32 59
REMARK Flexibility Score: inf
ROOT
ATOM      1  C   UNL A   1      31.334  30.154  25.393  1.00  0.00     0.002 C 
ENDROOT
BRANCH   1   2
ATOM      2  C   UNL A   1      32.737  29.535  25.382  1.00  0.00     0.002 C 
BRANCH   2   3
ATOM      3  C   UNL A   1      33.379  29.300  24.014  1.00  0.00     0.021 C 
BRANCH   3   4
ATOM      4  C   UNL A   1      32.451  28.819  22.903  1.00  0.00     0.116 C 
BRANCH   4   5
ATOM      5  N   UNL A   1      32.974  27.774  22.045  1.00  0.00    -0.352 N 
ATOM      6  O   UNL A   1      33.535  25.671  21.454  1.00  0.00    -0.270 OA
ATOM      7  C   UNL A   1      32.991  26.421  22.261  1.00  0.00     0.251 C 
ATOM      8  H   UNL A   1      33.369  28.077  21.196  1.00  0.00     0.163 HD
BRANCH   7   9
ATOM      9  C   UNL A   1      32.381  25.840  23.485  1.00  0.00     0.067 C 
ATOM     10  C   UNL A   1      33.203  25.423  24.463  1.00  0.00     0.027 C 
ATOM     11  C   UNL A   1      31.001  25.259  23.350  1.00  0.00     0.314 C 
ATOM     12  C   UNL A   1      33.242  23.939  24.516  1.00  0.00     0.037 A 
ATOM     13  O   UNL A   1      30.970  23.820  23.601  1.00  0.00    -0.475 OA
ATOM     14  C   UNL A   1      32.130  23.222  24.034  1.00  0.00     0.129 A 
ATOM     15  C   UNL A   1      34.425  23.254  24.854  1.00  0.00     0.070 A 
ATOM     16  C   UNL A   1      32.211  21.845  23.844  1.00  0.00     0.049 A 
ATOM     17  C   UNL A   1      34.507  21.874  24.628  1.00  0.00     0.060 A 
ATOM     18  Cl  UNL A   1      35.792  24.141  25.452  1.00  0.00    -0.082 Cl
ATOM     19  C   UNL A   1      33.407  21.178  24.113  1.00  0.00     0.026 A 
ATOM     20  Cl  UNL A   1      35.963  20.977  24.883  1.00  0.00    -0.083 Cl
BRANCH  11  21
ATOM     21  C   UNL A   1      29.958  25.984  24.226  1.00  0.00     0.429 C 
ATOM     22  F   UNL A   1      29.787  25.404  25.437  1.00  0.00    -0.167 F 
ATOM     23  F   UNL A   1      30.322  27.271  24.448  1.00  0.00    -0.167 F 
ATOM     24  F   UNL A   1      28.737  26.015  23.637  1.00  0.00    -0.167 F 
ENDBRANCH  11  21
ENDBRANCH   7   9
ENDBRANCH   4   5
ENDBRANCH   3   4
ENDBRANCH   2   3
ENDBRANCH   1   2
BRANCH   1  25
ATOM     25  C   UNL A   1      31.157  31.456  26.180  1.00  0.00     0.021 C 
BRANCH  25  26
ATOM     26  C   UNL A   1      32.384  31.970  26.928  1.00  0.00     0.116 C 
BRANCH  26  27
ATOM     27  N   UNL A   1      32.244  33.344  27.377  1.00  0.00    -0.352 N 
ATOM     28  C   UNL A   1      33.039  34.104  28.200  1.00  0.00     0.251 C 
ATOM     29  H   UNL A   1      31.446  33.807  27.036  1.00  0.00     0.163 HD
ATOM     30  O   UNL A   1      32.648  35.211  28.559  1.00  0.00    -0.269 OA
BRANCH  28  31
ATOM     31  C   UNL A   1      34.353  33.610  28.679  1.00  0.00     0.039 A 
ATOM     32  C   UNL A   1      34.382  32.772  29.800  1.00  0.00     0.014 A 
ATOM     33  C   UNL A   1      35.554  34.001  28.082  1.00  0.00     0.014 A 
ATOM     34  C   UNL A   1      35.600  32.286  30.284  1.00  0.00     0.010 A 
ATOM     35  C   UNL A   1      36.763  33.456  28.518  1.00  0.00     0.010 A 
ATOM     36  C   UNL A   1      36.802  32.598  29.629  1.00  0.00    -0.014 A 
BRANCH  36  37
ATOM     37  C   UNL A   1      38.100  32.045  30.097  1.00  0.00     0.031 A 
ATOM     38  C   UNL A   1      38.605  30.729  29.568  1.00  0.00     0.074 A 
ATOM     39  C   UNL A   1      38.808  32.702  31.037  1.00  0.00     0.049 A 
ATOM     40  N   UNL A   1      39.694  30.073  29.886  1.00  0.00    -0.248 NA
ATOM     41  C   UNL A   1      37.768  30.049  28.568  1.00  0.00     0.031 C 
ATOM     42  C   UNL A   1      38.419  33.972  31.655  1.00  0.00     0.029 A 
ATOM     43  N   UNL A   1      40.002  32.391  31.638  1.00  0.00    -0.354 N 
ATOM     44  C   UNL A   1      39.661  28.900  29.142  1.00  0.00     0.074 A 
ATOM     45  C   UNL A   1      38.422  28.910  28.395  1.00  0.00     0.031 C 
ATOM     46  C   UNL A   1      39.374  34.347  32.522  1.00  0.00     0.029 A 
ATOM     47  C   UNL A   1      40.417  33.327  32.555  1.00  0.00     0.049 A 
ATOM     48  H   UNL A   1      40.512  31.575  31.433  1.00  0.00     0.167 HD
ATOM     49  C   UNL A   1      40.584  27.910  29.071  1.00  0.00     0.031 A 
ATOM     50  C   UNL A   1      41.512  33.360  33.339  1.00  0.00     0.031 A 
ATOM     51  C   UNL A   1      41.821  27.900  29.808  1.00  0.00     0.049 A 
ATOM     52  C   UNL A   1      42.509  32.238  33.262  1.00  0.00     0.074 A 
ATOM     53  C   UNL A   1      42.846  26.972  29.758  1.00  0.00     0.029 A 
ATOM     54  N   UNL A   1      42.196  28.861  30.734  1.00  0.00    -0.354 N 
ATOM     55  N   UNL A   1      42.494  31.169  32.503  1.00  0.00    -0.248 NA
ATOM     56  C   UNL A   1      43.678  32.332  34.148  1.00  0.00     0.031 C 
ATOM     57  C   UNL A   1      43.814  27.338  30.699  1.00  0.00     0.029 A 
ATOM     58  C   UNL A   1      43.422  28.530  31.287  1.00  0.00     0.049 A 
ATOM     59  H   UNL A   1      41.670  29.660  30.964  1.00  0.00     0.167 HD
ATOM     60  C   UNL A   1      43.665  30.481  32.796  1.00  0.00     0.074 A 
ATOM     61  C   UNL A   1      44.372  31.260  33.790  1.00  0.00     0.031 C 
ATOM     62  C   UNL A   1      44.114  29.310  32.282  1.00  0.00     0.031 A 
BRANCH  49  63
ATOM     63  C   UNL A   1      40.278  26.740  28.174  1.00  0.00    -0.014 A 
ATOM     64  C   UNL A   1      39.514  25.651  28.625  1.00  0.00     0.009 A 
ATOM     65  C   UNL A   1      40.740  26.739  26.848  1.00  0.00     0.009 A 
ATOM     66  C   UNL A   1      39.258  24.567  27.782  1.00  0.00     0.001 A 
ATOM     67  C   UNL A   1      40.454  25.669  25.997  1.00  0.00     0.001 A 
ATOM     68  C   UNL A   1      39.724  24.579  26.467  1.00  0.00     0.000 A 
ENDBRANCH  49  63
BRANCH  50  69
ATOM     69  C   UNL A   1      41.735  34.511  34.255  1.00  0.00    -0.014 A 
ATOM     70  C   UNL A   1      41.245  34.480  35.568  1.00  0.00     0.009 A 
ATOM     71  C   UNL A   1      42.438  35.646  33.819  1.00  0.00     0.009 A 
ATOM     72  C   UNL A   1      41.435  35.570  36.421  1.00  0.00     0.001 A 
ATOM     73  C   UNL A   1      42.652  36.722  34.683  1.00  0.00     0.001 A 
ATOM     74  C   UNL A   1      42.142  36.687  35.980  1.00  0.00     0.000 A 
ENDBRANCH  50  69
BRANCH  62  75
ATOM     75  C   UNL A   1      45.450  28.814  32.762  1.00  0.00    -0.014 A 
ATOM     76  C   UNL A   1      46.644  29.200  32.133  1.00  0.00     0.009 A 
ATOM     77  C   UNL A   1      45.516  27.977  33.887  1.00  0.00     0.009 A 
ATOM     78  C   UNL A   1      47.874  28.729  32.600  1.00  0.00     0.001 A 
ATOM     79  C   UNL A   1      46.747  27.534  34.373  1.00  0.00     0.001 A 
ATOM     80  C   UNL A   1      47.924  27.902  33.722  1.00  0.00     0.000 A 
ENDBRANCH  62  75
ENDBRANCH  36  37
ENDBRANCH  28  31
ENDBRANCH  26  27
ENDBRANCH  25  26
ENDBRANCH   1  25
TORSDOF 14
ENDMDL
