MODEL 1
REMARK VINA RESULT:     -11.3      0.000      0.000
REMARK SMILES C[C@@H](C(=O)NCCCCCCNC(=O)c1ccc(-c2c3nc(c(-c4ccccc4)c4ccc([nH]4)c(-c4ccccc4)c4nc(c(-c5ccccc5)c5ccc2[nH]5)C=C4)C=C3)cc1)S(=O)(=O)N[C@@]12C[C@@H]3C[C@@](C)(C[C@@](C)(C3)C1)C2
REMARK SMILES IDX 8 1 7 2 6 3 5 4 3 5 4 6 2 8 1 9 63 10 64 11 65 12 66 13
REMARK SMILES IDX 67 15 68 16 77 17 78 18 69 19 74 20 71 21 76 22 70 23 73 24
REMARK SMILES IDX 75 25 72 26 9 27 10 28 11 29 12 30 13 31 14 33 15 34 16 35
REMARK SMILES IDX 62 36 17 37 61 38 18 39 19 40 20 41 55 42 21 43 60 44 54 45
REMARK SMILES IDX 56 46 22 47 59 48 53 49 52 50 23 52 45 53 30 54 44 55 31 56
REMARK SMILES IDX 34 57 43 58 57 59 32 60 33 61 42 63 58 64 35 65 24 66 25 67
REMARK SMILES IDX 29 68 26 69 28 70 27 71 46 72 47 73 51 74 48 75 50 76 49 77
REMARK SMILES IDX 36 78 37 79 41 80 38 81 40 82 39 83
REMARK H PARENT 5 7 66 14 12 32 56 51 34 62
REMARK Flexibility Score: inf
ROOT
ATOM      1  C   UNL A   1      35.054  20.302  24.817  1.00  0.00     0.002 C 
ENDROOT
BRANCH   1   2
ATOM      2  C   UNL A   1      33.925  20.603  25.817  1.00  0.00     0.021 C 
BRANCH   2   3
ATOM      3  C   UNL A   1      32.530  20.389  25.224  1.00  0.00     0.116 C 
BRANCH   3   4
ATOM      4  N   UNL A   1      31.728  21.576  25.434  1.00  0.00    -0.355 N 
ATOM      5  C   UNL A   1      31.709  22.787  24.805  1.00  0.00     0.239 C 
ATOM      6  O   UNL A   1      31.169  23.692  25.447  1.00  0.00    -0.274 OA
ATOM      7  H   UNL A   1      31.076  21.495  26.167  1.00  0.00     0.163 HD
BRANCH   5   8
ATOM      8  C   UNL A   1      32.238  22.960  23.388  1.00  0.00     0.209 C 
ATOM      9  C   UNL A   1      32.172  21.782  22.419  1.00  0.00     0.037 C 
BRANCH   8  10
ATOM     10  S   UNL A   1      33.916  23.683  23.459  1.00  0.00     0.223 S 
ATOM     11  O   UNL A   1      34.314  23.780  24.849  1.00  0.00    -0.212 OA
ATOM     12  O   UNL A   1      34.761  22.922  22.557  1.00  0.00    -0.212 OA
BRANCH  10  13
ATOM     13  N   UNL A   1      33.878  25.232  22.824  1.00  0.00    -0.208 NA
ATOM     14  H   UNL A   1      33.500  25.118  21.883  1.00  0.00     0.141 HD
BRANCH  13  15
ATOM     15  C   UNL A   1      33.177  26.414  23.369  1.00  0.00     0.034 C 
ATOM     16  C   UNL A   1      33.622  27.676  22.579  1.00  0.00     0.027 C 
ATOM     17  C   UNL A   1      31.662  26.280  23.122  1.00  0.00     0.030 C 
ATOM     18  C   UNL A   1      33.520  26.676  24.844  1.00  0.00     0.030 C 
ATOM     19  C   UNL A   1      32.872  28.927  23.097  1.00  0.00    -0.008 C 
ATOM     20  C   UNL A   1      30.889  27.482  23.703  1.00  0.00    -0.030 C 
ATOM     21  C   UNL A   1      32.759  27.893  25.395  1.00  0.00    -0.030 C 
ATOM     22  C   UNL A   1      31.351  28.738  22.936  1.00  0.00     0.010 C 
ATOM     23  C   UNL A   1      33.187  29.134  24.587  1.00  0.00     0.010 C 
ATOM     24  C   UNL A   1      31.244  27.656  25.200  1.00  0.00     0.013 C 
ATOM     25  C   UNL A   1      29.378  27.253  23.543  1.00  0.00     0.011 C 
ATOM     26  C   UNL A   1      33.086  28.068  26.883  1.00  0.00     0.011 C 
ENDBRANCH  13  15
ENDBRANCH  10  13
ENDBRANCH   8  10
ENDBRANCH   5   8
ENDBRANCH   3   4
ENDBRANCH   2   3
ENDBRANCH   1   2
BRANCH   1  27
ATOM     27  C   UNL A   1      36.410  20.928  25.171  1.00  0.00     0.002 C 
BRANCH  27  28
ATOM     28  C   UNL A   1      37.610  19.993  24.999  1.00  0.00     0.021 C 
BRANCH  28  29
ATOM     29  C   UNL A   1      38.916  20.548  25.559  1.00  0.00     0.116 C 
BRANCH  29  30
ATOM     30  N   UNL A   1      39.913  19.502  25.734  1.00  0.00    -0.352 N 
ATOM     31  C   UNL A   1      41.234  19.610  26.092  1.00  0.00     0.251 C 
ATOM     32  H   UNL A   1      39.595  18.585  25.571  1.00  0.00     0.163 HD
ATOM     33  O   UNL A   1      41.991  18.654  25.963  1.00  0.00    -0.269 OA
BRANCH  31  34
ATOM     34  C   UNL A   1      41.748  20.892  26.616  1.00  0.00     0.039 A 
ATOM     35  C   UNL A   1      42.315  21.808  25.728  1.00  0.00     0.014 A 
ATOM     36  C   UNL A   1      41.662  21.189  27.980  1.00  0.00     0.014 A 
ATOM     37  C   UNL A   1      42.724  23.059  26.195  1.00  0.00     0.010 A 
ATOM     38  C   UNL A   1      42.013  22.459  28.433  1.00  0.00     0.010 A 
ATOM     39  C   UNL A   1      42.533  23.410  27.543  1.00  0.00    -0.014 A 
BRANCH  39  40
ATOM     40  C   UNL A   1      42.813  24.786  28.023  1.00  0.00     0.031 A 
ATOM     41  C   UNL A   1      44.191  25.174  28.481  1.00  0.00     0.074 A 
ATOM     42  C   UNL A   1      41.795  25.665  28.124  1.00  0.00     0.049 A 
ATOM     43  N   UNL A   1      44.597  26.306  28.996  1.00  0.00    -0.248 NA
ATOM     44  C   UNL A   1      45.246  24.154  28.363  1.00  0.00     0.031 C 
ATOM     45  C   UNL A   1      40.401  25.395  27.756  1.00  0.00     0.029 A 
ATOM     46  N   UNL A   1      41.770  26.959  28.579  1.00  0.00    -0.354 N 
ATOM     47  C   UNL A   1      45.946  26.131  29.280  1.00  0.00     0.074 A 
ATOM     48  C   UNL A   1      46.283  24.773  28.911  1.00  0.00     0.031 C 
ATOM     49  C   UNL A   1      39.664  26.492  27.986  1.00  0.00     0.029 A 
ATOM     50  C   UNL A   1      40.518  27.527  28.560  1.00  0.00     0.049 A 
ATOM     51  H   UNL A   1      42.573  27.436  28.892  1.00  0.00     0.167 HD
ATOM     52  C   UNL A   1      46.823  27.025  29.792  1.00  0.00     0.031 A 
ATOM     53  C   UNL A   1      40.098  28.737  28.974  1.00  0.00     0.031 A 
ATOM     54  C   UNL A   1      46.491  28.381  30.142  1.00  0.00     0.049 A 
ATOM     55  C   UNL A   1      41.095  29.699  29.558  1.00  0.00     0.074 A 
ATOM     56  C   UNL A   1      47.334  29.385  30.587  1.00  0.00     0.029 A 
ATOM     57  N   UNL A   1      45.215  28.919  30.101  1.00  0.00    -0.354 N 
ATOM     58  N   UNL A   1      42.386  29.548  29.726  1.00  0.00    -0.248 NA
ATOM     59  C   UNL A   1      40.577  30.998  30.009  1.00  0.00     0.031 C 
ATOM     60  C   UNL A   1      46.558  30.510  30.875  1.00  0.00     0.029 A 
ATOM     61  C   UNL A   1      45.241  30.226  30.555  1.00  0.00     0.049 A 
ATOM     62  H   UNL A   1      44.410  28.442  29.795  1.00  0.00     0.167 HD
ATOM     63  C   UNL A   1      42.836  30.740  30.281  1.00  0.00     0.074 A 
ATOM     64  C   UNL A   1      41.686  31.611  30.397  1.00  0.00     0.031 C 
ATOM     65  C   UNL A   1      44.089  31.079  30.669  1.00  0.00     0.031 A 
BRANCH  52  66
ATOM     66  C   UNL A   1      48.240  26.576  30.016  1.00  0.00    -0.014 A 
ATOM     67  C   UNL A   1      48.620  25.932  31.203  1.00  0.00     0.009 A 
ATOM     68  C   UNL A   1      49.183  26.716  28.985  1.00  0.00     0.009 A 
ATOM     69  C   UNL A   1      49.922  25.452  31.359  1.00  0.00     0.001 A 
ATOM     70  C   UNL A   1      50.477  26.213  29.135  1.00  0.00     0.001 A 
ATOM     71  C   UNL A   1      50.846  25.585  30.323  1.00  0.00     0.000 A 
ENDBRANCH  52  66
BRANCH  53  72
ATOM     72  C   UNL A   1      38.661  29.109  28.883  1.00  0.00    -0.014 A 
ATOM     73  C   UNL A   1      38.132  29.639  27.696  1.00  0.00     0.009 A 
ATOM     74  C   UNL A   1      37.819  28.973  29.998  1.00  0.00     0.009 A 
ATOM     75  C   UNL A   1      36.803  30.063  27.641  1.00  0.00     0.001 A 
ATOM     76  C   UNL A   1      36.481  29.365  29.930  1.00  0.00     0.001 A 
ATOM     77  C   UNL A   1      35.978  29.923  28.757  1.00  0.00     0.000 A 
ENDBRANCH  53  72
BRANCH  65  78
ATOM     78  C   UNL A   1      44.282  32.455  31.240  1.00  0.00    -0.014 A 
ATOM     79  C   UNL A   1      44.218  32.680  32.624  1.00  0.00     0.009 A 
ATOM     80  C   UNL A   1      44.570  33.531  30.387  1.00  0.00     0.009 A 
ATOM     81  C   UNL A   1      44.408  33.963  33.139  1.00  0.00     0.001 A 
ATOM     82  C   UNL A   1      44.791  34.807  30.907  1.00  0.00     0.001 A 
ATOM     83  C   UNL A   1      44.700  35.023  32.281  1.00  0.00     0.000 A 
ENDBRANCH  65  78
ENDBRANCH  39  40
ENDBRANCH  31  34
ENDBRANCH  29  30
ENDBRANCH  28  29
ENDBRANCH  27  28
ENDBRANCH   1  27
TORSDOF 16
ENDMDL
MODEL 2
REMARK VINA RESULT:     -11.3      0.596      5.798
REMARK SMILES C[C@@H](C(=O)NCCCCCCNC(=O)c1ccc(-c2c3nc(c(-c4ccccc4)c4ccc([nH]4)c(-c4ccccc4)c4nc(c(-c5ccccc5)c5ccc2[nH]5)C=C4)C=C3)cc1)S(=O)(=O)N[C@@]12C[C@@H]3C[C@@](C)(C[C@@](C)(C3)C1)C2
REMARK SMILES IDX 8 1 7 2 6 3 5 4 3 5 4 6 2 8 1 9 63 10 64 11 65 12 66 13
REMARK SMILES IDX 67 15 68 16 77 17 78 18 69 19 74 20 71 21 76 22 70 23 73 24
REMARK SMILES IDX 75 25 72 26 9 27 10 28 11 29 12 30 13 31 14 33 15 34 16 35
REMARK SMILES IDX 62 36 17 37 61 38 18 39 19 40 20 41 55 42 21 43 60 44 54 45
REMARK SMILES IDX 56 46 22 47 59 48 53 49 52 50 23 52 45 53 30 54 44 55 31 56
REMARK SMILES IDX 34 57 43 58 57 59 32 60 33 61 42 63 58 64 35 65 24 66 25 67
REMARK SMILES IDX 29 68 26 69 28 70 27 71 46 72 47 73 51 74 48 75 50 76 49 77
REMARK SMILES IDX 36 78 37 79 41 80 38 81 40 82 39 83
REMARK H PARENT 5 7 66 14 12 32 56 51 34 62
REMARK Flexibility Score: inf
ROOT
ATOM      1  C   UNL A   1      35.041  20.325  25.002  1.00  0.00     0.002 C 
ENDROOT
BRANCH   1   2
ATOM      2  C   UNL A   1      33.904  20.748  25.946  1.00  0.00     0.021 C 
BRANCH   2   3
ATOM      3  C   UNL A   1      32.514  20.515  25.349  1.00  0.00     0.116 C 
BRANCH   3   4
ATOM      4  N   UNL A   1      31.715  21.712  25.505  1.00  0.00    -0.355 N 
ATOM      5  C   UNL A   1      31.696  22.893  24.819  1.00  0.00     0.239 C 
ATOM      6  O   UNL A   1      31.159  23.827  25.420  1.00  0.00    -0.274 OA
ATOM      7  H   UNL A   1      31.064  21.667  26.243  1.00  0.00     0.163 HD
BRANCH   5   8
ATOM      8  C   UNL A   1      32.222  22.998  23.395  1.00  0.00     0.209 C 
ATOM      9  C   UNL A   1      32.154  21.775  22.483  1.00  0.00     0.037 C 
BRANCH   8  10
ATOM     10  S   UNL A   1      33.900  23.723  23.428  1.00  0.00     0.223 S 
ATOM     11  O   UNL A   1      34.323  23.834  24.808  1.00  0.00    -0.212 OA
ATOM     12  O   UNL A   1      34.728  22.955  22.517  1.00  0.00    -0.212 OA
BRANCH  10  13
ATOM     13  N   UNL A   1      33.847  25.266  22.779  1.00  0.00    -0.208 NA
ATOM     14  H   UNL A   1      33.434  25.145  21.853  1.00  0.00     0.141 HD
BRANCH  13  15
ATOM     15  C   UNL A   1      33.173  26.458  23.337  1.00  0.00     0.034 C 
ATOM     16  C   UNL A   1      33.655  27.720  22.569  1.00  0.00     0.027 C 
ATOM     17  C   UNL A   1      31.657  26.367  23.079  1.00  0.00     0.030 C 
ATOM     18  C   UNL A   1      33.515  26.690  24.818  1.00  0.00     0.030 C 
ATOM     19  C   UNL A   1      32.936  28.982  23.100  1.00  0.00    -0.008 C 
ATOM     20  C   UNL A   1      30.912  27.579  23.673  1.00  0.00    -0.030 C 
ATOM     21  C   UNL A   1      32.781  27.918  25.383  1.00  0.00    -0.030 C 
ATOM     22  C   UNL A   1      31.411  28.835  22.928  1.00  0.00     0.010 C 
ATOM     23  C   UNL A   1      33.247  29.159  24.595  1.00  0.00     0.010 C 
ATOM     24  C   UNL A   1      31.262  27.723  25.175  1.00  0.00     0.013 C 
ATOM     25  C   UNL A   1      29.397  27.392  23.502  1.00  0.00     0.011 C 
ATOM     26  C   UNL A   1      33.104  28.062  26.875  1.00  0.00     0.011 C 
ENDBRANCH  13  15
ENDBRANCH  10  13
ENDBRANCH   8  10
ENDBRANCH   5   8
ENDBRANCH   3   4
ENDBRANCH   2   3
ENDBRANCH   1   2
BRANCH   1  27
ATOM     27  C   UNL A   1      36.388  21.010  25.271  1.00  0.00     0.002 C 
BRANCH  27  28
ATOM     28  C   UNL A   1      37.615  20.134  25.001  1.00  0.00     0.021 C 
BRANCH  28  29
ATOM     29  C   UNL A   1      38.882  20.603  25.711  1.00  0.00     0.116 C 
BRANCH  29  30
ATOM     30  N   UNL A   1      39.859  19.531  25.830  1.00  0.00    -0.352 N 
ATOM     31  C   UNL A   1      41.198  19.603  26.122  1.00  0.00     0.251 C 
ATOM     32  H   UNL A   1      39.509  18.623  25.678  1.00  0.00     0.163 HD
ATOM     33  O   UNL A   1      41.923  18.628  25.950  1.00  0.00    -0.269 OA
BRANCH  31  34
ATOM     34  C   UNL A   1      41.770  20.867  26.627  1.00  0.00     0.039 A 
ATOM     35  C   UNL A   1      42.216  21.822  25.711  1.00  0.00     0.014 A 
ATOM     36  C   UNL A   1      41.859  21.110  28.002  1.00  0.00     0.014 A 
ATOM     37  C   UNL A   1      42.677  23.057  26.172  1.00  0.00     0.010 A 
ATOM     38  C   UNL A   1      42.260  22.363  28.456  1.00  0.00     0.010 A 
ATOM     39  C   UNL A   1      42.659  23.354  27.546  1.00  0.00    -0.014 A 
BRANCH  39  40
ATOM     40  C   UNL A   1      42.993  24.712  28.041  1.00  0.00     0.031 A 
ATOM     41  C   UNL A   1      41.913  25.734  28.266  1.00  0.00     0.074 A 
ATOM     42  C   UNL A   1      44.288  25.049  28.208  1.00  0.00     0.049 A 
ATOM     43  N   UNL A   1      42.030  26.987  28.626  1.00  0.00    -0.248 NA
ATOM     44  C   UNL A   1      40.525  25.300  28.040  1.00  0.00     0.031 C 
ATOM     45  C   UNL A   1      45.432  24.162  27.977  1.00  0.00     0.029 A 
ATOM     46  N   UNL A   1      44.863  26.233  28.596  1.00  0.00    -0.354 N 
ATOM     47  C   UNL A   1      40.738  27.496  28.653  1.00  0.00     0.074 A 
ATOM     48  C   UNL A   1      39.854  26.426  28.242  1.00  0.00     0.031 C 
ATOM     49  C   UNL A   1      46.566  24.827  28.242  1.00  0.00     0.029 A 
ATOM     50  C   UNL A   1      46.237  26.198  28.616  1.00  0.00     0.049 A 
ATOM     51  H   UNL A   1      44.341  27.033  28.836  1.00  0.00     0.167 HD
ATOM     52  C   UNL A   1      40.327  28.737  28.999  1.00  0.00     0.031 A 
ATOM     53  C   UNL A   1      47.135  27.166  28.886  1.00  0.00     0.031 A 
ATOM     54  C   UNL A   1      41.205  29.795  29.425  1.00  0.00     0.049 A 
ATOM     55  C   UNL A   1      46.644  28.540  29.246  1.00  0.00     0.074 A 
ATOM     56  C   UNL A   1      40.871  31.059  29.878  1.00  0.00     0.029 A 
ATOM     57  N   UNL A   1      42.588  29.718  29.438  1.00  0.00    -0.354 N 
ATOM     58  N   UNL A   1      45.413  28.973  29.363  1.00  0.00    -0.248 NA
ATOM     59  C   UNL A   1      47.669  29.560  29.513  1.00  0.00     0.031 C 
ATOM     60  C   UNL A   1      42.053  31.769  30.104  1.00  0.00     0.029 A 
ATOM     61  C   UNL A   1      43.122  30.927  29.848  1.00  0.00     0.049 A 
ATOM     62  H   UNL A   1      43.112  28.921  29.192  1.00  0.00     0.167 HD
ATOM     63  C   UNL A   1      45.516  30.307  29.736  1.00  0.00     0.074 A 
ATOM     64  C   UNL A   1      46.927  30.604  29.853  1.00  0.00     0.031 C 
ATOM     65  C   UNL A   1      44.529  31.209  29.955  1.00  0.00     0.031 A 
BRANCH  52  66
ATOM     66  C   UNL A   1      38.855  29.040  28.932  1.00  0.00    -0.014 A 
ATOM     67  C   UNL A   1      38.045  28.965  30.075  1.00  0.00     0.009 A 
ATOM     68  C   UNL A   1      38.296  29.496  27.728  1.00  0.00     0.009 A 
ATOM     69  C   UNL A   1      36.697  29.328  30.007  1.00  0.00     0.001 A 
ATOM     70  C   UNL A   1      36.955  29.881  27.670  1.00  0.00     0.001 A 
ATOM     71  C   UNL A   1      36.157  29.792  28.809  1.00  0.00     0.000 A 
ENDBRANCH  52  66
BRANCH  53  72
ATOM     72  C   UNL A   1      48.593  26.886  28.800  1.00  0.00    -0.014 A 
ATOM     73  C   UNL A   1      49.302  26.430  29.922  1.00  0.00     0.009 A 
ATOM     74  C   UNL A   1      49.291  27.115  27.604  1.00  0.00     0.009 A 
ATOM     75  C   UNL A   1      50.685  26.248  29.859  1.00  0.00     0.001 A 
ATOM     76  C   UNL A   1      50.669  26.899  27.534  1.00  0.00     0.001 A 
ATOM     77  C   UNL A   1      51.367  26.480  28.665  1.00  0.00     0.000 A 
ENDBRANCH  53  72
BRANCH  65  78
ATOM     78  C   UNL A   1      44.943  32.596  30.357  1.00  0.00    -0.014 A 
ATOM     79  C   UNL A   1      45.158  32.925  31.705  1.00  0.00     0.009 A 
ATOM     80  C   UNL A   1      45.159  33.573  29.374  1.00  0.00     0.009 A 
ATOM     81  C   UNL A   1      45.551  34.216  32.061  1.00  0.00     0.001 A 
ATOM     82  C   UNL A   1      45.581  34.854  29.730  1.00  0.00     0.001 A 
ATOM     83  C   UNL A   1      45.768  35.177  31.074  1.00  0.00     0.000 A 
ENDBRANCH  65  78
ENDBRANCH  39  40
ENDBRANCH  31  34
ENDBRANCH  29  30
ENDBRANCH  28  29
ENDBRANCH  27  28
ENDBRANCH   1  27
TORSDOF 16
ENDMDL
MODEL 3
REMARK VINA RESULT:     -11.2      4.064      9.233
REMARK SMILES C[C@@H](C(=O)NCCCCCCNC(=O)c1ccc(-c2c3nc(c(-c4ccccc4)c4ccc([nH]4)c(-c4ccccc4)c4nc(c(-c5ccccc5)c5ccc2[nH]5)C=C4)C=C3)cc1)S(=O)(=O)N[C@@]12C[C@@H]3C[C@@](C)(C[C@@](C)(C3)C1)C2
REMARK SMILES IDX 8 1 7 2 6 3 5 4 3 5 4 6 2 8 1 9 63 10 64 11 65 12 66 13
REMARK SMILES IDX 67 15 68 16 77 17 78 18 69 19 74 20 71 21 76 22 70 23 73 24
REMARK SMILES IDX 75 25 72 26 9 27 10 28 11 29 12 30 13 31 14 33 15 34 16 35
REMARK SMILES IDX 62 36 17 37 61 38 18 39 19 40 20 41 55 42 21 43 60 44 54 45
REMARK SMILES IDX 56 46 22 47 59 48 53 49 52 50 23 52 45 53 30 54 44 55 31 56
REMARK SMILES IDX 34 57 43 58 57 59 32 60 33 61 42 63 58 64 35 65 24 66 25 67
REMARK SMILES IDX 29 68 26 69 28 70 27 71 46 72 47 73 51 74 48 75 50 76 49 77
REMARK SMILES IDX 36 78 37 79 41 80 38 81 40 82 39 83
REMARK H PARENT 5 7 66 14 12 32 56 51 34 62
REMARK Flexibility Score: inf
ROOT
ATOM      1  C   UNL A   1      32.977  29.984  26.464  1.00  0.00     0.002 C 
ENDROOT
BRANCH   1   2
ATOM      2  C   UNL A   1      32.937  28.530  26.962  1.00  0.00     0.021 C 
BRANCH   2   3
ATOM      3  C   UNL A   1      33.334  27.518  25.884  1.00  0.00     0.116 C 
BRANCH   3   4
ATOM      4  N   UNL A   1      33.816  28.223  24.714  1.00  0.00    -0.355 N 
ATOM      5  C   UNL A   1      33.540  28.080  23.385  1.00  0.00     0.239 C 
ATOM      6  O   UNL A   1      34.375  28.586  22.630  1.00  0.00    -0.274 OA
ATOM      7  H   UNL A   1      34.463  28.938  24.915  1.00  0.00     0.163 HD
BRANCH   5   8
ATOM      8  C   UNL A   1      32.256  27.423  22.902  1.00  0.00     0.209 C 
ATOM      9  C   UNL A   1      31.005  27.498  23.775  1.00  0.00     0.037 C 
BRANCH   8  10
ATOM     10  S   UNL A   1      32.618  25.706  22.387  1.00  0.00     0.223 S 
ATOM     11  O   UNL A   1      31.385  24.948  22.424  1.00  0.00    -0.212 OA
ATOM     12  O   UNL A   1      33.345  25.769  21.133  1.00  0.00    -0.212 OA
BRANCH  10  13
ATOM     13  N   UNL A   1      33.682  25.015  23.479  1.00  0.00    -0.208 NA
ATOM     14  H   UNL A   1      34.002  25.792  24.057  1.00  0.00     0.141 HD
BRANCH  13  15
ATOM     15  C   UNL A   1      33.410  23.921  24.436  1.00  0.00     0.034 C 
ATOM     16  C   UNL A   1      34.488  23.946  25.555  1.00  0.00     0.027 C 
ATOM     17  C   UNL A   1      32.066  24.175  25.147  1.00  0.00     0.030 C 
ATOM     18  C   UNL A   1      33.487  22.532  23.783  1.00  0.00     0.030 C 
ATOM     19  C   UNL A   1      34.207  22.840  26.599  1.00  0.00    -0.008 C 
ATOM     20  C   UNL A   1      31.730  23.040  26.134  1.00  0.00    -0.030 C 
ATOM     21  C   UNL A   1      33.173  21.414  24.792  1.00  0.00    -0.030 C 
ATOM     22  C   UNL A   1      32.816  23.048  27.230  1.00  0.00     0.010 C 
ATOM     23  C   UNL A   1      34.233  21.465  25.910  1.00  0.00     0.010 C 
ATOM     24  C   UNL A   1      31.777  21.677  25.400  1.00  0.00     0.013 C 
ATOM     25  C   UNL A   1      30.332  23.269  26.731  1.00  0.00     0.011 C 
ATOM     26  C   UNL A   1      33.198  20.059  24.074  1.00  0.00     0.011 C 
ENDBRANCH  13  15
ENDBRANCH  10  13
ENDBRANCH   8  10
ENDBRANCH   5   8
ENDBRANCH   3   4
ENDBRANCH   2   3
ENDBRANCH   1   2
BRANCH   1  27
ATOM     27  C   UNL A   1      31.609  30.579  26.104  1.00  0.00     0.002 C 
BRANCH  27  28
ATOM     28  C   UNL A   1      31.403  32.027  26.556  1.00  0.00     0.021 C 
BRANCH  28  29
ATOM     29  C   UNL A   1      32.616  32.640  27.251  1.00  0.00     0.116 C 
BRANCH  29  30
ATOM     30  N   UNL A   1      32.411  34.051  27.545  1.00  0.00    -0.352 N 
ATOM     31  C   UNL A   1      32.992  34.831  28.512  1.00  0.00     0.251 C 
ATOM     32  H   UNL A   1      31.762  34.511  26.966  1.00  0.00     0.163 HD
ATOM     33  O   UNL A   1      32.533  35.938  28.773  1.00  0.00    -0.269 OA
BRANCH  31  34
ATOM     34  C   UNL A   1      34.164  34.324  29.256  1.00  0.00     0.039 A 
ATOM     35  C   UNL A   1      33.967  33.712  30.495  1.00  0.00     0.014 A 
ATOM     36  C   UNL A   1      35.452  34.449  28.725  1.00  0.00     0.014 A 
ATOM     37  C   UNL A   1      35.054  33.150  31.167  1.00  0.00     0.010 A 
ATOM     38  C   UNL A   1      36.524  33.834  29.366  1.00  0.00     0.010 A 
ATOM     39  C   UNL A   1      36.334  33.166  30.585  1.00  0.00    -0.014 A 
BRANCH  39  40
ATOM     40  C   UNL A   1      37.467  32.438  31.207  1.00  0.00     0.031 A 
ATOM     41  C   UNL A   1      38.094  32.935  32.480  1.00  0.00     0.074 A 
ATOM     42  C   UNL A   1      37.986  31.368  30.571  1.00  0.00     0.049 A 
ATOM     43  N   UNL A   1      39.134  32.466  33.121  1.00  0.00    -0.248 NA
ATOM     44  C   UNL A   1      37.488  34.123  33.103  1.00  0.00     0.031 C 
ATOM     45  C   UNL A   1      37.497  30.814  29.304  1.00  0.00     0.029 A 
ATOM     46  N   UNL A   1      39.049  30.561  30.894  1.00  0.00    -0.354 N 
ATOM     47  C   UNL A   1      39.318  33.307  34.211  1.00  0.00     0.074 A 
ATOM     48  C   UNL A   1      38.303  34.336  34.127  1.00  0.00     0.031 C 
ATOM     49  C   UNL A   1      38.248  29.754  28.968  1.00  0.00     0.029 A 
ATOM     50  C   UNL A   1      39.297  29.578  29.966  1.00  0.00     0.049 A 
ATOM     51  H   UNL A   1      39.584  30.677  31.712  1.00  0.00     0.167 HD
ATOM     52  C   UNL A   1      40.242  33.222  35.196  1.00  0.00     0.031 A 
ATOM     53  C   UNL A   1      40.271  28.650  29.912  1.00  0.00     0.031 A 
ATOM     54  C   UNL A   1      41.239  32.189  35.288  1.00  0.00     0.049 A 
ATOM     55  C   UNL A   1      41.295  28.597  31.012  1.00  0.00     0.074 A 
ATOM     56  C   UNL A   1      42.162  31.973  36.296  1.00  0.00     0.029 A 
ATOM     57  N   UNL A   1      41.453  31.209  34.333  1.00  0.00    -0.354 N 
ATOM     58  N   UNL A   1      41.391  29.341  32.086  1.00  0.00    -0.248 NA
ATOM     59  C   UNL A   1      42.344  27.575  30.891  1.00  0.00     0.031 C 
ATOM     60  C   UNL A   1      42.976  30.901  35.921  1.00  0.00     0.029 A 
ATOM     61  C   UNL A   1      42.522  30.413  34.707  1.00  0.00     0.049 A 
ATOM     62  H   UNL A   1      40.923  31.095  33.511  1.00  0.00     0.167 HD
ATOM     63  C   UNL A   1      42.497  28.863  32.778  1.00  0.00     0.074 A 
ATOM     64  C   UNL A   1      43.022  27.750  32.017  1.00  0.00     0.031 C 
ATOM     65  C   UNL A   1      43.036  29.312  33.937  1.00  0.00     0.031 A 
BRANCH  52  66
ATOM     66  C   UNL A   1      40.234  34.279  36.266  1.00  0.00    -0.014 A 
ATOM     67  C   UNL A   1      40.995  35.450  36.136  1.00  0.00     0.009 A 
ATOM     68  C   UNL A   1      39.380  34.140  37.371  1.00  0.00     0.009 A 
ATOM     69  C   UNL A   1      40.912  36.455  37.104  1.00  0.00     0.001 A 
ATOM     70  C   UNL A   1      39.281  35.156  38.323  1.00  0.00     0.001 A 
ATOM     71  C   UNL A   1      40.050  36.311  38.190  1.00  0.00     0.000 A 
ENDBRANCH  52  66
BRANCH  53  72
ATOM     72  C   UNL A   1      40.351  27.707  28.765  1.00  0.00    -0.014 A 
ATOM     73  C   UNL A   1      41.072  28.045  27.609  1.00  0.00     0.009 A 
ATOM     74  C   UNL A   1      39.672  26.479  28.804  1.00  0.00     0.009 A 
ATOM     75  C   UNL A   1      41.076  27.193  26.503  1.00  0.00     0.001 A 
ATOM     76  C   UNL A   1      39.706  25.613  27.709  1.00  0.00     0.001 A 
ATOM     77  C   UNL A   1      40.396  25.977  26.555  1.00  0.00     0.000 A 
ENDBRANCH  53  72
BRANCH  65  78
ATOM     78  C   UNL A   1      44.245  28.588  34.458  1.00  0.00    -0.014 A 
ATOM     79  C   UNL A   1      45.540  29.069  34.208  1.00  0.00     0.009 A 
ATOM     80  C   UNL A   1      44.084  27.436  35.242  1.00  0.00     0.009 A 
ATOM     81  C   UNL A   1      46.652  28.389  34.707  1.00  0.00     0.001 A 
ATOM     82  C   UNL A   1      45.197  26.776  35.765  1.00  0.00     0.001 A 
ATOM     83  C   UNL A   1      46.479  27.248  35.489  1.00  0.00     0.000 A 
ENDBRANCH  65  78
ENDBRANCH  39  40
ENDBRANCH  31  34
ENDBRANCH  29  30
ENDBRANCH  28  29
ENDBRANCH  27  28
ENDBRANCH   1  27
TORSDOF 16
ENDMDL
