MODEL 1
REMARK VINA RESULT:     -11.4      0.000      0.000
REMARK SMILES O=C(NCCCCCCNC(=O)[C@H]1CCCN(C(=O)C2CC[NH+](Cc3ccco3)CC2)C1)c1ccc(-c2c3nc(c(-c4ccccc4)c4ccc([nH]4)c(-c4ccccc4)c4nc(c(-c5ccccc5)c5ccc2[nH]5)C=C4)C=C3)cc1
REMARK SMILES IDX 7 1 6 2 5 3 4 4 3 5 1 6 2 7 33 9 34 10 80 11 35 12 79 13
REMARK SMILES IDX 36 14 37 15 38 16 73 17 39 18 78 19 72 20 74 21 40 22 77 23
REMARK SMILES IDX 71 24 70 25 41 27 63 28 48 29 62 30 49 31 52 32 61 33 75 34
REMARK SMILES IDX 50 35 51 36 60 38 76 39 53 40 42 41 43 42 47 43 44 44 46 45
REMARK SMILES IDX 45 46 64 47 65 48 69 49 66 50 68 51 67 52 54 53 55 54 59 55
REMARK SMILES IDX 56 56 58 57 57 58 8 59 9 60 10 61 11 62 12 64 13 65 14 66
REMARK SMILES IDX 32 67 15 68 17 69 16 70 18 71 19 72 20 73 21 74 31 75 22 76
REMARK SMILES IDX 30 77 23 78 24 80 25 81 26 82 29 83 27 84 28 85
REMARK H PARENT 3 8 74 26 52 37 10 63 23 79
REMARK Flexibility Score: inf
ROOT
ATOM      1  C   UNL A   1      36.354  21.711  24.375  1.00  0.00     0.002 C 
ENDROOT
BRANCH   1   2
ATOM      2  C   UNL A   1      36.473  20.301  24.973  1.00  0.00     0.002 C 
BRANCH   2   3
ATOM      3  C   UNL A   1      37.838  19.633  24.786  1.00  0.00     0.021 C 
BRANCH   3   4
ATOM      4  C   UNL A   1      38.912  20.159  25.725  1.00  0.00     0.116 C 
BRANCH   4   5
ATOM      5  N   UNL A   1      40.065  19.276  25.766  1.00  0.00    -0.352 N 
ATOM      6  O   UNL A   1      42.268  18.784  25.812  1.00  0.00    -0.269 OA
ATOM      7  C   UNL A   1      41.377  19.589  26.032  1.00  0.00     0.251 C 
ATOM      8  H   UNL A   1      39.882  18.327  25.580  1.00  0.00     0.163 HD
BRANCH   7   9
ATOM      9  C   UNL A   1      41.696  20.922  26.588  1.00  0.00     0.039 A 
ATOM     10  C   UNL A   1      41.608  21.145  27.963  1.00  0.00     0.014 A 
ATOM     11  C   UNL A   1      42.093  21.952  25.730  1.00  0.00     0.014 A 
ATOM     12  C   UNL A   1      41.787  22.424  28.465  1.00  0.00     0.010 A 
ATOM     13  C   UNL A   1      42.370  23.218  26.251  1.00  0.00     0.010 A 
ATOM     14  C   UNL A   1      42.204  23.467  27.621  1.00  0.00    -0.014 A 
BRANCH  14  15
ATOM     15  C   UNL A   1      42.553  24.771  28.237  1.00  0.00     0.031 A 
ATOM     16  C   UNL A   1      43.969  25.127  28.586  1.00  0.00     0.074 A 
ATOM     17  C   UNL A   1      41.562  25.666  28.414  1.00  0.00     0.049 A 
ATOM     18  N   UNL A   1      44.437  26.261  29.043  1.00  0.00    -0.248 NA
ATOM     19  C   UNL A   1      44.990  24.084  28.409  1.00  0.00     0.031 C 
ATOM     20  C   UNL A   1      40.145  25.418  28.127  1.00  0.00     0.029 A 
ATOM     21  N   UNL A   1      41.591  26.970  28.832  1.00  0.00    -0.354 N 
ATOM     22  C   UNL A   1      45.800  26.067  29.220  1.00  0.00     0.074 A 
ATOM     23  C   UNL A   1      46.083  24.698  28.844  1.00  0.00     0.031 C 
ATOM     24  C   UNL A   1      39.454  26.553  28.305  1.00  0.00     0.029 A 
ATOM     25  C   UNL A   1      40.364  27.585  28.784  1.00  0.00     0.049 A 
ATOM     26  H   UNL A   1      42.411  27.422  29.137  1.00  0.00     0.167 HD
ATOM     27  C   UNL A   1      46.731  26.954  29.648  1.00  0.00     0.031 A 
ATOM     28  C   UNL A   1      40.003  28.842  29.097  1.00  0.00     0.031 A 
ATOM     29  C   UNL A   1      46.441  28.314  30.029  1.00  0.00     0.049 A 
ATOM     30  C   UNL A   1      41.055  29.797  29.574  1.00  0.00     0.074 A 
ATOM     31  C   UNL A   1      47.316  29.290  30.476  1.00  0.00     0.029 A 
ATOM     32  N   UNL A   1      45.181  28.890  30.004  1.00  0.00    -0.354 N 
ATOM     33  N   UNL A   1      42.343  29.600  29.716  1.00  0.00    -0.248 NA
ATOM     34  C   UNL A   1      40.603  31.146  29.934  1.00  0.00     0.031 C 
ATOM     35  C   UNL A   1      46.577  30.444  30.761  1.00  0.00     0.029 A 
ATOM     36  C   UNL A   1      45.251  30.203  30.441  1.00  0.00     0.049 A 
ATOM     37  H   UNL A   1      44.356  28.433  29.717  1.00  0.00     0.167 HD
ATOM     38  C   UNL A   1      42.858  30.800  30.181  1.00  0.00     0.074 A 
ATOM     39  C   UNL A   1      41.747  31.730  30.259  1.00  0.00     0.031 C 
ATOM     40  C   UNL A   1      44.132  31.104  30.527  1.00  0.00     0.031 A 
BRANCH  27  41
ATOM     41  C   UNL A   1      48.153  26.478  29.748  1.00  0.00    -0.014 A 
ATOM     42  C   UNL A   1      48.631  25.852  30.911  1.00  0.00     0.009 A 
ATOM     43  C   UNL A   1      49.013  26.605  28.644  1.00  0.00     0.009 A 
ATOM     44  C   UNL A   1      49.947  25.386  30.974  1.00  0.00     0.001 A 
ATOM     45  C   UNL A   1      50.320  26.117  28.703  1.00  0.00     0.001 A 
ATOM     46  C   UNL A   1      50.788  25.513  29.869  1.00  0.00     0.000 A 
ENDBRANCH  27  41
BRANCH  28  47
ATOM     47  C   UNL A   1      38.580  29.252  28.988  1.00  0.00    -0.014 A 
ATOM     48  C   UNL A   1      38.055  29.712  27.772  1.00  0.00     0.009 A 
ATOM     49  C   UNL A   1      37.735  29.171  30.107  1.00  0.00     0.009 A 
ATOM     50  C   UNL A   1      36.716  30.104  27.686  1.00  0.00     0.001 A 
ATOM     51  C   UNL A   1      36.391  29.532  30.008  1.00  0.00     0.001 A 
ATOM     52  C   UNL A   1      35.885  30.008  28.801  1.00  0.00     0.000 A 
ENDBRANCH  28  47
BRANCH  40  53
ATOM     53  C   UNL A   1      44.379  32.504  31.009  1.00  0.00    -0.014 A 
ATOM     54  C   UNL A   1      44.700  33.533  30.110  1.00  0.00     0.009 A 
ATOM     55  C   UNL A   1      44.291  32.796  32.378  1.00  0.00     0.009 A 
ATOM     56  C   UNL A   1      44.975  34.819  30.578  1.00  0.00     0.001 A 
ATOM     57  C   UNL A   1      44.538  34.090  32.841  1.00  0.00     0.001 A 
ATOM     58  C   UNL A   1      44.891  35.096  31.942  1.00  0.00     0.000 A 
ENDBRANCH  40  53
ENDBRANCH  14  15
ENDBRANCH   7   9
ENDBRANCH   4   5
ENDBRANCH   3   4
ENDBRANCH   2   3
ENDBRANCH   1   2
BRANCH   1  59
ATOM     59  C   UNL A   1      35.681  22.749  25.282  1.00  0.00     0.021 C 
BRANCH  59  60
ATOM     60  C   UNL A   1      35.009  22.144  26.516  1.00  0.00     0.116 C 
BRANCH  60  61
ATOM     61  N   UNL A   1      33.733  21.542  26.194  1.00  0.00    -0.356 N 
ATOM     62  C   UNL A   1      32.614  21.957  25.564  1.00  0.00     0.224 C 
ATOM     63  H   UNL A   1      33.665  20.612  26.508  1.00  0.00     0.163 HD
ATOM     64  O   UNL A   1      31.784  21.066  25.335  1.00  0.00    -0.275 OA
BRANCH  62  65
ATOM     65  C   UNL A   1      32.254  23.401  25.212  1.00  0.00     0.098 C 
ATOM     66  C   UNL A   1      31.029  23.323  24.277  1.00  0.00     0.017 C 
ATOM     67  C   UNL A   1      32.063  24.408  26.349  1.00  0.00     0.133 C 
ATOM     68  C   UNL A   1      30.513  24.704  23.915  1.00  0.00     0.022 C 
ATOM     69  N   UNL A   1      31.442  25.672  25.948  1.00  0.00    -0.342 N 
ATOM     70  C   UNL A   1      30.233  25.459  25.193  1.00  0.00     0.119 C 
BRANCH  69  71
ATOM     71  C   UNL A   1      31.843  26.855  26.543  1.00  0.00     0.226 C 
ATOM     72  O   UNL A   1      31.391  27.153  27.660  1.00  0.00    -0.275 OA
BRANCH  71  73
ATOM     73  C   UNL A   1      32.789  27.889  25.877  1.00  0.00     0.090 C 
ATOM     74  C   UNL A   1      32.261  29.318  25.948  1.00  0.00     0.075 C 
ATOM     75  C   UNL A   1      33.439  27.607  24.524  1.00  0.00     0.075 C 
ATOM     76  C   UNL A   1      31.314  29.623  24.803  1.00  0.00     0.263 C 
ATOM     77  C   UNL A   1      32.819  28.289  23.285  1.00  0.00     0.263 C 
ATOM     78  N   UNL A   1      31.893  29.402  23.485  1.00  0.00    -0.329 N 
ATOM     79  H   UNL A   1      32.554  30.179  23.471  1.00  0.00     0.348 HD
BRANCH  78  80
ATOM     80  C   UNL A   1      30.952  29.610  22.363  1.00  0.00     0.338 C 
BRANCH  80  81
ATOM     81  C   UNL A   1      29.537  29.967  22.730  1.00  0.00     0.157 A 
ATOM     82  C   UNL A   1      28.935  31.141  23.151  1.00  0.00     0.052 A 
ATOM     83  O   UNL A   1      28.589  28.986  22.624  1.00  0.00    -0.463 OA
ATOM     84  C   UNL A   1      27.561  30.855  23.340  1.00  0.00     0.042 A 
ATOM     85  C   UNL A   1      27.398  29.537  22.983  1.00  0.00     0.195 A 
ENDBRANCH  80  81
ENDBRANCH  78  80
ENDBRANCH  71  73
ENDBRANCH  69  71
ENDBRANCH  62  65
ENDBRANCH  60  61
ENDBRANCH  59  60
ENDBRANCH   1  59
TORSDOF 17
ENDMDL
MODEL 2
REMARK VINA RESULT:     -11.2      1.801      2.862
REMARK SMILES O=C(NCCCCCCNC(=O)[C@H]1CCCN(C(=O)C2CC[NH+](Cc3ccco3)CC2)C1)c1ccc(-c2c3nc(c(-c4ccccc4)c4ccc([nH]4)c(-c4ccccc4)c4nc(c(-c5ccccc5)c5ccc2[nH]5)C=C4)C=C3)cc1
REMARK SMILES IDX 7 1 6 2 5 3 4 4 3 5 1 6 2 7 33 9 34 10 80 11 35 12 79 13
REMARK SMILES IDX 36 14 37 15 38 16 73 17 39 18 78 19 72 20 74 21 40 22 77 23
REMARK SMILES IDX 71 24 70 25 41 27 63 28 48 29 62 30 49 31 52 32 61 33 75 34
REMARK SMILES IDX 50 35 51 36 60 38 76 39 53 40 42 41 43 42 47 43 44 44 46 45
REMARK SMILES IDX 45 46 64 47 65 48 69 49 66 50 68 51 67 52 54 53 55 54 59 55
REMARK SMILES IDX 56 56 58 57 57 58 8 59 9 60 10 61 11 62 12 64 13 65 14 66
REMARK SMILES IDX 32 67 15 68 17 69 16 70 18 71 19 72 20 73 21 74 31 75 22 76
REMARK SMILES IDX 30 77 23 78 24 80 25 81 26 82 29 83 27 84 28 85
REMARK H PARENT 3 8 74 26 52 37 10 63 23 79
REMARK Flexibility Score: inf
ROOT
ATOM      1  C   UNL A   1      37.156  21.906  24.562  1.00  0.00     0.002 C 
ENDROOT
BRANCH   1   2
ATOM      2  C   UNL A   1      36.752  20.471  24.932  1.00  0.00     0.002 C 
BRANCH   2   3
ATOM      3  C   UNL A   1      37.911  19.475  25.015  1.00  0.00     0.021 C 
BRANCH   3   4
ATOM      4  C   UNL A   1      39.144  20.024  25.713  1.00  0.00     0.116 C 
BRANCH   4   5
ATOM      5  N   UNL A   1      40.195  19.025  25.809  1.00  0.00    -0.352 N 
ATOM      6  O   UNL A   1      42.331  18.298  25.866  1.00  0.00    -0.269 OA
ATOM      7  C   UNL A   1      41.538  19.211  26.035  1.00  0.00     0.251 C 
ATOM      8  H   UNL A   1      39.906  18.091  25.697  1.00  0.00     0.163 HD
BRANCH   7   9
ATOM      9  C   UNL A   1      42.011  20.538  26.484  1.00  0.00     0.039 A 
ATOM     10  C   UNL A   1      42.373  21.505  25.544  1.00  0.00     0.014 A 
ATOM     11  C   UNL A   1      42.084  20.820  27.851  1.00  0.00     0.014 A 
ATOM     12  C   UNL A   1      42.932  22.700  25.968  1.00  0.00     0.010 A 
ATOM     13  C   UNL A   1      42.554  22.065  28.276  1.00  0.00     0.010 A 
ATOM     14  C   UNL A   1      42.996  23.009  27.338  1.00  0.00    -0.014 A 
BRANCH  14  15
ATOM     15  C   UNL A   1      43.436  24.370  27.730  1.00  0.00     0.031 A 
ATOM     16  C   UNL A   1      44.869  24.801  27.619  1.00  0.00     0.074 A 
ATOM     17  C   UNL A   1      42.491  25.243  28.131  1.00  0.00     0.049 A 
ATOM     18  N   UNL A   1      45.386  25.984  27.837  1.00  0.00    -0.248 NA
ATOM     19  C   UNL A   1      45.851  23.782  27.220  1.00  0.00     0.031 C 
ATOM     20  C   UNL A   1      41.068  24.925  28.295  1.00  0.00     0.029 A 
ATOM     21  N   UNL A   1      42.567  26.577  28.430  1.00  0.00    -0.354 N 
ATOM     22  C   UNL A   1      46.750  25.852  27.615  1.00  0.00     0.074 A 
ATOM     23  C   UNL A   1      46.986  24.466  27.268  1.00  0.00     0.031 C 
ATOM     24  C   UNL A   1      40.397  26.046  28.590  1.00  0.00     0.029 A 
ATOM     25  C   UNL A   1      41.347  27.145  28.706  1.00  0.00     0.049 A 
ATOM     26  H   UNL A   1      43.414  27.080  28.447  1.00  0.00     0.167 HD
ATOM     27  C   UNL A   1      47.713  26.801  27.686  1.00  0.00     0.031 A 
ATOM     28  C   UNL A   1      41.023  28.411  29.024  1.00  0.00     0.031 A 
ATOM     29  C   UNL A   1      47.472  28.177  28.040  1.00  0.00     0.049 A 
ATOM     30  C   UNL A   1      42.113  29.437  29.101  1.00  0.00     0.074 A 
ATOM     31  C   UNL A   1      48.382  29.216  28.140  1.00  0.00     0.029 A 
ATOM     32  N   UNL A   1      46.229  28.707  28.350  1.00  0.00    -0.354 N 
ATOM     33  N   UNL A   1      43.396  29.295  28.868  1.00  0.00    -0.248 NA
ATOM     34  C   UNL A   1      41.711  30.795  29.485  1.00  0.00     0.031 C 
ATOM     35  C   UNL A   1      47.695  30.364  28.551  1.00  0.00     0.029 A 
ATOM     36  C   UNL A   1      46.349  30.053  28.656  1.00  0.00     0.049 A 
ATOM     37  H   UNL A   1      45.383  28.200  28.354  1.00  0.00     0.167 HD
ATOM     38  C   UNL A   1      43.955  30.547  29.076  1.00  0.00     0.074 A 
ATOM     39  C   UNL A   1      42.866  31.442  29.414  1.00  0.00     0.031 C 
ATOM     40  C   UNL A   1      45.256  30.920  29.007  1.00  0.00     0.031 A 
BRANCH  27  41
ATOM     41  C   UNL A   1      49.127  26.383  27.393  1.00  0.00    -0.014 A 
ATOM     42  C   UNL A   1      49.620  26.359  26.078  1.00  0.00     0.009 A 
ATOM     43  C   UNL A   1      49.996  26.062  28.449  1.00  0.00     0.009 A 
ATOM     44  C   UNL A   1      50.947  26.000  25.827  1.00  0.00     0.001 A 
ATOM     45  C   UNL A   1      51.327  25.725  28.195  1.00  0.00     0.001 A 
ATOM     46  C   UNL A   1      51.800  25.689  26.885  1.00  0.00     0.000 A 
ENDBRANCH  27  41
BRANCH  28  47
ATOM     47  C   UNL A   1      39.610  28.762  29.313  1.00  0.00    -0.014 A 
ATOM     48  C   UNL A   1      38.764  29.233  28.300  1.00  0.00     0.009 A 
ATOM     49  C   UNL A   1      39.098  28.614  30.613  1.00  0.00     0.009 A 
ATOM     50  C   UNL A   1      37.439  29.570  28.588  1.00  0.00     0.001 A 
ATOM     51  C   UNL A   1      37.765  28.920  30.890  1.00  0.00     0.001 A 
ATOM     52  C   UNL A   1      36.939  29.407  29.880  1.00  0.00     0.000 A 
ENDBRANCH  28  47
BRANCH  40  53
ATOM     53  C   UNL A   1      45.554  32.363  29.296  1.00  0.00    -0.014 A 
ATOM     54  C   UNL A   1      45.892  32.787  30.591  1.00  0.00     0.009 A 
ATOM     55  C   UNL A   1      45.493  33.309  28.263  1.00  0.00     0.009 A 
ATOM     56  C   UNL A   1      46.119  34.138  30.855  1.00  0.00     0.001 A 
ATOM     57  C   UNL A   1      45.748  34.656  28.523  1.00  0.00     0.001 A 
ATOM     58  C   UNL A   1      46.049  35.070  29.820  1.00  0.00     0.000 A 
ENDBRANCH  40  53
ENDBRANCH  14  15
ENDBRANCH   7   9
ENDBRANCH   4   5
ENDBRANCH   3   4
ENDBRANCH   2   3
ENDBRANCH   1   2
BRANCH   1  59
ATOM     59  C   UNL A   1      36.017  22.934  24.595  1.00  0.00     0.021 C 
BRANCH  59  60
ATOM     60  C   UNL A   1      35.880  23.657  25.935  1.00  0.00     0.116 C 
BRANCH  60  61
ATOM     61  N   UNL A   1      34.604  23.391  26.564  1.00  0.00    -0.356 N 
ATOM     62  C   UNL A   1      33.327  23.305  26.133  1.00  0.00     0.224 C 
ATOM     63  H   UNL A   1      34.685  23.237  27.533  1.00  0.00     0.163 HD
ATOM     64  O   UNL A   1      32.521  22.881  26.973  1.00  0.00    -0.275 OA
BRANCH  62  65
ATOM     65  C   UNL A   1      32.796  23.766  24.775  1.00  0.00     0.098 C 
ATOM     66  C   UNL A   1      31.313  23.341  24.728  1.00  0.00     0.017 C 
ATOM     67  C   UNL A   1      33.002  25.227  24.364  1.00  0.00     0.133 C 
ATOM     68  C   UNL A   1      30.636  23.815  23.455  1.00  0.00     0.022 C 
ATOM     69  N   UNL A   1      32.218  25.651  23.202  1.00  0.00    -0.342 N 
ATOM     70  C   UNL A   1      30.825  25.310  23.342  1.00  0.00     0.119 C 
BRANCH  69  71
ATOM     71  C   UNL A   1      32.759  26.546  22.297  1.00  0.00     0.226 C 
ATOM     72  O   UNL A   1      33.600  26.142  21.478  1.00  0.00    -0.275 OA
BRANCH  71  73
ATOM     73  C   UNL A   1      32.433  28.062  22.267  1.00  0.00     0.090 C 
ATOM     74  C   UNL A   1      33.556  28.929  22.825  1.00  0.00     0.075 C 
ATOM     75  C   UNL A   1      31.065  28.583  22.704  1.00  0.00     0.075 C 
ATOM     76  C   UNL A   1      33.468  29.059  24.334  1.00  0.00     0.263 C 
ATOM     77  C   UNL A   1      30.962  29.211  24.111  1.00  0.00     0.263 C 
ATOM     78  N   UNL A   1      32.193  29.583  24.806  1.00  0.00    -0.329 N 
ATOM     79  H   UNL A   1      32.288  30.546  24.481  1.00  0.00     0.348 HD
BRANCH  78  80
ATOM     80  C   UNL A   1      32.061  29.630  26.279  1.00  0.00     0.338 C 
BRANCH  80  81
ATOM     81  C   UNL A   1      32.927  30.627  26.999  1.00  0.00     0.157 A 
ATOM     82  C   UNL A   1      34.196  30.558  27.550  1.00  0.00     0.052 A 
ATOM     83  O   UNL A   1      32.435  31.894  27.157  1.00  0.00    -0.463 OA
ATOM     84  C   UNL A   1      34.479  31.833  28.095  1.00  0.00     0.042 A 
ATOM     85  C   UNL A   1      33.386  32.617  27.810  1.00  0.00     0.195 A 
ENDBRANCH  80  81
ENDBRANCH  78  80
ENDBRANCH  71  73
ENDBRANCH  69  71
ENDBRANCH  62  65
ENDBRANCH  60  61
ENDBRANCH  59  60
ENDBRANCH   1  59
TORSDOF 17
ENDMDL
MODEL 3
REMARK VINA RESULT:     -11.1      1.654      2.273
REMARK SMILES O=C(NCCCCCCNC(=O)[C@H]1CCCN(C(=O)C2CC[NH+](Cc3ccco3)CC2)C1)c1ccc(-c2c3nc(c(-c4ccccc4)c4ccc([nH]4)c(-c4ccccc4)c4nc(c(-c5ccccc5)c5ccc2[nH]5)C=C4)C=C3)cc1
REMARK SMILES IDX 7 1 6 2 5 3 4 4 3 5 1 6 2 7 33 9 34 10 80 11 35 12 79 13
REMARK SMILES IDX 36 14 37 15 38 16 73 17 39 18 78 19 72 20 74 21 40 22 77 23
REMARK SMILES IDX 71 24 70 25 41 27 63 28 48 29 62 30 49 31 52 32 61 33 75 34
REMARK SMILES IDX 50 35 51 36 60 38 76 39 53 40 42 41 43 42 47 43 44 44 46 45
REMARK SMILES IDX 45 46 64 47 65 48 69 49 66 50 68 51 67 52 54 53 55 54 59 55
REMARK SMILES IDX 56 56 58 57 57 58 8 59 9 60 10 61 11 62 12 64 13 65 14 66
REMARK SMILES IDX 32 67 15 68 17 69 16 70 18 71 19 72 20 73 21 74 31 75 22 76
REMARK SMILES IDX 30 77 23 78 24 80 25 81 26 82 29 83 27 84 28 85
REMARK H PARENT 3 8 74 26 52 37 10 63 23 79
REMARK Flexibility Score: inf
ROOT
ATOM      1  C   UNL A   1      37.030  21.868  24.032  1.00  0.00     0.002 C 
ENDROOT
BRANCH   1   2
ATOM      2  C   UNL A   1      36.658  20.628  24.859  1.00  0.00     0.002 C 
BRANCH   2   3
ATOM      3  C   UNL A   1      37.774  19.592  25.009  1.00  0.00     0.021 C 
BRANCH   3   4
ATOM      4  C   UNL A   1      38.993  20.107  25.759  1.00  0.00     0.116 C 
BRANCH   4   5
ATOM      5  N   UNL A   1      40.050  19.111  25.809  1.00  0.00    -0.352 N 
ATOM      6  O   UNL A   1      42.190  18.393  25.796  1.00  0.00    -0.269 OA
ATOM      7  C   UNL A   1      41.398  19.299  26.001  1.00  0.00     0.251 C 
ATOM      8  H   UNL A   1      39.762  18.177  25.690  1.00  0.00     0.163 HD
BRANCH   7   9
ATOM      9  C   UNL A   1      41.877  20.621  26.458  1.00  0.00     0.039 A 
ATOM     10  C   UNL A   1      42.173  21.618  25.526  1.00  0.00     0.014 A 
ATOM     11  C   UNL A   1      42.024  20.868  27.826  1.00  0.00     0.014 A 
ATOM     12  C   UNL A   1      42.738  22.810  25.950  1.00  0.00     0.010 A 
ATOM     13  C   UNL A   1      42.500  22.109  28.258  1.00  0.00     0.010 A 
ATOM     14  C   UNL A   1      42.875  23.084  27.321  1.00  0.00    -0.014 A 
BRANCH  14  15
ATOM     15  C   UNL A   1      43.318  24.441  27.725  1.00  0.00     0.031 A 
ATOM     16  C   UNL A   1      44.751  24.872  27.608  1.00  0.00     0.074 A 
ATOM     17  C   UNL A   1      42.376  25.310  28.140  1.00  0.00     0.049 A 
ATOM     18  N   UNL A   1      45.269  26.053  27.836  1.00  0.00    -0.248 NA
ATOM     19  C   UNL A   1      45.729  23.857  27.193  1.00  0.00     0.031 C 
ATOM     20  C   UNL A   1      40.954  24.991  28.309  1.00  0.00     0.029 A 
ATOM     21  N   UNL A   1      42.455  26.641  28.452  1.00  0.00    -0.354 N 
ATOM     22  C   UNL A   1      46.632  25.922  27.604  1.00  0.00     0.074 A 
ATOM     23  C   UNL A   1      46.866  24.540  27.241  1.00  0.00     0.031 C 
ATOM     24  C   UNL A   1      40.286  26.109  28.621  1.00  0.00     0.029 A 
ATOM     25  C   UNL A   1      41.237  27.206  28.741  1.00  0.00     0.049 A 
ATOM     26  H   UNL A   1      43.302  27.143  28.469  1.00  0.00     0.167 HD
ATOM     27  C   UNL A   1      47.596  26.871  27.679  1.00  0.00     0.031 A 
ATOM     28  C   UNL A   1      40.915  28.469  29.074  1.00  0.00     0.031 A 
ATOM     29  C   UNL A   1      47.357  28.243  28.048  1.00  0.00     0.049 A 
ATOM     30  C   UNL A   1      42.006  29.494  29.155  1.00  0.00     0.074 A 
ATOM     31  C   UNL A   1      48.269  29.281  28.152  1.00  0.00     0.029 A 
ATOM     32  N   UNL A   1      46.116  28.770  28.371  1.00  0.00    -0.354 N 
ATOM     33  N   UNL A   1      43.287  29.354  28.912  1.00  0.00    -0.248 NA
ATOM     34  C   UNL A   1      41.607  30.848  29.555  1.00  0.00     0.031 C 
ATOM     35  C   UNL A   1      47.585  30.425  28.579  1.00  0.00     0.029 A 
ATOM     36  C   UNL A   1      46.239  30.113  28.689  1.00  0.00     0.049 A 
ATOM     37  H   UNL A   1      45.271  28.264  28.374  1.00  0.00     0.167 HD
ATOM     38  C   UNL A   1      43.848  30.603  29.130  1.00  0.00     0.074 A 
ATOM     39  C   UNL A   1      42.761  31.495  29.484  1.00  0.00     0.031 C 
ATOM     40  C   UNL A   1      45.148  30.977  29.056  1.00  0.00     0.031 A 
BRANCH  27  41
ATOM     41  C   UNL A   1      49.008  26.455  27.372  1.00  0.00    -0.014 A 
ATOM     42  C   UNL A   1      49.864  25.988  28.382  1.00  0.00     0.009 A 
ATOM     43  C   UNL A   1      49.472  26.478  26.046  1.00  0.00     0.009 A 
ATOM     44  C   UNL A   1      51.163  25.574  28.074  1.00  0.00     0.001 A 
ATOM     45  C   UNL A   1      50.763  26.042  25.739  1.00  0.00     0.001 A 
ATOM     46  C   UNL A   1      51.608  25.596  26.753  1.00  0.00     0.000 A 
ENDBRANCH  27  41
BRANCH  28  47
ATOM     47  C   UNL A   1      39.504  28.818  29.376  1.00  0.00    -0.014 A 
ATOM     48  C   UNL A   1      38.653  29.303  28.374  1.00  0.00     0.009 A 
ATOM     49  C   UNL A   1      38.999  28.652  30.676  1.00  0.00     0.009 A 
ATOM     50  C   UNL A   1      37.330  29.638  28.673  1.00  0.00     0.001 A 
ATOM     51  C   UNL A   1      37.668  28.955  30.964  1.00  0.00     0.001 A 
ATOM     52  C   UNL A   1      36.837  29.458  29.966  1.00  0.00     0.000 A 
ENDBRANCH  28  47
BRANCH  40  53
ATOM     53  C   UNL A   1      45.448  32.417  29.358  1.00  0.00    -0.014 A 
ATOM     54  C   UNL A   1      45.758  32.833  30.663  1.00  0.00     0.009 A 
ATOM     55  C   UNL A   1      45.420  33.367  28.327  1.00  0.00     0.009 A 
ATOM     56  C   UNL A   1      45.987  34.183  30.937  1.00  0.00     0.001 A 
ATOM     57  C   UNL A   1      45.677  34.711  28.599  1.00  0.00     0.001 A 
ATOM     58  C   UNL A   1      45.949  35.119  29.904  1.00  0.00     0.000 A 
ENDBRANCH  40  53
ENDBRANCH  14  15
ENDBRANCH   7   9
ENDBRANCH   4   5
ENDBRANCH   3   4
ENDBRANCH   2   3
ENDBRANCH   1   2
BRANCH   1  59
ATOM     59  C   UNL A   1      36.298  23.157  24.426  1.00  0.00     0.021 C 
BRANCH  59  60
ATOM     60  C   UNL A   1      36.753  23.738  25.765  1.00  0.00     0.116 C 
BRANCH  60  61
ATOM     61  N   UNL A   1      35.895  23.320  26.853  1.00  0.00    -0.356 N 
ATOM     62  C   UNL A   1      34.583  23.028  26.976  1.00  0.00     0.224 C 
ATOM     63  H   UNL A   1      36.382  23.226  27.703  1.00  0.00     0.163 HD
ATOM     64  O   UNL A   1      34.259  22.532  28.065  1.00  0.00    -0.275 OA
BRANCH  62  65
ATOM     65  C   UNL A   1      33.485  23.340  25.958  1.00  0.00     0.098 C 
ATOM     66  C   UNL A   1      32.871  21.982  25.558  1.00  0.00     0.017 C 
ATOM     67  C   UNL A   1      32.423  24.382  26.320  1.00  0.00     0.133 C 
ATOM     68  C   UNL A   1      31.703  22.157  24.605  1.00  0.00     0.022 C 
ATOM     69  N   UNL A   1      31.261  24.406  25.429  1.00  0.00    -0.342 N 
ATOM     70  C   UNL A   1      30.702  23.091  25.243  1.00  0.00     0.119 C 
BRANCH  69  71
ATOM     71  C   UNL A   1      30.653  25.611  25.125  1.00  0.00     0.226 C 
ATOM     72  O   UNL A   1      30.660  26.521  25.968  1.00  0.00    -0.275 OA
BRANCH  71  73
ATOM     73  C   UNL A   1      29.891  25.894  23.803  1.00  0.00     0.090 C 
ATOM     74  C   UNL A   1      30.760  26.556  22.740  1.00  0.00     0.075 C 
ATOM     75  C   UNL A   1      28.484  26.490  23.816  1.00  0.00     0.075 C 
ATOM     76  C   UNL A   1      30.797  28.063  22.905  1.00  0.00     0.263 C 
ATOM     77  C   UNL A   1      28.350  27.996  23.503  1.00  0.00     0.263 C 
ATOM     78  N   UNL A   1      29.483  28.690  22.891  1.00  0.00    -0.329 N 
ATOM     79  H   UNL A   1      29.253  28.556  21.906  1.00  0.00     0.348 HD
BRANCH  78  80
ATOM     80  C   UNL A   1      29.499  30.148  23.141  1.00  0.00     0.338 C 
BRANCH  80  81
ATOM     81  C   UNL A   1      28.822  31.013  22.113  1.00  0.00     0.157 A 
ATOM     82  C   UNL A   1      28.199  30.740  20.906  1.00  0.00     0.052 A 
ATOM     83  O   UNL A   1      28.744  32.355  22.367  1.00  0.00    -0.463 OA
ATOM     84  C   UNL A   1      27.747  31.976  20.387  1.00  0.00     0.042 A 
ATOM     85  C   UNL A   1      28.082  32.925  21.324  1.00  0.00     0.195 A 
ENDBRANCH  80  81
ENDBRANCH  78  80
ENDBRANCH  71  73
ENDBRANCH  69  71
ENDBRANCH  62  65
ENDBRANCH  60  61
ENDBRANCH  59  60
ENDBRANCH   1  59
TORSDOF 17
ENDMDL
