MODEL 1
REMARK VINA RESULT:      -9.7      0.000      0.000
REMARK SMILES CCCCCCC(=O)N1CCCC[C@H]1C(=O)NCCCCCCNC(=O)c1ccc(-c2c3nc(c(-c4ccccc4)c4ccc([nH]4)c(-c4ccccc4)c4nc(c(-c5ccccc5)c5ccc2[nH]5)C=C4)C=C3)cc1
REMARK SMILES IDX 18 1 17 2 15 3 16 4 14 6 9 7 10 8 11 9 13 10 12 11 7 12 8 13
REMARK SMILES IDX 6 14 5 15 4 16 3 17 2 18 1 19 19 20 20 21 21 22 22 23 23 24
REMARK SMILES IDX 24 25 25 26 26 28 27 29 28 30 74 31 29 32 73 33 30 34 31 35
REMARK SMILES IDX 32 36 67 37 33 38 72 39 66 40 68 41 34 42 71 43 65 44 64 45
REMARK SMILES IDX 35 47 57 48 42 49 56 50 43 51 46 52 55 53 69 54 44 55 45 56
REMARK SMILES IDX 54 58 70 59 47 60 36 61 37 62 41 63 38 64 40 65 39 66 58 67
REMARK SMILES IDX 59 68 63 69 60 70 62 71 61 72 48 73 49 74 53 75 50 76 52 77
REMARK SMILES IDX 51 78
REMARK H PARENT 17 5 24 27 68 46 46 57
REMARK Flexibility Score: inf
ROOT
ATOM      1  C   UNL A   1      33.438  27.748  26.660  1.00  0.00     0.116 C 
ENDROOT
BRANCH   1   2
ATOM      2  N   UNL A   1      32.210  27.008  26.883  1.00  0.00    -0.354 N 
ATOM      3  C   UNL A   1      31.806  25.798  26.391  1.00  0.00     0.242 C 
ATOM      4  O   UNL A   1      30.778  25.319  26.876  1.00  0.00    -0.273 OA
ATOM      5  H   UNL A   1      31.564  27.446  27.483  1.00  0.00     0.163 HD
BRANCH   3   6
ATOM      6  C   UNL A   1      32.580  25.123  25.231  1.00  0.00     0.174 C 
ATOM      7  N   UNL A   1      32.389  23.665  25.181  1.00  0.00    -0.331 N 
ATOM      8  C   UNL A   1      31.116  23.176  24.660  1.00  0.00     0.120 C 
ATOM      9  C   UNL A   1      30.744  23.816  23.330  1.00  0.00     0.022 C 
ATOM     10  C   UNL A   1      32.207  25.772  23.887  1.00  0.00     0.035 C 
ATOM     11  C   UNL A   1      30.827  25.337  23.404  1.00  0.00     0.004 C 
BRANCH   7  12
ATOM     12  C   UNL A   1      33.416  22.758  25.361  1.00  0.00     0.223 C 
ATOM     13  O   UNL A   1      33.864  22.508  26.482  1.00  0.00    -0.275 OA
BRANCH  12  14
ATOM     14  C   UNL A   1      34.152  22.271  24.114  1.00  0.00     0.100 C 
BRANCH  14  15
ATOM     15  C   UNL A   1      35.029  23.253  23.343  1.00  0.00     0.010 C 
BRANCH  15  16
ATOM     16  C   UNL A   1      36.503  22.878  23.182  1.00  0.00     0.001 C 
BRANCH  16  17
ATOM     17  C   UNL A   1      37.129  21.997  24.268  1.00  0.00    -0.000 C 
BRANCH  17  18
ATOM     18  C   UNL A   1      37.673  22.775  25.465  1.00  0.00    -0.003 C 
ATOM     19  C   UNL A   1      38.881  22.117  26.119  1.00  0.00     0.004 C 
ENDBRANCH  17  18
ENDBRANCH  16  17
ENDBRANCH  15  16
ENDBRANCH  14  15
ENDBRANCH  12  14
ENDBRANCH   7  12
ENDBRANCH   3   6
ENDBRANCH   1   2
BRANCH   1  20
ATOM     20  C   UNL A   1      33.255  29.252  26.829  1.00  0.00     0.021 C 
BRANCH  20  21
ATOM     21  C   UNL A   1      31.799  29.732  26.836  1.00  0.00     0.002 C 
BRANCH  21  22
ATOM     22  C   UNL A   1      31.461  30.869  25.867  1.00  0.00     0.002 C 
BRANCH  22  23
ATOM     23  C   UNL A   1      31.251  32.245  26.503  1.00  0.00     0.021 C 
BRANCH  23  24
ATOM     24  C   UNL A   1      32.494  32.873  27.123  1.00  0.00     0.116 C 
BRANCH  24  25
ATOM     25  N   UNL A   1      32.261  34.215  27.626  1.00  0.00    -0.352 N 
ATOM     26  C   UNL A   1      32.939  34.909  28.599  1.00  0.00     0.251 C 
ATOM     27  H   UNL A   1      31.509  34.696  27.212  1.00  0.00     0.163 HD
ATOM     28  O   UNL A   1      32.516  35.990  28.990  1.00  0.00    -0.269 OA
BRANCH  26  29
ATOM     29  C   UNL A   1      34.165  34.336  29.200  1.00  0.00     0.039 A 
ATOM     30  C   UNL A   1      34.043  33.567  30.359  1.00  0.00     0.014 A 
ATOM     31  C   UNL A   1      35.425  34.559  28.636  1.00  0.00     0.014 A 
ATOM     32  C   UNL A   1      35.177  32.978  30.923  1.00  0.00     0.010 A 
ATOM     33  C   UNL A   1      36.543  33.908  29.154  1.00  0.00     0.010 A 
ATOM     34  C   UNL A   1      36.433  33.116  30.307  1.00  0.00    -0.014 A 
BRANCH  34  35
ATOM     35  C   UNL A   1      37.630  32.435  30.862  1.00  0.00     0.031 A 
ATOM     36  C   UNL A   1      38.297  32.957  32.107  1.00  0.00     0.074 A 
ATOM     37  C   UNL A   1      38.142  31.365  30.223  1.00  0.00     0.049 A 
ATOM     38  N   UNL A   1      39.351  32.493  32.734  1.00  0.00    -0.248 NA
ATOM     39  C   UNL A   1      37.725  34.168  32.716  1.00  0.00     0.031 C 
ATOM     40  C   UNL A   1      37.618  30.789  28.982  1.00  0.00     0.029 A 
ATOM     41  N   UNL A   1      39.216  30.567  30.531  1.00  0.00    -0.354 N 
ATOM     42  C   UNL A   1      39.570  33.360  33.797  1.00  0.00     0.074 A 
ATOM     43  C   UNL A   1      38.576  34.407  33.702  1.00  0.00     0.031 C 
ATOM     44  C   UNL A   1      38.349  29.711  28.655  1.00  0.00     0.029 A 
ATOM     45  C   UNL A   1      39.415  29.543  29.636  1.00  0.00     0.049 A 
ATOM     46  H   UNL A   1      39.789  30.715  31.317  1.00  0.00     0.167 HD
ATOM     47  C   UNL A   1      40.501  33.281  34.778  1.00  0.00     0.031 A 
ATOM     48  C   UNL A   1      40.351  28.576  29.609  1.00  0.00     0.031 A 
ATOM     49  C   UNL A   1      41.484  32.235  34.879  1.00  0.00     0.049 A 
ATOM     50  C   UNL A   1      41.377  28.515  30.708  1.00  0.00     0.074 A 
ATOM     51  C   UNL A   1      42.431  32.037  35.869  1.00  0.00     0.029 A 
ATOM     52  N   UNL A   1      41.648  31.214  33.958  1.00  0.00    -0.354 N 
ATOM     53  N   UNL A   1      41.518  29.298  31.751  1.00  0.00    -0.248 NA
ATOM     54  C   UNL A   1      42.359  27.426  30.634  1.00  0.00     0.031 C 
ATOM     55  C   UNL A   1      43.207  30.929  35.516  1.00  0.00     0.029 A 
ATOM     56  C   UNL A   1      42.700  30.398  34.341  1.00  0.00     0.049 A 
ATOM     57  H   UNL A   1      41.099  31.087  33.151  1.00  0.00     0.167 HD
ATOM     58  C   UNL A   1      42.584  28.776  32.473  1.00  0.00     0.074 A 
ATOM     59  C   UNL A   1      43.037  27.599  31.760  1.00  0.00     0.031 C 
ATOM     60  C   UNL A   1      43.140  29.231  33.623  1.00  0.00     0.031 A 
BRANCH  47  61
ATOM     61  C   UNL A   1      40.508  34.364  35.823  1.00  0.00    -0.014 A 
ATOM     62  C   UNL A   1      41.406  35.442  35.750  1.00  0.00     0.009 A 
ATOM     63  C   UNL A   1      39.565  34.338  36.862  1.00  0.00     0.009 A 
ATOM     64  C   UNL A   1      41.379  36.453  36.714  1.00  0.00     0.001 A 
ATOM     65  C   UNL A   1      39.521  35.366  37.806  1.00  0.00     0.001 A 
ATOM     66  C   UNL A   1      40.433  36.417  37.736  1.00  0.00     0.000 A 
ENDBRANCH  47  61
BRANCH  48  67
ATOM     67  C   UNL A   1      40.363  27.573  28.510  1.00  0.00    -0.014 A 
ATOM     68  C   UNL A   1      39.639  26.376  28.623  1.00  0.00     0.009 A 
ATOM     69  C   UNL A   1      41.123  27.797  27.352  1.00  0.00     0.009 A 
ATOM     70  C   UNL A   1      39.707  25.409  27.618  1.00  0.00     0.001 A 
ATOM     71  C   UNL A   1      41.160  26.843  26.332  1.00  0.00     0.001 A 
ATOM     72  C   UNL A   1      40.464  25.645  26.472  1.00  0.00     0.000 A 
ENDBRANCH  48  67
BRANCH  60  73
ATOM     73  C   UNL A   1      44.271  28.426  34.203  1.00  0.00    -0.014 A 
ATOM     74  C   UNL A   1      45.610  28.723  33.908  1.00  0.00     0.009 A 
ATOM     75  C   UNL A   1      43.987  27.366  35.079  1.00  0.00     0.009 A 
ATOM     76  C   UNL A   1      46.640  27.945  34.442  1.00  0.00     0.001 A 
ATOM     77  C   UNL A   1      45.019  26.612  35.638  1.00  0.00     0.001 A 
ATOM     78  C   UNL A   1      46.344  26.894  35.310  1.00  0.00     0.000 A 
ENDBRANCH  60  73
ENDBRANCH  34  35
ENDBRANCH  26  29
ENDBRANCH  24  25
ENDBRANCH  23  24
ENDBRANCH  22  23
ENDBRANCH  21  22
ENDBRANCH  20  21
ENDBRANCH   1  20
TORSDOF 19
ENDMDL
MODEL 2
REMARK VINA RESULT:      -9.6      4.019      9.241
REMARK SMILES CCCCCCC(=O)N1CCCC[C@H]1C(=O)NCCCCCCNC(=O)c1ccc(-c2c3nc(c(-c4ccccc4)c4ccc([nH]4)c(-c4ccccc4)c4nc(c(-c5ccccc5)c5ccc2[nH]5)C=C4)C=C3)cc1
REMARK SMILES IDX 18 1 17 2 15 3 16 4 14 6 9 7 10 8 11 9 13 10 12 11 7 12 8 13
REMARK SMILES IDX 6 14 5 15 4 16 3 17 2 18 1 19 19 20 20 21 21 22 22 23 23 24
REMARK SMILES IDX 24 25 25 26 26 28 27 29 28 30 74 31 29 32 73 33 30 34 31 35
REMARK SMILES IDX 32 36 67 37 33 38 72 39 66 40 68 41 34 42 71 43 65 44 64 45
REMARK SMILES IDX 35 47 57 48 42 49 56 50 43 51 46 52 55 53 69 54 44 55 45 56
REMARK SMILES IDX 54 58 70 59 47 60 36 61 37 62 41 63 38 64 40 65 39 66 58 67
REMARK SMILES IDX 59 68 63 69 60 70 62 71 61 72 48 73 49 74 53 75 50 76 52 77
REMARK SMILES IDX 51 78
REMARK H PARENT 17 5 24 27 68 46 46 57
REMARK Flexibility Score: inf
ROOT
ATOM      1  C   UNL A   1      36.081  23.802  25.637  1.00  0.00     0.116 C 
ENDROOT
BRANCH   1   2
ATOM      2  N   UNL A   1      35.027  23.081  24.948  1.00  0.00    -0.354 N 
ATOM      3  C   UNL A   1      33.934  23.546  24.273  1.00  0.00     0.242 C 
ATOM      4  O   UNL A   1      33.282  22.715  23.635  1.00  0.00    -0.273 OA
ATOM      5  H   UNL A   1      35.112  22.100  24.971  1.00  0.00     0.163 HD
BRANCH   3   6
ATOM      6  C   UNL A   1      33.515  25.033  24.383  1.00  0.00     0.174 C 
ATOM      7  N   UNL A   1      32.739  25.503  23.225  1.00  0.00    -0.331 N 
ATOM      8  C   UNL A   1      31.344  25.083  23.142  1.00  0.00     0.120 C 
ATOM      9  C   UNL A   1      30.582  25.326  24.437  1.00  0.00     0.022 C 
ATOM     10  C   UNL A   1      32.749  25.280  25.694  1.00  0.00     0.035 C 
ATOM     11  C   UNL A   1      31.323  24.740  25.635  1.00  0.00     0.004 C 
BRANCH   7  12
ATOM     12  C   UNL A   1      33.178  26.496  22.369  1.00  0.00     0.223 C 
ATOM     13  O   UNL A   1      33.620  26.229  21.249  1.00  0.00    -0.275 OA
BRANCH  12  14
ATOM     14  C   UNL A   1      33.342  27.901  22.945  1.00  0.00     0.100 C 
BRANCH  14  15
ATOM     15  C   UNL A   1      32.099  28.665  23.393  1.00  0.00     0.010 C 
BRANCH  15  16
ATOM     16  C   UNL A   1      32.138  29.281  24.792  1.00  0.00     0.001 C 
BRANCH  16  17
ATOM     17  C   UNL A   1      33.237  28.798  25.745  1.00  0.00    -0.000 C 
BRANCH  17  18
ATOM     18  C   UNL A   1      32.873  28.911  27.224  1.00  0.00    -0.003 C 
ATOM     19  C   UNL A   1      31.592  28.174  27.593  1.00  0.00     0.004 C 
ENDBRANCH  17  18
ENDBRANCH  16  17
ENDBRANCH  15  16
ENDBRANCH  14  15
ENDBRANCH  12  14
ENDBRANCH   7  12
ENDBRANCH   3   6
ENDBRANCH   1   2
BRANCH   1  20
ATOM     20  C   UNL A   1      37.455  23.178  25.425  1.00  0.00     0.021 C 
BRANCH  20  21
ATOM     21  C   UNL A   1      38.570  23.749  26.310  1.00  0.00     0.002 C 
BRANCH  21  22
ATOM     22  C   UNL A   1      39.578  22.735  26.860  1.00  0.00     0.002 C 
BRANCH  22  23
ATOM     23  C   UNL A   1      39.713  21.434  26.066  1.00  0.00     0.021 C 
BRANCH  23  24
ATOM     24  C   UNL A   1      40.471  20.315  26.772  1.00  0.00     0.116 C 
BRANCH  24  25
ATOM     25  N   UNL A   1      41.652  19.884  26.046  1.00  0.00    -0.352 N 
ATOM     26  C   UNL A   1      42.805  20.579  25.771  1.00  0.00     0.251 C 
ATOM     27  H   UNL A   1      41.623  18.963  25.701  1.00  0.00     0.163 HD
ATOM     28  O   UNL A   1      43.650  20.097  25.026  1.00  0.00    -0.269 OA
BRANCH  26  29
ATOM     29  C   UNL A   1      43.015  21.926  26.349  1.00  0.00     0.039 A 
ATOM     30  C   UNL A   1      43.102  23.017  25.482  1.00  0.00     0.014 A 
ATOM     31  C   UNL A   1      43.136  22.115  27.729  1.00  0.00     0.014 A 
ATOM     32  C   UNL A   1      43.256  24.304  26.002  1.00  0.00     0.010 A 
ATOM     33  C   UNL A   1      43.211  23.406  28.249  1.00  0.00     0.010 A 
ATOM     34  C   UNL A   1      43.279  24.514  27.391  1.00  0.00    -0.014 A 
BRANCH  34  35
ATOM     35  C   UNL A   1      43.372  25.887  27.951  1.00  0.00     0.031 A 
ATOM     36  C   UNL A   1      44.712  26.485  28.287  1.00  0.00     0.074 A 
ATOM     37  C   UNL A   1      42.244  26.584  28.192  1.00  0.00     0.049 A 
ATOM     38  N   UNL A   1      44.985  27.667  28.784  1.00  0.00    -0.248 NA
ATOM     39  C   UNL A   1      45.897  25.644  28.059  1.00  0.00     0.031 C 
ATOM     40  C   UNL A   1      40.882  26.100  27.956  1.00  0.00     0.029 A 
ATOM     41  N   UNL A   1      42.064  27.851  28.688  1.00  0.00    -0.354 N 
ATOM     42  C   UNL A   1      46.367  27.702  28.937  1.00  0.00     0.074 A 
ATOM     43  C   UNL A   1      46.871  26.408  28.533  1.00  0.00     0.031 C 
ATOM     44  C   UNL A   1      40.009  27.070  28.272  1.00  0.00     0.029 A 
ATOM     45  C   UNL A   1      40.744  28.227  28.771  1.00  0.00     0.049 A 
ATOM     46  H   UNL A   1      42.808  28.435  28.958  1.00  0.00     0.167 HD
ATOM     47  C   UNL A   1      47.148  28.726  29.356  1.00  0.00     0.031 A 
ATOM     48  C   UNL A   1      40.188  29.375  29.200  1.00  0.00     0.031 A 
ATOM     49  C   UNL A   1      46.648  30.017  29.749  1.00  0.00     0.049 A 
ATOM     50  C   UNL A   1      41.080  30.494  29.665  1.00  0.00     0.074 A 
ATOM     51  C   UNL A   1      47.366  31.137  30.132  1.00  0.00     0.029 A 
ATOM     52  N   UNL A   1      45.307  30.360  29.813  1.00  0.00    -0.354 N 
ATOM     53  N   UNL A   1      42.389  30.537  29.726  1.00  0.00    -0.248 NA
ATOM     54  C   UNL A   1      40.415  31.729  30.103  1.00  0.00     0.031 C 
ATOM     55  C   UNL A   1      46.457  32.139  30.484  1.00  0.00     0.029 A 
ATOM     56  C   UNL A   1      45.175  31.665  30.255  1.00  0.00     0.049 A 
ATOM     57  H   UNL A   1      44.560  29.764  29.578  1.00  0.00     0.167 HD
ATOM     58  C   UNL A   1      42.704  31.813  30.178  1.00  0.00     0.074 A 
ATOM     59  C   UNL A   1      41.450  32.517  30.353  1.00  0.00     0.031 C 
ATOM     60  C   UNL A   1      43.922  32.353  30.426  1.00  0.00     0.031 A 
BRANCH  47  61
ATOM     61  C   UNL A   1      48.632  28.491  29.419  1.00  0.00    -0.014 A 
ATOM     62  C   UNL A   1      49.242  27.984  30.579  1.00  0.00     0.009 A 
ATOM     63  C   UNL A   1      49.425  28.724  28.285  1.00  0.00     0.009 A 
ATOM     64  C   UNL A   1      50.618  27.746  30.610  1.00  0.00     0.001 A 
ATOM     65  C   UNL A   1      50.796  28.455  28.309  1.00  0.00     0.001 A 
ATOM     66  C   UNL A   1      51.392  27.975  29.473  1.00  0.00     0.000 A 
ENDBRANCH  47  61
BRANCH  48  67
ATOM     67  C   UNL A   1      38.709  29.538  29.203  1.00  0.00    -0.014 A 
ATOM     68  C   UNL A   1      37.962  29.287  30.364  1.00  0.00     0.009 A 
ATOM     69  C   UNL A   1      38.033  29.919  28.033  1.00  0.00     0.009 A 
ATOM     70  C   UNL A   1      36.568  29.376  30.344  1.00  0.00     0.001 A 
ATOM     71  C   UNL A   1      36.642  30.042  28.025  1.00  0.00     0.001 A 
ATOM     72  C   UNL A   1      35.910  29.757  29.176  1.00  0.00     0.000 A 
ENDBRANCH  48  67
BRANCH  60  73
ATOM     73  C   UNL A   1      43.957  33.789  30.872  1.00  0.00    -0.014 A 
ATOM     74  C   UNL A   1      44.006  34.844  29.947  1.00  0.00     0.009 A 
ATOM     75  C   UNL A   1      43.916  34.089  32.243  1.00  0.00     0.009 A 
ATOM     76  C   UNL A   1      44.062  36.168  30.389  1.00  0.00     0.001 A 
ATOM     77  C   UNL A   1      43.937  35.414  32.681  1.00  0.00     0.001 A 
ATOM     78  C   UNL A   1      44.022  36.452  31.754  1.00  0.00     0.000 A 
ENDBRANCH  60  73
ENDBRANCH  34  35
ENDBRANCH  26  29
ENDBRANCH  24  25
ENDBRANCH  23  24
ENDBRANCH  22  23
ENDBRANCH  21  22
ENDBRANCH  20  21
ENDBRANCH   1  20
TORSDOF 19
ENDMDL
MODEL 3
REMARK VINA RESULT:      -9.6      2.620      8.331
REMARK SMILES CCCCCCC(=O)N1CCCC[C@H]1C(=O)NCCCCCCNC(=O)c1ccc(-c2c3nc(c(-c4ccccc4)c4ccc([nH]4)c(-c4ccccc4)c4nc(c(-c5ccccc5)c5ccc2[nH]5)C=C4)C=C3)cc1
REMARK SMILES IDX 18 1 17 2 15 3 16 4 14 6 9 7 10 8 11 9 13 10 12 11 7 12 8 13
REMARK SMILES IDX 6 14 5 15 4 16 3 17 2 18 1 19 19 20 20 21 21 22 22 23 23 24
REMARK SMILES IDX 24 25 25 26 26 28 27 29 28 30 74 31 29 32 73 33 30 34 31 35
REMARK SMILES IDX 32 36 67 37 33 38 72 39 66 40 68 41 34 42 71 43 65 44 64 45
REMARK SMILES IDX 35 47 57 48 42 49 56 50 43 51 46 52 55 53 69 54 44 55 45 56
REMARK SMILES IDX 54 58 70 59 47 60 36 61 37 62 41 63 38 64 40 65 39 66 58 67
REMARK SMILES IDX 59 68 63 69 60 70 62 71 61 72 48 73 49 74 53 75 50 76 52 77
REMARK SMILES IDX 51 78
REMARK H PARENT 17 5 24 27 68 46 46 57
REMARK Flexibility Score: inf
ROOT
ATOM      1  C   UNL A   1      30.945  23.681  26.092  1.00  0.00     0.116 C 
ENDROOT
BRANCH   1   2
ATOM      2  N   UNL A   1      31.359  24.887  26.784  1.00  0.00    -0.354 N 
ATOM      3  C   UNL A   1      31.501  26.165  26.323  1.00  0.00     0.242 C 
ATOM      4  O   UNL A   1      31.710  27.039  27.168  1.00  0.00    -0.273 OA
ATOM      5  H   UNL A   1      31.574  24.765  27.737  1.00  0.00     0.163 HD
BRANCH   3   6
ATOM      6  C   UNL A   1      31.471  26.460  24.802  1.00  0.00     0.174 C 
ATOM      7  N   UNL A   1      30.664  27.642  24.458  1.00  0.00    -0.331 N 
ATOM      8  C   UNL A   1      31.247  28.951  24.734  1.00  0.00     0.120 C 
ATOM      9  C   UNL A   1      32.663  29.087  24.190  1.00  0.00     0.022 C 
ATOM     10  C   UNL A   1      32.901  26.593  24.252  1.00  0.00     0.035 C 
ATOM     11  C   UNL A   1      33.542  27.924  24.637  1.00  0.00     0.004 C 
BRANCH   7  12
ATOM     12  C   UNL A   1      29.522  27.582  23.681  1.00  0.00     0.223 C 
ATOM     13  O   UNL A   1      28.809  26.577  23.663  1.00  0.00    -0.275 OA
BRANCH  12  14
ATOM     14  C   UNL A   1      29.312  28.692  22.653  1.00  0.00     0.100 C 
BRANCH  14  15
ATOM     15  C   UNL A   1      27.937  29.342  22.537  1.00  0.00     0.010 C 
BRANCH  15  16
ATOM     16  C   UNL A   1      27.635  30.488  23.504  1.00  0.00     0.001 C 
BRANCH  16  17
ATOM     17  C   UNL A   1      27.600  31.907  22.927  1.00  0.00    -0.000 C 
BRANCH  17  18
ATOM     18  C   UNL A   1      28.974  32.465  22.561  1.00  0.00    -0.003 C 
ATOM     19  C   UNL A   1      29.355  33.710  23.351  1.00  0.00     0.004 C 
ENDBRANCH  17  18
ENDBRANCH  16  17
ENDBRANCH  15  16
ENDBRANCH  14  15
ENDBRANCH  12  14
ENDBRANCH   7  12
ENDBRANCH   3   6
ENDBRANCH   1   2
BRANCH   1  20
ATOM     20  C   UNL A   1      32.102  22.979  25.391  1.00  0.00     0.021 C 
BRANCH  20  21
ATOM     21  C   UNL A   1      33.416  22.947  26.181  1.00  0.00     0.002 C 
BRANCH  21  22
ATOM     22  C   UNL A   1      34.585  23.729  25.574  1.00  0.00     0.002 C 
BRANCH  22  23
ATOM     23  C   UNL A   1      35.964  23.427  26.163  1.00  0.00     0.021 C 
BRANCH  23  24
ATOM     24  C   UNL A   1      37.134  23.586  25.197  1.00  0.00     0.116 C 
BRANCH  24  25
ATOM     25  N   UNL A   1      38.221  22.663  25.467  1.00  0.00    -0.352 N 
ATOM     26  C   UNL A   1      39.410  22.886  26.119  1.00  0.00     0.251 C 
ATOM     27  H   UNL A   1      38.088  21.745  25.135  1.00  0.00     0.163 HD
ATOM     28  O   UNL A   1      40.273  22.017  26.139  1.00  0.00    -0.269 OA
BRANCH  26  29
ATOM     29  C   UNL A   1      39.663  24.191  26.772  1.00  0.00     0.039 A 
ATOM     30  C   UNL A   1      39.193  24.388  28.072  1.00  0.00     0.014 A 
ATOM     31  C   UNL A   1      40.346  25.215  26.110  1.00  0.00     0.014 A 
ATOM     32  C   UNL A   1      39.455  25.593  28.728  1.00  0.00     0.010 A 
ATOM     33  C   UNL A   1      40.673  26.386  26.793  1.00  0.00     0.010 A 
ATOM     34  C   UNL A   1      40.226  26.590  28.107  1.00  0.00    -0.014 A 
BRANCH  34  35
ATOM     35  C   UNL A   1      40.566  27.845  28.825  1.00  0.00     0.031 A 
ATOM     36  C   UNL A   1      41.918  28.017  29.463  1.00  0.00     0.074 A 
ATOM     37  C   UNL A   1      39.641  28.819  28.935  1.00  0.00     0.049 A 
ATOM     38  N   UNL A   1      42.390  29.042  30.131  1.00  0.00    -0.248 NA
ATOM     39  C   UNL A   1      42.855  26.887  29.361  1.00  0.00     0.031 C 
ATOM     40  C   UNL A   1      38.278  28.757  28.402  1.00  0.00     0.029 A 
ATOM     41  N   UNL A   1      39.709  30.055  29.529  1.00  0.00    -0.354 N 
ATOM     42  C   UNL A   1      43.668  28.673  30.535  1.00  0.00     0.074 A 
ATOM     43  C   UNL A   1      43.879  27.314  30.086  1.00  0.00     0.031 C 
ATOM     44  C   UNL A   1      37.651  29.916  28.662  1.00  0.00     0.029 A 
ATOM     45  C   UNL A   1      38.550  30.786  29.412  1.00  0.00     0.049 A 
ATOM     46  H   UNL A   1      40.510  30.386  29.993  1.00  0.00     0.167 HD
ATOM     47  C   UNL A   1      44.592  29.407  31.201  1.00  0.00     0.031 A 
ATOM     48  C   UNL A   1      38.246  32.018  29.860  1.00  0.00     0.031 A 
ATOM     49  C   UNL A   1      44.386  30.762  31.640  1.00  0.00     0.049 A 
ATOM     50  C   UNL A   1      39.289  32.809  30.602  1.00  0.00     0.074 A 
ATOM     51  C   UNL A   1      45.283  31.608  32.270  1.00  0.00     0.029 A 
ATOM     52  N   UNL A   1      43.203  31.468  31.497  1.00  0.00    -0.354 N 
ATOM     53  N   UNL A   1      40.521  32.474  30.903  1.00  0.00    -0.248 NA
ATOM     54  C   UNL A   1      38.904  34.154  31.048  1.00  0.00     0.031 C 
ATOM     55  C   UNL A   1      44.623  32.805  32.562  1.00  0.00     0.029 A 
ATOM     56  C   UNL A   1      43.337  32.729  32.052  1.00  0.00     0.049 A 
ATOM     57  H   UNL A   1      42.388  31.124  31.065  1.00  0.00     0.167 HD
ATOM     58  C   UNL A   1      41.066  33.579  31.545  1.00  0.00     0.074 A 
ATOM     59  C   UNL A   1      40.038  34.600  31.568  1.00  0.00     0.031 C 
ATOM     60  C   UNL A   1      42.306  33.734  32.069  1.00  0.00     0.031 A 
BRANCH  47  61
ATOM     61  C   UNL A   1      45.913  28.755  31.505  1.00  0.00    -0.014 A 
ATOM     62  C   UNL A   1      46.178  28.199  32.767  1.00  0.00     0.009 A 
ATOM     63  C   UNL A   1      46.885  28.644  30.499  1.00  0.00     0.009 A 
ATOM     64  C   UNL A   1      47.401  27.574  33.023  1.00  0.00     0.001 A 
ATOM     65  C   UNL A   1      48.094  27.991  30.749  1.00  0.00     0.001 A 
ATOM     66  C   UNL A   1      48.354  27.464  32.012  1.00  0.00     0.000 A 
ENDBRANCH  47  61
BRANCH  48  67
ATOM     67  C   UNL A   1      36.897  32.595  29.613  1.00  0.00    -0.014 A 
ATOM     68  C   UNL A   1      35.865  32.434  30.551  1.00  0.00     0.009 A 
ATOM     69  C   UNL A   1      36.626  33.286  28.422  1.00  0.00     0.009 A 
ATOM     70  C   UNL A   1      34.583  32.919  30.285  1.00  0.00     0.001 A 
ATOM     71  C   UNL A   1      35.351  33.801  28.174  1.00  0.00     0.001 A 
ATOM     72  C   UNL A   1      34.328  33.606  29.099  1.00  0.00     0.000 A 
ENDBRANCH  48  67
BRANCH  60  73
ATOM     73  C   UNL A   1      42.632  35.074  32.673  1.00  0.00    -0.014 A 
ATOM     74  C   UNL A   1      42.235  35.408  33.977  1.00  0.00     0.009 A 
ATOM     75  C   UNL A   1      43.371  36.007  31.928  1.00  0.00     0.009 A 
ATOM     76  C   UNL A   1      42.531  36.667  34.504  1.00  0.00     0.001 A 
ATOM     77  C   UNL A   1      43.695  37.251  32.470  1.00  0.00     0.001 A 
ATOM     78  C   UNL A   1      43.264  37.585  33.752  1.00  0.00     0.000 A 
ENDBRANCH  60  73
ENDBRANCH  34  35
ENDBRANCH  26  29
ENDBRANCH  24  25
ENDBRANCH  23  24
ENDBRANCH  22  23
ENDBRANCH  21  22
ENDBRANCH  20  21
ENDBRANCH   1  20
TORSDOF 19
ENDMDL
