MODEL 1
REMARK VINA RESULT:     -11.0      0.000      0.000
REMARK SMILES O=C(NCCCCCCNC(=O)c1ccc(-c2c3nc(c(-c4ccccc4)c4ccc([nH]4)c(-c4ccccc4)c4nc(c(-c5ccccc5)c5ccc2[nH]5)C=C4)C=C3)cc1)C1=Cc2cc(C(F)(F)F)ccc2O[C@@H]1C(F)(F)F
REMARK SMILES IDX 7 1 6 2 5 3 4 4 3 5 1 6 2 7 61 9 62 10 74 11 63 12 73 13
REMARK SMILES IDX 64 14 72 15 65 16 71 17 70 18 75 19 76 20 77 21 78 22 66 23
REMARK SMILES IDX 67 24 68 25 69 26 8 27 9 28 10 29 11 30 12 32 13 33 14 34
REMARK SMILES IDX 60 35 15 36 59 37 16 38 17 39 18 40 53 41 19 42 58 43 52 44
REMARK SMILES IDX 54 45 20 46 57 47 51 48 50 49 21 51 43 52 28 53 42 54 29 55
REMARK SMILES IDX 32 56 41 57 55 58 30 59 31 60 40 62 56 63 33 64 22 65 23 66
REMARK SMILES IDX 27 67 24 68 26 69 25 70 44 71 45 72 49 73 46 74 48 75 47 76
REMARK SMILES IDX 34 77 35 78 39 79 36 80 38 81 37 82
REMARK H PARENT 3 8 10 31 54 50 32 61
REMARK Flexibility Score: inf
ROOT
ATOM      1  C   UNL A   1      35.613  22.837  23.615  1.00  0.00     0.002 C 
ENDROOT
BRANCH   1   2
ATOM      2  C   UNL A   1      34.226  22.247  23.902  1.00  0.00     0.002 C 
BRANCH   2   3
ATOM      3  C   UNL A   1      33.128  22.560  22.890  1.00  0.00     0.021 C 
BRANCH   3   4
ATOM      4  C   UNL A   1      33.261  23.882  22.145  1.00  0.00     0.116 C 
BRANCH   4   5
ATOM      5  N   UNL A   1      32.093  24.744  22.183  1.00  0.00    -0.352 N 
ATOM      6  O   UNL A   1      30.589  26.155  23.075  1.00  0.00    -0.270 OA
ATOM      7  C   UNL A   1      31.463  25.309  23.258  1.00  0.00     0.251 C 
ATOM      8  H   UNL A   1      31.696  24.952  21.306  1.00  0.00     0.163 HD
BRANCH   7   9
ATOM      9  C   UNL A   1      31.862  25.003  24.664  1.00  0.00     0.067 C 
ATOM     10  C   UNL A   1      32.996  25.493  25.195  1.00  0.00     0.025 C 
ATOM     11  C   UNL A   1      30.691  24.699  25.568  1.00  0.00     0.314 C 
ATOM     12  C   UNL A   1      32.706  26.517  26.231  1.00  0.00     0.018 A 
ATOM     13  O   UNL A   1      30.368  25.828  26.426  1.00  0.00    -0.475 OA
ATOM     14  C   UNL A   1      33.676  27.500  26.463  1.00  0.00     0.025 A 
ATOM     15  C   UNL A   1      31.398  26.693  26.704  1.00  0.00     0.128 A 
ATOM     16  C   UNL A   1      33.313  28.717  27.061  1.00  0.00     0.056 A 
ATOM     17  C   UNL A   1      31.053  27.864  27.374  1.00  0.00     0.048 A 
ATOM     18  C   UNL A   1      32.000  28.881  27.532  1.00  0.00     0.017 A 
BRANCH  11  19
ATOM     19  C   UNL A   1      30.909  23.423  26.395  1.00  0.00     0.429 C 
ATOM     20  F   UNL A   1      31.927  23.576  27.275  1.00  0.00    -0.167 F 
ATOM     21  F   UNL A   1      29.811  23.096  27.117  1.00  0.00    -0.167 F 
ATOM     22  F   UNL A   1      31.208  22.352  25.621  1.00  0.00    -0.167 F 
ENDBRANCH  11  19
BRANCH  16  23
ATOM     23  C   UNL A   1      34.303  29.857  27.114  1.00  0.00     0.416 C 
ATOM     24  F   UNL A   1      34.752  30.112  28.369  1.00  0.00    -0.166 F 
ATOM     25  F   UNL A   1      35.411  29.618  26.353  1.00  0.00    -0.166 F 
ATOM     26  F   UNL A   1      33.789  31.026  26.640  1.00  0.00    -0.166 F 
ENDBRANCH  16  23
ENDBRANCH   7   9
ENDBRANCH   4   5
ENDBRANCH   3   4
ENDBRANCH   2   3
ENDBRANCH   1   2
BRANCH   1  27
ATOM     27  C   UNL A   1      36.138  23.890  24.595  1.00  0.00     0.021 C 
BRANCH  27  28
ATOM     28  C   UNL A   1      36.553  23.385  25.975  1.00  0.00     0.116 C 
BRANCH  28  29
ATOM     29  N   UNL A   1      37.679  22.468  25.926  1.00  0.00    -0.352 N 
ATOM     30  C   UNL A   1      39.003  22.670  26.231  1.00  0.00     0.251 C 
ATOM     31  H   UNL A   1      37.458  21.557  25.629  1.00  0.00     0.163 HD
ATOM     32  O   UNL A   1      39.821  21.788  25.988  1.00  0.00    -0.269 OA
BRANCH  30  33
ATOM     33  C   UNL A   1      39.463  23.946  26.824  1.00  0.00     0.039 A 
ATOM     34  C   UNL A   1      40.066  24.891  25.987  1.00  0.00     0.014 A 
ATOM     35  C   UNL A   1      39.347  24.205  28.192  1.00  0.00     0.014 A 
ATOM     36  C   UNL A   1      40.502  26.110  26.510  1.00  0.00     0.010 A 
ATOM     37  C   UNL A   1      39.716  25.450  28.700  1.00  0.00     0.010 A 
ATOM     38  C   UNL A   1      40.305  26.413  27.866  1.00  0.00    -0.014 A 
BRANCH  38  39
ATOM     39  C   UNL A   1      40.711  27.728  28.425  1.00  0.00     0.031 A 
ATOM     40  C   UNL A   1      42.138  27.976  28.831  1.00  0.00     0.074 A 
ATOM     41  C   UNL A   1      39.783  28.687  28.613  1.00  0.00     0.049 A 
ATOM     42  N   UNL A   1      42.671  29.045  29.369  1.00  0.00    -0.248 NA
ATOM     43  C   UNL A   1      43.087  26.871  28.628  1.00  0.00     0.031 C 
ATOM     44  C   UNL A   1      38.361  28.563  28.294  1.00  0.00     0.029 A 
ATOM     45  N   UNL A   1      39.901  29.956  29.123  1.00  0.00    -0.354 N 
ATOM     46  C   UNL A   1      44.008  28.736  29.579  1.00  0.00     0.074 A 
ATOM     47  C   UNL A   1      44.194  27.364  29.161  1.00  0.00     0.031 C 
ATOM     48  C   UNL A   1      37.742  29.717  28.590  1.00  0.00     0.029 A 
ATOM     49  C   UNL A   1      38.714  30.647  29.158  1.00  0.00     0.049 A 
ATOM     50  H   UNL A   1      40.754  30.335  29.434  1.00  0.00     0.167 HD
ATOM     51  C   UNL A   1      44.998  29.526  30.060  1.00  0.00     0.031 A 
ATOM     52  C   UNL A   1      38.435  31.886  29.603  1.00  0.00     0.031 A 
ATOM     53  C   UNL A   1      44.814  30.890  30.478  1.00  0.00     0.049 A 
ATOM     54  C   UNL A   1      39.544  32.737  30.155  1.00  0.00     0.074 A 
ATOM     55  C   UNL A   1      45.764  31.790  30.932  1.00  0.00     0.029 A 
ATOM     56  N   UNL A   1      43.595  31.552  30.499  1.00  0.00    -0.354 N 
ATOM     57  N   UNL A   1      40.817  32.453  30.284  1.00  0.00    -0.248 NA
ATOM     58  C   UNL A   1      39.178  34.085  30.611  1.00  0.00     0.031 C 
ATOM     59  C   UNL A   1      45.109  32.976  31.283  1.00  0.00     0.029 A 
ATOM     60  C   UNL A   1      43.763  32.838  30.986  1.00  0.00     0.049 A 
ATOM     61  H   UNL A   1      42.737  31.164  30.212  1.00  0.00     0.167 HD
ATOM     62  C   UNL A   1      41.409  33.594  30.811  1.00  0.00     0.074 A 
ATOM     63  C   UNL A   1      40.358  34.579  30.961  1.00  0.00     0.031 C 
ATOM     64  C   UNL A   1      42.707  33.806  31.138  1.00  0.00     0.031 A 
BRANCH  51  65
ATOM     65  C   UNL A   1      46.371  28.921  30.172  1.00  0.00    -0.014 A 
ATOM     66  C   UNL A   1      47.273  28.952  29.094  1.00  0.00     0.009 A 
ATOM     67  C   UNL A   1      46.779  28.330  31.377  1.00  0.00     0.009 A 
ATOM     68  C   UNL A   1      48.534  28.363  29.208  1.00  0.00     0.001 A 
ATOM     69  C   UNL A   1      48.053  27.771  31.499  1.00  0.00     0.001 A 
ATOM     70  C   UNL A   1      48.924  27.777  30.411  1.00  0.00     0.000 A 
ENDBRANCH  51  65
BRANCH  52  71
ATOM     71  C   UNL A   1      37.043  32.402  29.532  1.00  0.00    -0.014 A 
ATOM     72  C   UNL A   1      36.588  33.073  28.387  1.00  0.00     0.009 A 
ATOM     73  C   UNL A   1      36.158  32.219  30.607  1.00  0.00     0.009 A 
ATOM     74  C   UNL A   1      35.283  33.569  28.328  1.00  0.00     0.001 A 
ATOM     75  C   UNL A   1      34.846  32.690  30.535  1.00  0.00     0.001 A 
ATOM     76  C   UNL A   1      34.412  33.372  29.399  1.00  0.00     0.000 A 
ENDBRANCH  52  71
BRANCH  64  77
ATOM     77  C   UNL A   1      43.070  35.167  31.663  1.00  0.00    -0.014 A 
ATOM     78  C   UNL A   1      42.983  35.471  33.031  1.00  0.00     0.009 A 
ATOM     79  C   UNL A   1      43.545  36.148  30.778  1.00  0.00     0.009 A 
ATOM     80  C   UNL A   1      43.331  36.741  33.495  1.00  0.00     0.001 A 
ATOM     81  C   UNL A   1      43.922  37.407  31.250  1.00  0.00     0.001 A 
ATOM     82  C   UNL A   1      43.805  37.705  32.606  1.00  0.00     0.000 A 
ENDBRANCH  64  77
ENDBRANCH  38  39
ENDBRANCH  30  33
ENDBRANCH  28  29
ENDBRANCH  27  28
ENDBRANCH   1  27
TORSDOF 15
ENDMDL
MODEL 2
REMARK VINA RESULT:     -10.9      2.717      7.971
REMARK SMILES O=C(NCCCCCCNC(=O)c1ccc(-c2c3nc(c(-c4ccccc4)c4ccc([nH]4)c(-c4ccccc4)c4nc(c(-c5ccccc5)c5ccc2[nH]5)C=C4)C=C3)cc1)C1=Cc2cc(C(F)(F)F)ccc2O[C@@H]1C(F)(F)F
REMARK SMILES IDX 7 1 6 2 5 3 4 4 3 5 1 6 2 7 61 9 62 10 74 11 63 12 73 13
REMARK SMILES IDX 64 14 72 15 65 16 71 17 70 18 75 19 76 20 77 21 78 22 66 23
REMARK SMILES IDX 67 24 68 25 69 26 8 27 9 28 10 29 11 30 12 32 13 33 14 34
REMARK SMILES IDX 60 35 15 36 59 37 16 38 17 39 18 40 53 41 19 42 58 43 52 44
REMARK SMILES IDX 54 45 20 46 57 47 51 48 50 49 21 51 43 52 28 53 42 54 29 55
REMARK SMILES IDX 32 56 41 57 55 58 30 59 31 60 40 62 56 63 33 64 22 65 23 66
REMARK SMILES IDX 27 67 24 68 26 69 25 70 44 71 45 72 49 73 46 74 48 75 47 76
REMARK SMILES IDX 34 77 35 78 39 79 36 80 38 81 37 82
REMARK H PARENT 3 8 10 31 54 50 32 61
REMARK Flexibility Score: inf
ROOT
ATOM      1  C   UNL A   1      31.798  28.589  25.281  1.00  0.00     0.002 C 
ENDROOT
BRANCH   1   2
ATOM      2  C   UNL A   1      31.078  27.624  24.331  1.00  0.00     0.002 C 
BRANCH   2   3
ATOM      3  C   UNL A   1      31.874  27.133  23.125  1.00  0.00     0.021 C 
BRANCH   3   4
ATOM      4  C   UNL A   1      31.368  25.858  22.462  1.00  0.00     0.116 C 
BRANCH   4   5
ATOM      5  N   UNL A   1      32.386  25.024  21.848  1.00  0.00    -0.352 N 
ATOM      6  O   UNL A   1      33.679  23.209  21.562  1.00  0.00    -0.270 OA
ATOM      7  C   UNL A   1      32.958  23.868  22.308  1.00  0.00     0.251 C 
ATOM      8  H   UNL A   1      32.712  25.335  20.972  1.00  0.00     0.163 HD
BRANCH   7   9
ATOM      9  C   UNL A   1      32.665  23.322  23.666  1.00  0.00     0.067 C 
ATOM     10  C   UNL A   1      32.000  22.164  23.830  1.00  0.00     0.025 C 
ATOM     11  C   UNL A   1      33.656  23.763  24.717  1.00  0.00     0.314 C 
ATOM     12  C   UNL A   1      32.894  21.100  24.350  1.00  0.00     0.018 A 
ATOM     13  O   UNL A   1      34.605  22.707  25.035  1.00  0.00    -0.475 OA
ATOM     14  C   UNL A   1      32.568  19.771  24.049  1.00  0.00     0.025 A 
ATOM     15  C   UNL A   1      34.176  21.420  24.821  1.00  0.00     0.128 A 
ATOM     16  C   UNL A   1      33.556  18.777  24.100  1.00  0.00     0.056 A 
ATOM     17  C   UNL A   1      35.136  20.421  24.955  1.00  0.00     0.048 A 
ATOM     18  C   UNL A   1      34.835  19.110  24.575  1.00  0.00     0.017 A 
BRANCH  11  19
ATOM     19  C   UNL A   1      32.966  24.286  25.986  1.00  0.00     0.429 C 
ATOM     20  F   UNL A   1      33.621  25.356  26.495  1.00  0.00    -0.167 F 
ATOM     21  F   UNL A   1      31.695  24.681  25.742  1.00  0.00    -0.167 F 
ATOM     22  F   UNL A   1      32.910  23.349  26.964  1.00  0.00    -0.167 F 
ENDBRANCH  11  19
BRANCH  16  23
ATOM     23  C   UNL A   1      33.262  17.393  23.569  1.00  0.00     0.416 C 
ATOM     24  F   UNL A   1      32.687  16.582  24.493  1.00  0.00    -0.166 F 
ATOM     25  F   UNL A   1      32.414  17.416  22.500  1.00  0.00    -0.166 F 
ATOM     26  F   UNL A   1      34.378  16.749  23.127  1.00  0.00    -0.166 F 
ENDBRANCH  16  23
ENDBRANCH   7   9
ENDBRANCH   4   5
ENDBRANCH   3   4
ENDBRANCH   2   3
ENDBRANCH   1   2
BRANCH   1  27
ATOM     27  C   UNL A   1      32.130  28.068  26.683  1.00  0.00     0.021 C 
BRANCH  27  28
ATOM     28  C   UNL A   1      33.443  28.553  27.292  1.00  0.00     0.116 C 
BRANCH  28  29
ATOM     29  N   UNL A   1      33.432  29.971  27.607  1.00  0.00    -0.352 N 
ATOM     30  C   UNL A   1      34.403  30.766  28.164  1.00  0.00     0.251 C 
ATOM     31  H   UNL A   1      32.594  30.437  27.384  1.00  0.00     0.163 HD
ATOM     32  O   UNL A   1      34.135  31.923  28.472  1.00  0.00    -0.269 OA
BRANCH  30  33
ATOM     33  C   UNL A   1      35.763  30.239  28.423  1.00  0.00     0.039 A 
ATOM     34  C   UNL A   1      36.699  30.272  27.384  1.00  0.00     0.014 A 
ATOM     35  C   UNL A   1      36.113  29.679  29.654  1.00  0.00     0.014 A 
ATOM     36  C   UNL A   1      37.994  29.794  27.596  1.00  0.00     0.010 A 
ATOM     37  C   UNL A   1      37.425  29.269  29.887  1.00  0.00     0.010 A 
ATOM     38  C   UNL A   1      38.377  29.315  28.858  1.00  0.00    -0.014 A 
BRANCH  38  39
ATOM     39  C   UNL A   1      39.767  28.856  29.114  1.00  0.00     0.031 A 
ATOM     40  C   UNL A   1      40.768  29.778  29.754  1.00  0.00     0.074 A 
ATOM     41  C   UNL A   1      40.143  27.622  28.724  1.00  0.00     0.049 A 
ATOM     42  N   UNL A   1      42.033  29.566  30.023  1.00  0.00    -0.248 NA
ATOM     43  C   UNL A   1      40.294  31.120  30.122  1.00  0.00     0.031 C 
ATOM     44  C   UNL A   1      39.280  26.643  28.062  1.00  0.00     0.029 A 
ATOM     45  N   UNL A   1      41.353  26.983  28.827  1.00  0.00    -0.354 N 
ATOM     46  C   UNL A   1      42.505  30.749  30.575  1.00  0.00     0.074 A 
ATOM     47  C   UNL A   1      41.408  31.691  30.555  1.00  0.00     0.031 C 
ATOM     48  C   UNL A   1      39.980  25.519  27.841  1.00  0.00     0.029 A 
ATOM     49  C   UNL A   1      41.350  25.712  28.307  1.00  0.00     0.049 A 
ATOM     50  H   UNL A   1      42.149  27.397  29.234  1.00  0.00     0.167 HD
ATOM     51  C   UNL A   1      43.735  31.024  31.072  1.00  0.00     0.031 A 
ATOM     52  C   UNL A   1      42.338  24.803  28.209  1.00  0.00     0.031 A 
ATOM     53  C   UNL A   1      44.828  30.089  31.091  1.00  0.00     0.049 A 
ATOM     54  C   UNL A   1      43.702  25.138  28.745  1.00  0.00     0.074 A 
ATOM     55  C   UNL A   1      46.098  30.256  31.618  1.00  0.00     0.029 A 
ATOM     56  N   UNL A   1      44.784  28.811  30.553  1.00  0.00    -0.354 N 
ATOM     57  N   UNL A   1      44.113  26.238  29.326  1.00  0.00    -0.248 NA
ATOM     58  C   UNL A   1      44.734  24.099  28.622  1.00  0.00     0.031 C 
ATOM     59  C   UNL A   1      46.839  29.100  31.346  1.00  0.00     0.029 A 
ATOM     60  C   UNL A   1      46.012  28.190  30.708  1.00  0.00     0.049 A 
ATOM     61  H   UNL A   1      43.996  28.408  30.123  1.00  0.00     0.167 HD
ATOM     62  C   UNL A   1      45.443  26.016  29.661  1.00  0.00     0.074 A 
ATOM     63  C   UNL A   1      45.763  24.670  29.233  1.00  0.00     0.031 C 
ATOM     64  C   UNL A   1      46.319  26.852  30.271  1.00  0.00     0.031 A 
BRANCH  51  65
ATOM     65  C   UNL A   1      43.964  32.406  31.624  1.00  0.00    -0.014 A 
ATOM     66  C   UNL A   1      43.729  32.700  32.977  1.00  0.00     0.009 A 
ATOM     67  C   UNL A   1      44.441  33.424  30.784  1.00  0.00     0.009 A 
ATOM     68  C   UNL A   1      43.922  33.993  33.466  1.00  0.00     0.001 A 
ATOM     69  C   UNL A   1      44.665  34.709  31.283  1.00  0.00     0.001 A 
ATOM     70  C   UNL A   1      44.394  34.995  32.619  1.00  0.00     0.000 A 
ENDBRANCH  51  65
BRANCH  52  71
ATOM     71  C   UNL A   1      42.068  23.480  27.588  1.00  0.00    -0.014 A 
ATOM     72  C   UNL A   1      42.383  23.246  26.241  1.00  0.00     0.009 A 
ATOM     73  C   UNL A   1      41.502  22.440  28.343  1.00  0.00     0.009 A 
ATOM     74  C   UNL A   1      42.115  22.006  25.656  1.00  0.00     0.001 A 
ATOM     75  C   UNL A   1      41.262  21.192  27.764  1.00  0.00     0.001 A 
ATOM     76  C   UNL A   1      41.561  20.978  26.420  1.00  0.00     0.000 A 
ENDBRANCH  52  71
BRANCH  64  77
ATOM     77  C   UNL A   1      47.700  26.323  30.540  1.00  0.00    -0.014 A 
ATOM     78  C   UNL A   1      48.053  25.801  31.795  1.00  0.00     0.009 A 
ATOM     79  C   UNL A   1      48.652  26.312  29.508  1.00  0.00     0.009 A 
ATOM     80  C   UNL A   1      49.341  25.311  32.019  1.00  0.00     0.001 A 
ATOM     81  C   UNL A   1      49.929  25.792  29.727  1.00  0.00     0.001 A 
ATOM     82  C   UNL A   1      50.275  25.301  30.984  1.00  0.00     0.000 A 
ENDBRANCH  64  77
ENDBRANCH  38  39
ENDBRANCH  30  33
ENDBRANCH  28  29
ENDBRANCH  27  28
ENDBRANCH   1  27
TORSDOF 15
ENDMDL
MODEL 3
REMARK VINA RESULT:     -10.8      0.255      5.820
REMARK SMILES O=C(NCCCCCCNC(=O)c1ccc(-c2c3nc(c(-c4ccccc4)c4ccc([nH]4)c(-c4ccccc4)c4nc(c(-c5ccccc5)c5ccc2[nH]5)C=C4)C=C3)cc1)C1=Cc2cc(C(F)(F)F)ccc2O[C@@H]1C(F)(F)F
REMARK SMILES IDX 7 1 6 2 5 3 4 4 3 5 1 6 2 7 61 9 62 10 74 11 63 12 73 13
REMARK SMILES IDX 64 14 72 15 65 16 71 17 70 18 75 19 76 20 77 21 78 22 66 23
REMARK SMILES IDX 67 24 68 25 69 26 8 27 9 28 10 29 11 30 12 32 13 33 14 34
REMARK SMILES IDX 60 35 15 36 59 37 16 38 17 39 18 40 53 41 19 42 58 43 52 44
REMARK SMILES IDX 54 45 20 46 57 47 51 48 50 49 21 51 43 52 28 53 42 54 29 55
REMARK SMILES IDX 32 56 41 57 55 58 30 59 31 60 40 62 56 63 33 64 22 65 23 66
REMARK SMILES IDX 27 67 24 68 26 69 25 70 44 71 45 72 49 73 46 74 48 75 47 76
REMARK SMILES IDX 34 77 35 78 39 79 36 80 38 81 37 82
REMARK H PARENT 3 8 10 31 54 50 32 61
REMARK Flexibility Score: inf
ROOT
ATOM      1  C   UNL A   1      35.613  22.976  23.638  1.00  0.00     0.002 C 
ENDROOT
BRANCH   1   2
ATOM      2  C   UNL A   1      34.270  22.281  23.893  1.00  0.00     0.002 C 
BRANCH   2   3
ATOM      3  C   UNL A   1      33.179  22.500  22.848  1.00  0.00     0.021 C 
BRANCH   3   4
ATOM      4  C   UNL A   1      33.222  23.829  22.104  1.00  0.00     0.116 C 
BRANCH   4   5
ATOM      5  N   UNL A   1      32.009  24.624  22.169  1.00  0.00    -0.352 N 
ATOM      6  O   UNL A   1      30.442  25.936  23.102  1.00  0.00    -0.270 OA
ATOM      7  C   UNL A   1      31.363  25.137  23.261  1.00  0.00     0.251 C 
ATOM      8  H   UNL A   1      31.590  24.823  21.300  1.00  0.00     0.163 HD
BRANCH   7   9
ATOM      9  C   UNL A   1      31.797  24.833  24.656  1.00  0.00     0.067 C 
ATOM     10  C   UNL A   1      32.945  25.323  25.159  1.00  0.00     0.025 C 
ATOM     11  C   UNL A   1      30.648  24.532  25.591  1.00  0.00     0.314 C 
ATOM     12  C   UNL A   1      32.682  26.348  26.199  1.00  0.00     0.018 A 
ATOM     13  O   UNL A   1      30.348  25.664  26.454  1.00  0.00    -0.475 OA
ATOM     14  C   UNL A   1      33.659  27.331  26.405  1.00  0.00     0.025 A 
ATOM     15  C   UNL A   1      31.386  26.528  26.705  1.00  0.00     0.128 A 
ATOM     16  C   UNL A   1      33.313  28.549  27.009  1.00  0.00     0.056 A 
ATOM     17  C   UNL A   1      31.060  27.700  27.381  1.00  0.00     0.048 A 
ATOM     18  C   UNL A   1      32.012  28.716  27.513  1.00  0.00     0.017 A 
BRANCH  11  19
ATOM     19  C   UNL A   1      30.885  23.257  26.414  1.00  0.00     0.429 C 
ATOM     20  F   UNL A   1      29.745  22.844  27.018  1.00  0.00    -0.167 F 
ATOM     21  F   UNL A   1      31.317  22.232  25.643  1.00  0.00    -0.167 F 
ATOM     22  F   UNL A   1      31.810  23.438  27.388  1.00  0.00    -0.167 F 
ENDBRANCH  11  19
BRANCH  16  23
ATOM     23  C   UNL A   1      34.306  29.688  27.035  1.00  0.00     0.416 C 
ATOM     24  F   UNL A   1      33.787  30.854  26.575  1.00  0.00    -0.166 F 
ATOM     25  F   UNL A   1      34.769  29.945  28.293  1.00  0.00    -0.166 F 
ATOM     26  F   UNL A   1      35.418  29.436  26.289  1.00  0.00    -0.166 F 
ENDBRANCH  16  23
ENDBRANCH   7   9
ENDBRANCH   4   5
ENDBRANCH   3   4
ENDBRANCH   2   3
ENDBRANCH   1   2
BRANCH   1  27
ATOM     27  C   UNL A   1      36.049  24.042  24.647  1.00  0.00     0.021 C 
BRANCH  27  28
ATOM     28  C   UNL A   1      36.480  23.538  26.023  1.00  0.00     0.116 C 
BRANCH  28  29
ATOM     29  N   UNL A   1      37.589  22.602  25.960  1.00  0.00    -0.352 N 
ATOM     30  C   UNL A   1      38.917  22.776  26.264  1.00  0.00     0.251 C 
ATOM     31  H   UNL A   1      37.351  21.699  25.651  1.00  0.00     0.163 HD
ATOM     32  O   UNL A   1      39.719  21.882  26.009  1.00  0.00    -0.269 OA
BRANCH  30  33
ATOM     33  C   UNL A   1      39.400  24.036  26.873  1.00  0.00     0.039 A 
ATOM     34  C   UNL A   1      40.046  24.967  26.053  1.00  0.00     0.014 A 
ATOM     35  C   UNL A   1      39.265  24.292  28.240  1.00  0.00     0.014 A 
ATOM     36  C   UNL A   1      40.506  26.172  26.591  1.00  0.00     0.010 A 
ATOM     37  C   UNL A   1      39.659  25.523  28.762  1.00  0.00     0.010 A 
ATOM     38  C   UNL A   1      40.291  26.473  27.944  1.00  0.00    -0.014 A 
BRANCH  38  39
ATOM     39  C   UNL A   1      40.723  27.774  28.518  1.00  0.00     0.031 A 
ATOM     40  C   UNL A   1      39.731  28.884  28.724  1.00  0.00     0.074 A 
ATOM     41  C   UNL A   1      42.024  27.973  28.810  1.00  0.00     0.049 A 
ATOM     42  N   UNL A   1      39.929  30.097  29.178  1.00  0.00    -0.248 NA
ATOM     43  C   UNL A   1      38.336  28.604  28.352  1.00  0.00     0.031 C 
ATOM     44  C   UNL A   1      43.093  26.991  28.624  1.00  0.00     0.029 A 
ATOM     45  N   UNL A   1      42.667  29.073  29.320  1.00  0.00    -0.354 N 
ATOM     46  C   UNL A   1      38.692  30.725  29.132  1.00  0.00     0.074 A 
ATOM     47  C   UNL A   1      37.760  29.779  28.557  1.00  0.00     0.031 C 
ATOM     48  C   UNL A   1      44.254  27.523  29.040  1.00  0.00     0.029 A 
ATOM     49  C   UNL A   1      44.019  28.895  29.481  1.00  0.00     0.049 A 
ATOM     50  H   UNL A   1      42.202  29.911  29.548  1.00  0.00     0.167 HD
ATOM     51  C   UNL A   1      38.354  31.970  29.546  1.00  0.00     0.031 A 
ATOM     52  C   UNL A   1      44.967  29.740  29.926  1.00  0.00     0.031 A 
ATOM     53  C   UNL A   1      39.280  32.913  30.115  1.00  0.00     0.049 A 
ATOM     54  C   UNL A   1      44.574  31.125  30.358  1.00  0.00     0.074 A 
ATOM     55  C   UNL A   1      39.026  34.180  30.612  1.00  0.00     0.029 A 
ATOM     56  N   UNL A   1      40.642  32.693  30.260  1.00  0.00    -0.354 N 
ATOM     57  N   UNL A   1      43.387  31.680  30.371  1.00  0.00    -0.248 NA
ATOM     58  C   UNL A   1      45.652  31.995  30.847  1.00  0.00     0.031 C 
ATOM     59  C   UNL A   1      40.243  34.748  31.002  1.00  0.00     0.029 A 
ATOM     60  C   UNL A   1      41.246  33.812  30.809  1.00  0.00     0.049 A 
ATOM     61  H   UNL A   1      41.109  31.865  30.006  1.00  0.00     0.167 HD
ATOM     62  C   UNL A   1      43.570  32.954  30.894  1.00  0.00     0.074 A 
ATOM     63  C   UNL A   1      44.979  33.082  31.201  1.00  0.00     0.031 C 
ATOM     64  C   UNL A   1      42.651  33.929  31.103  1.00  0.00     0.031 A 
BRANCH  51  65
ATOM     65  C   UNL A   1      36.917  32.386  29.381  1.00  0.00    -0.014 A 
ATOM     66  C   UNL A   1      36.456  32.962  28.184  1.00  0.00     0.009 A 
ATOM     67  C   UNL A   1      36.005  32.183  30.427  1.00  0.00     0.009 A 
ATOM     68  C   UNL A   1      35.126  33.366  28.058  1.00  0.00     0.001 A 
ATOM     69  C   UNL A   1      34.667  32.557  30.287  1.00  0.00     0.001 A 
ATOM     70  C   UNL A   1      34.232  33.159  29.108  1.00  0.00     0.000 A 
ENDBRANCH  51  65
BRANCH  52  71
ATOM     71  C   UNL A   1      46.383  29.293  29.998  1.00  0.00    -0.014 A 
ATOM     72  C   UNL A   1      47.246  29.476  28.908  1.00  0.00     0.009 A 
ATOM     73  C   UNL A   1      46.881  28.688  31.164  1.00  0.00     0.009 A 
ATOM     74  C   UNL A   1      48.572  29.042  28.974  1.00  0.00     0.001 A 
ATOM     75  C   UNL A   1      48.214  28.282  31.238  1.00  0.00     0.001 A 
ATOM     76  C   UNL A   1      49.057  28.451  30.141  1.00  0.00     0.000 A 
ENDBRANCH  52  71
BRANCH  64  77
ATOM     77  C   UNL A   1      43.137  35.210  31.720  1.00  0.00    -0.014 A 
ATOM     78  C   UNL A   1      43.644  36.256  30.933  1.00  0.00     0.009 A 
ATOM     79  C   UNL A   1      43.048  35.388  33.110  1.00  0.00     0.009 A 
ATOM     80  C   UNL A   1      44.084  37.439  31.530  1.00  0.00     0.001 A 
ATOM     81  C   UNL A   1      43.460  36.584  33.700  1.00  0.00     0.001 A 
ATOM     82  C   UNL A   1      43.986  37.604  32.911  1.00  0.00     0.000 A 
ENDBRANCH  64  77
ENDBRANCH  38  39
ENDBRANCH  30  33
ENDBRANCH  28  29
ENDBRANCH  27  28
ENDBRANCH   1  27
TORSDOF 15
ENDMDL
