MODEL 1
REMARK VINA RESULT:     -10.8      0.000      0.000
REMARK SMILES CC[C@H](NC(=O)N1CCO[C@@H](CC(=O)NCCCCCCNC(=O)c2ccc(-c3c4nc(c(-c5ccccc5)c5ccc([nH]5)c(-c5ccccc5)c5nc(c(-c6ccccc6)c6ccc3[nH]6)C=C5)C=C4)cc2)C1)c1cccs1
REMARK SMILES IDX 17 1 16 2 15 3 13 4 14 5 12 7 11 8 7 9 8 10 73 11 9 12 10 13
REMARK SMILES IDX 5 14 4 15 6 17 3 18 2 19 1 20 74 21 75 22 78 23 76 24 77 25
REMARK SMILES IDX 18 26 19 27 20 28 21 29 22 30 23 31 24 33 25 34 26 35 72 36
REMARK SMILES IDX 27 37 71 38 28 39 29 40 30 41 65 42 31 43 70 44 64 45 66 46
REMARK SMILES IDX 32 47 69 48 63 49 62 50 33 52 55 53 40 54 54 55 41 56 44 57
REMARK SMILES IDX 53 58 67 59 42 60 43 61 52 63 68 64 45 65 34 66 35 67 39 68
REMARK SMILES IDX 36 69 38 70 37 71 56 72 57 73 61 74 58 75 60 76 59 77 46 78
REMARK SMILES IDX 47 79 51 80 48 81 50 82 49 83
REMARK H PARENT 15 6 4 16 22 32 66 51 44 62
REMARK Flexibility Score: inf
ROOT
ATOM      1  C   UNL A   1      33.116  28.883  25.730  1.00  0.00     0.021 C 
ENDROOT
BRANCH   1   2
ATOM      2  C   UNL A   1      31.979  28.184  24.976  1.00  0.00     0.116 C 
BRANCH   2   3
ATOM      3  N   UNL A   1      32.411  27.827  23.632  1.00  0.00    -0.356 N 
ATOM      4  C   UNL A   1      33.365  26.948  23.213  1.00  0.00     0.222 C 
ATOM      5  O   UNL A   1      33.692  26.955  22.025  1.00  0.00    -0.275 OA
ATOM      6  H   UNL A   1      31.937  28.298  22.909  1.00  0.00     0.163 HD
BRANCH   4   7
ATOM      7  C   UNL A   1      33.997  25.983  24.183  1.00  0.00     0.133 C 
BRANCH   7   8
ATOM      8  C   UNL A   1      33.446  24.556  24.112  1.00  0.00     0.147 C 
ATOM      9  N   UNL A   1      32.906  22.622  25.650  1.00  0.00    -0.320 N 
ATOM     10  C   UNL A   1      31.510  23.005  25.497  1.00  0.00     0.150 C 
ATOM     11  C   UNL A   1      33.785  23.751  25.387  1.00  0.00     0.154 C 
ATOM     12  C   UNL A   1      31.284  23.515  24.086  1.00  0.00     0.182 C 
ATOM     13  O   UNL A   1      32.021  24.730  23.913  1.00  0.00    -0.374 OA
BRANCH   9  14
ATOM     14  C   UNL A   1      33.288  21.723  26.615  1.00  0.00     0.318 C 
ATOM     15  N   UNL A   1      33.822  20.533  26.237  1.00  0.00    -0.330 N 
ATOM     16  H   UNL A   1      33.768  19.815  26.908  1.00  0.00     0.166 HD
ATOM     17  O   UNL A   1      33.198  21.965  27.818  1.00  0.00    -0.249 OA
BRANCH  15  18
ATOM     18  C   UNL A   1      34.466  20.164  24.977  1.00  0.00     0.124 C 
BRANCH  18  19
ATOM     19  C   UNL A   1      35.999  20.315  25.045  1.00  0.00     0.027 C 
ATOM     20  C   UNL A   1      36.520  21.657  24.548  1.00  0.00     0.006 C 
ENDBRANCH  18  19
BRANCH  18  21
ATOM     21  C   UNL A   1      34.114  18.731  24.654  1.00  0.00     0.027 A 
ATOM     22  C   UNL A   1      34.927  17.726  24.152  1.00  0.00     0.017 A 
ATOM     23  S   UNL A   1      32.535  18.138  24.987  1.00  0.00    -0.147 S 
ATOM     24  C   UNL A   1      34.308  16.446  24.224  1.00  0.00     0.012 A 
ATOM     25  C   UNL A   1      33.015  16.524  24.690  1.00  0.00     0.065 A 
ENDBRANCH  18  21
ENDBRANCH  15  18
ENDBRANCH   9  14
ENDBRANCH   7   8
ENDBRANCH   4   7
ENDBRANCH   2   3
ENDBRANCH   1   2
BRANCH   1  26
ATOM     26  C   UNL A   1      32.662  30.055  26.598  1.00  0.00     0.002 C 
BRANCH  26  27
ATOM     27  C   UNL A   1      31.445  30.808  26.056  1.00  0.00     0.002 C 
BRANCH  27  28
ATOM     28  C   UNL A   1      31.334  32.273  26.491  1.00  0.00     0.021 C 
BRANCH  28  29
ATOM     29  C   UNL A   1      32.544  32.814  27.250  1.00  0.00     0.116 C 
BRANCH  29  30
ATOM     30  N   UNL A   1      32.381  34.219  27.594  1.00  0.00    -0.352 N 
ATOM     31  C   UNL A   1      32.995  34.956  28.575  1.00  0.00     0.251 C 
ATOM     32  H   UNL A   1      31.734  34.713  27.042  1.00  0.00     0.163 HD
ATOM     33  O   UNL A   1      32.567  36.063  28.880  1.00  0.00    -0.269 OA
BRANCH  31  34
ATOM     34  C   UNL A   1      34.177  34.410  29.275  1.00  0.00     0.039 A 
ATOM     35  C   UNL A   1      34.004  33.782  30.509  1.00  0.00     0.014 A 
ATOM     36  C   UNL A   1      35.456  34.547  28.726  1.00  0.00     0.014 A 
ATOM     37  C   UNL A   1      35.109  33.239  31.170  1.00  0.00     0.010 A 
ATOM     38  C   UNL A   1      36.545  33.950  29.353  1.00  0.00     0.010 A 
ATOM     39  C   UNL A   1      36.383  33.296  30.583  1.00  0.00    -0.014 A 
BRANCH  39  40
ATOM     40  C   UNL A   1      37.563  32.686  31.244  1.00  0.00     0.031 A 
ATOM     41  C   UNL A   1      38.251  31.503  30.621  1.00  0.00     0.074 A 
ATOM     42  C   UNL A   1      37.977  33.156  32.437  1.00  0.00     0.049 A 
ATOM     43  N   UNL A   1      39.250  30.792  31.079  1.00  0.00    -0.248 NA
ATOM     44  C   UNL A   1      37.730  31.043  29.323  1.00  0.00     0.031 C 
ATOM     45  C   UNL A   1      37.379  34.279  33.161  1.00  0.00     0.029 A 
ATOM     46  N   UNL A   1      38.999  32.740  33.253  1.00  0.00    -0.354 N 
ATOM     47  C   UNL A   1      39.465  29.795  30.136  1.00  0.00     0.074 A 
ATOM     48  C   UNL A   1      38.464  29.963  29.105  1.00  0.00     0.031 C 
ATOM     49  C   UNL A   1      38.061  34.479  34.301  1.00  0.00     0.029 A 
ATOM     50  C   UNL A   1      39.116  33.477  34.407  1.00  0.00     0.049 A 
ATOM     51  H   UNL A   1      39.593  31.985  33.032  1.00  0.00     0.167 HD
ATOM     52  C   UNL A   1      40.422  28.837  30.118  1.00  0.00     0.031 A 
ATOM     53  C   UNL A   1      39.973  33.353  35.437  1.00  0.00     0.031 A 
ATOM     54  C   UNL A   1      41.424  28.673  31.138  1.00  0.00     0.049 A 
ATOM     55  C   UNL A   1      41.011  32.266  35.406  1.00  0.00     0.074 A 
ATOM     56  C   UNL A   1      42.466  27.764  31.186  1.00  0.00     0.029 A 
ATOM     57  N   UNL A   1      41.506  29.439  32.290  1.00  0.00    -0.354 N 
ATOM     58  N   UNL A   1      41.238  31.366  34.480  1.00  0.00    -0.248 NA
ATOM     59  C   UNL A   1      41.917  32.185  36.561  1.00  0.00     0.031 C 
ATOM     60  C   UNL A   1      43.151  27.949  32.391  1.00  0.00     0.029 A 
ATOM     61  C   UNL A   1      42.568  29.009  33.068  1.00  0.00     0.049 A 
ATOM     62  H   UNL A   1      40.900  30.180  32.521  1.00  0.00     0.167 HD
ATOM     63  C   UNL A   1      42.328  30.632  34.925  1.00  0.00     0.074 A 
ATOM     64  C   UNL A   1      42.726  31.199  36.198  1.00  0.00     0.031 C 
ATOM     65  C   UNL A   1      42.950  29.584  34.331  1.00  0.00     0.031 A 
BRANCH  52  66
ATOM     66  C   UNL A   1      40.421  27.882  28.956  1.00  0.00    -0.014 A 
ATOM     67  C   UNL A   1      41.153  28.155  27.789  1.00  0.00     0.009 A 
ATOM     68  C   UNL A   1      39.697  26.682  29.037  1.00  0.00     0.009 A 
ATOM     69  C   UNL A   1      41.128  27.267  26.712  1.00  0.00     0.001 A 
ATOM     70  C   UNL A   1      39.697  25.781  27.969  1.00  0.00     0.001 A 
ATOM     71  C   UNL A   1      40.402  26.079  26.805  1.00  0.00     0.000 A 
ENDBRANCH  52  66
BRANCH  53  72
ATOM     72  C   UNL A   1      39.902  34.299  36.581  1.00  0.00    -0.014 A 
ATOM     73  C   UNL A   1      40.476  35.576  36.480  1.00  0.00     0.009 A 
ATOM     74  C   UNL A   1      39.267  33.933  37.777  1.00  0.00     0.009 A 
ATOM     75  C   UNL A   1      40.439  36.457  37.563  1.00  0.00     0.001 A 
ATOM     76  C   UNL A   1      39.207  34.826  38.849  1.00  0.00     0.001 A 
ATOM     77  C   UNL A   1      39.800  36.084  38.744  1.00  0.00     0.000 A 
ENDBRANCH  53  72
BRANCH  65  78
ATOM     78  C   UNL A   1      44.145  29.007  35.033  1.00  0.00    -0.014 A 
ATOM     79  C   UNL A   1      45.442  29.477  34.772  1.00  0.00     0.009 A 
ATOM     80  C   UNL A   1      43.965  28.007  36.001  1.00  0.00     0.009 A 
ATOM     81  C   UNL A   1      46.537  28.932  35.444  1.00  0.00     0.001 A 
ATOM     82  C   UNL A   1      45.058  27.484  36.691  1.00  0.00     0.001 A 
ATOM     83  C   UNL A   1      46.344  27.940  36.407  1.00  0.00     0.000 A 
ENDBRANCH  65  78
ENDBRANCH  39  40
ENDBRANCH  31  34
ENDBRANCH  29  30
ENDBRANCH  28  29
ENDBRANCH  27  28
ENDBRANCH  26  27
ENDBRANCH   1  26
TORSDOF 18
ENDMDL
MODEL 2
REMARK VINA RESULT:     -10.7      1.337      6.003
REMARK SMILES CC[C@H](NC(=O)N1CCO[C@@H](CC(=O)NCCCCCCNC(=O)c2ccc(-c3c4nc(c(-c5ccccc5)c5ccc([nH]5)c(-c5ccccc5)c5nc(c(-c6ccccc6)c6ccc3[nH]6)C=C5)C=C4)cc2)C1)c1cccs1
REMARK SMILES IDX 17 1 16 2 15 3 13 4 14 5 12 7 11 8 7 9 8 10 73 11 9 12 10 13
REMARK SMILES IDX 5 14 4 15 6 17 3 18 2 19 1 20 74 21 75 22 78 23 76 24 77 25
REMARK SMILES IDX 18 26 19 27 20 28 21 29 22 30 23 31 24 33 25 34 26 35 72 36
REMARK SMILES IDX 27 37 71 38 28 39 29 40 30 41 65 42 31 43 70 44 64 45 66 46
REMARK SMILES IDX 32 47 69 48 63 49 62 50 33 52 55 53 40 54 54 55 41 56 44 57
REMARK SMILES IDX 53 58 67 59 42 60 43 61 52 63 68 64 45 65 34 66 35 67 39 68
REMARK SMILES IDX 36 69 38 70 37 71 56 72 57 73 61 74 58 75 60 76 59 77 46 78
REMARK SMILES IDX 47 79 51 80 48 81 50 82 49 83
REMARK H PARENT 15 6 4 16 22 32 66 51 44 62
REMARK Flexibility Score: inf
ROOT
ATOM      1  C   UNL A   1      31.557  28.871  23.057  1.00  0.00     0.021 C 
ENDROOT
BRANCH   1   2
ATOM      2  C   UNL A   1      31.049  27.435  22.876  1.00  0.00     0.116 C 
BRANCH   2   3
ATOM      3  N   UNL A   1      31.661  26.830  21.702  1.00  0.00    -0.356 N 
ATOM      4  C   UNL A   1      32.793  26.080  21.580  1.00  0.00     0.222 C 
ATOM      5  O   UNL A   1      33.221  25.837  20.451  1.00  0.00    -0.275 OA
ATOM      6  H   UNL A   1      31.178  26.987  20.859  1.00  0.00     0.163 HD
BRANCH   4   7
ATOM      7  C   UNL A   1      33.499  25.553  22.804  1.00  0.00     0.133 C 
BRANCH   7   8
ATOM      8  C   UNL A   1      33.148  24.109  23.169  1.00  0.00     0.147 C 
ATOM      9  N   UNL A   1      33.119  22.586  25.189  1.00  0.00    -0.320 N 
ATOM     10  C   UNL A   1      31.676  22.778  25.204  1.00  0.00     0.150 C 
ATOM     11  C   UNL A   1      33.783  23.691  24.516  1.00  0.00     0.154 C 
ATOM     12  C   UNL A   1      31.172  22.888  23.776  1.00  0.00     0.182 C 
ATOM     13  O   UNL A   1      31.699  24.086  23.194  1.00  0.00    -0.374 OA
BRANCH   9  14
ATOM     14  C   UNL A   1      33.763  22.003  26.252  1.00  0.00     0.318 C 
ATOM     15  N   UNL A   1      34.373  20.803  26.081  1.00  0.00    -0.330 N 
ATOM     16  H   UNL A   1      34.520  20.283  26.903  1.00  0.00     0.166 HD
ATOM     17  O   UNL A   1      33.839  22.543  27.356  1.00  0.00    -0.249 OA
BRANCH  15  18
ATOM     18  C   UNL A   1      34.845  20.171  24.850  1.00  0.00     0.124 C 
BRANCH  18  19
ATOM     19  C   UNL A   1      36.377  20.001  24.837  1.00  0.00     0.027 C 
ATOM     20  C   UNL A   1      37.152  21.306  24.717  1.00  0.00     0.006 C 
ENDBRANCH  18  19
BRANCH  18  21
ATOM     21  C   UNL A   1      34.186  18.817  24.716  1.00  0.00     0.027 A 
ATOM     22  C   UNL A   1      34.640  17.690  24.049  1.00  0.00     0.017 A 
ATOM     23  S   UNL A   1      32.705  18.499  25.529  1.00  0.00    -0.147 S 
ATOM     24  C   UNL A   1      33.872  16.533  24.363  1.00  0.00     0.012 A 
ATOM     25  C   UNL A   1      32.808  16.827  25.185  1.00  0.00     0.065 A 
ENDBRANCH  18  21
ENDBRANCH  15  18
ENDBRANCH   9  14
ENDBRANCH   7   8
ENDBRANCH   4   7
ENDBRANCH   2   3
ENDBRANCH   1   2
BRANCH   1  26
ATOM     26  C   UNL A   1      30.680  29.734  23.960  1.00  0.00     0.002 C 
BRANCH  26  27
ATOM     27  C   UNL A   1      31.250  29.968  25.360  1.00  0.00     0.002 C 
BRANCH  27  28
ATOM     28  C   UNL A   1      31.184  31.414  25.863  1.00  0.00     0.021 C 
BRANCH  28  29
ATOM     29  C   UNL A   1      32.226  31.777  26.919  1.00  0.00     0.116 C 
BRANCH  29  30
ATOM     30  N   UNL A   1      32.221  33.202  27.215  1.00  0.00    -0.352 N 
ATOM     31  C   UNL A   1      33.040  33.926  28.044  1.00  0.00     0.251 C 
ATOM     32  H   UNL A   1      31.527  33.723  26.752  1.00  0.00     0.163 HD
ATOM     33  O   UNL A   1      32.747  35.074  28.359  1.00  0.00    -0.269 OA
BRANCH  31  34
ATOM     34  C   UNL A   1      34.281  33.318  28.568  1.00  0.00     0.039 A 
ATOM     35  C   UNL A   1      35.498  33.632  27.960  1.00  0.00     0.014 A 
ATOM     36  C   UNL A   1      34.237  32.416  29.636  1.00  0.00     0.014 A 
ATOM     37  C   UNL A   1      36.683  33.084  28.460  1.00  0.00     0.010 A 
ATOM     38  C   UNL A   1      35.422  31.923  30.173  1.00  0.00     0.010 A 
ATOM     39  C   UNL A   1      36.655  32.248  29.587  1.00  0.00    -0.014 A 
BRANCH  39  40
ATOM     40  C   UNL A   1      37.904  31.691  30.164  1.00  0.00     0.031 A 
ATOM     41  C   UNL A   1      38.547  32.353  31.351  1.00  0.00     0.074 A 
ATOM     42  C   UNL A   1      38.493  30.630  29.581  1.00  0.00     0.049 A 
ATOM     43  N   UNL A   1      39.672  32.058  31.952  1.00  0.00    -0.248 NA
ATOM     44  C   UNL A   1      37.846  33.514  31.922  1.00  0.00     0.031 C 
ATOM     45  C   UNL A   1      37.986  29.914  28.408  1.00  0.00     0.029 A 
ATOM     46  N   UNL A   1      39.655  29.970  29.896  1.00  0.00    -0.354 N 
ATOM     47  C   UNL A   1      39.821  33.004  32.958  1.00  0.00     0.074 A 
ATOM     48  C   UNL A   1      38.697  33.910  32.857  1.00  0.00     0.031 C 
ATOM     49  C   UNL A   1      38.817  28.900  28.119  1.00  0.00     0.029 A 
ATOM     50  C   UNL A   1      39.934  28.918  29.058  1.00  0.00     0.049 A 
ATOM     51  H   UNL A   1      40.233  30.226  30.652  1.00  0.00     0.167 HD
ATOM     52  C   UNL A   1      40.794  33.100  33.895  1.00  0.00     0.031 A 
ATOM     53  C   UNL A   1      40.977  28.067  29.046  1.00  0.00     0.031 A 
ATOM     54  C   UNL A   1      41.907  32.196  34.003  1.00  0.00     0.049 A 
ATOM     55  C   UNL A   1      42.058  28.210  30.080  1.00  0.00     0.074 A 
ATOM     56  C   UNL A   1      42.919  32.180  34.948  1.00  0.00     0.029 A 
ATOM     57  N   UNL A   1      42.154  31.145  33.134  1.00  0.00    -0.354 N 
ATOM     58  N   UNL A   1      42.154  29.075  31.060  1.00  0.00    -0.248 NA
ATOM     59  C   UNL A   1      43.168  27.250  30.012  1.00  0.00     0.031 C 
ATOM     60  C   UNL A   1      43.804  31.148  34.622  1.00  0.00     0.029 A 
ATOM     61  C   UNL A   1      43.314  30.487  33.507  1.00  0.00     0.049 A 
ATOM     62  H   UNL A   1      41.587  30.901  32.366  1.00  0.00     0.167 HD
ATOM     63  C   UNL A   1      43.318  28.747  31.742  1.00  0.00     0.074 A 
ATOM     64  C   UNL A   1      43.887  27.595  31.071  1.00  0.00     0.031 C 
ATOM     65  C   UNL A   1      43.865  29.343  32.829  1.00  0.00     0.031 A 
BRANCH  52  66
ATOM     66  C   UNL A   1      40.697  34.237  34.875  1.00  0.00    -0.014 A 
ATOM     67  C   UNL A   1      40.013  34.092  36.093  1.00  0.00     0.009 A 
ATOM     68  C   UNL A   1      41.318  35.463  34.588  1.00  0.00     0.009 A 
ATOM     69  C   UNL A   1      39.918  35.163  36.984  1.00  0.00     0.001 A 
ATOM     70  C   UNL A   1      41.246  36.523  35.494  1.00  0.00     0.001 A 
ATOM     71  C   UNL A   1      40.538  36.376  36.685  1.00  0.00     0.000 A 
ENDBRANCH  52  66
BRANCH  53  72
ATOM     72  C   UNL A   1      41.043  26.986  28.027  1.00  0.00    -0.014 A 
ATOM     73  C   UNL A   1      41.702  27.203  26.806  1.00  0.00     0.009 A 
ATOM     74  C   UNL A   1      40.447  25.739  28.265  1.00  0.00     0.009 A 
ATOM     75  C   UNL A   1      41.739  26.202  25.834  1.00  0.00     0.001 A 
ATOM     76  C   UNL A   1      40.510  24.729  27.302  1.00  0.00     0.001 A 
ATOM     77  C   UNL A   1      41.148  24.965  26.084  1.00  0.00     0.000 A 
ENDBRANCH  53  72
BRANCH  65  78
ATOM     78  C   UNL A   1      45.124  28.738  33.382  1.00  0.00    -0.014 A 
ATOM     79  C   UNL A   1      46.390  29.189  32.978  1.00  0.00     0.009 A 
ATOM     80  C   UNL A   1      45.038  27.728  34.353  1.00  0.00     0.009 A 
ATOM     81  C   UNL A   1      47.545  28.618  33.514  1.00  0.00     0.001 A 
ATOM     82  C   UNL A   1      46.195  27.179  34.907  1.00  0.00     0.001 A 
ATOM     83  C   UNL A   1      47.447  27.617  34.482  1.00  0.00     0.000 A 
ENDBRANCH  65  78
ENDBRANCH  39  40
ENDBRANCH  31  34
ENDBRANCH  29  30
ENDBRANCH  28  29
ENDBRANCH  27  28
ENDBRANCH  26  27
ENDBRANCH   1  26
TORSDOF 18
ENDMDL
MODEL 3
REMARK VINA RESULT:     -10.4      1.909      6.545
REMARK SMILES CC[C@H](NC(=O)N1CCO[C@@H](CC(=O)NCCCCCCNC(=O)c2ccc(-c3c4nc(c(-c5ccccc5)c5ccc([nH]5)c(-c5ccccc5)c5nc(c(-c6ccccc6)c6ccc3[nH]6)C=C5)C=C4)cc2)C1)c1cccs1
REMARK SMILES IDX 17 1 16 2 15 3 13 4 14 5 12 7 11 8 7 9 8 10 73 11 9 12 10 13
REMARK SMILES IDX 5 14 4 15 6 17 3 18 2 19 1 20 74 21 75 22 78 23 76 24 77 25
REMARK SMILES IDX 18 26 19 27 20 28 21 29 22 30 23 31 24 33 25 34 26 35 72 36
REMARK SMILES IDX 27 37 71 38 28 39 29 40 30 41 65 42 31 43 70 44 64 45 66 46
REMARK SMILES IDX 32 47 69 48 63 49 62 50 33 52 55 53 40 54 54 55 41 56 44 57
REMARK SMILES IDX 53 58 67 59 42 60 43 61 52 63 68 64 45 65 34 66 35 67 39 68
REMARK SMILES IDX 36 69 38 70 37 71 56 72 57 73 61 74 58 75 60 76 59 77 46 78
REMARK SMILES IDX 47 79 51 80 48 81 50 82 49 83
REMARK H PARENT 15 6 4 16 22 32 66 51 44 62
REMARK Flexibility Score: inf
ROOT
ATOM      1  C   UNL A   1      35.496  32.004  28.068  1.00  0.00     0.021 C 
ENDROOT
BRANCH   1   2
ATOM      2  C   UNL A   1      34.651  30.769  27.732  1.00  0.00     0.116 C 
BRANCH   2   3
ATOM      3  N   UNL A   1      33.406  31.171  27.093  1.00  0.00    -0.356 N 
ATOM      4  C   UNL A   1      32.306  30.438  26.757  1.00  0.00     0.222 C 
ATOM      5  O   UNL A   1      31.446  30.958  26.046  1.00  0.00    -0.275 OA
ATOM      6  H   UNL A   1      33.349  32.127  26.866  1.00  0.00     0.163 HD
BRANCH   4   7
ATOM      7  C   UNL A   1      32.145  29.025  27.258  1.00  0.00     0.133 C 
BRANCH   7   8
ATOM      8  C   UNL A   1      32.745  27.954  26.344  1.00  0.00     0.147 C 
ATOM      9  N   UNL A   1      32.014  26.315  24.561  1.00  0.00    -0.320 N 
ATOM     10  C   UNL A   1      32.591  27.241  23.598  1.00  0.00     0.150 C 
ATOM     11  C   UNL A   1      31.658  27.002  25.792  1.00  0.00     0.154 C 
ATOM     12  C   UNL A   1      33.825  27.886  24.202  1.00  0.00     0.182 C 
ATOM     13  O   UNL A   1      33.422  28.704  25.306  1.00  0.00    -0.374 OA
BRANCH   9  14
ATOM     14  C   UNL A   1      31.212  25.279  24.150  1.00  0.00     0.318 C 
ATOM     15  N   UNL A   1      31.641  24.002  24.314  1.00  0.00    -0.330 N 
ATOM     16  H   UNL A   1      31.217  23.336  23.728  1.00  0.00     0.166 HD
ATOM     17  O   UNL A   1      30.095  25.460  23.664  1.00  0.00    -0.249 OA
BRANCH  15  18
ATOM     18  C   UNL A   1      32.645  23.473  25.237  1.00  0.00     0.124 C 
BRANCH  18  19
ATOM     19  C   UNL A   1      32.147  23.476  26.696  1.00  0.00     0.027 C 
ATOM     20  C   UNL A   1      30.728  22.953  26.876  1.00  0.00     0.006 C 
ENDBRANCH  18  19
BRANCH  18  21
ATOM     21  C   UNL A   1      32.987  22.061  24.824  1.00  0.00     0.027 A 
ATOM     22  C   UNL A   1      33.874  21.172  25.412  1.00  0.00     0.017 A 
ATOM     23  S   UNL A   1      32.166  21.329  23.502  1.00  0.00    -0.147 S 
ATOM     24  C   UNL A   1      33.735  19.852  24.897  1.00  0.00     0.012 A 
ATOM     25  C   UNL A   1      32.816  19.792  23.874  1.00  0.00     0.065 A 
ENDBRANCH  18  21
ENDBRANCH  15  18
ENDBRANCH   9  14
ENDBRANCH   7   8
ENDBRANCH   4   7
ENDBRANCH   2   3
ENDBRANCH   1   2
BRANCH   1  26
ATOM     26  C   UNL A   1      34.758  33.064  28.880  1.00  0.00     0.002 C 
BRANCH  26  27
ATOM     27  C   UNL A   1      35.187  34.502  28.581  1.00  0.00     0.002 C 
BRANCH  27  28
ATOM     28  C   UNL A   1      34.114  35.570  28.823  1.00  0.00     0.021 C 
BRANCH  28  29
ATOM     29  C   UNL A   1      32.846  35.068  29.509  1.00  0.00     0.116 C 
BRANCH  29  30
ATOM     30  N   UNL A   1      32.443  35.938  30.604  1.00  0.00    -0.352 N 
ATOM     31  C   UNL A   1      32.851  35.943  31.914  1.00  0.00     0.251 C 
ATOM     32  H   UNL A   1      31.778  36.624  30.370  1.00  0.00     0.163 HD
ATOM     33  O   UNL A   1      32.235  36.589  32.754  1.00  0.00    -0.269 OA
BRANCH  31  34
ATOM     34  C   UNL A   1      34.038  35.160  32.318  1.00  0.00     0.039 A 
ATOM     35  C   UNL A   1      33.858  33.882  32.851  1.00  0.00     0.014 A 
ATOM     36  C   UNL A   1      35.322  35.700  32.198  1.00  0.00     0.014 A 
ATOM     37  C   UNL A   1      34.972  33.121  33.215  1.00  0.00     0.010 A 
ATOM     38  C   UNL A   1      36.432  34.917  32.498  1.00  0.00     0.010 A 
ATOM     39  C   UNL A   1      36.267  33.623  33.015  1.00  0.00    -0.014 A 
BRANCH  39  40
ATOM     40  C   UNL A   1      37.466  32.815  33.350  1.00  0.00     0.031 A 
ATOM     41  C   UNL A   1      38.222  33.077  34.623  1.00  0.00     0.074 A 
ATOM     42  C   UNL A   1      37.911  31.889  32.479  1.00  0.00     0.049 A 
ATOM     43  N   UNL A   1      39.328  32.525  35.055  1.00  0.00    -0.248 NA
ATOM     44  C   UNL A   1      37.677  34.112  35.515  1.00  0.00     0.031 C 
ATOM     45  C   UNL A   1      37.285  31.558  31.197  1.00  0.00     0.029 A 
ATOM     46  N   UNL A   1      39.002  31.058  32.540  1.00  0.00    -0.354 N 
ATOM     47  C   UNL A   1      39.618  33.157  36.258  1.00  0.00     0.074 A 
ATOM     48  C   UNL A   1      38.600  34.164  36.464  1.00  0.00     0.031 C 
ATOM     49  C   UNL A   1      37.987  30.577  30.606  1.00  0.00     0.029 A 
ATOM     50  C   UNL A   1      39.131  30.239  31.445  1.00  0.00     0.049 A 
ATOM     51  H   UNL A   1      39.632  31.050  33.297  1.00  0.00     0.167 HD
ATOM     52  C   UNL A   1      40.628  32.908  37.125  1.00  0.00     0.031 A 
ATOM     53  C   UNL A   1      40.071  29.322  31.148  1.00  0.00     0.031 A 
ATOM     54  C   UNL A   1      41.636  31.901  36.926  1.00  0.00     0.049 A 
ATOM     55  C   UNL A   1      41.197  29.082  32.114  1.00  0.00     0.074 A 
ATOM     56  C   UNL A   1      42.673  31.539  37.769  1.00  0.00     0.029 A 
ATOM     57  N   UNL A   1      41.732  31.094  35.804  1.00  0.00    -0.354 N 
ATOM     58  N   UNL A   1      41.426  29.648  33.274  1.00  0.00    -0.248 NA
ATOM     59  C   UNL A   1      42.191  28.068  31.732  1.00  0.00     0.031 C 
ATOM     60  C   UNL A   1      43.425  30.545  37.135  1.00  0.00     0.029 A 
ATOM     61  C   UNL A   1      42.824  30.251  35.921  1.00  0.00     0.049 A 
ATOM     62  H   UNL A   1      41.115  31.116  35.037  1.00  0.00     0.167 HD
ATOM     63  C   UNL A   1      42.569  29.040  33.773  1.00  0.00     0.074 A 
ATOM     64  C   UNL A   1      42.981  28.053  32.796  1.00  0.00     0.031 C 
ATOM     65  C   UNL A   1      43.219  29.274  34.940  1.00  0.00     0.031 A 
BRANCH  52  66
ATOM     66  C   UNL A   1      40.695  33.754  38.367  1.00  0.00    -0.014 A 
ATOM     67  C   UNL A   1      41.393  34.973  38.381  1.00  0.00     0.009 A 
ATOM     68  C   UNL A   1      40.031  33.339  39.532  1.00  0.00     0.009 A 
ATOM     69  C   UNL A   1      41.459  35.738  39.547  1.00  0.00     0.001 A 
ATOM     70  C   UNL A   1      40.075  34.120  40.689  1.00  0.00     0.001 A 
ATOM     71  C   UNL A   1      40.797  35.312  40.699  1.00  0.00     0.000 A 
ENDBRANCH  52  66
BRANCH  53  72
ATOM     72  C   UNL A   1      39.978  28.544  29.885  1.00  0.00    -0.014 A 
ATOM     73  C   UNL A   1      39.340  27.294  29.870  1.00  0.00     0.009 A 
ATOM     74  C   UNL A   1      40.528  29.041  28.694  1.00  0.00     0.009 A 
ATOM     75  C   UNL A   1      39.277  26.546  28.692  1.00  0.00     0.001 A 
ATOM     76  C   UNL A   1      40.440  28.303  27.512  1.00  0.00     0.001 A 
ATOM     77  C   UNL A   1      39.822  27.052  27.514  1.00  0.00     0.000 A 
ENDBRANCH  53  72
BRANCH  65  78
ATOM     78  C   UNL A   1      44.421  28.424  35.239  1.00  0.00    -0.014 A 
ATOM     79  C   UNL A   1      45.713  28.833  34.874  1.00  0.00     0.009 A 
ATOM     80  C   UNL A   1      44.259  27.215  35.933  1.00  0.00     0.009 A 
ATOM     81  C   UNL A   1      46.816  28.030  35.170  1.00  0.00     0.001 A 
ATOM     82  C   UNL A   1      45.366  26.429  36.253  1.00  0.00     0.001 A 
ATOM     83  C   UNL A   1      46.642  26.832  35.864  1.00  0.00     0.000 A 
ENDBRANCH  65  78
ENDBRANCH  39  40
ENDBRANCH  31  34
ENDBRANCH  29  30
ENDBRANCH  28  29
ENDBRANCH  27  28
ENDBRANCH  26  27
ENDBRANCH   1  26
TORSDOF 18
ENDMDL
