MODEL 1
REMARK VINA RESULT:     -12.5      0.000      0.000
REMARK SMILES O=C(NCCCCCCNC(=O)[C@H]1Cc2c([nH]c3ccccc23)[C@H](c2c[nH]c3ccccc23)[NH2+]1)c1ccc(-c2c3nc(c(-c4ccccc4)c4ccc([nH]4)c(-c4ccccc4)c4nc(c(-c5ccccc5)c5ccc2[nH]5)C=C4)C=C3)cc1
REMARK SMILES IDX 6 1 5 2 4 3 3 4 1 5 2 6 35 8 36 9 82 10 37 11 81 12 38 13
REMARK SMILES IDX 39 14 40 15 75 16 41 17 80 18 74 19 76 20 42 21 79 22 73 23
REMARK SMILES IDX 72 24 43 26 65 27 50 28 64 29 51 30 54 31 63 32 77 33 52 34
REMARK SMILES IDX 53 35 62 37 78 38 55 39 44 40 45 41 49 42 46 43 48 44 47 45
REMARK SMILES IDX 66 46 67 47 71 48 68 49 70 50 69 51 56 52 57 53 61 54 58 55
REMARK SMILES IDX 60 56 59 57 7 58 8 59 9 60 10 61 11 62 12 64 13 65 14 66
REMARK SMILES IDX 34 67 15 68 24 69 16 72 23 73 17 74 18 75 22 76 19 78 21 79
REMARK SMILES IDX 20 80 25 81 26 82 33 83 27 84 28 85 32 86 29 88 31 89 30 90
REMARK H PARENT 3 7 76 25 54 36 10 63 34 70 34 71 17 77 27 87
REMARK Flexibility Score: inf
ROOT
ATOM      1  C   UNL A   1      34.455  33.624  28.462  1.00  0.00     0.002 C 
ENDROOT
BRANCH   1   2
ATOM      2  C   UNL A   1      33.192  34.402  28.827  1.00  0.00     0.021 C 
BRANCH   2   3
ATOM      3  C   UNL A   1      33.431  35.849  29.240  1.00  0.00     0.116 C 
BRANCH   3   4
ATOM      4  N   UNL A   1      32.580  36.270  30.342  1.00  0.00    -0.352 N 
ATOM      5  O   UNL A   1      31.776  36.263  32.454  1.00  0.00    -0.269 OA
ATOM      6  C   UNL A   1      32.660  35.928  31.671  1.00  0.00     0.251 C 
ATOM      7  H   UNL A   1      31.847  36.883  30.103  1.00  0.00     0.163 HD
BRANCH   6   8
ATOM      8  C   UNL A   1      33.809  35.130  32.152  1.00  0.00     0.039 A 
ATOM      9  C   UNL A   1      35.085  35.691  32.210  1.00  0.00     0.014 A 
ATOM     10  C   UNL A   1      33.608  33.801  32.541  1.00  0.00     0.014 A 
ATOM     11  C   UNL A   1      36.178  34.885  32.509  1.00  0.00     0.010 A 
ATOM     12  C   UNL A   1      34.699  33.016  32.931  1.00  0.00     0.010 A 
ATOM     13  C   UNL A   1      35.998  33.544  32.888  1.00  0.00    -0.014 A 
BRANCH  13  14
ATOM     14  C   UNL A   1      37.188  32.755  33.296  1.00  0.00     0.031 A 
ATOM     15  C   UNL A   1      37.842  31.773  32.365  1.00  0.00     0.074 A 
ATOM     16  C   UNL A   1      37.722  32.992  34.510  1.00  0.00     0.049 A 
ATOM     17  N   UNL A   1      38.943  31.086  32.542  1.00  0.00    -0.248 NA
ATOM     18  C   UNL A   1      37.179  31.521  31.076  1.00  0.00     0.031 C 
ATOM     19  C   UNL A   1      37.166  33.910  35.510  1.00  0.00     0.029 A 
ATOM     20  N   UNL A   1      38.866  32.518  35.096  1.00  0.00    -0.354 N 
ATOM     21  C   UNL A   1      39.102  30.315  31.396  1.00  0.00     0.074 A 
ATOM     22  C   UNL A   1      37.968  30.598  30.541  1.00  0.00     0.031 C 
ATOM     23  C   UNL A   1      38.004  33.983  36.553  1.00  0.00     0.029 A 
ATOM     24  C   UNL A   1      39.123  33.076  36.324  1.00  0.00     0.049 A 
ATOM     25  H   UNL A   1      39.448  31.842  34.678  1.00  0.00     0.167 HD
ATOM     26  C   UNL A   1      40.103  29.458  31.083  1.00  0.00     0.031 A 
ATOM     27  C   UNL A   1      40.143  32.883  37.179  1.00  0.00     0.031 A 
ATOM     28  C   UNL A   1      41.227  29.172  31.937  1.00  0.00     0.049 A 
ATOM     29  C   UNL A   1      41.235  31.926  36.806  1.00  0.00     0.074 A 
ATOM     30  C   UNL A   1      42.293  28.319  31.704  1.00  0.00     0.029 A 
ATOM     31  N   UNL A   1      41.432  29.732  33.188  1.00  0.00    -0.354 N 
ATOM     32  N   UNL A   1      41.376  31.225  35.708  1.00  0.00    -0.248 NA
ATOM     33  C   UNL A   1      42.307  31.736  37.790  1.00  0.00     0.031 C 
ATOM     34  C   UNL A   1      43.124  28.335  32.830  1.00  0.00     0.029 A 
ATOM     35  C   UNL A   1      42.600  29.234  33.744  1.00  0.00     0.049 A 
ATOM     36  H   UNL A   1      40.836  30.387  33.619  1.00  0.00     0.167 HD
ATOM     37  C   UNL A   1      42.555  30.512  35.868  1.00  0.00     0.074 A 
ATOM     38  C   UNL A   1      43.107  30.893  37.151  1.00  0.00     0.031 C 
ATOM     39  C   UNL A   1      43.125  29.612  35.030  1.00  0.00     0.031 A 
BRANCH  26  40
ATOM     40  C   UNL A   1      40.023  28.749  29.760  1.00  0.00    -0.014 A 
ATOM     41  C   UNL A   1      40.525  29.341  28.589  1.00  0.00     0.009 A 
ATOM     42  C   UNL A   1      39.495  27.450  29.690  1.00  0.00     0.009 A 
ATOM     43  C   UNL A   1      40.477  28.655  27.372  1.00  0.00     0.001 A 
ATOM     44  C   UNL A   1      39.469  26.759  28.477  1.00  0.00     0.001 A 
ATOM     45  C   UNL A   1      39.954  27.364  27.319  1.00  0.00     0.000 A 
ENDBRANCH  26  40
BRANCH  27  46
ATOM     46  C   UNL A   1      40.165  33.604  38.477  1.00  0.00    -0.014 A 
ATOM     47  C   UNL A   1      39.514  33.078  39.602  1.00  0.00     0.009 A 
ATOM     48  C   UNL A   1      40.852  34.823  38.596  1.00  0.00     0.009 A 
ATOM     49  C   UNL A   1      39.532  33.770  40.815  1.00  0.00     0.001 A 
ATOM     50  C   UNL A   1      40.896  35.496  39.817  1.00  0.00     0.001 A 
ATOM     51  C   UNL A   1      40.228  34.974  40.923  1.00  0.00     0.000 A 
ENDBRANCH  27  46
BRANCH  39  52
ATOM     52  C   UNL A   1      44.414  28.992  35.485  1.00  0.00    -0.014 A 
ATOM     53  C   UNL A   1      45.649  29.583  35.177  1.00  0.00     0.009 A 
ATOM     54  C   UNL A   1      44.393  27.804  36.231  1.00  0.00     0.009 A 
ATOM     55  C   UNL A   1      46.841  28.973  35.573  1.00  0.00     0.001 A 
ATOM     56  C   UNL A   1      45.584  27.211  36.648  1.00  0.00     0.001 A 
ATOM     57  C   UNL A   1      46.807  27.788  36.309  1.00  0.00     0.000 A 
ENDBRANCH  39  52
ENDBRANCH  13  14
ENDBRANCH   6   8
ENDBRANCH   3   4
ENDBRANCH   2   3
ENDBRANCH   1   2
BRANCH   1  58
ATOM     58  C   UNL A   1      34.412  32.123  28.767  1.00  0.00     0.002 C 
BRANCH  58  59
ATOM     59  C   UNL A   1      34.733  31.195  27.585  1.00  0.00     0.021 C 
BRANCH  59  60
ATOM     60  C   UNL A   1      33.514  30.526  26.952  1.00  0.00     0.116 C 
BRANCH  60  61
ATOM     61  N   UNL A   1      32.882  29.607  27.879  1.00  0.00    -0.351 N 
ATOM     62  C   UNL A   1      32.236  28.427  27.638  1.00  0.00     0.278 C 
ATOM     63  H   UNL A   1      32.922  29.874  28.825  1.00  0.00     0.163 HD
ATOM     64  O   UNL A   1      31.663  27.891  28.589  1.00  0.00    -0.268 OA
BRANCH  62  65
ATOM     65  C   UNL A   1      32.261  27.833  26.222  1.00  0.00     0.277 C 
ATOM     66  C   UNL A   1      33.186  26.594  26.238  1.00  0.00     0.114 C 
ATOM     67  N   UNL A   1      30.879  27.509  25.775  1.00  0.00    -0.324 N 
ATOM     68  C   UNL A   1      33.044  25.862  24.953  1.00  0.00    -0.006 A 
ATOM     69  C   UNL A   1      30.801  27.018  24.395  1.00  0.00     0.264 C 
ATOM     70  H   UNL A   1      30.312  28.354  25.847  1.00  0.00     0.347 HD
ATOM     71  H   UNL A   1      30.541  26.758  26.377  1.00  0.00     0.347 HD
ATOM     72  C   UNL A   1      31.943  26.067  24.143  1.00  0.00     0.083 A 
ATOM     73  C   UNL A   1      33.880  24.897  24.336  1.00  0.00     0.003 A 
ATOM     74  N   UNL A   1      32.058  25.214  23.077  1.00  0.00    -0.353 N 
ATOM     75  C   UNL A   1      33.239  24.507  23.157  1.00  0.00     0.046 A 
ATOM     76  C   UNL A   1      35.117  24.309  24.663  1.00  0.00     0.010 A 
ATOM     77  H   UNL A   1      31.392  25.119  22.358  1.00  0.00     0.166 HD
ATOM     78  C   UNL A   1      33.781  23.554  22.287  1.00  0.00     0.026 A 
ATOM     79  C   UNL A   1      35.673  23.359  23.798  1.00  0.00     0.001 A 
ATOM     80  C   UNL A   1      35.013  22.990  22.629  1.00  0.00     0.002 A 
BRANCH  69  81
ATOM     81  C   UNL A   1      30.698  28.120  23.347  1.00  0.00     0.041 A 
ATOM     82  C   UNL A   1      31.804  28.577  22.637  1.00  0.00     0.093 A 
ATOM     83  C   UNL A   1      29.571  28.870  22.818  1.00  0.00     0.009 A 
ATOM     84  N   UNL A   1      31.429  29.594  21.811  1.00  0.00    -0.361 N 
ATOM     85  C   UNL A   1      30.077  29.798  21.899  1.00  0.00     0.046 A 
ATOM     86  C   UNL A   1      28.167  28.875  23.006  1.00  0.00     0.011 A 
ATOM     87  H   UNL A   1      32.040  30.108  21.235  1.00  0.00     0.166 HD
ATOM     88  C   UNL A   1      29.281  30.729  21.216  1.00  0.00     0.026 A 
ATOM     89  C   UNL A   1      27.354  29.799  22.333  1.00  0.00     0.001 A 
ATOM     90  C   UNL A   1      27.909  30.719  21.455  1.00  0.00     0.002 A 
ENDBRANCH  69  81
ENDBRANCH  62  65
ENDBRANCH  60  61
ENDBRANCH  59  60
ENDBRANCH  58  59
ENDBRANCH   1  58
TORSDOF 14
ENDMDL
MODEL 2
REMARK VINA RESULT:     -12.3      0.738      3.548
REMARK SMILES O=C(NCCCCCCNC(=O)[C@H]1Cc2c([nH]c3ccccc23)[C@H](c2c[nH]c3ccccc23)[NH2+]1)c1ccc(-c2c3nc(c(-c4ccccc4)c4ccc([nH]4)c(-c4ccccc4)c4nc(c(-c5ccccc5)c5ccc2[nH]5)C=C4)C=C3)cc1
REMARK SMILES IDX 6 1 5 2 4 3 3 4 1 5 2 6 35 8 36 9 82 10 37 11 81 12 38 13
REMARK SMILES IDX 39 14 40 15 75 16 41 17 80 18 74 19 76 20 42 21 79 22 73 23
REMARK SMILES IDX 72 24 43 26 65 27 50 28 64 29 51 30 54 31 63 32 77 33 52 34
REMARK SMILES IDX 53 35 62 37 78 38 55 39 44 40 45 41 49 42 46 43 48 44 47 45
REMARK SMILES IDX 66 46 67 47 71 48 68 49 70 50 69 51 56 52 57 53 61 54 58 55
REMARK SMILES IDX 60 56 59 57 7 58 8 59 9 60 10 61 11 62 12 64 13 65 14 66
REMARK SMILES IDX 34 67 15 68 24 69 16 72 23 73 17 74 18 75 22 76 19 78 21 79
REMARK SMILES IDX 20 80 25 81 26 82 33 83 27 84 28 85 32 86 29 88 31 89 30 90
REMARK H PARENT 3 7 76 25 54 36 10 63 34 70 34 71 17 77 27 87
REMARK Flexibility Score: inf
ROOT
ATOM      1  C   UNL A   1      34.463  33.696  28.636  1.00  0.00     0.002 C 
ENDROOT
BRANCH   1   2
ATOM      2  C   UNL A   1      33.191  34.495  28.912  1.00  0.00     0.021 C 
BRANCH   2   3
ATOM      3  C   UNL A   1      33.425  35.919  29.400  1.00  0.00     0.116 C 
BRANCH   3   4
ATOM      4  N   UNL A   1      32.555  36.287  30.507  1.00  0.00    -0.352 N 
ATOM      5  O   UNL A   1      31.730  36.192  32.609  1.00  0.00    -0.269 OA
ATOM      6  C   UNL A   1      32.628  35.901  31.825  1.00  0.00     0.251 C 
ATOM      7  H   UNL A   1      31.814  36.894  30.281  1.00  0.00     0.163 HD
BRANCH   6   8
ATOM      8  C   UNL A   1      33.785  35.106  32.290  1.00  0.00     0.039 A 
ATOM      9  C   UNL A   1      35.060  35.672  32.334  1.00  0.00     0.014 A 
ATOM     10  C   UNL A   1      33.595  33.776  32.679  1.00  0.00     0.014 A 
ATOM     11  C   UNL A   1      36.159  34.871  32.618  1.00  0.00     0.010 A 
ATOM     12  C   UNL A   1      34.694  32.995  33.054  1.00  0.00     0.010 A 
ATOM     13  C   UNL A   1      35.990  33.528  32.997  1.00  0.00    -0.014 A 
BRANCH  13  14
ATOM     14  C   UNL A   1      37.188  32.743  33.389  1.00  0.00     0.031 A 
ATOM     15  C   UNL A   1      37.832  31.762  32.450  1.00  0.00     0.074 A 
ATOM     16  C   UNL A   1      37.738  32.984  34.595  1.00  0.00     0.049 A 
ATOM     17  N   UNL A   1      38.938  31.079  32.613  1.00  0.00    -0.248 NA
ATOM     18  C   UNL A   1      37.152  31.507  31.171  1.00  0.00     0.031 C 
ATOM     19  C   UNL A   1      37.193  33.900  35.601  1.00  0.00     0.029 A 
ATOM     20  N   UNL A   1      38.892  32.513  35.166  1.00  0.00    -0.354 N 
ATOM     21  C   UNL A   1      39.083  30.307  31.465  1.00  0.00     0.074 A 
ATOM     22  C   UNL A   1      37.936  30.586  30.626  1.00  0.00     0.031 C 
ATOM     23  C   UNL A   1      38.046  33.977  36.633  1.00  0.00     0.029 A 
ATOM     24  C   UNL A   1      39.164  33.074  36.389  1.00  0.00     0.049 A 
ATOM     25  H   UNL A   1      39.469  31.838  34.740  1.00  0.00     0.167 HD
ATOM     26  C   UNL A   1      40.082  29.453  31.139  1.00  0.00     0.031 A 
ATOM     27  C   UNL A   1      40.197  32.885  37.230  1.00  0.00     0.031 A 
ATOM     28  C   UNL A   1      41.219  29.171  31.977  1.00  0.00     0.049 A 
ATOM     29  C   UNL A   1      41.286  31.931  36.843  1.00  0.00     0.074 A 
ATOM     30  C   UNL A   1      42.285  28.322  31.730  1.00  0.00     0.029 A 
ATOM     31  N   UNL A   1      41.440  29.733  33.225  1.00  0.00    -0.354 N 
ATOM     32  N   UNL A   1      41.414  31.229  35.744  1.00  0.00    -0.248 NA
ATOM     33  C   UNL A   1      42.373  31.745  37.813  1.00  0.00     0.031 C 
ATOM     34  C   UNL A   1      43.131  28.341  32.845  1.00  0.00     0.029 A 
ATOM     35  C   UNL A   1      42.617  29.239  33.765  1.00  0.00     0.049 A 
ATOM     36  H   UNL A   1      40.848  30.387  33.663  1.00  0.00     0.167 HD
ATOM     37  C   UNL A   1      42.597  30.520  35.888  1.00  0.00     0.074 A 
ATOM     38  C   UNL A   1      43.166  30.904  37.163  1.00  0.00     0.031 C 
ATOM     39  C   UNL A   1      43.158  29.621  35.043  1.00  0.00     0.031 A 
BRANCH  26  40
ATOM     40  C   UNL A   1      39.986  28.742  29.817  1.00  0.00    -0.014 A 
ATOM     41  C   UNL A   1      40.483  29.328  28.642  1.00  0.00     0.009 A 
ATOM     42  C   UNL A   1      39.447  27.448  29.755  1.00  0.00     0.009 A 
ATOM     43  C   UNL A   1      40.420  28.640  27.427  1.00  0.00     0.001 A 
ATOM     44  C   UNL A   1      39.406  26.754  28.543  1.00  0.00     0.001 A 
ATOM     45  C   UNL A   1      39.886  27.353  27.380  1.00  0.00     0.000 A 
ENDBRANCH  26  40
BRANCH  27  46
ATOM     46  C   UNL A   1      40.234  33.608  38.527  1.00  0.00    -0.014 A 
ATOM     47  C   UNL A   1      39.585  33.089  39.657  1.00  0.00     0.009 A 
ATOM     48  C   UNL A   1      40.935  34.819  38.640  1.00  0.00     0.009 A 
ATOM     49  C   UNL A   1      39.618  33.783  40.869  1.00  0.00     0.001 A 
ATOM     50  C   UNL A   1      40.993  35.493  39.860  1.00  0.00     0.001 A 
ATOM     51  C   UNL A   1      40.327  34.980  40.971  1.00  0.00     0.000 A 
ENDBRANCH  27  46
BRANCH  39  52
ATOM     52  C   UNL A   1      44.456  29.005  35.481  1.00  0.00    -0.014 A 
ATOM     53  C   UNL A   1      44.478  27.815  36.223  1.00  0.00     0.009 A 
ATOM     54  C   UNL A   1      45.670  29.623  35.145  1.00  0.00     0.009 A 
ATOM     55  C   UNL A   1      45.690  27.276  36.657  1.00  0.00     0.001 A 
ATOM     56  C   UNL A   1      46.882  29.069  35.557  1.00  0.00     0.001 A 
ATOM     57  C   UNL A   1      46.891  27.903  36.323  1.00  0.00     0.000 A 
ENDBRANCH  39  52
ENDBRANCH  13  14
ENDBRANCH   6   8
ENDBRANCH   3   4
ENDBRANCH   2   3
ENDBRANCH   1   2
BRANCH   1  58
ATOM     58  C   UNL A   1      34.355  32.186  28.874  1.00  0.00     0.002 C 
BRANCH  58  59
ATOM     59  C   UNL A   1      34.792  31.296  27.701  1.00  0.00     0.021 C 
BRANCH  59  60
ATOM     60  C   UNL A   1      33.644  30.597  26.972  1.00  0.00     0.116 C 
BRANCH  60  61
ATOM     61  N   UNL A   1      33.220  29.407  27.683  1.00  0.00    -0.351 N 
ATOM     62  C   UNL A   1      32.401  28.390  27.279  1.00  0.00     0.278 C 
ATOM     63  H   UNL A   1      33.574  29.318  28.597  1.00  0.00     0.163 HD
ATOM     64  O   UNL A   1      32.084  27.549  28.122  1.00  0.00    -0.268 OA
BRANCH  62  65
ATOM     65  C   UNL A   1      31.929  28.342  25.817  1.00  0.00     0.277 C 
ATOM     66  C   UNL A   1      30.987  29.545  25.578  1.00  0.00     0.114 C 
ATOM     67  N   UNL A   1      33.100  28.341  24.899  1.00  0.00    -0.324 N 
ATOM     68  C   UNL A   1      30.707  29.664  24.124  1.00  0.00    -0.006 A 
ATOM     69  C   UNL A   1      32.743  28.207  23.482  1.00  0.00     0.264 C 
ATOM     70  H   UNL A   1      33.706  27.560  25.152  1.00  0.00     0.347 HD
ATOM     71  H   UNL A   1      33.561  29.244  25.004  1.00  0.00     0.347 HD
ATOM     72  C   UNL A   1      31.530  29.054  23.195  1.00  0.00     0.083 A 
ATOM     73  C   UNL A   1      29.679  30.348  23.429  1.00  0.00     0.003 A 
ATOM     74  N   UNL A   1      31.063  29.394  21.953  1.00  0.00    -0.353 N 
ATOM     75  C   UNL A   1      29.923  30.161  22.066  1.00  0.00     0.046 A 
ATOM     76  C   UNL A   1      28.564  31.115  23.820  1.00  0.00     0.010 A 
ATOM     77  H   UNL A   1      31.481  29.128  21.102  1.00  0.00     0.166 HD
ATOM     78  C   UNL A   1      29.101  30.706  21.073  1.00  0.00     0.026 A 
ATOM     79  C   UNL A   1      27.729  31.660  22.837  1.00  0.00     0.001 A 
ATOM     80  C   UNL A   1      27.996  31.458  21.486  1.00  0.00     0.002 A 
BRANCH  69  81
ATOM     81  C   UNL A   1      32.590  26.764  23.013  1.00  0.00     0.041 A 
ATOM     82  C   UNL A   1      31.704  26.402  22.002  1.00  0.00     0.093 A 
ATOM     83  C   UNL A   1      33.262  25.532  23.389  1.00  0.00     0.009 A 
ATOM     84  N   UNL A   1      31.739  25.050  21.828  1.00  0.00    -0.361 N 
ATOM     85  C   UNL A   1      32.675  24.492  22.657  1.00  0.00     0.046 A 
ATOM     86  C   UNL A   1      34.311  25.167  24.269  1.00  0.00     0.011 A 
ATOM     87  H   UNL A   1      31.173  24.548  21.197  1.00  0.00     0.166 HD
ATOM     88  C   UNL A   1      33.042  23.145  22.791  1.00  0.00     0.026 A 
ATOM     89  C   UNL A   1      34.691  23.825  24.416  1.00  0.00     0.001 A 
ATOM     90  C   UNL A   1      34.057  22.828  23.691  1.00  0.00     0.002 A 
ENDBRANCH  69  81
ENDBRANCH  62  65
ENDBRANCH  60  61
ENDBRANCH  59  60
ENDBRANCH  58  59
ENDBRANCH   1  58
TORSDOF 14
ENDMDL
MODEL 3
REMARK VINA RESULT:     -12.2      3.657      8.622
REMARK SMILES O=C(NCCCCCCNC(=O)[C@H]1Cc2c([nH]c3ccccc23)[C@H](c2c[nH]c3ccccc23)[NH2+]1)c1ccc(-c2c3nc(c(-c4ccccc4)c4ccc([nH]4)c(-c4ccccc4)c4nc(c(-c5ccccc5)c5ccc2[nH]5)C=C4)C=C3)cc1
REMARK SMILES IDX 6 1 5 2 4 3 3 4 1 5 2 6 35 8 36 9 82 10 37 11 81 12 38 13
REMARK SMILES IDX 39 14 40 15 75 16 41 17 80 18 74 19 76 20 42 21 79 22 73 23
REMARK SMILES IDX 72 24 43 26 65 27 50 28 64 29 51 30 54 31 63 32 77 33 52 34
REMARK SMILES IDX 53 35 62 37 78 38 55 39 44 40 45 41 49 42 46 43 48 44 47 45
REMARK SMILES IDX 66 46 67 47 71 48 68 49 70 50 69 51 56 52 57 53 61 54 58 55
REMARK SMILES IDX 60 56 59 57 7 58 8 59 9 60 10 61 11 62 12 64 13 65 14 66
REMARK SMILES IDX 34 67 15 68 24 69 16 72 23 73 17 74 18 75 22 76 19 78 21 79
REMARK SMILES IDX 20 80 25 81 26 82 33 83 27 84 28 85 32 86 29 88 31 89 30 90
REMARK H PARENT 3 7 76 25 54 36 10 63 34 70 34 71 17 77 27 87
REMARK Flexibility Score: inf
ROOT
ATOM      1  C   UNL A   1      33.884  27.387  24.124  1.00  0.00     0.002 C 
ENDROOT
BRANCH   1   2
ATOM      2  C   UNL A   1      33.215  27.644  25.473  1.00  0.00     0.021 C 
BRANCH   2   3
ATOM      3  C   UNL A   1      34.126  28.249  26.533  1.00  0.00     0.116 C 
BRANCH   3   4
ATOM      4  N   UNL A   1      33.752  29.608  26.892  1.00  0.00    -0.352 N 
ATOM      5  O   UNL A   1      33.900  31.568  28.008  1.00  0.00    -0.269 OA
ATOM      6  C   UNL A   1      34.422  30.503  27.692  1.00  0.00     0.251 C 
ATOM      7  H   UNL A   1      32.903  29.930  26.511  1.00  0.00     0.163 HD
BRANCH   6   8
ATOM      8  C   UNL A   1      35.772  30.166  28.194  1.00  0.00     0.039 A 
ATOM      9  C   UNL A   1      36.898  30.387  27.399  1.00  0.00     0.014 A 
ATOM     10  C   UNL A   1      35.913  29.614  29.471  1.00  0.00     0.014 A 
ATOM     11  C   UNL A   1      38.137  29.918  27.817  1.00  0.00     0.010 A 
ATOM     12  C   UNL A   1      37.177  29.226  29.928  1.00  0.00     0.010 A 
ATOM     13  C   UNL A   1      38.297  29.347  29.091  1.00  0.00    -0.014 A 
BRANCH  13  14
ATOM     14  C   UNL A   1      39.660  28.956  29.530  1.00  0.00     0.031 A 
ATOM     15  C   UNL A   1      40.408  29.736  30.575  1.00  0.00     0.074 A 
ATOM     16  C   UNL A   1      40.194  27.830  29.017  1.00  0.00     0.049 A 
ATOM     17  N   UNL A   1      41.562  29.460  31.132  1.00  0.00    -0.248 NA
ATOM     18  C   UNL A   1      39.793  30.982  31.054  1.00  0.00     0.031 C 
ATOM     19  C   UNL A   1      39.572  26.998  27.983  1.00  0.00     0.029 A 
ATOM     20  N   UNL A   1      41.356  27.168  29.320  1.00  0.00    -0.354 N 
ATOM     21  C   UNL A   1      41.816  30.501  32.018  1.00  0.00     0.074 A 
ATOM     22  C   UNL A   1      40.709  31.428  31.904  1.00  0.00     0.031 C 
ATOM     23  C   UNL A   1      40.322  25.905  27.788  1.00  0.00     0.029 A 
ATOM     24  C   UNL A   1      41.505  25.986  28.637  1.00  0.00     0.049 A 
ATOM     25  H   UNL A   1      42.019  27.507  29.965  1.00  0.00     0.167 HD
ATOM     26  C   UNL A   1      42.870  30.664  32.854  1.00  0.00     0.031 A 
ATOM     27  C   UNL A   1      42.485  25.066  28.681  1.00  0.00     0.031 A 
ATOM     28  C   UNL A   1      43.973  29.745  32.961  1.00  0.00     0.049 A 
ATOM     29  C   UNL A   1      43.639  25.276  29.613  1.00  0.00     0.074 A 
ATOM     30  C   UNL A   1      45.086  29.824  33.783  1.00  0.00     0.029 A 
ATOM     31  N   UNL A   1      44.105  28.577  32.227  1.00  0.00    -0.354 N 
ATOM     32  N   UNL A   1      43.849  26.255  30.459  1.00  0.00    -0.248 NA
ATOM     33  C   UNL A   1      44.691  24.251  29.598  1.00  0.00     0.031 C 
ATOM     34  C   UNL A   1      45.909  28.724  33.516  1.00  0.00     0.029 A 
ATOM     35  C   UNL A   1      45.285  27.935  32.565  1.00  0.00     0.049 A 
ATOM     36  H   UNL A   1      43.455  28.252  31.561  1.00  0.00     0.167 HD
ATOM     37  C   UNL A   1      45.055  25.964  31.078  1.00  0.00     0.074 A 
ATOM     38  C   UNL A   1      45.511  24.700  30.539  1.00  0.00     0.031 C 
ATOM     39  C   UNL A   1      45.731  26.686  32.005  1.00  0.00     0.031 A 
BRANCH  26  40
ATOM     40  C   UNL A   1      42.891  31.896  33.715  1.00  0.00    -0.014 A 
ATOM     41  C   UNL A   1      42.295  31.902  34.986  1.00  0.00     0.009 A 
ATOM     42  C   UNL A   1      43.565  33.047  33.277  1.00  0.00     0.009 A 
ATOM     43  C   UNL A   1      42.353  33.044  35.790  1.00  0.00     0.001 A 
ATOM     44  C   UNL A   1      43.642  34.178  34.091  1.00  0.00     0.001 A 
ATOM     45  C   UNL A   1      43.031  34.178  35.344  1.00  0.00     0.000 A 
ENDBRANCH  26  40
BRANCH  27  46
ATOM     46  C   UNL A   1      42.415  23.872  27.801  1.00  0.00    -0.014 A 
ATOM     47  C   UNL A   1      42.789  23.952  26.452  1.00  0.00     0.009 A 
ATOM     48  C   UNL A   1      41.984  22.639  28.316  1.00  0.00     0.009 A 
ATOM     49  C   UNL A   1      42.711  22.825  25.630  1.00  0.00     0.001 A 
ATOM     50  C   UNL A   1      41.937  21.508  27.501  1.00  0.00     0.001 A 
ATOM     51  C   UNL A   1      42.291  21.604  26.157  1.00  0.00     0.000 A 
ENDBRANCH  27  46
BRANCH  39  52
ATOM     52  C   UNL A   1      47.030  26.109  32.490  1.00  0.00    -0.014 A 
ATOM     53  C   UNL A   1      48.240  26.415  31.850  1.00  0.00     0.009 A 
ATOM     54  C   UNL A   1      47.042  25.253  33.601  1.00  0.00     0.009 A 
ATOM     55  C   UNL A   1      49.434  25.840  32.288  1.00  0.00     0.001 A 
ATOM     56  C   UNL A   1      48.240  24.700  34.053  1.00  0.00     0.001 A 
ATOM     57  C   UNL A   1      49.433  24.984  33.390  1.00  0.00     0.000 A 
ENDBRANCH  39  52
ENDBRANCH  13  14
ENDBRANCH   6   8
ENDBRANCH   3   4
ENDBRANCH   2   3
ENDBRANCH   1   2
BRANCH   1  58
ATOM     58  C   UNL A   1      33.258  26.269  23.284  1.00  0.00     0.002 C 
BRANCH  58  59
ATOM     59  C   UNL A   1      31.732  26.338  23.116  1.00  0.00     0.021 C 
BRANCH  59  60
ATOM     60  C   UNL A   1      30.987  25.078  23.554  1.00  0.00     0.116 C 
BRANCH  60  61
ATOM     61  N   UNL A   1      30.712  25.101  24.978  1.00  0.00    -0.351 N 
ATOM     62  C   UNL A   1      31.228  24.331  25.981  1.00  0.00     0.278 C 
ATOM     63  H   UNL A   1      30.053  25.773  25.265  1.00  0.00     0.163 HD
ATOM     64  O   UNL A   1      30.732  24.455  27.103  1.00  0.00    -0.268 OA
BRANCH  62  65
ATOM     65  C   UNL A   1      32.385  23.369  25.670  1.00  0.00     0.277 C 
ATOM     66  C   UNL A   1      33.704  24.047  26.110  1.00  0.00     0.114 C 
ATOM     67  N   UNL A   1      32.162  22.061  26.343  1.00  0.00    -0.324 N 
ATOM     68  C   UNL A   1      34.808  23.055  26.044  1.00  0.00    -0.006 A 
ATOM     69  C   UNL A   1      33.177  21.049  26.027  1.00  0.00     0.264 C 
ATOM     70  H   UNL A   1      31.252  21.702  26.054  1.00  0.00     0.347 HD
ATOM     71  H   UNL A   1      32.216  22.230  27.347  1.00  0.00     0.347 HD
ATOM     72  C   UNL A   1      34.538  21.700  26.020  1.00  0.00     0.083 A 
ATOM     73  C   UNL A   1      36.214  23.231  26.011  1.00  0.00     0.003 A 
ATOM     74  N   UNL A   1      35.740  21.045  26.028  1.00  0.00    -0.353 N 
ATOM     75  C   UNL A   1      36.778  21.953  25.998  1.00  0.00     0.046 A 
ATOM     76  C   UNL A   1      37.069  24.350  25.995  1.00  0.00     0.010 A 
ATOM     77  H   UNL A   1      35.849  20.066  26.052  1.00  0.00     0.166 HD
ATOM     78  C   UNL A   1      38.161  21.741  25.969  1.00  0.00     0.026 A 
ATOM     79  C   UNL A   1      38.454  24.154  25.960  1.00  0.00     0.001 A 
ATOM     80  C   UNL A   1      38.989  22.868  25.947  1.00  0.00     0.002 A 
BRANCH  69  81
ATOM     81  C   UNL A   1      32.889  20.253  24.760  1.00  0.00     0.041 A 
ATOM     82  C   UNL A   1      32.091  20.750  23.734  1.00  0.00     0.093 A 
ATOM     83  C   UNL A   1      33.341  18.952  24.293  1.00  0.00     0.009 A 
ATOM     84  N   UNL A   1      31.965  19.809  22.756  1.00  0.00    -0.361 N 
ATOM     85  C   UNL A   1      32.712  18.704  23.067  1.00  0.00     0.046 A 
ATOM     86  C   UNL A   1      34.219  17.945  24.764  1.00  0.00     0.011 A 
ATOM     87  H   UNL A   1      31.417  19.909  21.945  1.00  0.00     0.166 HD
ATOM     88  C   UNL A   1      32.877  17.518  22.336  1.00  0.00     0.026 A 
ATOM     89  C   UNL A   1      34.396  16.753  24.048  1.00  0.00     0.001 A 
ATOM     90  C   UNL A   1      33.725  16.542  22.852  1.00  0.00     0.002 A 
ENDBRANCH  69  81
ENDBRANCH  62  65
ENDBRANCH  60  61
ENDBRANCH  59  60
ENDBRANCH  58  59
ENDBRANCH   1  58
TORSDOF 14
ENDMDL
