MODEL 1
REMARK VINA RESULT:      -8.7      0.000      0.000
REMARK SMILES Cc1cc(F)cc(/C=C/C(=O)NCCCCCCNC(=O)c2ccc(-c3c4nc(c(-c5ccccc5)c5ccc([nH]5)c(-c5ccccc5)c5nc(c(-c6ccccc6)c6ccc3[nH]6)C=C5)C=C4)cc2)c1
REMARK SMILES IDX 16 1 15 2 14 3 13 4 12 5 10 6 11 7 9 9 8 10 7 11 1 12 2 13
REMARK SMILES IDX 3 14 70 15 4 16 5 17 6 18 17 19 18 20 19 21 20 22 21 24
REMARK SMILES IDX 22 25 23 26 69 27 24 28 68 29 25 30 26 31 27 32 62 33 28 34
REMARK SMILES IDX 67 35 61 36 63 37 29 38 66 39 60 40 59 41 30 43 52 44 37 45
REMARK SMILES IDX 51 46 38 47 41 48 50 49 64 50 39 51 40 52 49 54 65 55 42 56
REMARK SMILES IDX 31 57 32 58 36 59 33 60 35 61 34 62 53 63 54 64 58 65 55 66
REMARK SMILES IDX 57 67 56 68 43 69 44 70 48 71 45 72 47 73 46 74
REMARK H PARENT 12 8 19 23 63 42 41 53
REMARK Flexibility Score: inf
ROOT
ATOM      1  C   UNL A   1      45.910  19.748  25.047  1.00  0.00     0.002 C 
ENDROOT
BRANCH   1   2
ATOM      2  C   UNL A   1      46.062  21.271  24.939  1.00  0.00     0.002 C 
BRANCH   2   3
ATOM      3  C   UNL A   1      44.902  21.991  24.237  1.00  0.00     0.021 C 
BRANCH   3   4
ATOM      4  C   UNL A   1      45.031  23.514  24.249  1.00  0.00     0.116 C 
BRANCH   4   5
ATOM      5  N   UNL A   1      46.392  23.903  24.568  1.00  0.00    -0.353 N 
ATOM      6  C   UNL A   1      46.896  25.059  25.072  1.00  0.00     0.243 C 
ATOM      7  O   UNL A   1      48.096  25.136  25.326  1.00  0.00    -0.270 OA
ATOM      8  H   UNL A   1      47.067  23.209  24.386  1.00  0.00     0.163 HD
BRANCH   6   9
ATOM      9  C   UNL A   1      46.012  26.192  25.418  1.00  0.00     0.072 C 
ATOM     10  C   UNL A   1      46.431  27.402  25.822  1.00  0.00     0.014 C 
BRANCH  10  11
ATOM     11  C   UNL A   1      45.518  28.503  26.156  1.00  0.00    -0.022 A 
ATOM     12  C   UNL A   1      45.804  32.161  27.239  1.00  0.00     0.044 C 
ATOM     13  C   UNL A   1      45.227  30.831  26.854  1.00  0.00    -0.048 A 
ATOM     14  C   UNL A   1      43.842  30.640  26.873  1.00  0.00     0.042 A 
ATOM     15  C   UNL A   1      46.057  29.753  26.504  1.00  0.00     0.011 A 
ATOM     16  C   UNL A   1      43.310  29.400  26.538  1.00  0.00     0.124 A 
ATOM     17  F   UNL A   1      41.982  29.226  26.564  1.00  0.00    -0.207 F 
ATOM     18  C   UNL A   1      44.130  28.334  26.184  1.00  0.00     0.047 A 
ENDBRANCH  10  11
ENDBRANCH   6   9
ENDBRANCH   4   5
ENDBRANCH   3   4
ENDBRANCH   2   3
ENDBRANCH   1   2
BRANCH   1  19
ATOM     19  C   UNL A   1      44.508  19.213  24.746  1.00  0.00     0.021 C 
BRANCH  19  20
ATOM     20  C   UNL A   1      43.688  18.861  25.983  1.00  0.00     0.116 C 
BRANCH  20  21
ATOM     21  N   UNL A   1      42.270  18.752  25.679  1.00  0.00    -0.352 N 
ATOM     22  C   UNL A   1      41.240  19.591  26.020  1.00  0.00     0.251 C 
ATOM     23  H   UNL A   1      42.012  17.961  25.153  1.00  0.00     0.163 HD
ATOM     24  O   UNL A   1      40.076  19.235  25.871  1.00  0.00    -0.269 OA
BRANCH  22  25
ATOM     25  C   UNL A   1      41.535  20.926  26.579  1.00  0.00     0.039 A 
ATOM     26  C   UNL A   1      41.647  21.070  27.965  1.00  0.00     0.014 A 
ATOM     27  C   UNL A   1      41.680  22.037  25.743  1.00  0.00     0.014 A 
ATOM     28  C   UNL A   1      41.955  22.318  28.509  1.00  0.00     0.010 A 
ATOM     29  C   UNL A   1      42.056  23.264  26.281  1.00  0.00     0.010 A 
ATOM     30  C   UNL A   1      42.190  23.419  27.669  1.00  0.00    -0.014 A 
BRANCH  30  31
ATOM     31  C   UNL A   1      42.571  24.741  28.223  1.00  0.00     0.031 A 
ATOM     32  C   UNL A   1      41.528  25.804  28.432  1.00  0.00     0.074 A 
ATOM     33  C   UNL A   1      43.865  25.007  28.481  1.00  0.00     0.049 A 
ATOM     34  N   UNL A   1      41.675  27.034  28.854  1.00  0.00    -0.248 NA
ATOM     35  C   UNL A   1      40.140  25.444  28.099  1.00  0.00     0.031 C 
ATOM     36  C   UNL A   1      44.977  24.073  28.287  1.00  0.00     0.029 A 
ATOM     37  N   UNL A   1      44.465  26.144  28.957  1.00  0.00    -0.354 N 
ATOM     38  C   UNL A   1      40.407  27.599  28.820  1.00  0.00     0.074 A 
ATOM     39  C   UNL A   1      39.511  26.594  28.289  1.00  0.00     0.031 C 
ATOM     40  C   UNL A   1      46.119  24.668  28.668  1.00  0.00     0.029 A 
ATOM     41  C   UNL A   1      45.828  26.033  29.094  1.00  0.00     0.049 A 
ATOM     42  H   UNL A   1      43.966  26.964  29.181  1.00  0.00     0.167 HD
ATOM     43  C   UNL A   1      40.017  28.836  29.212  1.00  0.00     0.031 A 
ATOM     44  C   UNL A   1      46.740  26.930  29.510  1.00  0.00     0.031 A 
ATOM     45  C   UNL A   1      40.906  29.831  29.747  1.00  0.00     0.049 A 
ATOM     46  C   UNL A   1      46.286  28.302  29.925  1.00  0.00     0.074 A 
ATOM     47  C   UNL A   1      40.601  31.093  30.226  1.00  0.00     0.029 A 
ATOM     48  N   UNL A   1      42.279  29.678  29.870  1.00  0.00    -0.354 N 
ATOM     49  N   UNL A   1      45.073  28.798  29.949  1.00  0.00    -0.248 NA
ATOM     50  C   UNL A   1      47.329  29.232  30.378  1.00  0.00     0.031 C 
ATOM     51  C   UNL A   1      41.796  31.723  30.590  1.00  0.00     0.029 A 
ATOM     52  C   UNL A   1      42.838  30.832  30.391  1.00  0.00     0.049 A 
ATOM     53  H   UNL A   1      42.781  28.868  29.622  1.00  0.00     0.167 HD
ATOM     54  C   UNL A   1      45.202  30.088  30.447  1.00  0.00     0.074 A 
ATOM     55  C   UNL A   1      46.610  30.292  30.724  1.00  0.00     0.031 C 
ATOM     56  C   UNL A   1      44.242  31.020  30.656  1.00  0.00     0.031 A 
BRANCH  43  57
ATOM     57  C   UNL A   1      38.561  29.180  29.062  1.00  0.00    -0.014 A 
ATOM     58  C   UNL A   1      37.668  29.058  30.140  1.00  0.00     0.009 A 
ATOM     59  C   UNL A   1      38.077  29.656  27.834  1.00  0.00     0.009 A 
ATOM     60  C   UNL A   1      36.315  29.363  29.977  1.00  0.00     0.001 A 
ATOM     61  C   UNL A   1      36.731  29.991  27.683  1.00  0.00     0.001 A 
ATOM     62  C   UNL A   1      35.849  29.833  28.750  1.00  0.00     0.000 A 
ENDBRANCH  43  57
BRANCH  44  63
ATOM     63  C   UNL A   1      48.176  26.553  29.575  1.00  0.00    -0.014 A 
ATOM     64  C   UNL A   1      49.012  26.747  28.464  1.00  0.00     0.009 A 
ATOM     65  C   UNL A   1      48.719  26.002  30.745  1.00  0.00     0.009 A 
ATOM     66  C   UNL A   1      50.357  26.374  28.517  1.00  0.00     0.001 A 
ATOM     67  C   UNL A   1      50.071  25.657  30.804  1.00  0.00     0.001 A 
ATOM     68  C   UNL A   1      50.886  25.835  29.688  1.00  0.00     0.000 A 
ENDBRANCH  44  63
BRANCH  56  69
ATOM     69  C   UNL A   1      44.676  32.334  31.241  1.00  0.00    -0.014 A 
ATOM     70  C   UNL A   1      45.159  33.371  30.429  1.00  0.00     0.009 A 
ATOM     71  C   UNL A   1      44.565  32.549  32.624  1.00  0.00     0.009 A 
ATOM     72  C   UNL A   1      45.551  34.587  30.993  1.00  0.00     0.001 A 
ATOM     73  C   UNL A   1      44.930  33.774  33.183  1.00  0.00     0.001 A 
ATOM     74  C   UNL A   1      45.432  34.788  32.368  1.00  0.00     0.000 A 
ENDBRANCH  56  69
ENDBRANCH  30  31
ENDBRANCH  22  25
ENDBRANCH  20  21
ENDBRANCH  19  20
ENDBRANCH   1  19
TORSDOF 14
ENDMDL
MODEL 2
REMARK VINA RESULT:      -8.6      0.661      6.224
REMARK SMILES Cc1cc(F)cc(/C=C/C(=O)NCCCCCCNC(=O)c2ccc(-c3c4nc(c(-c5ccccc5)c5ccc([nH]5)c(-c5ccccc5)c5nc(c(-c6ccccc6)c6ccc3[nH]6)C=C5)C=C4)cc2)c1
REMARK SMILES IDX 16 1 15 2 14 3 13 4 12 5 10 6 11 7 9 9 8 10 7 11 1 12 2 13
REMARK SMILES IDX 3 14 70 15 4 16 5 17 6 18 17 19 18 20 19 21 20 22 21 24
REMARK SMILES IDX 22 25 23 26 69 27 24 28 68 29 25 30 26 31 27 32 62 33 28 34
REMARK SMILES IDX 67 35 61 36 63 37 29 38 66 39 60 40 59 41 30 43 52 44 37 45
REMARK SMILES IDX 51 46 38 47 41 48 50 49 64 50 39 51 40 52 49 54 65 55 42 56
REMARK SMILES IDX 31 57 32 58 36 59 33 60 35 61 34 62 53 63 54 64 58 65 55 66
REMARK SMILES IDX 57 67 56 68 43 69 44 70 48 71 45 72 47 73 46 74
REMARK H PARENT 12 8 19 23 63 42 41 53
REMARK Flexibility Score: inf
ROOT
ATOM      1  C   UNL A   1      45.914  19.881  25.358  1.00  0.00     0.002 C 
ENDROOT
BRANCH   1   2
ATOM      2  C   UNL A   1      46.376  21.121  24.582  1.00  0.00     0.002 C 
BRANCH   2   3
ATOM      3  C   UNL A   1      45.248  21.947  23.948  1.00  0.00     0.021 C 
BRANCH   3   4
ATOM      4  C   UNL A   1      45.179  23.384  24.465  1.00  0.00     0.116 C 
BRANCH   4   5
ATOM      5  N   UNL A   1      46.510  23.878  24.764  1.00  0.00    -0.353 N 
ATOM      6  C   UNL A   1      46.935  25.090  25.206  1.00  0.00     0.243 C 
ATOM      7  O   UNL A   1      48.126  25.260  25.456  1.00  0.00    -0.270 OA
ATOM      8  H   UNL A   1      47.230  23.222  24.620  1.00  0.00     0.163 HD
BRANCH   6   9
ATOM      9  C   UNL A   1      45.977  26.180  25.490  1.00  0.00     0.072 C 
ATOM     10  C   UNL A   1      46.248  27.274  26.219  1.00  0.00     0.014 C 
BRANCH  10  11
ATOM     11  C   UNL A   1      45.266  28.336  26.477  1.00  0.00    -0.022 A 
ATOM     12  C   UNL A   1      41.523  28.899  25.919  1.00  0.00     0.044 C 
ATOM     13  C   UNL A   1      42.952  29.119  26.319  1.00  0.00    -0.048 A 
ATOM     14  C   UNL A   1      43.341  30.342  26.874  1.00  0.00     0.042 A 
ATOM     15  C   UNL A   1      43.924  28.126  26.115  1.00  0.00     0.011 A 
ATOM     16  C   UNL A   1      44.670  30.553  27.223  1.00  0.00     0.124 A 
ATOM     17  F   UNL A   1      45.032  31.730  27.749  1.00  0.00    -0.207 F 
ATOM     18  C   UNL A   1      45.632  29.568  27.028  1.00  0.00     0.047 A 
ENDBRANCH  10  11
ENDBRANCH   6   9
ENDBRANCH   4   5
ENDBRANCH   3   4
ENDBRANCH   2   3
ENDBRANCH   1   2
BRANCH   1  19
ATOM     19  C   UNL A   1      44.571  19.299  24.912  1.00  0.00     0.021 C 
BRANCH  19  20
ATOM     20  C   UNL A   1      43.737  18.699  26.039  1.00  0.00     0.116 C 
BRANCH  20  21
ATOM     21  N   UNL A   1      42.319  18.683  25.714  1.00  0.00    -0.352 N 
ATOM     22  C   UNL A   1      41.343  19.592  26.035  1.00  0.00     0.251 C 
ATOM     23  H   UNL A   1      42.016  17.908  25.188  1.00  0.00     0.163 HD
ATOM     24  O   UNL A   1      40.160  19.314  25.871  1.00  0.00    -0.269 OA
BRANCH  22  25
ATOM     25  C   UNL A   1      41.719  20.908  26.592  1.00  0.00     0.039 A 
ATOM     26  C   UNL A   1      42.009  21.956  25.715  1.00  0.00     0.014 A 
ATOM     27  C   UNL A   1      41.808  21.102  27.974  1.00  0.00     0.014 A 
ATOM     28  C   UNL A   1      42.338  23.214  26.225  1.00  0.00     0.010 A 
ATOM     29  C   UNL A   1      42.067  22.372  28.480  1.00  0.00     0.010 A 
ATOM     30  C   UNL A   1      42.341  23.438  27.611  1.00  0.00    -0.014 A 
BRANCH  30  31
ATOM     31  C   UNL A   1      42.635  24.780  28.170  1.00  0.00     0.031 A 
ATOM     32  C   UNL A   1      44.029  25.126  28.616  1.00  0.00     0.074 A 
ATOM     33  C   UNL A   1      41.635  25.666  28.336  1.00  0.00     0.049 A 
ATOM     34  N   UNL A   1      44.468  26.224  29.178  1.00  0.00    -0.248 NA
ATOM     35  C   UNL A   1      45.060  24.093  28.428  1.00  0.00     0.031 C 
ATOM     36  C   UNL A   1      40.233  25.439  27.978  1.00  0.00     0.029 A 
ATOM     37  N   UNL A   1      41.644  26.936  28.854  1.00  0.00    -0.354 N 
ATOM     38  C   UNL A   1      45.817  26.007  29.426  1.00  0.00     0.074 A 
ATOM     39  C   UNL A   1      46.114  24.656  29.000  1.00  0.00     0.031 C 
ATOM     40  C   UNL A   1      39.524  26.543  28.262  1.00  0.00     0.029 A 
ATOM     41  C   UNL A   1      40.409  27.539  28.856  1.00  0.00     0.049 A 
ATOM     42  H   UNL A   1      42.459  27.375  29.193  1.00  0.00     0.167 HD
ATOM     43  C   UNL A   1      46.733  26.860  29.944  1.00  0.00     0.031 A 
ATOM     44  C   UNL A   1      40.032  28.755  29.293  1.00  0.00     0.031 A 
ATOM     45  C   UNL A   1      46.440  28.205  30.360  1.00  0.00     0.049 A 
ATOM     46  C   UNL A   1      41.063  29.678  29.879  1.00  0.00     0.074 A 
ATOM     47  C   UNL A   1      47.309  29.168  30.844  1.00  0.00     0.029 A 
ATOM     48  N   UNL A   1      45.177  28.778  30.345  1.00  0.00    -0.354 N 
ATOM     49  N   UNL A   1      42.348  29.482  30.045  1.00  0.00    -0.248 NA
ATOM     50  C   UNL A   1      40.590  30.994  30.328  1.00  0.00     0.031 C 
ATOM     51  C   UNL A   1      46.563  30.305  31.171  1.00  0.00     0.029 A 
ATOM     52  C   UNL A   1      45.239  30.071  30.836  1.00  0.00     0.049 A 
ATOM     53  H   UNL A   1      44.358  28.330  30.031  1.00  0.00     0.167 HD
ATOM     54  C   UNL A   1      42.843  30.659  30.592  1.00  0.00     0.074 A 
ATOM     55  C   UNL A   1      41.721  31.568  30.715  1.00  0.00     0.031 C 
ATOM     56  C   UNL A   1      44.112  30.960  30.958  1.00  0.00     0.031 A 
BRANCH  43  57
ATOM     57  C   UNL A   1      48.140  26.351  30.099  1.00  0.00    -0.014 A 
ATOM     58  C   UNL A   1      48.573  25.757  31.296  1.00  0.00     0.009 A 
ATOM     59  C   UNL A   1      49.039  26.444  29.026  1.00  0.00     0.009 A 
ATOM     60  C   UNL A   1      49.888  25.308  31.428  1.00  0.00     0.001 A 
ATOM     61  C   UNL A   1      50.344  25.966  29.150  1.00  0.00     0.001 A 
ATOM     62  C   UNL A   1      50.772  25.409  30.354  1.00  0.00     0.000 A 
ENDBRANCH  43  57
BRANCH  44  63
ATOM     63  C   UNL A   1      38.612  29.178  29.174  1.00  0.00    -0.014 A 
ATOM     64  C   UNL A   1      38.136  29.736  27.977  1.00  0.00     0.009 A 
ATOM     65  C   UNL A   1      37.727  29.024  30.251  1.00  0.00     0.009 A 
ATOM     66  C   UNL A   1      36.807  30.153  27.870  1.00  0.00     0.001 A 
ATOM     67  C   UNL A   1      36.391  29.415  30.131  1.00  0.00     0.001 A 
ATOM     68  C   UNL A   1      35.935  29.987  28.946  1.00  0.00     0.000 A 
ENDBRANCH  44  63
BRANCH  56  69
ATOM     69  C   UNL A   1      44.362  32.340  31.497  1.00  0.00    -0.014 A 
ATOM     70  C   UNL A   1      44.300  32.608  32.873  1.00  0.00     0.009 A 
ATOM     71  C   UNL A   1      44.701  33.380  30.616  1.00  0.00     0.009 A 
ATOM     72  C   UNL A   1      44.541  33.897  33.353  1.00  0.00     0.001 A 
ATOM     73  C   UNL A   1      44.970  34.660  31.100  1.00  0.00     0.001 A 
ATOM     74  C   UNL A   1      44.880  34.920  32.467  1.00  0.00     0.000 A 
ENDBRANCH  56  69
ENDBRANCH  30  31
ENDBRANCH  22  25
ENDBRANCH  20  21
ENDBRANCH  19  20
ENDBRANCH   1  19
TORSDOF 14
ENDMDL
MODEL 3
REMARK VINA RESULT:      -7.9      4.449      7.530
REMARK SMILES Cc1cc(F)cc(/C=C/C(=O)NCCCCCCNC(=O)c2ccc(-c3c4nc(c(-c5ccccc5)c5ccc([nH]5)c(-c5ccccc5)c5nc(c(-c6ccccc6)c6ccc3[nH]6)C=C5)C=C4)cc2)c1
REMARK SMILES IDX 16 1 15 2 14 3 13 4 12 5 10 6 11 7 9 9 8 10 7 11 1 12 2 13
REMARK SMILES IDX 3 14 70 15 4 16 5 17 6 18 17 19 18 20 19 21 20 22 21 24
REMARK SMILES IDX 22 25 23 26 69 27 24 28 68 29 25 30 26 31 27 32 62 33 28 34
REMARK SMILES IDX 67 35 61 36 63 37 29 38 66 39 60 40 59 41 30 43 52 44 37 45
REMARK SMILES IDX 51 46 38 47 41 48 50 49 64 50 39 51 40 52 49 54 65 55 42 56
REMARK SMILES IDX 31 57 32 58 36 59 33 60 35 61 34 62 53 63 54 64 58 65 55 66
REMARK SMILES IDX 57 67 56 68 43 69 44 70 48 71 45 72 47 73 46 74
REMARK H PARENT 12 8 19 23 63 42 41 53
REMARK Flexibility Score: inf
ROOT
ATOM      1  C   UNL A   1      36.451  20.617  24.859  1.00  0.00     0.002 C 
ENDROOT
BRANCH   1   2
ATOM      2  C   UNL A   1      36.914  22.067  24.672  1.00  0.00     0.002 C 
BRANCH   2   3
ATOM      3  C   UNL A   1      36.305  23.074  25.657  1.00  0.00     0.021 C 
BRANCH   3   4
ATOM      4  C   UNL A   1      35.333  24.057  25.004  1.00  0.00     0.116 C 
BRANCH   4   5
ATOM      5  N   UNL A   1      34.115  24.158  25.786  1.00  0.00    -0.353 N 
ATOM      6  C   UNL A   1      33.037  23.337  25.871  1.00  0.00     0.243 C 
ATOM      7  O   UNL A   1      32.137  23.599  26.666  1.00  0.00    -0.270 OA
ATOM      8  H   UNL A   1      34.060  24.962  26.352  1.00  0.00     0.163 HD
BRANCH   6   9
ATOM      9  C   UNL A   1      32.972  22.077  25.099  1.00  0.00     0.072 C 
ATOM     10  C   UNL A   1      32.869  20.850  25.634  1.00  0.00     0.014 C 
BRANCH  10  11
ATOM     11  C   UNL A   1      32.807  19.622  24.829  1.00  0.00    -0.022 A 
ATOM     12  C   UNL A   1      33.370  15.877  25.370  1.00  0.00     0.044 C 
ATOM     13  C   UNL A   1      33.059  17.190  24.715  1.00  0.00    -0.048 A 
ATOM     14  C   UNL A   1      32.774  17.237  23.347  1.00  0.00     0.042 A 
ATOM     15  C   UNL A   1      33.083  18.390  25.445  1.00  0.00     0.011 A 
ATOM     16  C   UNL A   1      32.510  18.457  22.737  1.00  0.00     0.124 A 
ATOM     17  F   UNL A   1      32.242  18.491  21.425  1.00  0.00    -0.207 F 
ATOM     18  C   UNL A   1      32.526  19.645  23.460  1.00  0.00     0.047 A 
ENDBRANCH  10  11
ENDBRANCH   6   9
ENDBRANCH   4   5
ENDBRANCH   3   4
ENDBRANCH   2   3
ENDBRANCH   1   2
BRANCH   1  19
ATOM     19  C   UNL A   1      37.577  19.589  25.001  1.00  0.00     0.021 C 
BRANCH  19  20
ATOM     20  C   UNL A   1      38.872  20.149  25.579  1.00  0.00     0.116 C 
BRANCH  20  21
ATOM     21  N   UNL A   1      39.880  19.113  25.750  1.00  0.00    -0.352 N 
ATOM     22  C   UNL A   1      41.224  19.240  25.999  1.00  0.00     0.251 C 
ATOM     23  H   UNL A   1      39.550  18.189  25.677  1.00  0.00     0.163 HD
ATOM     24  O   UNL A   1      41.966  18.269  25.896  1.00  0.00    -0.269 OA
BRANCH  22  25
ATOM     25  C   UNL A   1      41.779  20.554  26.382  1.00  0.00     0.039 A 
ATOM     26  C   UNL A   1      42.208  21.426  25.377  1.00  0.00     0.014 A 
ATOM     27  C   UNL A   1      41.897  20.918  27.726  1.00  0.00     0.014 A 
ATOM     28  C   UNL A   1      42.708  22.684  25.720  1.00  0.00     0.010 A 
ATOM     29  C   UNL A   1      42.330  22.197  28.063  1.00  0.00     0.010 A 
ATOM     30  C   UNL A   1      42.746  23.090  27.064  1.00  0.00    -0.014 A 
BRANCH  30  31
ATOM     31  C   UNL A   1      43.223  24.441  27.444  1.00  0.00     0.031 A 
ATOM     32  C   UNL A   1      42.242  25.502  27.859  1.00  0.00     0.074 A 
ATOM     33  C   UNL A   1      44.535  24.734  27.357  1.00  0.00     0.049 A 
ATOM     34  N   UNL A   1      42.462  26.754  28.174  1.00  0.00    -0.248 NA
ATOM     35  C   UNL A   1      40.823  25.112  27.902  1.00  0.00     0.031 C 
ATOM     36  C   UNL A   1      45.584  23.804  26.933  1.00  0.00     0.029 A 
ATOM     37  N   UNL A   1      45.208  25.900  27.614  1.00  0.00    -0.354 N 
ATOM     38  C   UNL A   1      41.213  27.303  28.434  1.00  0.00     0.074 A 
ATOM     39  C   UNL A   1      40.236  26.263  28.191  1.00  0.00     0.031 C 
ATOM     40  C   UNL A   1      46.771  24.429  26.986  1.00  0.00     0.029 A 
ATOM     41  C   UNL A   1      46.564  25.810  27.409  1.00  0.00     0.049 A 
ATOM     42  H   UNL A   1      44.763  26.725  27.918  1.00  0.00     0.167 HD
ATOM     43  C   UNL A   1      40.906  28.553  28.854  1.00  0.00     0.031 A 
ATOM     44  C   UNL A   1      47.531  26.737  27.541  1.00  0.00     0.031 A 
ATOM     45  C   UNL A   1      41.878  29.584  29.103  1.00  0.00     0.049 A 
ATOM     46  C   UNL A   1      47.164  28.122  27.994  1.00  0.00     0.074 A 
ATOM     47  C   UNL A   1      41.673  30.865  29.585  1.00  0.00     0.029 A 
ATOM     48  N   UNL A   1      43.241  29.452  28.883  1.00  0.00    -0.354 N 
ATOM     49  N   UNL A   1      45.985  28.606  28.299  1.00  0.00    -0.248 NA
ATOM     50  C   UNL A   1      48.266  29.085  28.128  1.00  0.00     0.031 C 
ATOM     51  C   UNL A   1      42.906  31.525  29.608  1.00  0.00     0.029 A 
ATOM     52  C   UNL A   1      43.886  30.636  29.195  1.00  0.00     0.049 A 
ATOM     53  H   UNL A   1      43.683  28.635  28.555  1.00  0.00     0.167 HD
ATOM     54  C   UNL A   1      46.205  29.921  28.689  1.00  0.00     0.074 A 
ATOM     55  C   UNL A   1      47.632  30.153  28.594  1.00  0.00     0.031 C 
ATOM     56  C   UNL A   1      45.306  30.852  29.090  1.00  0.00     0.031 A 
BRANCH  43  57
ATOM     57  C   UNL A   1      39.451  28.874  29.059  1.00  0.00    -0.014 A 
ATOM     58  C   UNL A   1      38.829  28.678  30.304  1.00  0.00     0.009 A 
ATOM     59  C   UNL A   1      38.695  29.403  28.001  1.00  0.00     0.009 A 
ATOM     60  C   UNL A   1      37.473  28.964  30.471  1.00  0.00     0.001 A 
ATOM     61  C   UNL A   1      37.347  29.717  28.179  1.00  0.00     0.001 A 
ATOM     62  C   UNL A   1      36.734  29.486  29.410  1.00  0.00     0.000 A 
ENDBRANCH  43  57
BRANCH  44  63
ATOM     63  C   UNL A   1      48.946  26.378  27.261  1.00  0.00    -0.014 A 
ATOM     64  C   UNL A   1      49.787  25.943  28.297  1.00  0.00     0.009 A 
ATOM     65  C   UNL A   1      49.461  26.464  25.958  1.00  0.00     0.009 A 
ATOM     66  C   UNL A   1      51.122  25.625  28.037  1.00  0.00     0.001 A 
ATOM     67  C   UNL A   1      50.789  26.118  25.698  1.00  0.00     0.001 A 
ATOM     68  C   UNL A   1      51.620  25.708  26.737  1.00  0.00     0.000 A 
ENDBRANCH  44  63
BRANCH  56  69
ATOM     69  C   UNL A   1      45.843  32.198  29.487  1.00  0.00    -0.014 A 
ATOM     70  C   UNL A   1      45.945  33.246  28.559  1.00  0.00     0.009 A 
ATOM     71  C   UNL A   1      46.219  32.431  30.819  1.00  0.00     0.009 A 
ATOM     72  C   UNL A   1      46.441  34.491  28.951  1.00  0.00     0.001 A 
ATOM     73  C   UNL A   1      46.687  33.684  31.215  1.00  0.00     0.001 A 
ATOM     74  C   UNL A   1      46.807  34.709  30.279  1.00  0.00     0.000 A 
ENDBRANCH  56  69
ENDBRANCH  30  31
ENDBRANCH  22  25
ENDBRANCH  20  21
ENDBRANCH  19  20
ENDBRANCH   1  19
TORSDOF 14
ENDMDL
