MODEL 1
REMARK VINA RESULT:     -11.1      0.000      0.000
REMARK SMILES C[NH+]1CCC(NC(=O)N[C@@H]2C=C[C@H](C(=O)NCCCCCCNC(=O)c3ccc(-c4c5nc(c(-c6ccccc6)c6ccc([nH]6)c(-c6ccccc6)c6nc(c(-c7ccccc7)c7ccc4[nH]7)C=C6)C=C5)cc3)C2)CC1
REMARK SMILES IDX 19 1 18 2 17 3 16 4 14 5 15 6 13 8 10 9 11 10 74 11 12 12
REMARK SMILES IDX 9 13 6 14 7 15 8 17 5 19 1 20 2 21 3 22 76 23 4 25 75 26
REMARK SMILES IDX 20 27 21 28 22 29 23 30 24 31 25 33 26 34 27 35 73 36 28 37
REMARK SMILES IDX 72 38 29 39 30 40 31 41 66 42 32 43 71 44 65 45 67 46 33 47
REMARK SMILES IDX 70 48 64 49 63 50 34 52 56 53 41 54 55 55 42 56 45 57 54 58
REMARK SMILES IDX 68 59 43 60 44 61 53 63 69 64 46 65 35 66 36 67 40 68 37 69
REMARK SMILES IDX 39 70 38 71 57 72 58 73 62 74 59 75 61 76 60 77 47 78 48 79
REMARK SMILES IDX 52 80 49 81 51 82 50 83
REMARK H PARENT 16 7 6 16 9 18 2 24 23 32 67 51 45 62
REMARK Flexibility Score: inf
ROOT
ATOM      1  C   UNL A   1      37.515  22.408  25.147  1.00  0.00     0.002 C 
ENDROOT
BRANCH   1   2
ATOM      2  C   UNL A   1      36.308  22.803  26.008  1.00  0.00     0.021 C 
BRANCH   2   3
ATOM      3  C   UNL A   1      35.229  21.722  26.070  1.00  0.00     0.116 C 
BRANCH   3   4
ATOM      4  N   UNL A   1      34.499  21.806  27.319  1.00  0.00    -0.356 N 
ATOM      5  C   UNL A   1      33.252  22.309  27.546  1.00  0.00     0.227 C 
ATOM      6  O   UNL A   1      32.857  22.407  28.707  1.00  0.00    -0.274 OA
ATOM      7  H   UNL A   1      34.967  21.452  28.110  1.00  0.00     0.163 HD
BRANCH   5   8
ATOM      8  C   UNL A   1      32.389  22.651  26.342  1.00  0.00     0.103 C 
ATOM      9  C   UNL A   1      31.174  24.764  26.034  1.00  0.00     0.107 C 
ATOM     10  C   UNL A   1      30.314  23.702  26.638  1.00  0.00    -0.006 C 
ATOM     11  C   UNL A   1      32.550  24.111  25.905  1.00  0.00     0.047 C 
ATOM     12  C   UNL A   1      30.958  22.543  26.776  1.00  0.00    -0.016 C 
BRANCH   9  13
ATOM     13  N   UNL A   1      31.143  25.926  26.887  1.00  0.00    -0.332 N 
ATOM     14  N   UNL A   1      31.760  27.732  25.478  1.00  0.00    -0.335 N 
ATOM     15  C   UNL A   1      31.415  27.226  26.679  1.00  0.00     0.315 C 
ATOM     16  H   UNL A   1      31.934  28.701  25.487  1.00  0.00     0.165 HD
ATOM     17  O   UNL A   1      31.338  28.001  27.634  1.00  0.00    -0.249 OA
ATOM     18  H   UNL A   1      30.867  25.726  27.810  1.00  0.00     0.165 HD
BRANCH  14  19
ATOM     19  C   UNL A   1      31.921  27.114  24.177  1.00  0.00     0.095 C 
ATOM     20  C   UNL A   1      32.632  25.684  20.295  1.00  0.00     0.332 C 
ATOM     21  N   UNL A   1      32.542  26.646  21.397  1.00  0.00    -0.337 N 
ATOM     22  C   UNL A   1      33.494  26.271  22.454  1.00  0.00     0.264 C 
ATOM     23  C   UNL A   1      31.150  26.745  21.869  1.00  0.00     0.264 C 
ATOM     24  H   UNL A   1      32.801  27.580  21.080  1.00  0.00     0.347 HD
ATOM     25  C   UNL A   1      33.367  27.152  23.695  1.00  0.00     0.086 C 
ATOM     26  C   UNL A   1      31.012  27.668  23.089  1.00  0.00     0.086 C 
ENDBRANCH  14  19
ENDBRANCH   9  13
ENDBRANCH   5   8
ENDBRANCH   3   4
ENDBRANCH   2   3
ENDBRANCH   1   2
BRANCH   1  27
ATOM     27  C   UNL A   1      37.315  21.138  24.314  1.00  0.00     0.002 C 
BRANCH  27  28
ATOM     28  C   UNL A   1      38.056  19.908  24.842  1.00  0.00     0.021 C 
BRANCH  28  29
ATOM     29  C   UNL A   1      39.081  20.217  25.925  1.00  0.00     0.116 C 
BRANCH  29  30
ATOM     30  N   UNL A   1      40.208  19.299  25.879  1.00  0.00    -0.352 N 
ATOM     31  C   UNL A   1      41.544  19.556  26.054  1.00  0.00     0.251 C 
ATOM     32  H   UNL A   1      39.979  18.359  25.698  1.00  0.00     0.163 HD
ATOM     33  O   UNL A   1      42.380  18.709  25.768  1.00  0.00    -0.269 OA
BRANCH  31  34
ATOM     34  C   UNL A   1      41.968  20.873  26.571  1.00  0.00     0.039 A 
ATOM     35  C   UNL A   1      42.348  21.863  25.663  1.00  0.00     0.014 A 
ATOM     36  C   UNL A   1      41.985  21.130  27.944  1.00  0.00     0.014 A 
ATOM     37  C   UNL A   1      42.688  23.133  26.131  1.00  0.00     0.010 A 
ATOM     38  C   UNL A   1      42.247  22.417  28.403  1.00  0.00     0.010 A 
ATOM     39  C   UNL A   1      42.603  23.430  27.502  1.00  0.00    -0.014 A 
BRANCH  39  40
ATOM     40  C   UNL A   1      42.871  24.800  28.007  1.00  0.00     0.031 A 
ATOM     41  C   UNL A   1      44.264  25.206  28.398  1.00  0.00     0.074 A 
ATOM     42  C   UNL A   1      41.846  25.660  28.167  1.00  0.00     0.049 A 
ATOM     43  N   UNL A   1      44.682  26.342  28.900  1.00  0.00    -0.248 NA
ATOM     44  C   UNL A   1      45.324  24.200  28.225  1.00  0.00     0.031 C 
ATOM     45  C   UNL A   1      40.443  25.374  27.858  1.00  0.00     0.029 A 
ATOM     46  N   UNL A   1      41.827  26.950  28.632  1.00  0.00    -0.354 N 
ATOM     47  C   UNL A   1      46.046  26.182  29.111  1.00  0.00     0.074 A 
ATOM     48  C   UNL A   1      46.375  24.824  28.736  1.00  0.00     0.031 C 
ATOM     49  C   UNL A   1      39.706  26.468  28.110  1.00  0.00     0.029 A 
ATOM     50  C   UNL A   1      40.574  27.513  28.643  1.00  0.00     0.049 A 
ATOM     51  H   UNL A   1      42.635  27.427  28.931  1.00  0.00     0.167 HD
ATOM     52  C   UNL A   1      46.946  27.090  29.556  1.00  0.00     0.031 A 
ATOM     53  C   UNL A   1      40.166  28.732  29.044  1.00  0.00     0.031 A 
ATOM     54  C   UNL A   1      46.617  28.440  29.930  1.00  0.00     0.049 A 
ATOM     55  C   UNL A   1      41.181  29.708  29.570  1.00  0.00     0.074 A 
ATOM     56  C   UNL A   1      47.467  29.449  30.347  1.00  0.00     0.029 A 
ATOM     57  N   UNL A   1      45.334  28.966  29.937  1.00  0.00    -0.354 N 
ATOM     58  N   UNL A   1      42.478  29.564  29.699  1.00  0.00    -0.248 NA
ATOM     59  C   UNL A   1      40.674  31.020  29.999  1.00  0.00     0.031 C 
ATOM     60  C   UNL A   1      46.691  30.568  30.667  1.00  0.00     0.029 A 
ATOM     61  C   UNL A   1      45.366  30.278  30.383  1.00  0.00     0.049 A 
ATOM     62  H   UNL A   1      44.522  28.481  29.665  1.00  0.00     0.167 HD
ATOM     63  C   UNL A   1      42.945  30.774  30.195  1.00  0.00     0.074 A 
ATOM     64  C   UNL A   1      41.796  31.646  30.325  1.00  0.00     0.031 C 
ATOM     65  C   UNL A   1      44.214  31.132  30.513  1.00  0.00     0.031 A 
BRANCH  52  66
ATOM     66  C   UNL A   1      48.378  26.643  29.677  1.00  0.00    -0.014 A 
ATOM     67  C   UNL A   1      48.849  26.005  30.837  1.00  0.00     0.009 A 
ATOM     68  C   UNL A   1      49.261  26.829  28.601  1.00  0.00     0.009 A 
ATOM     69  C   UNL A   1      50.181  25.598  30.931  1.00  0.00     0.001 A 
ATOM     70  C   UNL A   1      50.584  26.391  28.686  1.00  0.00     0.001 A 
ATOM     71  C   UNL A   1      51.046  25.786  29.853  1.00  0.00     0.000 A 
ENDBRANCH  52  66
BRANCH  53  72
ATOM     72  C   UNL A   1      38.728  29.104  28.956  1.00  0.00    -0.014 A 
ATOM     73  C   UNL A   1      38.190  29.590  27.755  1.00  0.00     0.009 A 
ATOM     74  C   UNL A   1      37.891  28.985  30.076  1.00  0.00     0.009 A 
ATOM     75  C   UNL A   1      36.850  29.980  27.687  1.00  0.00     0.001 A 
ATOM     76  C   UNL A   1      36.543  29.344  29.995  1.00  0.00     0.001 A 
ATOM     77  C   UNL A   1      36.027  29.851  28.804  1.00  0.00     0.000 A 
ENDBRANCH  53  72
BRANCH  65  78
ATOM     78  C   UNL A   1      44.429  32.537  31.002  1.00  0.00    -0.014 A 
ATOM     79  C   UNL A   1      44.278  32.872  32.357  1.00  0.00     0.009 A 
ATOM     80  C   UNL A   1      44.829  33.533  30.097  1.00  0.00     0.009 A 
ATOM     81  C   UNL A   1      44.487  34.185  32.787  1.00  0.00     0.001 A 
ATOM     82  C   UNL A   1      45.070  34.835  30.535  1.00  0.00     0.001 A 
ATOM     83  C   UNL A   1      44.887  35.162  31.877  1.00  0.00     0.000 A 
ENDBRANCH  65  78
ENDBRANCH  39  40
ENDBRANCH  31  34
ENDBRANCH  29  30
ENDBRANCH  28  29
ENDBRANCH  27  28
ENDBRANCH   1  27
TORSDOF 15
ENDMDL
MODEL 2
REMARK VINA RESULT:     -11.0      4.945     10.207
REMARK SMILES C[NH+]1CCC(NC(=O)N[C@@H]2C=C[C@H](C(=O)NCCCCCCNC(=O)c3ccc(-c4c5nc(c(-c6ccccc6)c6ccc([nH]6)c(-c6ccccc6)c6nc(c(-c7ccccc7)c7ccc4[nH]7)C=C6)C=C5)cc3)C2)CC1
REMARK SMILES IDX 19 1 18 2 17 3 16 4 14 5 15 6 13 8 10 9 11 10 74 11 12 12
REMARK SMILES IDX 9 13 6 14 7 15 8 17 5 19 1 20 2 21 3 22 76 23 4 25 75 26
REMARK SMILES IDX 20 27 21 28 22 29 23 30 24 31 25 33 26 34 27 35 73 36 28 37
REMARK SMILES IDX 72 38 29 39 30 40 31 41 66 42 32 43 71 44 65 45 67 46 33 47
REMARK SMILES IDX 70 48 64 49 63 50 34 52 56 53 41 54 55 55 42 56 45 57 54 58
REMARK SMILES IDX 68 59 43 60 44 61 53 63 69 64 46 65 35 66 36 67 40 68 37 69
REMARK SMILES IDX 39 70 38 71 57 72 58 73 62 74 59 75 61 76 60 77 47 78 48 79
REMARK SMILES IDX 52 80 49 81 51 82 50 83
REMARK H PARENT 16 7 6 16 9 18 2 24 23 32 67 51 45 62
REMARK Flexibility Score: inf
ROOT
ATOM      1  C   UNL A   1      35.276  33.344  28.938  1.00  0.00     0.002 C 
ENDROOT
BRANCH   1   2
ATOM      2  C   UNL A   1      35.832  32.298  27.962  1.00  0.00     0.021 C 
BRANCH   2   3
ATOM      3  C   UNL A   1      35.032  30.996  27.951  1.00  0.00     0.116 C 
BRANCH   3   4
ATOM      4  N   UNL A   1      33.631  31.264  27.703  1.00  0.00    -0.356 N 
ATOM      5  C   UNL A   1      32.705  30.471  27.093  1.00  0.00     0.227 C 
ATOM      6  O   UNL A   1      31.588  30.934  26.864  1.00  0.00    -0.274 OA
ATOM      7  H   UNL A   1      33.303  32.138  28.017  1.00  0.00     0.163 HD
BRANCH   5   8
ATOM      8  C   UNL A   1      33.082  29.027  26.800  1.00  0.00     0.103 C 
ATOM      9  C   UNL A   1      32.269  27.720  24.885  1.00  0.00     0.107 C 
ATOM     10  C   UNL A   1      31.446  27.495  26.112  1.00  0.00    -0.006 C 
ATOM     11  C   UNL A   1      33.295  28.774  25.304  1.00  0.00     0.047 C 
ATOM     12  C   UNL A   1      31.903  28.177  27.163  1.00  0.00    -0.016 C 
BRANCH   9  13
ATOM     13  N   UNL A   1      31.398  28.128  23.812  1.00  0.00    -0.332 N 
ATOM     14  N   UNL A   1      31.176  26.203  22.443  1.00  0.00    -0.335 N 
ATOM     15  C   UNL A   1      30.924  27.498  22.723  1.00  0.00     0.315 C 
ATOM     16  H   UNL A   1      30.763  25.886  21.607  1.00  0.00     0.165 HD
ATOM     17  O   UNL A   1      30.214  28.132  21.941  1.00  0.00    -0.249 OA
ATOM     18  H   UNL A   1      31.089  29.060  23.891  1.00  0.00     0.165 HD
BRANCH  14  19
ATOM     19  C   UNL A   1      31.939  25.192  23.145  1.00  0.00     0.095 C 
ATOM     20  C   UNL A   1      34.227  22.074  24.778  1.00  0.00     0.332 C 
ATOM     21  N   UNL A   1      33.420  22.800  23.793  1.00  0.00    -0.337 N 
ATOM     22  C   UNL A   1      34.119  24.035  23.403  1.00  0.00     0.264 C 
ATOM     23  C   UNL A   1      32.066  23.034  24.323  1.00  0.00     0.264 C 
ATOM     24  H   UNL A   1      33.303  22.244  22.946  1.00  0.00     0.347 HD
ATOM     25  C   UNL A   1      33.281  24.912  22.475  1.00  0.00     0.086 C 
ATOM     26  C   UNL A   1      31.205  23.877  23.370  1.00  0.00     0.086 C 
ENDBRANCH  14  19
ENDBRANCH   9  13
ENDBRANCH   5   8
ENDBRANCH   3   4
ENDBRANCH   2   3
ENDBRANCH   1   2
BRANCH   1  27
ATOM     27  C   UNL A   1      34.649  34.571  28.269  1.00  0.00     0.002 C 
BRANCH  27  28
ATOM     28  C   UNL A   1      33.335  35.038  28.901  1.00  0.00     0.021 C 
BRANCH  28  29
ATOM     29  C   UNL A   1      33.477  36.261  29.796  1.00  0.00     0.116 C 
BRANCH  29  30
ATOM     30  N   UNL A   1      32.485  36.270  30.859  1.00  0.00    -0.352 N 
ATOM     31  C   UNL A   1      32.487  35.595  32.053  1.00  0.00     0.251 C 
ATOM     32  H   UNL A   1      31.700  36.843  30.699  1.00  0.00     0.163 HD
ATOM     33  O   UNL A   1      31.473  35.544  32.738  1.00  0.00    -0.269 OA
BRANCH  31  34
ATOM     34  C   UNL A   1      33.718  34.910  32.498  1.00  0.00     0.039 A 
ATOM     35  C   UNL A   1      33.634  33.583  32.923  1.00  0.00     0.014 A 
ATOM     36  C   UNL A   1      34.948  35.573  32.489  1.00  0.00     0.014 A 
ATOM     37  C   UNL A   1      34.797  32.901  33.283  1.00  0.00     0.010 A 
ATOM     38  C   UNL A   1      36.114  34.870  32.772  1.00  0.00     0.010 A 
ATOM     39  C   UNL A   1      36.051  33.528  33.174  1.00  0.00    -0.014 A 
BRANCH  39  40
ATOM     40  C   UNL A   1      37.304  32.789  33.464  1.00  0.00     0.031 A 
ATOM     41  C   UNL A   1      38.070  33.058  34.729  1.00  0.00     0.074 A 
ATOM     42  C   UNL A   1      37.784  31.915  32.557  1.00  0.00     0.049 A 
ATOM     43  N   UNL A   1      39.205  32.543  35.131  1.00  0.00    -0.248 NA
ATOM     44  C   UNL A   1      37.498  34.050  35.654  1.00  0.00     0.031 C 
ATOM     45  C   UNL A   1      37.154  31.592  31.275  1.00  0.00     0.029 A 
ATOM     46  N   UNL A   1      38.915  31.139  32.575  1.00  0.00    -0.354 N 
ATOM     47  C   UNL A   1      39.487  33.156  36.346  1.00  0.00     0.074 A 
ATOM     48  C   UNL A   1      38.435  34.119  36.589  1.00  0.00     0.031 C 
ATOM     49  C   UNL A   1      37.889  30.661  30.646  1.00  0.00     0.029 A 
ATOM     50  C   UNL A   1      39.065  30.358  31.455  1.00  0.00     0.049 A 
ATOM     51  H   UNL A   1      39.559  31.143  33.320  1.00  0.00     0.167 HD
ATOM     52  C   UNL A   1      40.517  32.923  37.193  1.00  0.00     0.031 A 
ATOM     53  C   UNL A   1      40.042  29.498  31.113  1.00  0.00     0.031 A 
ATOM     54  C   UNL A   1      41.564  31.966  36.951  1.00  0.00     0.049 A 
ATOM     55  C   UNL A   1      41.195  29.286  32.055  1.00  0.00     0.074 A 
ATOM     56  C   UNL A   1      42.624  31.623  37.771  1.00  0.00     0.029 A 
ATOM     57  N   UNL A   1      41.684  31.203  35.799  1.00  0.00    -0.354 N 
ATOM     58  N   UNL A   1      41.411  29.823  33.231  1.00  0.00    -0.248 NA
ATOM     59  C   UNL A   1      42.235  28.341  31.623  1.00  0.00     0.031 C 
ATOM     60  C   UNL A   1      43.422  30.699  37.089  1.00  0.00     0.029 A 
ATOM     61  C   UNL A   1      42.821  30.414  35.874  1.00  0.00     0.049 A 
ATOM     62  H   UNL A   1      41.056  31.220  35.041  1.00  0.00     0.167 HD
ATOM     63  C   UNL A   1      42.594  29.260  33.692  1.00  0.00     0.074 A 
ATOM     64  C   UNL A   1      43.038  28.327  32.677  1.00  0.00     0.031 C 
ATOM     65  C   UNL A   1      43.254  29.494  34.854  1.00  0.00     0.031 A 
BRANCH  52  66
ATOM     66  C   UNL A   1      40.568  33.732  38.461  1.00  0.00    -0.014 A 
ATOM     67  C   UNL A   1      39.953  33.280  39.641  1.00  0.00     0.009 A 
ATOM     68  C   UNL A   1      41.274  34.945  38.489  1.00  0.00     0.009 A 
ATOM     69  C   UNL A   1      40.010  34.044  40.808  1.00  0.00     0.001 A 
ATOM     70  C   UNL A   1      41.357  35.691  39.666  1.00  0.00     0.001 A 
ATOM     71  C   UNL A   1      40.717  35.246  40.821  1.00  0.00     0.000 A 
ENDBRANCH  52  66
BRANCH  53  72
ATOM     72  C   UNL A   1      39.973  28.764  29.820  1.00  0.00    -0.014 A 
ATOM     73  C   UNL A   1      39.454  27.462  29.768  1.00  0.00     0.009 A 
ATOM     74  C   UNL A   1      40.435  29.359  28.636  1.00  0.00     0.009 A 
ATOM     75  C   UNL A   1      39.429  26.758  28.561  1.00  0.00     0.001 A 
ATOM     76  C   UNL A   1      40.378  28.665  27.425  1.00  0.00     0.001 A 
ATOM     77  C   UNL A   1      39.886  27.362  27.391  1.00  0.00     0.000 A 
ENDBRANCH  53  72
BRANCH  65  78
ATOM     78  C   UNL A   1      44.508  28.704  35.103  1.00  0.00    -0.014 A 
ATOM     79  C   UNL A   1      45.769  29.194  34.727  1.00  0.00     0.009 A 
ATOM     80  C   UNL A   1      44.429  27.466  35.760  1.00  0.00     0.009 A 
ATOM     81  C   UNL A   1      46.920  28.442  34.972  1.00  0.00     0.001 A 
ATOM     82  C   UNL A   1      45.584  26.733  36.034  1.00  0.00     0.001 A 
ATOM     83  C   UNL A   1      46.827  27.216  35.630  1.00  0.00     0.000 A 
ENDBRANCH  65  78
ENDBRANCH  39  40
ENDBRANCH  31  34
ENDBRANCH  29  30
ENDBRANCH  28  29
ENDBRANCH  27  28
ENDBRANCH   1  27
TORSDOF 15
ENDMDL
MODEL 3
REMARK VINA RESULT:     -10.9      4.941     10.243
REMARK SMILES C[NH+]1CCC(NC(=O)N[C@@H]2C=C[C@H](C(=O)NCCCCCCNC(=O)c3ccc(-c4c5nc(c(-c6ccccc6)c6ccc([nH]6)c(-c6ccccc6)c6nc(c(-c7ccccc7)c7ccc4[nH]7)C=C6)C=C5)cc3)C2)CC1
REMARK SMILES IDX 19 1 18 2 17 3 16 4 14 5 15 6 13 8 10 9 11 10 74 11 12 12
REMARK SMILES IDX 9 13 6 14 7 15 8 17 5 19 1 20 2 21 3 22 76 23 4 25 75 26
REMARK SMILES IDX 20 27 21 28 22 29 23 30 24 31 25 33 26 34 27 35 73 36 28 37
REMARK SMILES IDX 72 38 29 39 30 40 31 41 66 42 32 43 71 44 65 45 67 46 33 47
REMARK SMILES IDX 70 48 64 49 63 50 34 52 56 53 41 54 55 55 42 56 45 57 54 58
REMARK SMILES IDX 68 59 43 60 44 61 53 63 69 64 46 65 35 66 36 67 40 68 37 69
REMARK SMILES IDX 39 70 38 71 57 72 58 73 62 74 59 75 61 76 60 77 47 78 48 79
REMARK SMILES IDX 52 80 49 81 51 82 50 83
REMARK H PARENT 16 7 6 16 9 18 2 24 23 32 67 51 45 62
REMARK Flexibility Score: inf
ROOT
ATOM      1  C   UNL A   1      35.403  33.416  28.745  1.00  0.00     0.002 C 
ENDROOT
BRANCH   1   2
ATOM      2  C   UNL A   1      34.500  32.233  29.119  1.00  0.00     0.021 C 
BRANCH   2   3
ATOM      3  C   UNL A   1      34.390  31.183  28.014  1.00  0.00     0.116 C 
BRANCH   3   4
ATOM      4  N   UNL A   1      33.153  31.349  27.280  1.00  0.00    -0.356 N 
ATOM      5  C   UNL A   1      32.479  30.434  26.526  1.00  0.00     0.227 C 
ATOM      6  O   UNL A   1      31.505  30.808  25.873  1.00  0.00    -0.274 OA
ATOM      7  H   UNL A   1      32.744  32.243  27.332  1.00  0.00     0.163 HD
BRANCH   5   8
ATOM      8  C   UNL A   1      32.925  28.982  26.596  1.00  0.00     0.103 C 
ATOM      9  C   UNL A   1      31.719  27.089  25.596  1.00  0.00     0.107 C 
ATOM     10  C   UNL A   1      31.364  27.288  27.034  1.00  0.00    -0.006 C 
ATOM     11  C   UNL A   1      32.681  28.234  25.280  1.00  0.00     0.047 C 
ATOM     12  C   UNL A   1      32.040  28.293  27.590  1.00  0.00    -0.016 C 
BRANCH   9  13
ATOM     13  N   UNL A   1      30.508  27.095  24.814  1.00  0.00    -0.332 N 
ATOM     14  N   UNL A   1      30.016  24.805  24.438  1.00  0.00    -0.335 N 
ATOM     15  C   UNL A   1      29.757  26.118  24.277  1.00  0.00     0.315 C 
ATOM     16  H   UNL A   1      29.378  24.211  23.978  1.00  0.00     0.165 HD
ATOM     17  O   UNL A   1      28.773  26.437  23.606  1.00  0.00    -0.249 OA
ATOM     18  H   UNL A   1      30.161  27.999  24.637  1.00  0.00     0.165 HD
BRANCH  14  19
ATOM     19  C   UNL A   1      31.057  24.105  25.163  1.00  0.00     0.095 C 
ATOM     20  C   UNL A   1      33.859  21.698  27.158  1.00  0.00     0.332 C 
ATOM     21  N   UNL A   1      32.596  22.070  26.513  1.00  0.00    -0.337 N 
ATOM     22  C   UNL A   1      32.843  22.384  25.097  1.00  0.00     0.264 C 
ATOM     23  C   UNL A   1      31.953  23.168  27.255  1.00  0.00     0.264 C 
ATOM     24  H   UNL A   1      31.939  21.290  26.534  1.00  0.00     0.347 HD
ATOM     25  C   UNL A   1      31.596  22.907  24.388  1.00  0.00     0.086 C 
ATOM     26  C   UNL A   1      30.672  23.664  26.568  1.00  0.00     0.086 C 
ENDBRANCH  14  19
ENDBRANCH   9  13
ENDBRANCH   5   8
ENDBRANCH   3   4
ENDBRANCH   2   3
ENDBRANCH   1   2
BRANCH   1  27
ATOM     27  C   UNL A   1      34.684  34.570  28.041  1.00  0.00     0.002 C 
BRANCH  27  28
ATOM     28  C   UNL A   1      33.381  35.011  28.711  1.00  0.00     0.021 C 
BRANCH  28  29
ATOM     29  C   UNL A   1      33.547  36.156  29.700  1.00  0.00     0.116 C 
BRANCH  29  30
ATOM     30  N   UNL A   1      32.532  36.123  30.740  1.00  0.00    -0.352 N 
ATOM     31  C   UNL A   1      32.543  35.465  31.943  1.00  0.00     0.251 C 
ATOM     32  H   UNL A   1      31.720  36.649  30.555  1.00  0.00     0.163 HD
ATOM     33  O   UNL A   1      31.518  35.366  32.606  1.00  0.00    -0.269 OA
BRANCH  31  34
ATOM     34  C   UNL A   1      33.799  34.855  32.425  1.00  0.00     0.039 A 
ATOM     35  C   UNL A   1      33.764  33.559  32.944  1.00  0.00     0.014 A 
ATOM     36  C   UNL A   1      35.005  35.558  32.361  1.00  0.00     0.014 A 
ATOM     37  C   UNL A   1      34.952  32.944  33.341  1.00  0.00     0.010 A 
ATOM     38  C   UNL A   1      36.197  34.916  32.683  1.00  0.00     0.010 A 
ATOM     39  C   UNL A   1      36.182  33.605  33.178  1.00  0.00    -0.014 A 
BRANCH  39  40
ATOM     40  C   UNL A   1      37.463  32.931  33.510  1.00  0.00     0.031 A 
ATOM     41  C   UNL A   1      38.060  31.926  32.565  1.00  0.00     0.074 A 
ATOM     42  C   UNL A   1      38.057  33.183  34.693  1.00  0.00     0.049 A 
ATOM     43  N   UNL A   1      39.145  31.206  32.705  1.00  0.00    -0.248 NA
ATOM     44  C   UNL A   1      37.334  31.681  31.309  1.00  0.00     0.031 C 
ATOM     45  C   UNL A   1      37.559  34.110  35.712  1.00  0.00     0.029 A 
ATOM     46  N   UNL A   1      39.211  32.680  35.238  1.00  0.00    -0.354 N 
ATOM     47  C   UNL A   1      39.224  30.418  31.564  1.00  0.00     0.074 A 
ATOM     48  C   UNL A   1      38.051  30.707  30.768  1.00  0.00     0.031 C 
ATOM     49  C   UNL A   1      38.419  34.133  36.743  1.00  0.00     0.029 A 
ATOM     50  C   UNL A   1      39.501  33.190  36.480  1.00  0.00     0.049 A 
ATOM     51  H   UNL A   1      39.777  32.015  34.783  1.00  0.00     0.167 HD
ATOM     52  C   UNL A   1      40.196  29.549  31.201  1.00  0.00     0.031 A 
ATOM     53  C   UNL A   1      40.520  32.925  37.318  1.00  0.00     0.031 A 
ATOM     54  C   UNL A   1      41.362  29.262  31.993  1.00  0.00     0.049 A 
ATOM     55  C   UNL A   1      41.567  31.926  36.907  1.00  0.00     0.074 A 
ATOM     56  C   UNL A   1      42.427  28.432  31.688  1.00  0.00     0.029 A 
ATOM     57  N   UNL A   1      41.613  29.791  33.250  1.00  0.00    -0.354 N 
ATOM     58  N   UNL A   1      41.663  31.240  35.794  1.00  0.00    -0.248 NA
ATOM     59  C   UNL A   1      42.650  31.673  37.867  1.00  0.00     0.031 C 
ATOM     60  C   UNL A   1      43.292  28.411  32.788  1.00  0.00     0.029 A 
ATOM     61  C   UNL A   1      42.800  29.280  33.748  1.00  0.00     0.049 A 
ATOM     62  H   UNL A   1      41.033  30.434  33.718  1.00  0.00     0.167 HD
ATOM     63  C   UNL A   1      42.830  30.497  35.907  1.00  0.00     0.074 A 
ATOM     64  C   UNL A   1      43.417  30.831  37.189  1.00  0.00     0.031 C 
ATOM     65  C   UNL A   1      43.369  29.617  35.028  1.00  0.00     0.031 A 
BRANCH  52  66
ATOM     66  C   UNL A   1      40.030  28.832  29.888  1.00  0.00    -0.014 A 
ATOM     67  C   UNL A   1      39.464  27.548  29.824  1.00  0.00     0.009 A 
ATOM     68  C   UNL A   1      40.408  29.465  28.693  1.00  0.00     0.009 A 
ATOM     69  C   UNL A   1      39.318  26.898  28.597  1.00  0.00     0.001 A 
ATOM     70  C   UNL A   1      40.230  28.826  27.465  1.00  0.00     0.001 A 
ATOM     71  C   UNL A   1      39.695  27.540  27.417  1.00  0.00     0.000 A 
ENDBRANCH  52  66
BRANCH  53  72
ATOM     72  C   UNL A   1      40.608  33.619  38.631  1.00  0.00    -0.014 A 
ATOM     73  C   UNL A   1      39.998  33.071  39.770  1.00  0.00     0.009 A 
ATOM     74  C   UNL A   1      41.293  34.839  38.749  1.00  0.00     0.009 A 
ATOM     75  C   UNL A   1      40.046  33.746  40.992  1.00  0.00     0.001 A 
ATOM     76  C   UNL A   1      41.367  35.494  39.980  1.00  0.00     0.001 A 
ATOM     77  C   UNL A   1      40.734  34.954  41.097  1.00  0.00     0.000 A 
ENDBRANCH  53  72
BRANCH  65  78
ATOM     78  C   UNL A   1      44.676  28.978  35.408  1.00  0.00    -0.014 A 
ATOM     79  C   UNL A   1      44.721  27.753  36.092  1.00  0.00     0.009 A 
ATOM     80  C   UNL A   1      45.883  29.595  35.041  1.00  0.00     0.009 A 
ATOM     81  C   UNL A   1      45.948  27.179  36.432  1.00  0.00     0.001 A 
ATOM     82  C   UNL A   1      47.107  29.002  35.351  1.00  0.00     0.001 A 
ATOM     83  C   UNL A   1      47.138  27.801  36.057  1.00  0.00     0.000 A 
ENDBRANCH  65  78
ENDBRANCH  39  40
ENDBRANCH  31  34
ENDBRANCH  29  30
ENDBRANCH  28  29
ENDBRANCH  27  28
ENDBRANCH   1  27
TORSDOF 15
ENDMDL
