MODEL 1
REMARK VINA RESULT:     -12.2      0.000      0.000
REMARK SMILES N#Cc1ccccc1C[C@@H](NC(=O)OCC1c2ccccc2-c2ccccc21)C(=O)NCCCCCCNC(=O)c1ccc(-c2c3nc(c(-c4ccccc4)c4ccc([nH]4)c(-c4ccccc4)c4nc(c(-c5ccccc5)c5ccc2[nH]5)C=C4)C=C3)cc1
REMARK SMILES IDX 33 1 32 2 31 3 29 4 30 5 10 7 9 8 8 9 3 10 4 11 5 12 7 13
REMARK SMILES IDX 6 14 2 15 1 16 11 17 12 18 13 20 14 21 15 22 16 23 17 24
REMARK SMILES IDX 28 25 18 26 22 27 23 28 27 29 19 30 21 31 24 32 26 33 20 34
REMARK SMILES IDX 25 35 34 36 35 37 36 38 37 39 38 40 39 41 40 43 41 44 42 45
REMARK SMILES IDX 88 46 43 47 87 48 44 49 45 50 46 51 81 52 47 53 86 54 80 55
REMARK SMILES IDX 82 56 48 57 85 58 79 59 78 60 49 62 71 63 56 64 70 65 57 66
REMARK SMILES IDX 60 67 69 68 83 69 58 70 59 71 68 73 84 74 61 75 50 76 51 77
REMARK SMILES IDX 55 78 52 79 54 80 53 81 72 82 73 83 77 84 74 85 76 86 75 87
REMARK SMILES IDX 62 88 63 89 67 90 64 91 66 92 65 93
REMARK H PARENT 31 6 11 19 38 42 82 61 60 72
REMARK Flexibility Score: inf
ROOT
ATOM      1  C   UNL A   1      33.002  28.554  26.425  1.00  0.00     0.021 C 
ENDROOT
BRANCH   1   2
ATOM      2  C   UNL A   1      33.112  27.424  25.419  1.00  0.00     0.116 C 
BRANCH   2   3
ATOM      3  N   UNL A   1      33.839  27.853  24.236  1.00  0.00    -0.354 N 
ATOM      4  C   UNL A   1      33.418  27.954  22.938  1.00  0.00     0.243 C 
ATOM      5  O   UNL A   1      34.194  28.428  22.105  1.00  0.00    -0.273 OA
ATOM      6  H   UNL A   1      34.776  28.111  24.392  1.00  0.00     0.163 HD
BRANCH   4   7
ATOM      7  C   UNL A   1      32.023  27.436  22.534  1.00  0.00     0.179 C 
BRANCH   7   8
ATOM      8  C   UNL A   1      31.010  28.615  22.661  1.00  0.00     0.072 C 
BRANCH   8   9
ATOM      9  C   UNL A   1      29.576  28.274  23.032  1.00  0.00    -0.028 A 
ATOM     10  C   UNL A   1      28.502  29.133  22.726  1.00  0.00     0.055 A 
ATOM     11  C   UNL A   1      27.196  28.787  23.106  1.00  0.00     0.020 A 
ATOM     12  C   UNL A   1      26.942  27.584  23.764  1.00  0.00     0.001 A 
ATOM     13  C   UNL A   1      29.278  27.021  23.601  1.00  0.00     0.005 A 
ATOM     14  C   UNL A   1      27.981  26.694  23.996  1.00  0.00     0.000 A 
BRANCH  10  15
ATOM     15  C   UNL A   1      28.685  30.338  21.962  1.00  0.00     0.099 C 
ATOM     16  N   UNL A   1      28.853  31.323  21.379  1.00  0.00    -0.192 NA
ENDBRANCH  10  15
ENDBRANCH   8   9
ENDBRANCH   7   8
BRANCH   7  17
ATOM     17  N   UNL A   1      31.979  26.729  21.250  1.00  0.00    -0.309 N 
ATOM     18  C   UNL A   1      32.580  25.558  20.911  1.00  0.00     0.407 C 
ATOM     19  H   UNL A   1      31.444  27.156  20.543  1.00  0.00     0.167 HD
ATOM     20  O   UNL A   1      33.092  25.415  19.810  1.00  0.00    -0.225 OA
BRANCH  18  21
ATOM     21  O   UNL A   1      32.486  24.614  21.879  1.00  0.00    -0.449 OA
BRANCH  21  22
ATOM     22  C   UNL A   1      33.634  24.438  22.730  1.00  0.00     0.248 C 
BRANCH  22  23
ATOM     23  C   UNL A   1      33.617  23.067  23.429  1.00  0.00     0.088 C 
ATOM     24  C   UNL A   1      34.947  22.770  24.114  1.00  0.00    -0.029 A 
ATOM     25  C   UNL A   1      32.667  23.095  24.622  1.00  0.00    -0.029 A 
ATOM     26  C   UNL A   1      36.178  22.515  23.526  1.00  0.00     0.005 A 
ATOM     27  C   UNL A   1      34.806  22.861  25.511  1.00  0.00    -0.014 A 
ATOM     28  C   UNL A   1      33.399  22.991  25.827  1.00  0.00    -0.014 A 
ATOM     29  C   UNL A   1      31.283  23.200  24.626  1.00  0.00     0.005 A 
ATOM     30  C   UNL A   1      37.307  22.514  24.341  1.00  0.00     0.000 A 
ATOM     31  C   UNL A   1      35.924  22.836  26.325  1.00  0.00     0.009 A 
ATOM     32  C   UNL A   1      32.746  22.969  27.047  1.00  0.00     0.009 A 
ATOM     33  C   UNL A   1      30.628  23.182  25.858  1.00  0.00     0.000 A 
ATOM     34  C   UNL A   1      37.183  22.696  25.727  1.00  0.00     0.001 A 
ATOM     35  C   UNL A   1      31.351  23.062  27.057  1.00  0.00     0.001 A 
ENDBRANCH  22  23
ENDBRANCH  21  22
ENDBRANCH  18  21
ENDBRANCH   7  17
ENDBRANCH   4   7
ENDBRANCH   2   3
ENDBRANCH   1   2
BRANCH   1  36
ATOM     36  C   UNL A   1      32.850  29.913  25.737  1.00  0.00     0.002 C 
BRANCH  36  37
ATOM     37  C   UNL A   1      31.420  30.472  25.758  1.00  0.00     0.002 C 
BRANCH  37  38
ATOM     38  C   UNL A   1      31.291  31.851  26.409  1.00  0.00     0.021 C 
BRANCH  38  39
ATOM     39  C   UNL A   1      32.579  32.338  27.058  1.00  0.00     0.116 C 
BRANCH  39  40
ATOM     40  N   UNL A   1      32.446  33.699  27.551  1.00  0.00    -0.352 N 
ATOM     41  C   UNL A   1      33.184  34.345  28.505  1.00  0.00     0.251 C 
ATOM     42  H   UNL A   1      31.724  34.229  27.142  1.00  0.00     0.163 HD
ATOM     43  O   UNL A   1      32.798  35.410  28.976  1.00  0.00    -0.269 OA
BRANCH  41  44
ATOM     44  C   UNL A   1      34.447  33.740  28.968  1.00  0.00     0.039 A 
ATOM     45  C   UNL A   1      35.630  34.059  28.302  1.00  0.00     0.014 A 
ATOM     46  C   UNL A   1      34.457  32.860  30.054  1.00  0.00     0.014 A 
ATOM     47  C   UNL A   1      36.833  33.516  28.749  1.00  0.00     0.010 A 
ATOM     48  C   UNL A   1      35.665  32.399  30.557  1.00  0.00     0.010 A 
ATOM     49  C   UNL A   1      36.864  32.701  29.894  1.00  0.00    -0.014 A 
BRANCH  49  50
ATOM     50  C   UNL A   1      38.140  32.134  30.389  1.00  0.00     0.031 A 
ATOM     51  C   UNL A   1      38.664  30.843  29.822  1.00  0.00     0.074 A 
ATOM     52  C   UNL A   1      38.813  32.768  31.369  1.00  0.00     0.049 A 
ATOM     53  N   UNL A   1      39.758  30.193  30.126  1.00  0.00    -0.248 NA
ATOM     54  C   UNL A   1      37.838  30.182  28.798  1.00  0.00     0.031 C 
ATOM     55  C   UNL A   1      38.389  34.006  32.026  1.00  0.00     0.029 A 
ATOM     56  N   UNL A   1      40.002  32.458  31.978  1.00  0.00    -0.354 N 
ATOM     57  C   UNL A   1      39.746  29.048  29.339  1.00  0.00     0.074 A 
ATOM     58  C   UNL A   1      38.505  29.055  28.598  1.00  0.00     0.031 C 
ATOM     59  C   UNL A   1      39.328  34.376  32.911  1.00  0.00     0.029 A 
ATOM     60  C   UNL A   1      40.391  33.377  32.922  1.00  0.00     0.049 A 
ATOM     61  H   UNL A   1      40.527  31.654  31.760  1.00  0.00     0.167 HD
ATOM     62  C   UNL A   1      40.694  28.088  29.223  1.00  0.00     0.031 A 
ATOM     63  C   UNL A   1      41.482  33.410  33.710  1.00  0.00     0.031 A 
ATOM     64  C   UNL A   1      41.925  28.080  29.967  1.00  0.00     0.049 A 
ATOM     65  C   UNL A   1      42.501  32.309  33.590  1.00  0.00     0.074 A 
ATOM     66  C   UNL A   1      42.971  27.177  29.893  1.00  0.00     0.029 A 
ATOM     67  N   UNL A   1      42.272  29.017  30.929  1.00  0.00    -0.354 N 
ATOM     68  N   UNL A   1      42.509  31.269  32.791  1.00  0.00    -0.248 NA
ATOM     69  C   UNL A   1      43.671  32.400  34.474  1.00  0.00     0.031 C 
ATOM     70  C   UNL A   1      43.916  27.525  30.862  1.00  0.00     0.029 A 
ATOM     71  C   UNL A   1      43.501  28.695  31.479  1.00  0.00     0.049 A 
ATOM     72  H   UNL A   1      41.725  29.796  31.182  1.00  0.00     0.167 HD
ATOM     73  C   UNL A   1      43.700  30.603  33.050  1.00  0.00     0.074 A 
ATOM     74  C   UNL A   1      44.395  31.368  34.066  1.00  0.00     0.031 C 
ATOM     75  C   UNL A   1      44.178  29.462  32.493  1.00  0.00     0.031 A 
BRANCH  62  76
ATOM     76  C   UNL A   1      40.421  26.958  28.267  1.00  0.00    -0.014 A 
ATOM     77  C   UNL A   1      40.923  26.970  26.954  1.00  0.00     0.009 A 
ATOM     78  C   UNL A   1      39.669  25.851  28.691  1.00  0.00     0.009 A 
ATOM     79  C   UNL A   1      40.639  25.922  26.076  1.00  0.00     0.001 A 
ATOM     80  C   UNL A   1      39.418  24.787  27.823  1.00  0.00     0.001 A 
ATOM     81  C   UNL A   1      39.892  24.829  26.513  1.00  0.00     0.000 A 
ENDBRANCH  62  76
BRANCH  63  82
ATOM     82  C   UNL A   1      41.678  34.528  34.670  1.00  0.00    -0.014 A 
ATOM     83  C   UNL A   1      41.354  34.371  36.027  1.00  0.00     0.009 A 
ATOM     84  C   UNL A   1      42.179  35.763  34.233  1.00  0.00     0.009 A 
ATOM     85  C   UNL A   1      41.494  35.439  36.917  1.00  0.00     0.001 A 
ATOM     86  C   UNL A   1      42.353  36.819  35.132  1.00  0.00     0.001 A 
ATOM     87  C   UNL A   1      41.997  36.659  36.470  1.00  0.00     0.000 A 
ENDBRANCH  63  82
BRANCH  75  88
ATOM     88  C   UNL A   1      45.542  29.001  32.934  1.00  0.00    -0.014 A 
ATOM     89  C   UNL A   1      45.712  28.120  34.014  1.00  0.00     0.009 A 
ATOM     90  C   UNL A   1      46.677  29.440  32.234  1.00  0.00     0.009 A 
ATOM     91  C   UNL A   1      46.992  27.729  34.412  1.00  0.00     0.001 A 
ATOM     92  C   UNL A   1      47.953  29.015  32.607  1.00  0.00     0.001 A 
ATOM     93  C   UNL A   1      48.110  28.172  33.706  1.00  0.00     0.000 A 
ENDBRANCH  75  88
ENDBRANCH  49  50
ENDBRANCH  41  44
ENDBRANCH  39  40
ENDBRANCH  38  39
ENDBRANCH  37  38
ENDBRANCH  36  37
ENDBRANCH   1  36
TORSDOF 20
ENDMDL
MODEL 2
REMARK VINA RESULT:     -12.0      3.793      8.935
REMARK SMILES N#Cc1ccccc1C[C@@H](NC(=O)OCC1c2ccccc2-c2ccccc21)C(=O)NCCCCCCNC(=O)c1ccc(-c2c3nc(c(-c4ccccc4)c4ccc([nH]4)c(-c4ccccc4)c4nc(c(-c5ccccc5)c5ccc2[nH]5)C=C4)C=C3)cc1
REMARK SMILES IDX 33 1 32 2 31 3 29 4 30 5 10 7 9 8 8 9 3 10 4 11 5 12 7 13
REMARK SMILES IDX 6 14 2 15 1 16 11 17 12 18 13 20 14 21 15 22 16 23 17 24
REMARK SMILES IDX 28 25 18 26 22 27 23 28 27 29 19 30 21 31 24 32 26 33 20 34
REMARK SMILES IDX 25 35 34 36 35 37 36 38 37 39 38 40 39 41 40 43 41 44 42 45
REMARK SMILES IDX 88 46 43 47 87 48 44 49 45 50 46 51 81 52 47 53 86 54 80 55
REMARK SMILES IDX 82 56 48 57 85 58 79 59 78 60 49 62 71 63 56 64 70 65 57 66
REMARK SMILES IDX 60 67 69 68 83 69 58 70 59 71 68 73 84 74 61 75 50 76 51 77
REMARK SMILES IDX 55 78 52 79 54 80 53 81 72 82 73 83 77 84 74 85 76 86 75 87
REMARK SMILES IDX 62 88 63 89 67 90 64 91 66 92 65 93
REMARK H PARENT 31 6 11 19 38 42 82 61 60 72
REMARK Flexibility Score: inf
ROOT
ATOM      1  C   UNL A   1      36.474  22.438  25.739  1.00  0.00     0.021 C 
ENDROOT
BRANCH   1   2
ATOM      2  C   UNL A   1      35.254  23.329  25.878  1.00  0.00     0.116 C 
BRANCH   2   3
ATOM      3  N   UNL A   1      34.555  23.058  27.124  1.00  0.00    -0.354 N 
ATOM      4  C   UNL A   1      33.368  22.411  27.340  1.00  0.00     0.243 C 
ATOM      5  O   UNL A   1      33.006  22.223  28.503  1.00  0.00    -0.273 OA
ATOM      6  H   UNL A   1      35.003  23.389  27.935  1.00  0.00     0.163 HD
BRANCH   4   7
ATOM      7  C   UNL A   1      32.493  21.981  26.146  1.00  0.00     0.179 C 
BRANCH   7   8
ATOM      8  C   UNL A   1      32.894  20.528  25.745  1.00  0.00     0.072 C 
BRANCH   8   9
ATOM      9  C   UNL A   1      32.606  20.084  24.321  1.00  0.00    -0.028 A 
ATOM     10  C   UNL A   1      32.560  18.724  23.957  1.00  0.00     0.055 A 
ATOM     11  C   UNL A   1      32.311  18.361  22.625  1.00  0.00     0.020 A 
ATOM     12  C   UNL A   1      32.081  19.335  21.654  1.00  0.00     0.001 A 
ATOM     13  C   UNL A   1      32.266  21.040  23.345  1.00  0.00     0.005 A 
ATOM     14  C   UNL A   1      32.042  20.674  22.017  1.00  0.00     0.000 A 
BRANCH  10  15
ATOM     15  C   UNL A   1      32.689  17.672  24.930  1.00  0.00     0.099 C 
ATOM     16  N   UNL A   1      32.754  16.827  25.718  1.00  0.00    -0.192 NA
ENDBRANCH  10  15
ENDBRANCH   8   9
ENDBRANCH   7   8
BRANCH   7  17
ATOM     17  N   UNL A   1      31.053  22.188  26.334  1.00  0.00    -0.309 N 
ATOM     18  C   UNL A   1      30.414  23.292  26.802  1.00  0.00     0.407 C 
ATOM     19  H   UNL A   1      30.475  21.430  26.089  1.00  0.00     0.167 HD
ATOM     20  O   UNL A   1      29.461  23.187  27.561  1.00  0.00    -0.225 OA
BRANCH  18  21
ATOM     21  O   UNL A   1      30.909  24.446  26.294  1.00  0.00    -0.449 OA
BRANCH  21  22
ATOM     22  C   UNL A   1      29.956  25.472  25.959  1.00  0.00     0.248 C 
BRANCH  22  23
ATOM     23  C   UNL A   1      30.571  26.539  25.035  1.00  0.00     0.088 C 
ATOM     24  C   UNL A   1      31.565  27.421  25.783  1.00  0.00    -0.029 A 
ATOM     25  C   UNL A   1      31.477  25.881  23.999  1.00  0.00    -0.029 A 
ATOM     26  C   UNL A   1      31.308  28.354  26.778  1.00  0.00     0.005 A 
ATOM     27  C   UNL A   1      32.880  27.118  25.385  1.00  0.00    -0.014 A 
ATOM     28  C   UNL A   1      32.825  26.226  24.246  1.00  0.00    -0.014 A 
ATOM     29  C   UNL A   1      31.125  25.056  22.941  1.00  0.00     0.005 A 
ATOM     30  C   UNL A   1      32.387  28.867  27.493  1.00  0.00     0.000 A 
ATOM     31  C   UNL A   1      33.955  27.645  26.078  1.00  0.00     0.009 A 
ATOM     32  C   UNL A   1      33.831  25.765  23.416  1.00  0.00     0.009 A 
ATOM     33  C   UNL A   1      32.143  24.588  22.108  1.00  0.00     0.000 A 
ATOM     34  C   UNL A   1      33.699  28.497  27.160  1.00  0.00     0.001 A 
ATOM     35  C   UNL A   1      33.482  24.944  22.339  1.00  0.00     0.001 A 
ENDBRANCH  22  23
ENDBRANCH  21  22
ENDBRANCH  18  21
ENDBRANCH   7  17
ENDBRANCH   4   7
ENDBRANCH   2   3
ENDBRANCH   1   2
BRANCH   1  36
ATOM     36  C   UNL A   1      37.775  23.232  25.890  1.00  0.00     0.002 C 
BRANCH  36  37
ATOM     37  C   UNL A   1      38.983  22.384  26.313  1.00  0.00     0.002 C 
BRANCH  37  38
ATOM     38  C   UNL A   1      39.123  21.061  25.555  1.00  0.00     0.021 C 
BRANCH  38  39
ATOM     39  C   UNL A   1      39.544  19.898  26.442  1.00  0.00     0.116 C 
BRANCH  39  40
ATOM     40  N   UNL A   1      40.756  19.264  25.948  1.00  0.00    -0.352 N 
ATOM     41  C   UNL A   1      42.001  19.804  25.776  1.00  0.00     0.251 C 
ATOM     42  H   UNL A   1      40.668  18.314  25.705  1.00  0.00     0.163 HD
ATOM     43  O   UNL A   1      42.855  19.206  25.130  1.00  0.00    -0.269 OA
BRANCH  41  44
ATOM     44  C   UNL A   1      42.300  21.121  26.367  1.00  0.00     0.039 A 
ATOM     45  C   UNL A   1      42.582  22.192  25.519  1.00  0.00     0.014 A 
ATOM     46  C   UNL A   1      42.304  21.293  27.755  1.00  0.00     0.014 A 
ATOM     47  C   UNL A   1      42.837  23.448  26.066  1.00  0.00     0.010 A 
ATOM     48  C   UNL A   1      42.461  22.563  28.293  1.00  0.00     0.010 A 
ATOM     49  C   UNL A   1      42.755  23.649  27.455  1.00  0.00    -0.014 A 
BRANCH  49  50
ATOM     50  C   UNL A   1      43.005  24.985  28.046  1.00  0.00     0.031 A 
ATOM     51  C   UNL A   1      44.400  25.389  28.436  1.00  0.00     0.074 A 
ATOM     52  C   UNL A   1      41.972  25.823  28.257  1.00  0.00     0.049 A 
ATOM     53  N   UNL A   1      44.816  26.512  28.965  1.00  0.00    -0.248 NA
ATOM     54  C   UNL A   1      45.465  24.393  28.230  1.00  0.00     0.031 C 
ATOM     55  C   UNL A   1      40.568  25.531  27.955  1.00  0.00     0.029 A 
ATOM     56  N   UNL A   1      41.945  27.094  28.768  1.00  0.00    -0.354 N 
ATOM     57  C   UNL A   1      46.183  26.352  29.159  1.00  0.00     0.074 A 
ATOM     58  C   UNL A   1      46.514  25.002  28.761  1.00  0.00     0.031 C 
ATOM     59  C   UNL A   1      39.826  26.612  28.243  1.00  0.00     0.029 A 
ATOM     60  C   UNL A   1      40.690  27.650  28.794  1.00  0.00     0.049 A 
ATOM     61  H   UNL A   1      42.749  27.565  29.086  1.00  0.00     0.167 HD
ATOM     62  C   UNL A   1      47.087  27.255  29.607  1.00  0.00     0.031 A 
ATOM     63  C   UNL A   1      40.280  28.860  29.218  1.00  0.00     0.031 A 
ATOM     64  C   UNL A   1      46.753  28.595  30.009  1.00  0.00     0.049 A 
ATOM     65  C   UNL A   1      41.299  29.831  29.749  1.00  0.00     0.074 A 
ATOM     66  C   UNL A   1      47.600  29.602  30.438  1.00  0.00     0.029 A 
ATOM     67  N   UNL A   1      45.467  29.112  30.042  1.00  0.00    -0.354 N 
ATOM     68  N   UNL A   1      42.598  29.690  29.862  1.00  0.00    -0.248 NA
ATOM     69  C   UNL A   1      40.793  31.135  30.194  1.00  0.00     0.031 C 
ATOM     70  C   UNL A   1      46.819  30.703  30.799  1.00  0.00     0.029 A 
ATOM     71  C   UNL A   1      45.494  30.413  30.514  1.00  0.00     0.049 A 
ATOM     72  H   UNL A   1      44.656  28.625  29.769  1.00  0.00     0.167 HD
ATOM     73  C   UNL A   1      43.068  30.900  30.357  1.00  0.00     0.074 A 
ATOM     74  C   UNL A   1      41.916  31.767  30.503  1.00  0.00     0.031 C 
ATOM     75  C   UNL A   1      44.340  31.263  30.659  1.00  0.00     0.031 A 
BRANCH  62  76
ATOM     76  C   UNL A   1      48.522  26.809  29.700  1.00  0.00    -0.014 A 
ATOM     77  C   UNL A   1      49.017  26.161  30.845  1.00  0.00     0.009 A 
ATOM     78  C   UNL A   1      49.389  27.018  28.616  1.00  0.00     0.009 A 
ATOM     79  C   UNL A   1      50.357  25.776  30.919  1.00  0.00     0.001 A 
ATOM     80  C   UNL A   1      50.719  26.599  28.678  1.00  0.00     0.001 A 
ATOM     81  C   UNL A   1      51.206  25.990  29.833  1.00  0.00     0.000 A 
ENDBRANCH  62  76
BRANCH  63  82
ATOM     82  C   UNL A   1      38.841  29.230  29.146  1.00  0.00    -0.014 A 
ATOM     83  C   UNL A   1      38.301  29.781  27.974  1.00  0.00     0.009 A 
ATOM     84  C   UNL A   1      38.001  29.045  30.255  1.00  0.00     0.009 A 
ATOM     85  C   UNL A   1      36.961  30.172  27.926  1.00  0.00     0.001 A 
ATOM     86  C   UNL A   1      36.653  29.403  30.194  1.00  0.00     0.001 A 
ATOM     87  C   UNL A   1      36.138  29.979  29.034  1.00  0.00     0.000 A 
ENDBRANCH  63  82
BRANCH  75  88
ATOM     88  C   UNL A   1      44.558  32.677  31.129  1.00  0.00    -0.014 A 
ATOM     89  C   UNL A   1      44.803  33.726  30.228  1.00  0.00     0.009 A 
ATOM     90  C   UNL A   1      44.492  32.965  32.501  1.00  0.00     0.009 A 
ATOM     91  C   UNL A   1      45.025  35.022  30.698  1.00  0.00     0.001 A 
ATOM     92  C   UNL A   1      44.673  34.268  32.965  1.00  0.00     0.001 A 
ATOM     93  C   UNL A   1      44.954  35.293  32.063  1.00  0.00     0.000 A 
ENDBRANCH  75  88
ENDBRANCH  49  50
ENDBRANCH  41  44
ENDBRANCH  39  40
ENDBRANCH  38  39
ENDBRANCH  37  38
ENDBRANCH  36  37
ENDBRANCH   1  36
TORSDOF 20
ENDMDL
MODEL 3
REMARK VINA RESULT:     -11.8      0.944      5.571
REMARK SMILES N#Cc1ccccc1C[C@@H](NC(=O)OCC1c2ccccc2-c2ccccc21)C(=O)NCCCCCCNC(=O)c1ccc(-c2c3nc(c(-c4ccccc4)c4ccc([nH]4)c(-c4ccccc4)c4nc(c(-c5ccccc5)c5ccc2[nH]5)C=C4)C=C3)cc1
REMARK SMILES IDX 33 1 32 2 31 3 29 4 30 5 10 7 9 8 8 9 3 10 4 11 5 12 7 13
REMARK SMILES IDX 6 14 2 15 1 16 11 17 12 18 13 20 14 21 15 22 16 23 17 24
REMARK SMILES IDX 28 25 18 26 22 27 23 28 27 29 19 30 21 31 24 32 26 33 20 34
REMARK SMILES IDX 25 35 34 36 35 37 36 38 37 39 38 40 39 41 40 43 41 44 42 45
REMARK SMILES IDX 88 46 43 47 87 48 44 49 45 50 46 51 81 52 47 53 86 54 80 55
REMARK SMILES IDX 82 56 48 57 85 58 79 59 78 60 49 62 71 63 56 64 70 65 57 66
REMARK SMILES IDX 60 67 69 68 83 69 58 70 59 71 68 73 84 74 61 75 50 76 51 77
REMARK SMILES IDX 55 78 52 79 54 80 53 81 72 82 73 83 77 84 74 85 76 86 75 87
REMARK SMILES IDX 62 88 63 89 67 90 64 91 66 92 65 93
REMARK H PARENT 31 6 11 19 38 42 82 61 60 72
REMARK Flexibility Score: inf
ROOT
ATOM      1  C   UNL A   1      32.569  28.795  26.717  1.00  0.00     0.021 C 
ENDROOT
BRANCH   1   2
ATOM      2  C   UNL A   1      33.725  28.070  26.054  1.00  0.00     0.116 C 
BRANCH   2   3
ATOM      3  N   UNL A   1      33.954  28.580  24.712  1.00  0.00    -0.354 N 
ATOM      4  C   UNL A   1      33.327  28.266  23.537  1.00  0.00     0.243 C 
ATOM      5  O   UNL A   1      33.635  28.894  22.522  1.00  0.00    -0.273 OA
ATOM      6  H   UNL A   1      34.668  29.252  24.637  1.00  0.00     0.163 HD
BRANCH   4   7
ATOM      7  C   UNL A   1      32.299  27.118  23.491  1.00  0.00     0.179 C 
BRANCH   7   8
ATOM      8  C   UNL A   1      30.987  27.610  24.176  1.00  0.00     0.072 C 
BRANCH   8   9
ATOM      9  C   UNL A   1      30.026  28.441  23.343  1.00  0.00    -0.028 A 
ATOM     10  C   UNL A   1      28.676  28.076  23.175  1.00  0.00     0.055 A 
ATOM     11  C   UNL A   1      27.829  28.863  22.379  1.00  0.00     0.020 A 
ATOM     12  C   UNL A   1      28.303  30.023  21.769  1.00  0.00     0.001 A 
ATOM     13  C   UNL A   1      30.449  29.671  22.804  1.00  0.00     0.005 A 
ATOM     14  C   UNL A   1      29.608  30.437  21.995  1.00  0.00     0.000 A 
BRANCH  10  15
ATOM     15  C   UNL A   1      28.102  26.946  23.858  1.00  0.00     0.099 C 
ATOM     16  N   UNL A   1      27.623  26.028  24.373  1.00  0.00    -0.192 NA
ENDBRANCH  10  15
ENDBRANCH   8   9
ENDBRANCH   7   8
BRANCH   7  17
ATOM     17  N   UNL A   1      32.107  26.518  22.166  1.00  0.00    -0.309 N 
ATOM     18  C   UNL A   1      32.994  25.795  21.432  1.00  0.00     0.407 C 
ATOM     19  H   UNL A   1      31.223  26.655  21.757  1.00  0.00     0.167 HD
ATOM     20  O   UNL A   1      33.077  25.951  20.223  1.00  0.00    -0.225 OA
BRANCH  18  21
ATOM     21  O   UNL A   1      33.684  24.894  22.172  1.00  0.00    -0.449 OA
BRANCH  21  22
ATOM     22  C   UNL A   1      33.353  23.505  21.982  1.00  0.00     0.248 C 
BRANCH  22  23
ATOM     23  C   UNL A   1      33.371  22.730  23.312  1.00  0.00     0.088 C 
ATOM     24  C   UNL A   1      34.725  22.839  24.005  1.00  0.00    -0.029 A 
ATOM     25  C   UNL A   1      32.459  23.408  24.330  1.00  0.00    -0.029 A 
ATOM     26  C   UNL A   1      35.939  22.296  23.610  1.00  0.00     0.005 A 
ATOM     27  C   UNL A   1      34.628  23.673  25.134  1.00  0.00    -0.014 A 
ATOM     28  C   UNL A   1      33.231  23.966  25.374  1.00  0.00    -0.014 A 
ATOM     29  C   UNL A   1      31.076  23.512  24.320  1.00  0.00     0.005 A 
ATOM     30  C   UNL A   1      37.094  22.725  24.259  1.00  0.00     0.000 A 
ATOM     31  C   UNL A   1      35.772  24.083  25.796  1.00  0.00     0.009 A 
ATOM     32  C   UNL A   1      32.617  24.614  26.432  1.00  0.00     0.009 A 
ATOM     33  C   UNL A   1      30.460  24.170  25.386  1.00  0.00     0.000 A 
ATOM     34  C   UNL A   1      37.012  23.630  25.329  1.00  0.00     0.001 A 
ATOM     35  C   UNL A   1      31.222  24.710  26.435  1.00  0.00     0.001 A 
ENDBRANCH  22  23
ENDBRANCH  21  22
ENDBRANCH  18  21
ENDBRANCH   7  17
ENDBRANCH   4   7
ENDBRANCH   2   3
ENDBRANCH   1   2
BRANCH   1  36
ATOM     36  C   UNL A   1      32.698  30.314  26.578  1.00  0.00     0.002 C 
BRANCH  36  37
ATOM     37  C   UNL A   1      31.361  31.044  26.387  1.00  0.00     0.002 C 
BRANCH  37  38
ATOM     38  C   UNL A   1      31.416  32.548  26.668  1.00  0.00     0.021 C 
BRANCH  38  39
ATOM     39  C   UNL A   1      32.751  33.009  27.235  1.00  0.00     0.116 C 
BRANCH  39  40
ATOM     40  N   UNL A   1      32.610  34.242  27.992  1.00  0.00    -0.352 N 
ATOM     41  C   UNL A   1      33.336  34.682  29.065  1.00  0.00     0.251 C 
ATOM     42  H   UNL A   1      31.892  34.845  27.690  1.00  0.00     0.163 HD
ATOM     43  O   UNL A   1      32.942  35.629  29.737  1.00  0.00    -0.269 OA
BRANCH  41  44
ATOM     44  C   UNL A   1      34.593  33.994  29.412  1.00  0.00     0.039 A 
ATOM     45  C   UNL A   1      35.745  34.290  28.684  1.00  0.00     0.014 A 
ATOM     46  C   UNL A   1      34.629  33.058  30.450  1.00  0.00     0.014 A 
ATOM     47  C   UNL A   1      36.946  33.667  29.021  1.00  0.00     0.010 A 
ATOM     48  C   UNL A   1      35.842  32.514  30.848  1.00  0.00     0.010 A 
ATOM     49  C   UNL A   1      37.009  32.794  30.121  1.00  0.00    -0.014 A 
BRANCH  49  50
ATOM     50  C   UNL A   1      38.284  32.142  30.501  1.00  0.00     0.031 A 
ATOM     51  C   UNL A   1      39.179  32.775  31.531  1.00  0.00     0.074 A 
ATOM     52  C   UNL A   1      38.650  30.994  29.898  1.00  0.00     0.049 A 
ATOM     53  N   UNL A   1      40.329  32.356  31.994  1.00  0.00    -0.248 NA
ATOM     54  C   UNL A   1      38.737  34.060  32.098  1.00  0.00     0.031 C 
ATOM     55  C   UNL A   1      37.886  30.302  28.857  1.00  0.00     0.029 A 
ATOM     56  N   UNL A   1      39.755  30.204  30.080  1.00  0.00    -0.354 N 
ATOM     57  C   UNL A   1      40.748  33.327  32.895  1.00  0.00     0.074 A 
ATOM     58  C   UNL A   1      39.767  34.389  32.862  1.00  0.00     0.031 C 
ATOM     59  C   UNL A   1      38.524  29.167  28.529  1.00  0.00     0.029 A 
ATOM     60  C   UNL A   1      39.761  29.077  29.296  1.00  0.00     0.049 A 
ATOM     61  H   UNL A   1      40.477  30.424  30.713  1.00  0.00     0.167 HD
ATOM     62  C   UNL A   1      41.838  33.326  33.697  1.00  0.00     0.031 A 
ATOM     63  C   UNL A   1      40.664  28.083  29.203  1.00  0.00     0.031 A 
ATOM     64  C   UNL A   1      42.816  32.272  33.723  1.00  0.00     0.049 A 
ATOM     65  C   UNL A   1      41.888  28.126  30.077  1.00  0.00     0.074 A 
ATOM     66  C   UNL A   1      43.935  32.154  34.529  1.00  0.00     0.029 A 
ATOM     67  N   UNL A   1      42.798  31.158  32.897  1.00  0.00    -0.354 N 
ATOM     68  N   UNL A   1      42.235  29.016  30.975  1.00  0.00    -0.248 NA
ATOM     69  C   UNL A   1      42.835  27.013  29.933  1.00  0.00     0.031 C 
ATOM     70  C   UNL A   1      44.632  31.006  34.140  1.00  0.00     0.029 A 
ATOM     71  C   UNL A   1      43.902  30.363  33.152  1.00  0.00     0.049 A 
ATOM     72  H   UNL A   1      42.101  30.961  32.230  1.00  0.00     0.167 HD
ATOM     73  C   UNL A   1      43.422  28.552  31.529  1.00  0.00     0.074 A 
ATOM     74  C   UNL A   1      43.722  27.293  30.878  1.00  0.00     0.031 C 
ATOM     75  C   UNL A   1      44.192  29.115  32.493  1.00  0.00     0.031 A 
BRANCH  62  76
ATOM     76  C   UNL A   1      42.034  34.515  34.600  1.00  0.00    -0.014 A 
ATOM     77  C   UNL A   1      42.754  35.646  34.178  1.00  0.00     0.009 A 
ATOM     78  C   UNL A   1      41.470  34.516  35.886  1.00  0.00     0.009 A 
ATOM     79  C   UNL A   1      42.944  36.729  35.039  1.00  0.00     0.001 A 
ATOM     80  C   UNL A   1      41.630  35.615  36.731  1.00  0.00     0.001 A 
ATOM     81  C   UNL A   1      42.376  36.715  36.313  1.00  0.00     0.000 A 
ENDBRANCH  62  76
BRANCH  63  82
ATOM     82  C   UNL A   1      40.441  26.956  28.259  1.00  0.00    -0.014 A 
ATOM     83  C   UNL A   1      39.700  25.830  28.651  1.00  0.00     0.009 A 
ATOM     84  C   UNL A   1      40.978  26.994  26.964  1.00  0.00     0.009 A 
ATOM     85  C   UNL A   1      39.534  24.752  27.779  1.00  0.00     0.001 A 
ATOM     86  C   UNL A   1      40.780  25.930  26.080  1.00  0.00     0.001 A 
ATOM     87  C   UNL A   1      40.070  24.805  26.493  1.00  0.00     0.000 A 
ENDBRANCH  63  82
BRANCH  75  88
ATOM     88  C   UNL A   1      45.407  28.346  32.940  1.00  0.00    -0.014 A 
ATOM     89  C   UNL A   1      45.343  27.393  33.968  1.00  0.00     0.009 A 
ATOM     90  C   UNL A   1      46.635  28.566  32.296  1.00  0.00     0.009 A 
ATOM     91  C   UNL A   1      46.493  26.714  34.375  1.00  0.00     0.001 A 
ATOM     92  C   UNL A   1      47.775  27.856  32.676  1.00  0.00     0.001 A 
ATOM     93  C   UNL A   1      47.706  26.941  33.725  1.00  0.00     0.000 A 
ENDBRANCH  75  88
ENDBRANCH  49  50
ENDBRANCH  41  44
ENDBRANCH  39  40
ENDBRANCH  38  39
ENDBRANCH  37  38
ENDBRANCH  36  37
ENDBRANCH   1  36
TORSDOF 20
ENDMDL
