MODEL 1
REMARK VINA RESULT:     -11.5      0.000      0.000
REMARK SMILES CS(=O)(=O)c1ccc(/C=C(/C(=O)NCCCCCCNC(=O)c2ccc(-c3c4nc(c(-c5ccccc5)c5ccc([nH]5)c(-c5ccccc5)c5nc(c(-c6ccccc6)c6ccc3[nH]6)C=C5)C=C4)cc2)c2cccc(Br)c2)cc1
REMARK SMILES IDX 16 1 15 2 14 3 13 4 11 5 12 6 10 8 9 9 8 10 5 11 6 12 79 13
REMARK SMILES IDX 7 14 78 15 2 16 1 17 3 18 4 19 71 20 72 21 77 22 73 23 75 24
REMARK SMILES IDX 74 25 76 26 17 27 18 28 19 29 20 30 21 31 22 33 23 34 24 35
REMARK SMILES IDX 70 36 25 37 69 38 26 39 27 40 28 41 63 42 29 43 68 44 62 45
REMARK SMILES IDX 64 46 30 47 67 48 61 49 60 50 31 52 53 53 38 54 52 55 39 56
REMARK SMILES IDX 42 57 51 58 65 59 40 60 41 61 50 63 66 64 43 65 32 66 33 67
REMARK SMILES IDX 37 68 34 69 36 70 35 71 54 72 55 73 59 74 56 75 58 76 57 77
REMARK SMILES IDX 44 78 45 79 49 80 46 81 48 82 47 83
REMARK H PARENT 13 7 20 32 64 51 42 62
REMARK Flexibility Score: inf
ROOT
ATOM      1  C   UNL A   1      31.432  29.026  24.359  1.00  0.00     0.002 C 
ENDROOT
BRANCH   1   2
ATOM      2  C   UNL A   1      31.080  27.564  24.679  1.00  0.00     0.021 C 
BRANCH   2   3
ATOM      3  C   UNL A   1      30.670  26.758  23.442  1.00  0.00     0.116 C 
BRANCH   3   4
ATOM      4  N   UNL A   1      31.762  26.756  22.493  1.00  0.00    -0.352 N 
ATOM      5  C   UNL A   1      32.815  25.934  22.260  1.00  0.00     0.251 C 
ATOM      6  O   UNL A   1      33.631  26.336  21.425  1.00  0.00    -0.269 OA
ATOM      7  H   UNL A   1      31.735  27.526  21.879  1.00  0.00     0.163 HD
BRANCH   5   8
ATOM      8  C   UNL A   1      32.960  24.560  22.876  1.00  0.00     0.047 C 
ATOM      9  C   UNL A   1      32.021  23.594  22.732  1.00  0.00     0.022 C 
BRANCH   9  10
ATOM     10  C   UNL A   1      32.087  22.165  23.119  1.00  0.00    -0.025 A 
ATOM     11  C   UNL A   1      32.468  19.430  23.661  1.00  0.00     0.067 A 
ATOM     12  C   UNL A   1      32.476  20.361  24.702  1.00  0.00     0.021 A 
ATOM     13  C   UNL A   1      32.203  19.841  22.356  1.00  0.00     0.021 A 
ATOM     14  C   UNL A   1      32.257  21.715  24.433  1.00  0.00     0.009 A 
ATOM     15  C   UNL A   1      32.015  21.205  22.093  1.00  0.00     0.009 A 
BRANCH  11  16
ATOM     16  S   UNL A   1      32.825  17.733  24.056  1.00  0.00     0.175 S 
ATOM     17  C   UNL A   1      34.495  17.675  24.638  1.00  0.00     0.163 C 
ATOM     18  O   UNL A   1      32.793  16.999  22.802  1.00  0.00    -0.224 OA
ATOM     19  O   UNL A   1      31.956  17.377  25.158  1.00  0.00    -0.224 OA
ENDBRANCH  11  16
ENDBRANCH   9  10
BRANCH   8  20
ATOM     20  C   UNL A   1      34.112  24.374  23.796  1.00  0.00    -0.012 A 
ATOM     21  C   UNL A   1      34.141  25.129  24.984  1.00  0.00     0.009 A 
ATOM     22  C   UNL A   1      35.112  23.420  23.575  1.00  0.00     0.024 A 
ATOM     23  C   UNL A   1      35.128  24.918  25.946  1.00  0.00     0.002 A 
ATOM     24  C   UNL A   1      36.078  23.192  24.559  1.00  0.00     0.018 A 
ATOM     25  C   UNL A   1      36.089  23.934  25.741  1.00  0.00     0.016 A 
ATOM     26  Br  UNL A   1      37.351  21.816  24.316  1.00  0.00    -0.051 Br
ENDBRANCH   8  20
ENDBRANCH   5   8
ENDBRANCH   3   4
ENDBRANCH   2   3
ENDBRANCH   1   2
BRANCH   1  27
ATOM     27  C   UNL A   1      32.718  29.535  25.021  1.00  0.00     0.002 C 
BRANCH  27  28
ATOM     28  C   UNL A   1      33.573  28.445  25.672  1.00  0.00     0.021 C 
BRANCH  28  29
ATOM     29  C   UNL A   1      33.730  28.601  27.180  1.00  0.00     0.116 C 
BRANCH  29  30
ATOM     30  N   UNL A   1      33.609  29.991  27.588  1.00  0.00    -0.352 N 
ATOM     31  C   UNL A   1      34.486  30.761  28.305  1.00  0.00     0.251 C 
ATOM     32  H   UNL A   1      32.779  30.441  27.311  1.00  0.00     0.163 HD
ATOM     33  O   UNL A   1      34.124  31.837  28.771  1.00  0.00    -0.269 OA
BRANCH  31  34
ATOM     34  C   UNL A   1      35.871  30.294  28.520  1.00  0.00     0.039 A 
ATOM     35  C   UNL A   1      36.798  30.426  27.485  1.00  0.00     0.014 A 
ATOM     36  C   UNL A   1      36.245  29.691  29.727  1.00  0.00     0.014 A 
ATOM     37  C   UNL A   1      38.106  29.978  27.668  1.00  0.00     0.010 A 
ATOM     38  C   UNL A   1      37.569  29.324  29.937  1.00  0.00     0.010 A 
ATOM     39  C   UNL A   1      38.506  29.438  28.901  1.00  0.00    -0.014 A 
BRANCH  39  40
ATOM     40  C   UNL A   1      39.890  28.944  29.105  1.00  0.00     0.031 A 
ATOM     41  C   UNL A   1      40.924  29.842  29.731  1.00  0.00     0.074 A 
ATOM     42  C   UNL A   1      40.227  27.705  28.701  1.00  0.00     0.049 A 
ATOM     43  N   UNL A   1      42.187  29.601  29.977  1.00  0.00    -0.248 NA
ATOM     44  C   UNL A   1      40.489  31.198  30.106  1.00  0.00     0.031 C 
ATOM     45  C   UNL A   1      39.326  26.751  28.051  1.00  0.00     0.029 A 
ATOM     46  N   UNL A   1      41.421  27.033  28.781  1.00  0.00    -0.354 N 
ATOM     47  C   UNL A   1      42.696  30.774  30.521  1.00  0.00     0.074 A 
ATOM     48  C   UNL A   1      41.625  31.745  30.511  1.00  0.00     0.031 C 
ATOM     49  C   UNL A   1      39.989  25.605  27.826  1.00  0.00     0.029 A 
ATOM     50  C   UNL A   1      41.368  25.757  28.277  1.00  0.00     0.049 A 
ATOM     51  H   UNL A   1      42.237  27.429  29.163  1.00  0.00     0.167 HD
ATOM     52  C   UNL A   1      43.935  31.017  31.009  1.00  0.00     0.031 A 
ATOM     53  C   UNL A   1      42.326  24.813  28.189  1.00  0.00     0.031 A 
ATOM     54  C   UNL A   1      44.998  30.048  31.027  1.00  0.00     0.049 A 
ATOM     55  C   UNL A   1      43.700  25.115  28.721  1.00  0.00     0.074 A 
ATOM     56  C   UNL A   1      46.275  30.179  31.542  1.00  0.00     0.029 A 
ATOM     57  N   UNL A   1      44.905  28.768  30.503  1.00  0.00    -0.354 N 
ATOM     58  N   UNL A   1      44.147  26.207  29.291  1.00  0.00    -0.248 NA
ATOM     59  C   UNL A   1      44.699  24.042  28.609  1.00  0.00     0.031 C 
ATOM     60  C   UNL A   1      46.974  28.997  31.279  1.00  0.00     0.029 A 
ATOM     61  C   UNL A   1      46.111  28.106  30.661  1.00  0.00     0.049 A 
ATOM     62  H   UNL A   1      44.102  28.386  30.083  1.00  0.00     0.167 HD
ATOM     63  C   UNL A   1      45.465  25.941  29.638  1.00  0.00     0.074 A 
ATOM     64  C   UNL A   1      45.740  24.580  29.227  1.00  0.00     0.031 C 
ATOM     65  C   UNL A   1      46.367  26.751  30.247  1.00  0.00     0.031 A 
BRANCH  52  66
ATOM     66  C   UNL A   1      44.207  32.393  31.555  1.00  0.00    -0.014 A 
ATOM     67  C   UNL A   1      44.687  33.424  30.730  1.00  0.00     0.009 A 
ATOM     68  C   UNL A   1      43.956  32.671  32.908  1.00  0.00     0.009 A 
ATOM     69  C   UNL A   1      44.951  34.690  31.258  1.00  0.00     0.001 A 
ATOM     70  C   UNL A   1      44.188  33.947  33.426  1.00  0.00     0.001 A 
ATOM     71  C   UNL A   1      44.696  34.952  32.603  1.00  0.00     0.000 A 
ENDBRANCH  52  66
BRANCH  53  72
ATOM     72  C   UNL A   1      42.015  23.488  27.594  1.00  0.00    -0.014 A 
ATOM     73  C   UNL A   1      41.461  22.465  28.379  1.00  0.00     0.009 A 
ATOM     74  C   UNL A   1      42.282  23.233  26.240  1.00  0.00     0.009 A 
ATOM     75  C   UNL A   1      41.212  21.204  27.830  1.00  0.00     0.001 A 
ATOM     76  C   UNL A   1      42.001  21.981  25.684  1.00  0.00     0.001 A 
ATOM     77  C   UNL A   1      41.478  20.966  26.483  1.00  0.00     0.000 A 
ENDBRANCH  53  72
BRANCH  65  78
ATOM     78  C   UNL A   1      47.721  26.169  30.548  1.00  0.00    -0.014 A 
ATOM     79  C   UNL A   1      48.728  26.107  29.572  1.00  0.00     0.009 A 
ATOM     80  C   UNL A   1      48.003  25.709  31.845  1.00  0.00     0.009 A 
ATOM     81  C   UNL A   1      49.976  25.560  29.879  1.00  0.00     0.001 A 
ATOM     82  C   UNL A   1      49.262  25.195  32.157  1.00  0.00     0.001 A 
ATOM     83  C   UNL A   1      50.242  25.109  31.171  1.00  0.00     0.000 A 
ENDBRANCH  65  78
ENDBRANCH  39  40
ENDBRANCH  31  34
ENDBRANCH  29  30
ENDBRANCH  28  29
ENDBRANCH  27  28
ENDBRANCH   1  27
TORSDOF 16
ENDMDL
MODEL 2
REMARK VINA RESULT:     -11.2      3.307      8.188
REMARK SMILES CS(=O)(=O)c1ccc(/C=C(/C(=O)NCCCCCCNC(=O)c2ccc(-c3c4nc(c(-c5ccccc5)c5ccc([nH]5)c(-c5ccccc5)c5nc(c(-c6ccccc6)c6ccc3[nH]6)C=C5)C=C4)cc2)c2cccc(Br)c2)cc1
REMARK SMILES IDX 16 1 15 2 14 3 13 4 11 5 12 6 10 8 9 9 8 10 5 11 6 12 79 13
REMARK SMILES IDX 7 14 78 15 2 16 1 17 3 18 4 19 71 20 72 21 77 22 73 23 75 24
REMARK SMILES IDX 74 25 76 26 17 27 18 28 19 29 20 30 21 31 22 33 23 34 24 35
REMARK SMILES IDX 70 36 25 37 69 38 26 39 27 40 28 41 63 42 29 43 68 44 62 45
REMARK SMILES IDX 64 46 30 47 67 48 61 49 60 50 31 52 53 53 38 54 52 55 39 56
REMARK SMILES IDX 42 57 51 58 65 59 40 60 41 61 50 63 66 64 43 65 32 66 33 67
REMARK SMILES IDX 37 68 34 69 36 70 35 71 54 72 55 73 59 74 56 75 58 76 57 77
REMARK SMILES IDX 44 78 45 79 49 80 46 81 48 82 47 83
REMARK H PARENT 13 7 20 32 64 51 42 62
REMARK Flexibility Score: inf
ROOT
ATOM      1  C   UNL A   1      34.247  20.933  24.565  1.00  0.00     0.002 C 
ENDROOT
BRANCH   1   2
ATOM      2  C   UNL A   1      33.250  21.957  23.999  1.00  0.00     0.021 C 
BRANCH   2   3
ATOM      3  C   UNL A   1      31.797  21.662  24.386  1.00  0.00     0.116 C 
BRANCH   3   4
ATOM      4  N   UNL A   1      31.580  22.067  25.758  1.00  0.00    -0.352 N 
ATOM      5  C   UNL A   1      31.426  23.261  26.381  1.00  0.00     0.251 C 
ATOM      6  O   UNL A   1      31.388  23.218  27.614  1.00  0.00    -0.269 OA
ATOM      7  H   UNL A   1      31.535  21.304  26.379  1.00  0.00     0.163 HD
BRANCH   5   8
ATOM      8  C   UNL A   1      31.198  24.567  25.651  1.00  0.00     0.047 C 
ATOM      9  C   UNL A   1      30.289  24.696  24.655  1.00  0.00     0.022 C 
BRANCH   9  10
ATOM     10  C   UNL A   1      29.829  25.926  23.966  1.00  0.00    -0.025 A 
ATOM     11  C   UNL A   1      28.876  28.371  22.951  1.00  0.00     0.067 A 
ATOM     12  C   UNL A   1      30.195  27.977  22.713  1.00  0.00     0.021 A 
ATOM     13  C   UNL A   1      28.004  27.524  23.634  1.00  0.00     0.021 A 
ATOM     14  C   UNL A   1      30.657  26.748  23.195  1.00  0.00     0.009 A 
ATOM     15  C   UNL A   1      28.486  26.308  24.138  1.00  0.00     0.009 A 
BRANCH  11  16
ATOM     16  S   UNL A   1      28.368  29.975  22.377  1.00  0.00     0.175 S 
ATOM     17  C   UNL A   1      29.224  31.173  23.358  1.00  0.00     0.163 C 
ATOM     18  O   UNL A   1      26.956  30.104  22.696  1.00  0.00    -0.224 OA
ATOM     19  O   UNL A   1      28.844  30.093  21.014  1.00  0.00    -0.224 OA
ENDBRANCH  11  16
ENDBRANCH   9  10
BRANCH   8  20
ATOM     20  C   UNL A   1      32.148  25.666  25.965  1.00  0.00    -0.012 A 
ATOM     21  C   UNL A   1      33.498  25.500  25.601  1.00  0.00     0.009 A 
ATOM     22  C   UNL A   1      31.740  26.884  26.520  1.00  0.00     0.024 A 
ATOM     23  C   UNL A   1      34.417  26.537  25.758  1.00  0.00     0.002 A 
ATOM     24  C   UNL A   1      32.661  27.929  26.643  1.00  0.00     0.018 A 
ATOM     25  C   UNL A   1      33.993  27.761  26.264  1.00  0.00     0.016 A 
ATOM     26  Br  UNL A   1      32.081  29.614  27.273  1.00  0.00    -0.051 Br
ENDBRANCH   8  20
ENDBRANCH   5   8
ENDBRANCH   3   4
ENDBRANCH   2   3
ENDBRANCH   1   2
BRANCH   1  27
ATOM     27  C   UNL A   1      35.546  21.537  25.111  1.00  0.00     0.002 C 
BRANCH  27  28
ATOM     28  C   UNL A   1      35.849  22.951  24.611  1.00  0.00     0.021 C 
BRANCH  28  29
ATOM     29  C   UNL A   1      37.053  23.599  25.284  1.00  0.00     0.116 C 
BRANCH  29  30
ATOM     30  N   UNL A   1      38.100  22.628  25.556  1.00  0.00    -0.352 N 
ATOM     31  C   UNL A   1      39.339  22.822  26.105  1.00  0.00     0.251 C 
ATOM     32  H   UNL A   1      37.887  21.699  25.309  1.00  0.00     0.163 HD
ATOM     33  O   UNL A   1      40.189  21.940  26.040  1.00  0.00    -0.269 OA
BRANCH  31  34
ATOM     34  C   UNL A   1      39.655  24.101  26.776  1.00  0.00     0.039 A 
ATOM     35  C   UNL A   1      40.357  25.079  26.069  1.00  0.00     0.014 A 
ATOM     36  C   UNL A   1      39.293  24.320  28.109  1.00  0.00     0.014 A 
ATOM     37  C   UNL A   1      40.674  26.287  26.691  1.00  0.00     0.010 A 
ATOM     38  C   UNL A   1      39.535  25.555  28.700  1.00  0.00     0.010 A 
ATOM     39  C   UNL A   1      40.251  26.541  28.006  1.00  0.00    -0.014 A 
BRANCH  39  40
ATOM     40  C   UNL A   1      40.593  27.815  28.685  1.00  0.00     0.031 A 
ATOM     41  C   UNL A   1      41.973  28.018  29.252  1.00  0.00     0.074 A 
ATOM     42  C   UNL A   1      39.660  28.775  28.820  1.00  0.00     0.049 A 
ATOM     43  N   UNL A   1      42.460  29.050  29.894  1.00  0.00    -0.248 NA
ATOM     44  C   UNL A   1      42.925  26.904  29.102  1.00  0.00     0.031 C 
ATOM     45  C   UNL A   1      38.278  28.687  28.343  1.00  0.00     0.029 A 
ATOM     46  N   UNL A   1      39.734  30.018  29.396  1.00  0.00    -0.354 N 
ATOM     47  C   UNL A   1      43.761  28.704  30.233  1.00  0.00     0.074 A 
ATOM     48  C   UNL A   1      43.971  27.346  29.783  1.00  0.00     0.031 C 
ATOM     49  C   UNL A   1      37.646  29.840  28.614  1.00  0.00     0.029 A 
ATOM     50  C   UNL A   1      38.563  30.732  29.316  1.00  0.00     0.049 A 
ATOM     51  H   UNL A   1      40.549  30.364  29.825  1.00  0.00     0.167 HD
ATOM     52  C   UNL A   1      44.709  29.456  30.841  1.00  0.00     0.031 A 
ATOM     53  C   UNL A   1      38.263  31.968  29.760  1.00  0.00     0.031 A 
ATOM     54  C   UNL A   1      44.504  30.811  31.280  1.00  0.00     0.049 A 
ATOM     55  C   UNL A   1      39.328  32.776  30.450  1.00  0.00     0.074 A 
ATOM     56  C   UNL A   1      45.413  31.675  31.864  1.00  0.00     0.029 A 
ATOM     57  N   UNL A   1      43.302  31.495  31.185  1.00  0.00    -0.354 N 
ATOM     58  N   UNL A   1      40.574  32.458  30.705  1.00  0.00    -0.248 NA
ATOM     59  C   UNL A   1      38.945  34.122  30.900  1.00  0.00     0.031 C 
ATOM     60  C   UNL A   1      44.745  32.864  32.173  1.00  0.00     0.029 A 
ATOM     61  C   UNL A   1      43.440  32.765  31.720  1.00  0.00     0.049 A 
ATOM     62  H   UNL A   1      42.475  31.134  30.793  1.00  0.00     0.167 HD
ATOM     63  C   UNL A   1      41.133  33.576  31.311  1.00  0.00     0.074 A 
ATOM     64  C   UNL A   1      40.094  34.583  31.372  1.00  0.00     0.031 C 
ATOM     65  C   UNL A   1      42.395  33.755  31.773  1.00  0.00     0.031 A 
BRANCH  52  66
ATOM     66  C   UNL A   1      46.054  28.821  31.075  1.00  0.00    -0.014 A 
ATOM     67  C   UNL A   1      46.330  28.111  32.254  1.00  0.00     0.009 A 
ATOM     68  C   UNL A   1      47.050  28.911  30.090  1.00  0.00     0.009 A 
ATOM     69  C   UNL A   1      47.589  27.542  32.462  1.00  0.00     0.001 A 
ATOM     70  C   UNL A   1      48.297  28.312  30.285  1.00  0.00     0.001 A 
ATOM     71  C   UNL A   1      48.569  27.639  31.475  1.00  0.00     0.000 A 
ENDBRANCH  52  66
BRANCH  53  72
ATOM     72  C   UNL A   1      36.903  32.528  29.547  1.00  0.00    -0.014 A 
ATOM     73  C   UNL A   1      36.588  33.204  28.358  1.00  0.00     0.009 A 
ATOM     74  C   UNL A   1      35.915  32.399  30.535  1.00  0.00     0.009 A 
ATOM     75  C   UNL A   1      35.323  33.770  28.178  1.00  0.00     0.001 A 
ATOM     76  C   UNL A   1      34.640  32.937  30.339  1.00  0.00     0.001 A 
ATOM     77  C   UNL A   1      34.350  33.632  29.166  1.00  0.00     0.000 A 
ENDBRANCH  53  72
BRANCH  65  78
ATOM     78  C   UNL A   1      42.736  35.105  32.341  1.00  0.00    -0.014 A 
ATOM     79  C   UNL A   1      42.408  35.450  33.661  1.00  0.00     0.009 A 
ATOM     80  C   UNL A   1      43.431  36.033  31.548  1.00  0.00     0.009 A 
ATOM     81  C   UNL A   1      42.736  36.713  34.162  1.00  0.00     0.001 A 
ATOM     82  C   UNL A   1      43.787  37.280  32.062  1.00  0.00     0.001 A 
ATOM     83  C   UNL A   1      43.428  37.623  33.364  1.00  0.00     0.000 A 
ENDBRANCH  65  78
ENDBRANCH  39  40
ENDBRANCH  31  34
ENDBRANCH  29  30
ENDBRANCH  28  29
ENDBRANCH  27  28
ENDBRANCH   1  27
TORSDOF 16
ENDMDL
MODEL 3
REMARK VINA RESULT:     -11.1      3.368      8.215
REMARK SMILES CS(=O)(=O)c1ccc(/C=C(/C(=O)NCCCCCCNC(=O)c2ccc(-c3c4nc(c(-c5ccccc5)c5ccc([nH]5)c(-c5ccccc5)c5nc(c(-c6ccccc6)c6ccc3[nH]6)C=C5)C=C4)cc2)c2cccc(Br)c2)cc1
REMARK SMILES IDX 16 1 15 2 14 3 13 4 11 5 12 6 10 8 9 9 8 10 5 11 6 12 79 13
REMARK SMILES IDX 7 14 78 15 2 16 1 17 3 18 4 19 71 20 72 21 77 22 73 23 75 24
REMARK SMILES IDX 74 25 76 26 17 27 18 28 19 29 20 30 21 31 22 33 23 34 24 35
REMARK SMILES IDX 70 36 25 37 69 38 26 39 27 40 28 41 63 42 29 43 68 44 62 45
REMARK SMILES IDX 64 46 30 47 67 48 61 49 60 50 31 52 53 53 38 54 52 55 39 56
REMARK SMILES IDX 42 57 51 58 65 59 40 60 41 61 50 63 66 64 43 65 32 66 33 67
REMARK SMILES IDX 37 68 34 69 36 70 35 71 54 72 55 73 59 74 56 75 58 76 57 77
REMARK SMILES IDX 44 78 45 79 49 80 46 81 48 82 47 83
REMARK H PARENT 13 7 20 32 64 51 42 62
REMARK Flexibility Score: inf
ROOT
ATOM      1  C   UNL A   1      34.174  22.479  23.341  1.00  0.00     0.002 C 
ENDROOT
BRANCH   1   2
ATOM      2  C   UNL A   1      33.440  21.811  24.515  1.00  0.00     0.021 C 
BRANCH   2   3
ATOM      3  C   UNL A   1      31.915  21.876  24.387  1.00  0.00     0.116 C 
BRANCH   3   4
ATOM      4  N   UNL A   1      31.346  22.240  25.667  1.00  0.00    -0.352 N 
ATOM      5  C   UNL A   1      30.988  23.412  26.247  1.00  0.00     0.251 C 
ATOM      6  O   UNL A   1      30.647  23.338  27.431  1.00  0.00    -0.269 OA
ATOM      7  H   UNL A   1      31.183  21.461  26.247  1.00  0.00     0.163 HD
BRANCH   5   8
ATOM      8  C   UNL A   1      30.890  24.724  25.499  1.00  0.00     0.047 C 
ATOM      9  C   UNL A   1      30.025  24.916  24.475  1.00  0.00     0.022 C 
BRANCH   9  10
ATOM     10  C   UNL A   1      29.689  26.172  23.762  1.00  0.00    -0.025 A 
ATOM     11  C   UNL A   1      28.971  28.676  22.698  1.00  0.00     0.067 A 
ATOM     12  C   UNL A   1      30.257  28.168  22.497  1.00  0.00     0.021 A 
ATOM     13  C   UNL A   1      28.015  27.915  23.368  1.00  0.00     0.021 A 
ATOM     14  C   UNL A   1      30.601  26.911  23.002  1.00  0.00     0.009 A 
ATOM     15  C   UNL A   1      28.380  26.669  23.897  1.00  0.00     0.009 A 
BRANCH  11  16
ATOM     16  S   UNL A   1      28.616  30.311  22.095  1.00  0.00     0.175 S 
ATOM     17  C   UNL A   1      27.557  31.084  23.282  1.00  0.00     0.163 C 
ATOM     18  O   UNL A   1      27.835  30.145  20.881  1.00  0.00    -0.224 OA
ATOM     19  O   UNL A   1      29.874  31.027  22.087  1.00  0.00    -0.224 OA
ENDBRANCH  11  16
ENDBRANCH   9  10
BRANCH   8  20
ATOM     20  C   UNL A   1      31.916  25.745  25.835  1.00  0.00    -0.012 A 
ATOM     21  C   UNL A   1      33.251  25.491  25.466  1.00  0.00     0.009 A 
ATOM     22  C   UNL A   1      31.597  26.978  26.414  1.00  0.00     0.024 A 
ATOM     23  C   UNL A   1      34.242  26.455  25.642  1.00  0.00     0.002 A 
ATOM     24  C   UNL A   1      32.590  27.952  26.557  1.00  0.00     0.018 A 
ATOM     25  C   UNL A   1      33.907  27.696  26.173  1.00  0.00     0.016 A 
ATOM     26  Br  UNL A   1      32.132  29.661  27.221  1.00  0.00    -0.051 Br
ENDBRANCH   8  20
ENDBRANCH   5   8
ENDBRANCH   3   4
ENDBRANCH   2   3
ENDBRANCH   1   2
BRANCH   1  27
ATOM     27  C   UNL A   1      35.474  23.197  23.724  1.00  0.00     0.002 C 
BRANCH  27  28
ATOM     28  C   UNL A   1      35.888  23.026  25.187  1.00  0.00     0.021 C 
BRANCH  28  29
ATOM     29  C   UNL A   1      37.191  23.729  25.546  1.00  0.00     0.116 C 
BRANCH  29  30
ATOM     30  N   UNL A   1      38.290  22.787  25.670  1.00  0.00    -0.352 N 
ATOM     31  C   UNL A   1      39.568  23.001  26.114  1.00  0.00     0.251 C 
ATOM     32  H   UNL A   1      38.087  21.864  25.395  1.00  0.00     0.163 HD
ATOM     33  O   UNL A   1      40.437  22.155  25.925  1.00  0.00    -0.269 OA
BRANCH  31  34
ATOM     34  C   UNL A   1      39.902  24.255  26.819  1.00  0.00     0.039 A 
ATOM     35  C   UNL A   1      39.526  24.400  28.156  1.00  0.00     0.014 A 
ATOM     36  C   UNL A   1      40.550  25.301  26.154  1.00  0.00     0.014 A 
ATOM     37  C   UNL A   1      39.822  25.583  28.833  1.00  0.00     0.010 A 
ATOM     38  C   UNL A   1      40.920  26.445  26.852  1.00  0.00     0.010 A 
ATOM     39  C   UNL A   1      40.536  26.609  28.191  1.00  0.00    -0.014 A 
BRANCH  39  40
ATOM     40  C   UNL A   1      40.845  27.878  28.894  1.00  0.00     0.031 A 
ATOM     41  C   UNL A   1      39.800  28.957  28.993  1.00  0.00     0.074 A 
ATOM     42  C   UNL A   1      42.071  28.074  29.416  1.00  0.00     0.049 A 
ATOM     43  N   UNL A   1      39.883  30.139  29.549  1.00  0.00    -0.248 NA
ATOM     44  C   UNL A   1      38.499  28.683  28.360  1.00  0.00     0.031 C 
ATOM     45  C   UNL A   1      43.180  27.120  29.357  1.00  0.00     0.029 A 
ATOM     46  N   UNL A   1      42.588  29.144  30.102  1.00  0.00    -0.354 N 
ATOM     47  C   UNL A   1      38.656  30.750  29.322  1.00  0.00     0.074 A 
ATOM     48  C   UNL A   1      37.869  29.836  28.525  1.00  0.00     0.031 C 
ATOM     49  C   UNL A   1      44.234  27.632  30.014  1.00  0.00     0.029 A 
ATOM     50  C   UNL A   1      43.889  28.963  30.503  1.00  0.00     0.049 A 
ATOM     51  H   UNL A   1      42.075  29.963  30.289  1.00  0.00     0.167 HD
ATOM     52  C   UNL A   1      38.211  31.952  29.758  1.00  0.00     0.031 A 
ATOM     53  C   UNL A   1      44.712  29.779  31.189  1.00  0.00     0.031 A 
ATOM     54  C   UNL A   1      38.991  32.857  30.560  1.00  0.00     0.049 A 
ATOM     55  C   UNL A   1      44.201  31.118  31.646  1.00  0.00     0.074 A 
ATOM     56  C   UNL A   1      38.618  34.078  31.093  1.00  0.00     0.029 A 
ATOM     57  N   UNL A   1      40.306  32.638  30.940  1.00  0.00    -0.354 N 
ATOM     58  N   UNL A   1      43.016  31.653  31.478  1.00  0.00    -0.248 NA
ATOM     59  C   UNL A   1      45.140  31.959  32.401  1.00  0.00     0.031 C 
ATOM     60  C   UNL A   1      39.725  34.623  31.749  1.00  0.00     0.029 A 
ATOM     61  C   UNL A   1      40.767  33.712  31.683  1.00  0.00     0.049 A 
ATOM     62  H   UNL A   1      40.833  31.837  30.719  1.00  0.00     0.167 HD
ATOM     63  C   UNL A   1      43.056  32.875  32.137  1.00  0.00     0.074 A 
ATOM     64  C   UNL A   1      44.377  32.994  32.718  1.00  0.00     0.031 C 
ATOM     65  C   UNL A   1      42.085  33.814  32.254  1.00  0.00     0.031 A 
BRANCH  52  66
ATOM     66  C   UNL A   1      36.816  32.359  29.366  1.00  0.00    -0.014 A 
ATOM     67  C   UNL A   1      35.704  31.994  30.142  1.00  0.00     0.009 A 
ATOM     68  C   UNL A   1      36.613  33.142  28.218  1.00  0.00     0.009 A 
ATOM     69  C   UNL A   1      34.415  32.367  29.753  1.00  0.00     0.001 A 
ATOM     70  C   UNL A   1      35.327  33.542  27.850  1.00  0.00     0.001 A 
ATOM     71  C   UNL A   1      34.229  33.145  28.611  1.00  0.00     0.000 A 
ENDBRANCH  52  66
BRANCH  53  72
ATOM     72  C   UNL A   1      46.098  29.347  31.506  1.00  0.00    -0.014 A 
ATOM     73  C   UNL A   1      46.393  28.743  32.739  1.00  0.00     0.009 A 
ATOM     74  C   UNL A   1      47.137  29.545  30.584  1.00  0.00     0.009 A 
ATOM     75  C   UNL A   1      47.704  28.378  33.055  1.00  0.00     0.001 A 
ATOM     76  C   UNL A   1      48.442  29.150  30.888  1.00  0.00     0.001 A 
ATOM     77  C   UNL A   1      48.726  28.578  32.128  1.00  0.00     0.000 A 
ENDBRANCH  53  72
BRANCH  65  78
ATOM     78  C   UNL A   1      42.398  35.031  33.081  1.00  0.00    -0.014 A 
ATOM     79  C   UNL A   1      42.017  35.122  34.429  1.00  0.00     0.009 A 
ATOM     80  C   UNL A   1      43.122  36.088  32.506  1.00  0.00     0.009 A 
ATOM     81  C   UNL A   1      42.320  36.265  35.172  1.00  0.00     0.001 A 
ATOM     82  C   UNL A   1      43.453  37.215  33.261  1.00  0.00     0.001 A 
ATOM     83  C   UNL A   1      43.041  37.307  34.589  1.00  0.00     0.000 A 
ENDBRANCH  65  78
ENDBRANCH  39  40
ENDBRANCH  31  34
ENDBRANCH  29  30
ENDBRANCH  28  29
ENDBRANCH  27  28
ENDBRANCH   1  27
TORSDOF 16
ENDMDL
