MODEL 1
REMARK VINA RESULT:      -9.7      0.000      0.000
REMARK SMILES N#C[C@@H]1CN(C(=O)NCCCC(=O)NCCCCCCNC(=O)c2ccc(-c3c4nc(c(-c5ccccc5)c5ccc([nH]5)c(-c5ccccc5)c5nc(c(-c6ccccc6)c6ccc3[nH]6)C=C5)C=C4)cc2)CCO1
REMARK SMILES IDX 16 1 15 2 14 3 12 4 13 5 11 7 10 8 9 9 8 10 6 11 7 12 5 14
REMARK SMILES IDX 3 15 4 16 74 17 73 18 72 19 2 20 1 21 17 22 18 23 19 24
REMARK SMILES IDX 20 25 21 26 22 27 23 29 24 30 25 31 71 32 26 33 70 34 27 35
REMARK SMILES IDX 28 36 29 37 64 38 30 39 69 40 63 41 65 42 31 43 68 44 62 45
REMARK SMILES IDX 61 46 32 48 54 49 39 50 53 51 40 52 43 53 52 54 66 55 41 56
REMARK SMILES IDX 42 57 51 59 67 60 44 61 33 62 34 63 38 64 35 65 37 66 36 67
REMARK SMILES IDX 55 68 56 69 60 70 57 71 59 72 58 73 45 74 46 75 50 76 47 77
REMARK SMILES IDX 49 78 48 79
REMARK H PARENT 14 6 8 13 21 28 65 47 43 58
REMARK Flexibility Score: inf
ROOT
ATOM      1  C   UNL A   1      33.361  20.916  24.231  1.00  0.00     0.021 C 
ENDROOT
BRANCH   1   2
ATOM      2  C   UNL A   1      32.521  20.515  25.445  1.00  0.00     0.116 C 
BRANCH   2   3
ATOM      3  N   UNL A   1      32.482  21.587  26.427  1.00  0.00    -0.356 N 
ATOM      4  C   UNL A   1      31.717  22.710  26.478  1.00  0.00     0.220 C 
ATOM      5  O   UNL A   1      31.946  23.536  27.363  1.00  0.00    -0.275 OA
ATOM      6  H   UNL A   1      33.110  21.483  27.176  1.00  0.00     0.163 HD
BRANCH   4   7
ATOM      7  C   UNL A   1      30.615  22.950  25.465  1.00  0.00     0.102 C 
BRANCH   7   8
ATOM      8  C   UNL A   1      31.088  23.779  24.269  1.00  0.00     0.031 C 
BRANCH   8   9
ATOM      9  C   UNL A   1      30.499  25.185  24.204  1.00  0.00     0.118 C 
BRANCH   9  10
ATOM     10  N   UNL A   1      30.572  25.887  25.472  1.00  0.00    -0.338 N 
ATOM     11  C   UNL A   1      31.211  26.988  25.911  1.00  0.00     0.317 C 
ATOM     12  O   UNL A   1      31.142  27.191  27.126  1.00  0.00    -0.249 OA
ATOM     13  H   UNL A   1      30.027  25.462  26.173  1.00  0.00     0.165 HD
BRANCH  11  14
ATOM     14  N   UNL A   1      31.910  27.814  25.082  1.00  0.00    -0.319 N 
ATOM     15  C   UNL A   1      33.817  28.026  23.493  1.00  0.00     0.240 C 
ATOM     16  C   UNL A   1      33.362  27.961  24.954  1.00  0.00     0.169 C 
ATOM     17  O   UNL A   1      33.094  29.052  22.777  1.00  0.00    -0.360 OA
ATOM     18  C   UNL A   1      31.674  28.829  22.810  1.00  0.00     0.183 C 
ATOM     19  C   UNL A   1      31.146  28.756  24.247  1.00  0.00     0.150 C 
BRANCH  15  20
ATOM     20  C   UNL A   1      33.673  26.675  22.812  1.00  0.00     0.096 C 
ATOM     21  N   UNL A   1      33.554  25.555  22.248  1.00  0.00    -0.195 NA
ENDBRANCH  15  20
ENDBRANCH  11  14
ENDBRANCH   9  10
ENDBRANCH   8   9
ENDBRANCH   7   8
ENDBRANCH   4   7
ENDBRANCH   2   3
ENDBRANCH   1   2
BRANCH   1  22
ATOM     22  C   UNL A   1      34.767  21.439  24.561  1.00  0.00     0.002 C 
BRANCH  22  23
ATOM     23  C   UNL A   1      35.154  22.773  23.901  1.00  0.00     0.002 C 
BRANCH  23  24
ATOM     24  C   UNL A   1      36.649  23.112  23.890  1.00  0.00     0.021 C 
BRANCH  24  25
ATOM     25  C   UNL A   1      37.285  23.323  25.263  1.00  0.00     0.116 C 
BRANCH  25  26
ATOM     26  N   UNL A   1      38.507  22.575  25.483  1.00  0.00    -0.352 N 
ATOM     27  C   UNL A   1      39.619  22.912  26.222  1.00  0.00     0.251 C 
ATOM     28  H   UNL A   1      38.547  21.697  25.040  1.00  0.00     0.163 HD
ATOM     29  O   UNL A   1      40.534  22.111  26.343  1.00  0.00    -0.269 OA
BRANCH  27  30
ATOM     30  C   UNL A   1      39.763  24.271  26.807  1.00  0.00     0.039 A 
ATOM     31  C   UNL A   1      39.273  24.461  28.104  1.00  0.00     0.014 A 
ATOM     32  C   UNL A   1      40.356  25.340  26.129  1.00  0.00     0.014 A 
ATOM     33  C   UNL A   1      39.456  25.684  28.751  1.00  0.00     0.010 A 
ATOM     34  C   UNL A   1      40.582  26.551  26.795  1.00  0.00     0.010 A 
ATOM     35  C   UNL A   1      40.153  26.726  28.120  1.00  0.00    -0.014 A 
BRANCH  35  36
ATOM     36  C   UNL A   1      40.494  27.958  28.879  1.00  0.00     0.031 A 
ATOM     37  C   UNL A   1      41.843  28.137  29.514  1.00  0.00     0.074 A 
ATOM     38  C   UNL A   1      39.566  28.927  29.007  1.00  0.00     0.049 A 
ATOM     39  N   UNL A   1      42.314  29.169  30.169  1.00  0.00    -0.248 NA
ATOM     40  C   UNL A   1      42.780  27.010  29.406  1.00  0.00     0.031 C 
ATOM     41  C   UNL A   1      38.211  28.875  28.456  1.00  0.00     0.029 A 
ATOM     42  N   UNL A   1      39.626  30.149  29.631  1.00  0.00    -0.354 N 
ATOM     43  C   UNL A   1      43.600  28.820  30.552  1.00  0.00     0.074 A 
ATOM     44  C   UNL A   1      43.822  27.463  30.092  1.00  0.00     0.031 C 
ATOM     45  C   UNL A   1      37.580  30.028  28.734  1.00  0.00     0.029 A 
ATOM     46  C   UNL A   1      38.471  30.883  29.513  1.00  0.00     0.049 A 
ATOM     47  H   UNL A   1      40.420  30.469  30.117  1.00  0.00     0.167 HD
ATOM     48  C   UNL A   1      44.522  29.563  31.214  1.00  0.00     0.031 A 
ATOM     49  C   UNL A   1      38.156  32.105  29.979  1.00  0.00     0.031 A 
ATOM     50  C   UNL A   1      44.304  30.906  31.684  1.00  0.00     0.049 A 
ATOM     51  C   UNL A   1      39.170  32.881  30.771  1.00  0.00     0.074 A 
ATOM     52  C   UNL A   1      45.202  31.761  32.302  1.00  0.00     0.029 A 
ATOM     53  N   UNL A   1      43.097  31.585  31.606  1.00  0.00    -0.354 N 
ATOM     54  N   UNL A   1      40.409  32.566  31.056  1.00  0.00    -0.248 NA
ATOM     55  C   UNL A   1      38.736  34.178  31.309  1.00  0.00     0.031 C 
ATOM     56  C   UNL A   1      44.521  32.932  32.655  1.00  0.00     0.029 A 
ATOM     57  C   UNL A   1      43.214  32.827  32.212  1.00  0.00     0.049 A 
ATOM     58  H   UNL A   1      42.280  31.237  31.184  1.00  0.00     0.167 HD
ATOM     59  C   UNL A   1      40.908  33.629  31.797  1.00  0.00     0.074 A 
ATOM     60  C   UNL A   1      39.843  34.606  31.904  1.00  0.00     0.031 C 
ATOM     61  C   UNL A   1      42.141  33.779  32.339  1.00  0.00     0.031 A 
BRANCH  48  62
ATOM     62  C   UNL A   1      45.851  28.919  31.491  1.00  0.00    -0.014 A 
ATOM     63  C   UNL A   1      46.917  29.031  30.584  1.00  0.00     0.009 A 
ATOM     64  C   UNL A   1      46.047  28.210  32.686  1.00  0.00     0.009 A 
ATOM     65  C   UNL A   1      48.138  28.407  30.849  1.00  0.00     0.001 A 
ATOM     66  C   UNL A   1      47.277  27.608  32.959  1.00  0.00     0.001 A 
ATOM     67  C   UNL A   1      48.318  27.698  32.036  1.00  0.00     0.000 A 
ENDBRANCH  48  62
BRANCH  49  68
ATOM     68  C   UNL A   1      36.816  32.678  29.699  1.00  0.00    -0.014 A 
ATOM     69  C   UNL A   1      36.583  33.391  28.514  1.00  0.00     0.009 A 
ATOM     70  C   UNL A   1      35.758  32.498  30.605  1.00  0.00     0.009 A 
ATOM     71  C   UNL A   1      35.319  33.922  28.246  1.00  0.00     0.001 A 
ATOM     72  C   UNL A   1      34.490  33.010  30.323  1.00  0.00     0.001 A 
ATOM     73  C   UNL A   1      34.273  33.726  29.147  1.00  0.00     0.000 A 
ENDBRANCH  49  68
BRANCH  61  74
ATOM     74  C   UNL A   1      42.402  35.044  33.106  1.00  0.00    -0.014 A 
ATOM     75  C   UNL A   1      43.206  36.062  32.567  1.00  0.00     0.009 A 
ATOM     76  C   UNL A   1      41.808  35.239  34.362  1.00  0.00     0.009 A 
ATOM     77  C   UNL A   1      43.431  37.239  33.284  1.00  0.00     0.001 A 
ATOM     78  C   UNL A   1      42.015  36.427  35.066  1.00  0.00     0.001 A 
ATOM     79  C   UNL A   1      42.831  37.423  34.530  1.00  0.00     0.000 A 
ENDBRANCH  61  74
ENDBRANCH  35  36
ENDBRANCH  27  30
ENDBRANCH  25  26
ENDBRANCH  24  25
ENDBRANCH  23  24
ENDBRANCH  22  23
ENDBRANCH   1  22
TORSDOF 18
ENDMDL
MODEL 2
REMARK VINA RESULT:      -9.4      3.353      8.540
REMARK SMILES N#C[C@@H]1CN(C(=O)NCCCC(=O)NCCCCCCNC(=O)c2ccc(-c3c4nc(c(-c5ccccc5)c5ccc([nH]5)c(-c5ccccc5)c5nc(c(-c6ccccc6)c6ccc3[nH]6)C=C5)C=C4)cc2)CCO1
REMARK SMILES IDX 16 1 15 2 14 3 12 4 13 5 11 7 10 8 9 9 8 10 6 11 7 12 5 14
REMARK SMILES IDX 3 15 4 16 74 17 73 18 72 19 2 20 1 21 17 22 18 23 19 24
REMARK SMILES IDX 20 25 21 26 22 27 23 29 24 30 25 31 71 32 26 33 70 34 27 35
REMARK SMILES IDX 28 36 29 37 64 38 30 39 69 40 63 41 65 42 31 43 68 44 62 45
REMARK SMILES IDX 61 46 32 48 54 49 39 50 53 51 40 52 43 53 52 54 66 55 41 56
REMARK SMILES IDX 42 57 51 59 67 60 44 61 33 62 34 63 38 64 35 65 37 66 36 67
REMARK SMILES IDX 55 68 56 69 60 70 57 71 59 72 58 73 45 74 46 75 50 76 47 77
REMARK SMILES IDX 49 78 48 79
REMARK H PARENT 14 6 8 13 21 28 65 47 43 58
REMARK Flexibility Score: inf
ROOT
ATOM      1  C   UNL A   1      33.725  31.592  27.567  1.00  0.00     0.021 C 
ENDROOT
BRANCH   1   2
ATOM      2  C   UNL A   1      33.766  30.172  27.001  1.00  0.00     0.116 C 
BRANCH   2   3
ATOM      3  N   UNL A   1      32.769  29.328  27.640  1.00  0.00    -0.356 N 
ATOM      4  C   UNL A   1      32.067  28.269  27.156  1.00  0.00     0.220 C 
ATOM      5  O   UNL A   1      31.185  27.778  27.862  1.00  0.00    -0.275 OA
ATOM      6  H   UNL A   1      32.572  29.560  28.575  1.00  0.00     0.163 HD
BRANCH   4   7
ATOM      7  C   UNL A   1      32.350  27.711  25.775  1.00  0.00     0.102 C 
BRANCH   7   8
ATOM      8  C   UNL A   1      31.071  27.416  24.988  1.00  0.00     0.031 C 
BRANCH   8   9
ATOM      9  C   UNL A   1      31.170  26.217  24.051  1.00  0.00     0.118 C 
BRANCH   9  10
ATOM     10  N   UNL A   1      32.095  26.432  22.953  1.00  0.00    -0.338 N 
ATOM     11  C   UNL A   1      33.181  25.787  22.488  1.00  0.00     0.317 C 
ATOM     12  O   UNL A   1      33.805  26.374  21.600  1.00  0.00    -0.249 OA
ATOM     13  H   UNL A   1      31.878  27.235  22.426  1.00  0.00     0.165 HD
BRANCH  11  14
ATOM     14  N   UNL A   1      33.586  24.579  22.974  1.00  0.00    -0.319 N 
ATOM     15  C   UNL A   1      34.129  23.238  25.002  1.00  0.00     0.240 C 
ATOM     16  C   UNL A   1      34.592  24.302  24.001  1.00  0.00     0.169 C 
ATOM     17  O   UNL A   1      33.698  22.042  24.316  1.00  0.00    -0.360 OA
ATOM     18  C   UNL A   1      32.626  22.311  23.396  1.00  0.00     0.183 C 
ATOM     19  C   UNL A   1      33.021  23.367  22.358  1.00  0.00     0.150 C 
BRANCH  15  20
ATOM     20  C   UNL A   1      33.035  23.778  25.909  1.00  0.00     0.096 C 
ATOM     21  N   UNL A   1      32.128  24.225  26.661  1.00  0.00    -0.195 NA
ENDBRANCH  15  20
ENDBRANCH  11  14
ENDBRANCH   9  10
ENDBRANCH   8   9
ENDBRANCH   7   8
ENDBRANCH   4   7
ENDBRANCH   2   3
ENDBRANCH   1   2
BRANCH   1  22
ATOM     22  C   UNL A   1      34.714  31.861  28.711  1.00  0.00     0.002 C 
BRANCH  22  23
ATOM     23  C   UNL A   1      34.720  33.296  29.263  1.00  0.00     0.002 C 
BRANCH  23  24
ATOM     24  C   UNL A   1      33.537  34.182  28.854  1.00  0.00     0.021 C 
BRANCH  24  25
ATOM     25  C   UNL A   1      33.453  35.533  29.562  1.00  0.00     0.116 C 
BRANCH  25  26
ATOM     26  N   UNL A   1      32.500  35.585  30.653  1.00  0.00    -0.352 N 
ATOM     27  C   UNL A   1      32.689  35.328  31.993  1.00  0.00     0.251 C 
ATOM     28  H   UNL A   1      31.584  35.840  30.399  1.00  0.00     0.163 HD
ATOM     29  O   UNL A   1      31.767  35.492  32.778  1.00  0.00    -0.269 OA
BRANCH  27  30
ATOM     30  C   UNL A   1      33.977  34.776  32.490  1.00  0.00     0.039 A 
ATOM     31  C   UNL A   1      33.970  33.451  32.941  1.00  0.00     0.014 A 
ATOM     32  C   UNL A   1      35.166  35.510  32.520  1.00  0.00     0.014 A 
ATOM     33  C   UNL A   1      35.160  32.837  33.334  1.00  0.00     0.010 A 
ATOM     34  C   UNL A   1      36.367  34.880  32.870  1.00  0.00     0.010 A 
ATOM     35  C   UNL A   1      36.377  33.531  33.258  1.00  0.00    -0.014 A 
BRANCH  35  36
ATOM     36  C   UNL A   1      37.656  32.817  33.512  1.00  0.00     0.031 A 
ATOM     37  C   UNL A   1      38.446  33.051  34.767  1.00  0.00     0.074 A 
ATOM     38  C   UNL A   1      38.119  31.952  32.588  1.00  0.00     0.049 A 
ATOM     39  N   UNL A   1      39.555  32.475  35.160  1.00  0.00    -0.248 NA
ATOM     40  C   UNL A   1      37.929  34.065  35.696  1.00  0.00     0.031 C 
ATOM     41  C   UNL A   1      37.461  31.645  31.316  1.00  0.00     0.029 A 
ATOM     42  N   UNL A   1      39.243  31.164  32.580  1.00  0.00    -0.354 N 
ATOM     43  C   UNL A   1      39.871  33.054  36.381  1.00  0.00     0.074 A 
ATOM     44  C   UNL A   1      38.858  34.057  36.644  1.00  0.00     0.031 C 
ATOM     45  C   UNL A   1      38.173  30.708  30.669  1.00  0.00     0.029 A 
ATOM     46  C   UNL A   1      39.355  30.377  31.460  1.00  0.00     0.049 A 
ATOM     47  H   UNL A   1      39.907  31.164  33.307  1.00  0.00     0.167 HD
ATOM     48  C   UNL A   1      40.901  32.770  37.216  1.00  0.00     0.031 A 
ATOM     49  C   UNL A   1      40.300  29.489  31.102  1.00  0.00     0.031 A 
ATOM     50  C   UNL A   1      41.916  31.784  36.955  1.00  0.00     0.049 A 
ATOM     51  C   UNL A   1      41.469  29.243  32.012  1.00  0.00     0.074 A 
ATOM     52  C   UNL A   1      42.958  31.379  37.774  1.00  0.00     0.029 A 
ATOM     53  N   UNL A   1      42.032  31.060  35.778  1.00  0.00    -0.354 N 
ATOM     54  N   UNL A   1      41.710  29.743  33.199  1.00  0.00    -0.248 NA
ATOM     55  C   UNL A   1      42.500  28.312  31.527  1.00  0.00     0.031 C 
ATOM     56  C   UNL A   1      43.739  30.458  37.068  1.00  0.00     0.029 A 
ATOM     57  C   UNL A   1      43.156  30.250  35.829  1.00  0.00     0.049 A 
ATOM     58  H   UNL A   1      41.408  31.113  35.020  1.00  0.00     0.167 HD
ATOM     59  C   UNL A   1      42.912  29.181  33.609  1.00  0.00     0.074 A 
ATOM     60  C   UNL A   1      43.344  28.290  32.551  1.00  0.00     0.031 C 
ATOM     61  C   UNL A   1      43.594  29.389  34.761  1.00  0.00     0.031 A 
BRANCH  48  62
ATOM     62  C   UNL A   1      40.990  33.564  38.489  1.00  0.00    -0.014 A 
ATOM     63  C   UNL A   1      40.356  33.130  39.664  1.00  0.00     0.009 A 
ATOM     64  C   UNL A   1      41.737  34.751  38.519  1.00  0.00     0.009 A 
ATOM     65  C   UNL A   1      40.433  33.892  40.831  1.00  0.00     0.001 A 
ATOM     66  C   UNL A   1      41.833  35.499  39.694  1.00  0.00     0.001 A 
ATOM     67  C   UNL A   1      41.171  35.074  40.846  1.00  0.00     0.000 A 
ENDBRANCH  48  62
BRANCH  49  68
ATOM     68  C   UNL A   1      40.173  28.755  29.818  1.00  0.00    -0.014 A 
ATOM     69  C   UNL A   1      39.547  27.501  29.776  1.00  0.00     0.009 A 
ATOM     70  C   UNL A   1      40.659  29.314  28.625  1.00  0.00     0.009 A 
ATOM     71  C   UNL A   1      39.420  26.815  28.566  1.00  0.00     0.001 A 
ATOM     72  C   UNL A   1      40.509  28.636  27.414  1.00  0.00     0.001 A 
ATOM     73  C   UNL A   1      39.895  27.385  27.386  1.00  0.00     0.000 A 
ENDBRANCH  49  68
BRANCH  61  74
ATOM     74  C   UNL A   1      44.887  28.644  34.934  1.00  0.00    -0.014 A 
ATOM     75  C   UNL A   1      46.111  29.228  34.571  1.00  0.00     0.009 A 
ATOM     76  C   UNL A   1      44.888  27.360  35.500  1.00  0.00     0.009 A 
ATOM     77  C   UNL A   1      47.307  28.531  34.749  1.00  0.00     0.001 A 
ATOM     78  C   UNL A   1      46.087  26.674  35.700  1.00  0.00     0.001 A 
ATOM     79  C   UNL A   1      47.295  27.257  35.317  1.00  0.00     0.000 A 
ENDBRANCH  61  74
ENDBRANCH  35  36
ENDBRANCH  27  30
ENDBRANCH  25  26
ENDBRANCH  24  25
ENDBRANCH  23  24
ENDBRANCH  22  23
ENDBRANCH   1  22
TORSDOF 18
ENDMDL
MODEL 3
REMARK VINA RESULT:      -9.4      3.488      8.659
REMARK SMILES N#C[C@@H]1CN(C(=O)NCCCC(=O)NCCCCCCNC(=O)c2ccc(-c3c4nc(c(-c5ccccc5)c5ccc([nH]5)c(-c5ccccc5)c5nc(c(-c6ccccc6)c6ccc3[nH]6)C=C5)C=C4)cc2)CCO1
REMARK SMILES IDX 16 1 15 2 14 3 12 4 13 5 11 7 10 8 9 9 8 10 6 11 7 12 5 14
REMARK SMILES IDX 3 15 4 16 74 17 73 18 72 19 2 20 1 21 17 22 18 23 19 24
REMARK SMILES IDX 20 25 21 26 22 27 23 29 24 30 25 31 71 32 26 33 70 34 27 35
REMARK SMILES IDX 28 36 29 37 64 38 30 39 69 40 63 41 65 42 31 43 68 44 62 45
REMARK SMILES IDX 61 46 32 48 54 49 39 50 53 51 40 52 43 53 52 54 66 55 41 56
REMARK SMILES IDX 42 57 51 59 67 60 44 61 33 62 34 63 38 64 35 65 37 66 36 67
REMARK SMILES IDX 55 68 56 69 60 70 57 71 59 72 58 73 45 74 46 75 50 76 47 77
REMARK SMILES IDX 49 78 48 79
REMARK H PARENT 14 6 8 13 21 28 65 47 43 58
REMARK Flexibility Score: inf
ROOT
ATOM      1  C   UNL A   1      33.699  31.562  27.645  1.00  0.00     0.021 C 
ENDROOT
BRANCH   1   2
ATOM      2  C   UNL A   1      33.781  30.151  27.061  1.00  0.00     0.116 C 
BRANCH   2   3
ATOM      3  N   UNL A   1      32.763  29.289  27.639  1.00  0.00    -0.356 N 
ATOM      4  C   UNL A   1      32.045  28.275  27.085  1.00  0.00     0.220 C 
ATOM      5  O   UNL A   1      31.148  27.759  27.752  1.00  0.00    -0.275 OA
ATOM      6  H   UNL A   1      32.560  29.468  28.585  1.00  0.00     0.163 HD
BRANCH   4   7
ATOM      7  C   UNL A   1      32.332  27.796  25.676  1.00  0.00     0.102 C 
BRANCH   7   8
ATOM      8  C   UNL A   1      31.056  27.492  24.889  1.00  0.00     0.031 C 
BRANCH   8   9
ATOM      9  C   UNL A   1      31.097  26.185  24.102  1.00  0.00     0.118 C 
BRANCH   9  10
ATOM     10  N   UNL A   1      32.037  26.219  22.998  1.00  0.00    -0.338 N 
ATOM     11  C   UNL A   1      33.156  25.540  22.684  1.00  0.00     0.317 C 
ATOM     12  O   UNL A   1      33.778  25.967  21.708  1.00  0.00    -0.249 OA
ATOM     13  H   UNL A   1      31.802  26.894  22.321  1.00  0.00     0.165 HD
BRANCH  11  14
ATOM     14  N   UNL A   1      33.594  24.468  23.402  1.00  0.00    -0.319 N 
ATOM     15  C   UNL A   1      33.953  23.500  25.670  1.00  0.00     0.240 C 
ATOM     16  C   UNL A   1      34.459  24.455  24.585  1.00  0.00     0.169 C 
ATOM     17  O   UNL A   1      33.739  22.177  25.130  1.00  0.00    -0.360 OA
ATOM     18  C   UNL A   1      32.795  22.189  24.046  1.00  0.00     0.183 C 
ATOM     19  C   UNL A   1      33.240  23.123  22.916  1.00  0.00     0.150 C 
BRANCH  15  20
ATOM     20  C   UNL A   1      32.692  24.036  26.328  1.00  0.00     0.096 C 
ATOM     21  N   UNL A   1      31.647  24.480  26.874  1.00  0.00    -0.195 NA
ENDBRANCH  15  20
ENDBRANCH  11  14
ENDBRANCH   9  10
ENDBRANCH   8   9
ENDBRANCH   7   8
ENDBRANCH   4   7
ENDBRANCH   2   3
ENDBRANCH   1   2
BRANCH   1  22
ATOM     22  C   UNL A   1      34.713  31.861  28.759  1.00  0.00     0.002 C 
BRANCH  22  23
ATOM     23  C   UNL A   1      34.741  33.313  29.263  1.00  0.00     0.002 C 
BRANCH  23  24
ATOM     24  C   UNL A   1      33.533  34.180  28.892  1.00  0.00     0.021 C 
BRANCH  24  25
ATOM     25  C   UNL A   1      33.458  35.538  29.589  1.00  0.00     0.116 C 
BRANCH  25  26
ATOM     26  N   UNL A   1      32.475  35.617  30.651  1.00  0.00    -0.352 N 
ATOM     27  C   UNL A   1      32.623  35.383  32.000  1.00  0.00     0.251 C 
ATOM     28  H   UNL A   1      31.570  35.877  30.366  1.00  0.00     0.163 HD
ATOM     29  O   UNL A   1      31.680  35.569  32.755  1.00  0.00    -0.269 OA
BRANCH  27  30
ATOM     30  C   UNL A   1      33.890  34.827  32.544  1.00  0.00     0.039 A 
ATOM     31  C   UNL A   1      33.859  33.507  33.007  1.00  0.00     0.014 A 
ATOM     32  C   UNL A   1      35.082  35.554  32.606  1.00  0.00     0.014 A 
ATOM     33  C   UNL A   1      35.032  32.889  33.445  1.00  0.00     0.010 A 
ATOM     34  C   UNL A   1      36.267  34.920  33.001  1.00  0.00     0.010 A 
ATOM     35  C   UNL A   1      36.255  33.575  33.402  1.00  0.00    -0.014 A 
BRANCH  35  36
ATOM     36  C   UNL A   1      37.521  32.855  33.704  1.00  0.00     0.031 A 
ATOM     37  C   UNL A   1      38.106  31.865  32.739  1.00  0.00     0.074 A 
ATOM     38  C   UNL A   1      38.146  33.090  34.874  1.00  0.00     0.049 A 
ATOM     39  N   UNL A   1      39.224  31.188  32.831  1.00  0.00    -0.248 NA
ATOM     40  C   UNL A   1      37.334  31.594  31.518  1.00  0.00     0.031 C 
ATOM     41  C   UNL A   1      37.677  34.014  35.910  1.00  0.00     0.029 A 
ATOM     42  N   UNL A   1      39.315  32.582  35.385  1.00  0.00    -0.354 N 
ATOM     43  C   UNL A   1      39.293  30.412  31.683  1.00  0.00     0.074 A 
ATOM     44  C   UNL A   1      38.082  30.670  30.929  1.00  0.00     0.031 C 
ATOM     45  C   UNL A   1      38.568  34.034  36.914  1.00  0.00     0.029 A 
ATOM     46  C   UNL A   1      39.649  33.100  36.613  1.00  0.00     0.049 A 
ATOM     47  H   UNL A   1      39.861  31.911  34.916  1.00  0.00     0.167 HD
ATOM     48  C   UNL A   1      40.278  29.571  31.283  1.00  0.00     0.031 A 
ATOM     49  C   UNL A   1      40.703  32.852  37.412  1.00  0.00     0.031 A 
ATOM     50  C   UNL A   1      41.477  29.302  32.034  1.00  0.00     0.049 A 
ATOM     51  C   UNL A   1      41.746  31.863  36.979  1.00  0.00     0.074 A 
ATOM     52  C   UNL A   1      42.562  28.518  31.675  1.00  0.00     0.029 A 
ATOM     53  N   UNL A   1      41.743  29.791  33.303  1.00  0.00    -0.354 N 
ATOM     54  N   UNL A   1      41.834  31.197  35.854  1.00  0.00    -0.248 NA
ATOM     55  C   UNL A   1      42.833  31.589  37.931  1.00  0.00     0.031 C 
ATOM     56  C   UNL A   1      43.454  28.483  32.754  1.00  0.00     0.029 A 
ATOM     57  C   UNL A   1      42.948  29.285  33.763  1.00  0.00     0.049 A 
ATOM     58  H   UNL A   1      41.161  30.407  33.803  1.00  0.00     0.167 HD
ATOM     59  C   UNL A   1      42.989  30.433  35.957  1.00  0.00     0.074 A 
ATOM     60  C   UNL A   1      43.578  30.730  37.247  1.00  0.00     0.031 C 
ATOM     61  C   UNL A   1      43.512  29.563  35.059  1.00  0.00     0.031 A 
BRANCH  48  62
ATOM     62  C   UNL A   1      40.082  28.858  29.975  1.00  0.00    -0.014 A 
ATOM     63  C   UNL A   1      40.423  29.466  28.757  1.00  0.00     0.009 A 
ATOM     64  C   UNL A   1      39.571  27.551  29.963  1.00  0.00     0.009 A 
ATOM     65  C   UNL A   1      40.213  28.796  27.550  1.00  0.00     0.001 A 
ATOM     66  C   UNL A   1      39.385  26.874  28.756  1.00  0.00     0.001 A 
ATOM     67  C   UNL A   1      39.697  27.501  27.550  1.00  0.00     0.000 A 
ENDBRANCH  48  62
BRANCH  49  68
ATOM     68  C   UNL A   1      40.828  33.566  38.708  1.00  0.00    -0.014 A 
ATOM     69  C   UNL A   1      41.511  34.789  38.781  1.00  0.00     0.009 A 
ATOM     70  C   UNL A   1      40.249  33.038  39.873  1.00  0.00     0.009 A 
ATOM     71  C   UNL A   1      41.621  35.465  39.999  1.00  0.00     0.001 A 
ATOM     72  C   UNL A   1      40.341  33.728  41.083  1.00  0.00     0.001 A 
ATOM     73  C   UNL A   1      41.031  34.938  41.146  1.00  0.00     0.000 A 
ENDBRANCH  49  68
BRANCH  61  74
ATOM     74  C   UNL A   1      44.783  28.863  35.446  1.00  0.00    -0.014 A 
ATOM     75  C   UNL A   1      46.031  29.483  35.270  1.00  0.00     0.009 A 
ATOM     76  C   UNL A   1      44.734  27.586  36.026  1.00  0.00     0.009 A 
ATOM     77  C   UNL A   1      47.205  28.826  35.645  1.00  0.00     0.001 A 
ATOM     78  C   UNL A   1      45.907  26.942  36.423  1.00  0.00     0.001 A 
ATOM     79  C   UNL A   1      47.142  27.559  36.226  1.00  0.00     0.000 A 
ENDBRANCH  61  74
ENDBRANCH  35  36
ENDBRANCH  27  30
ENDBRANCH  25  26
ENDBRANCH  24  25
ENDBRANCH  23  24
ENDBRANCH  22  23
ENDBRANCH   1  22
TORSDOF 18
ENDMDL
