MODEL 1
REMARK VINA RESULT:     -10.3      0.000      0.000
REMARK SMILES C[C@H]1[NH2+]CC[C@@H]1C(=O)N[C@@H](CC(=O)NCCCCCCNC(=O)c1ccc(-c2c3nc(c(-c4ccccc4)c4ccc([nH]4)c(-c4ccccc4)c4nc(c(-c5ccccc5)c5ccc2[nH]5)C=C4)C=C3)cc1)c1cccs1
REMARK SMILES IDX 17 1 16 2 15 3 14 4 12 5 13 6 11 8 10 9 9 10 7 11 8 12 6 14
REMARK SMILES IDX 1 15 2 16 3 17 4 18 5 21 72 22 73 23 76 24 74 25 75 26 18 27
REMARK SMILES IDX 19 28 20 29 21 30 22 31 23 33 24 34 25 35 71 36 26 37 70 38
REMARK SMILES IDX 27 39 28 40 29 41 64 42 30 43 69 44 63 45 65 46 31 47 68 48
REMARK SMILES IDX 62 49 61 50 32 52 54 53 39 54 53 55 40 56 43 57 52 58 66 59
REMARK SMILES IDX 41 60 42 61 51 63 67 64 44 65 33 66 34 67 38 68 35 69 37 70
REMARK SMILES IDX 36 71 55 72 56 73 60 74 57 75 59 76 58 77 45 78 46 79 50 80
REMARK SMILES IDX 47 81 49 82 48 83
REMARK H PARENT 14 7 9 13 3 19 3 20 21 32 65 51 43 62
REMARK Flexibility Score: inf
ROOT
ATOM      1  C   UNL A   1      30.525  29.905  24.012  1.00  0.00     0.002 C 
ENDROOT
BRANCH   1   2
ATOM      2  C   UNL A   1      30.169  28.447  23.715  1.00  0.00     0.021 C 
BRANCH   2   3
ATOM      3  C   UNL A   1      30.657  27.937  22.358  1.00  0.00     0.116 C 
BRANCH   3   4
ATOM      4  N   UNL A   1      32.027  28.350  22.116  1.00  0.00    -0.356 N 
ATOM      5  C   UNL A   1      33.168  27.616  22.019  1.00  0.00     0.222 C 
ATOM      6  O   UNL A   1      34.224  28.216  21.809  1.00  0.00    -0.275 OA
ATOM      7  H   UNL A   1      32.150  29.320  22.003  1.00  0.00     0.163 HD
BRANCH   5   8
ATOM      8  C   UNL A   1      33.144  26.104  22.107  1.00  0.00     0.130 C 
BRANCH   8   9
ATOM      9  C   UNL A   1      33.656  25.462  23.404  1.00  0.00     0.131 C 
BRANCH   9  10
ATOM     10  N   UNL A   1      33.340  24.046  23.489  1.00  0.00    -0.348 N 
ATOM     11  C   UNL A   1      33.992  22.948  23.926  1.00  0.00     0.229 C 
ATOM     12  O   UNL A   1      33.566  21.877  23.485  1.00  0.00    -0.275 OA
ATOM     13  H   UNL A   1      32.439  23.841  23.148  1.00  0.00     0.164 HD
BRANCH  11  14
ATOM     14  C   UNL A   1      35.215  23.028  24.839  1.00  0.00     0.142 C 
ATOM     15  C   UNL A   1      37.498  21.874  24.942  1.00  0.00     0.076 C 
ATOM     16  C   UNL A   1      35.987  21.689  24.786  1.00  0.00     0.192 C 
ATOM     17  N   UNL A   1      35.472  20.868  25.906  1.00  0.00    -0.343 N 
ATOM     18  C   UNL A   1      34.568  21.695  26.700  1.00  0.00     0.261 C 
ATOM     19  H   UNL A   1      36.248  20.549  26.487  1.00  0.00     0.346 HD
ATOM     20  H   UNL A   1      34.977  20.051  25.547  1.00  0.00     0.346 HD
ATOM     21  C   UNL A   1      34.898  23.124  26.326  1.00  0.00     0.081 C 
ENDBRANCH  11  14
ENDBRANCH   9  10
BRANCH   9  22
ATOM     22  C   UNL A   1      33.176  26.122  24.679  1.00  0.00     0.027 A 
ATOM     23  C   UNL A   1      33.780  27.147  25.387  1.00  0.00     0.017 A 
ATOM     24  S   UNL A   1      31.747  25.589  25.487  1.00  0.00    -0.147 S 
ATOM     25  C   UNL A   1      33.082  27.473  26.588  1.00  0.00     0.012 A 
ATOM     26  C   UNL A   1      31.958  26.700  26.761  1.00  0.00     0.065 A 
ENDBRANCH   9  22
ENDBRANCH   8   9
ENDBRANCH   5   8
ENDBRANCH   3   4
ENDBRANCH   2   3
ENDBRANCH   1   2
BRANCH   1  27
ATOM     27  C   UNL A   1      31.337  30.121  25.290  1.00  0.00     0.002 C 
BRANCH  27  28
ATOM     28  C   UNL A   1      31.116  31.469  25.980  1.00  0.00     0.021 C 
BRANCH  28  29
ATOM     29  C   UNL A   1      32.199  31.863  26.981  1.00  0.00     0.116 C 
BRANCH  29  30
ATOM     30  N   UNL A   1      32.122  33.270  27.339  1.00  0.00    -0.352 N 
ATOM     31  C   UNL A   1      32.947  34.007  28.151  1.00  0.00     0.251 C 
ATOM     32  H   UNL A   1      31.370  33.765  26.943  1.00  0.00     0.163 HD
ATOM     33  O   UNL A   1      32.616  35.129  28.518  1.00  0.00    -0.269 OA
BRANCH  31  34
ATOM     34  C   UNL A   1      34.235  33.436  28.594  1.00  0.00     0.039 A 
ATOM     35  C   UNL A   1      35.387  33.708  27.852  1.00  0.00     0.014 A 
ATOM     36  C   UNL A   1      34.302  32.623  29.729  1.00  0.00     0.014 A 
ATOM     37  C   UNL A   1      36.618  33.206  28.278  1.00  0.00     0.010 A 
ATOM     38  C   UNL A   1      35.538  32.177  30.188  1.00  0.00     0.010 A 
ATOM     39  C   UNL A   1      36.705  32.460  29.464  1.00  0.00    -0.014 A 
BRANCH  39  40
ATOM     40  C   UNL A   1      38.010  31.957  29.960  1.00  0.00     0.031 A 
ATOM     41  C   UNL A   1      38.552  30.648  29.461  1.00  0.00     0.074 A 
ATOM     42  C   UNL A   1      38.677  32.650  30.903  1.00  0.00     0.049 A 
ATOM     43  N   UNL A   1      39.644  30.017  29.817  1.00  0.00    -0.248 NA
ATOM     44  C   UNL A   1      37.754  29.943  28.445  1.00  0.00     0.031 C 
ATOM     45  C   UNL A   1      38.241  33.918  31.492  1.00  0.00     0.029 A 
ATOM     46  N   UNL A   1      39.862  32.380  31.537  1.00  0.00    -0.354 N 
ATOM     47  C   UNL A   1      39.653  28.838  29.081  1.00  0.00     0.074 A 
ATOM     48  C   UNL A   1      38.438  28.819  28.295  1.00  0.00     0.031 C 
ATOM     49  C   UNL A   1      39.160  34.328  32.380  1.00  0.00     0.029 A 
ATOM     50  C   UNL A   1      40.227  33.335  32.454  1.00  0.00     0.049 A 
ATOM     51  H   UNL A   1      40.402  31.577  31.352  1.00  0.00     0.167 HD
ATOM     52  C   UNL A   1      40.596  27.867  29.049  1.00  0.00     0.031 A 
ATOM     53  C   UNL A   1      41.296  33.400  33.267  1.00  0.00     0.031 A 
ATOM     54  C   UNL A   1      41.805  27.886  29.827  1.00  0.00     0.049 A 
ATOM     55  C   UNL A   1      42.317  32.298  33.232  1.00  0.00     0.074 A 
ATOM     56  C   UNL A   1      42.846  26.974  29.828  1.00  0.00     0.029 A 
ATOM     57  N   UNL A   1      42.135  28.871  30.745  1.00  0.00    -0.354 N 
ATOM     58  N   UNL A   1      42.342  31.219  32.486  1.00  0.00    -0.248 NA
ATOM     59  C   UNL A   1      43.462  32.428  34.144  1.00  0.00     0.031 C 
ATOM     60  C   UNL A   1      43.784  27.383  30.782  1.00  0.00     0.029 A 
ATOM     61  C   UNL A   1      43.352  28.577  31.336  1.00  0.00     0.049 A 
ATOM     62  H   UNL A   1      41.584  29.662  30.948  1.00  0.00     0.167 HD
ATOM     63  C   UNL A   1      43.516  30.557  32.818  1.00  0.00     0.074 A 
ATOM     64  C   UNL A   1      44.181  31.362  33.822  1.00  0.00     0.031 C 
ATOM     65  C   UNL A   1      44.000  29.388  32.333  1.00  0.00     0.031 A 
BRANCH  52  66
ATOM     66  C   UNL A   1      40.345  26.693  28.144  1.00  0.00    -0.014 A 
ATOM     67  C   UNL A   1      40.849  26.666  26.833  1.00  0.00     0.009 A 
ATOM     68  C   UNL A   1      39.617  25.590  28.613  1.00  0.00     0.009 A 
ATOM     69  C   UNL A   1      40.594  25.575  25.999  1.00  0.00     0.001 A 
ATOM     70  C   UNL A   1      39.388  24.488  27.787  1.00  0.00     0.001 A 
ATOM     71  C   UNL A   1      39.867  24.486  26.478  1.00  0.00     0.000 A 
ENDBRANCH  52  66
BRANCH  53  72
ATOM     72  C   UNL A   1      41.470  34.564  34.176  1.00  0.00    -0.014 A 
ATOM     73  C   UNL A   1      40.867  34.570  35.442  1.00  0.00     0.009 A 
ATOM     74  C   UNL A   1      42.238  35.671  33.783  1.00  0.00     0.009 A 
ATOM     75  C   UNL A   1      41.007  35.672  36.287  1.00  0.00     0.001 A 
ATOM     76  C   UNL A   1      42.399  36.761  34.642  1.00  0.00     0.001 A 
ATOM     77  C   UNL A   1      41.777  36.764  35.889  1.00  0.00     0.000 A 
ENDBRANCH  53  72
BRANCH  65  78
ATOM     78  C   UNL A   1      45.331  28.929  32.856  1.00  0.00    -0.014 A 
ATOM     79  C   UNL A   1      46.533  29.404  32.308  1.00  0.00     0.009 A 
ATOM     80  C   UNL A   1      45.381  28.039  33.940  1.00  0.00     0.009 A 
ATOM     81  C   UNL A   1      47.759  28.970  32.817  1.00  0.00     0.001 A 
ATOM     82  C   UNL A   1      46.607  27.628  34.465  1.00  0.00     0.001 A 
ATOM     83  C   UNL A   1      47.795  28.088  33.897  1.00  0.00     0.000 A 
ENDBRANCH  65  78
ENDBRANCH  39  40
ENDBRANCH  31  34
ENDBRANCH  29  30
ENDBRANCH  28  29
ENDBRANCH  27  28
ENDBRANCH   1  27
TORSDOF 17
ENDMDL
MODEL 2
REMARK VINA RESULT:     -10.2      2.399      7.653
REMARK SMILES C[C@H]1[NH2+]CC[C@@H]1C(=O)N[C@@H](CC(=O)NCCCCCCNC(=O)c1ccc(-c2c3nc(c(-c4ccccc4)c4ccc([nH]4)c(-c4ccccc4)c4nc(c(-c5ccccc5)c5ccc2[nH]5)C=C4)C=C3)cc1)c1cccs1
REMARK SMILES IDX 17 1 16 2 15 3 14 4 12 5 13 6 11 8 10 9 9 10 7 11 8 12 6 14
REMARK SMILES IDX 1 15 2 16 3 17 4 18 5 21 72 22 73 23 76 24 74 25 75 26 18 27
REMARK SMILES IDX 19 28 20 29 21 30 22 31 23 33 24 34 25 35 71 36 26 37 70 38
REMARK SMILES IDX 27 39 28 40 29 41 64 42 30 43 69 44 63 45 65 46 31 47 68 48
REMARK SMILES IDX 62 49 61 50 32 52 54 53 39 54 53 55 40 56 43 57 52 58 66 59
REMARK SMILES IDX 41 60 42 61 51 63 67 64 44 65 33 66 34 67 38 68 35 69 37 70
REMARK SMILES IDX 36 71 55 72 56 73 60 74 57 75 59 76 58 77 45 78 46 79 50 80
REMARK SMILES IDX 47 81 49 82 48 83
REMARK H PARENT 14 7 9 13 3 19 3 20 21 32 65 51 43 62
REMARK Flexibility Score: inf
ROOT
ATOM      1  C   UNL A   1      34.126  21.965  24.539  1.00  0.00     0.002 C 
ENDROOT
BRANCH   1   2
ATOM      2  C   UNL A   1      32.927  22.873  24.261  1.00  0.00     0.021 C 
BRANCH   2   3
ATOM      3  C   UNL A   1      32.133  23.276  25.505  1.00  0.00     0.116 C 
BRANCH   3   4
ATOM      4  N   UNL A   1      30.954  24.038  25.138  1.00  0.00    -0.356 N 
ATOM      5  C   UNL A   1      30.755  25.382  25.072  1.00  0.00     0.222 C 
ATOM      6  O   UNL A   1      29.641  25.785  24.731  1.00  0.00    -0.275 OA
ATOM      7  H   UNL A   1      30.171  23.494  24.896  1.00  0.00     0.163 HD
BRANCH   5   8
ATOM      8  C   UNL A   1      31.877  26.361  25.352  1.00  0.00     0.130 C 
BRANCH   8   9
ATOM      9  C   UNL A   1      31.556  27.858  25.236  1.00  0.00     0.131 C 
BRANCH   9  10
ATOM     10  N   UNL A   1      31.517  28.314  23.857  1.00  0.00    -0.348 N 
ATOM     11  C   UNL A   1      30.557  28.796  23.038  1.00  0.00     0.229 C 
ATOM     12  O   UNL A   1      30.807  28.710  21.832  1.00  0.00    -0.275 OA
ATOM     13  H   UNL A   1      32.397  28.260  23.417  1.00  0.00     0.164 HD
BRANCH  11  14
ATOM     14  C   UNL A   1      29.228  29.337  23.562  1.00  0.00     0.142 C 
ATOM     15  C   UNL A   1      26.773  28.630  23.394  1.00  0.00     0.076 C 
ATOM     16  C   UNL A   1      28.080  28.870  22.636  1.00  0.00     0.192 C 
ATOM     17  N   UNL A   1      27.883  29.951  21.641  1.00  0.00    -0.343 N 
ATOM     18  C   UNL A   1      28.728  31.080  22.021  1.00  0.00     0.261 C 
ATOM     19  H   UNL A   1      26.904  30.240  21.634  1.00  0.00     0.346 HD
ATOM     20  H   UNL A   1      28.133  29.622  20.709  1.00  0.00     0.346 HD
ATOM     21  C   UNL A   1      29.075  30.851  23.475  1.00  0.00     0.081 C 
ENDBRANCH  11  14
ENDBRANCH   9  10
BRANCH   9  22
ATOM     22  C   UNL A   1      32.486  28.774  26.002  1.00  0.00     0.027 A 
ATOM     23  C   UNL A   1      33.729  28.476  26.531  1.00  0.00     0.017 A 
ATOM     24  S   UNL A   1      32.039  30.397  26.384  1.00  0.00    -0.147 S 
ATOM     25  C   UNL A   1      34.295  29.566  27.257  1.00  0.00     0.012 A 
ATOM     26  C   UNL A   1      33.477  30.672  27.253  1.00  0.00     0.065 A 
ENDBRANCH   9  22
ENDBRANCH   8   9
ENDBRANCH   5   8
ENDBRANCH   3   4
ENDBRANCH   2   3
ENDBRANCH   1   2
BRANCH   1  27
ATOM     27  C   UNL A   1      35.446  22.438  23.928  1.00  0.00     0.002 C 
BRANCH  27  28
ATOM     28  C   UNL A   1      35.998  23.744  24.504  1.00  0.00     0.021 C 
BRANCH  28  29
ATOM     29  C   UNL A   1      36.588  23.628  25.907  1.00  0.00     0.116 C 
BRANCH  29  30
ATOM     30  N   UNL A   1      37.634  22.620  25.974  1.00  0.00    -0.352 N 
ATOM     31  C   UNL A   1      38.961  22.764  26.289  1.00  0.00     0.251 C 
ATOM     32  H   UNL A   1      37.348  21.702  25.763  1.00  0.00     0.163 HD
ATOM     33  O   UNL A   1      39.750  21.847  26.089  1.00  0.00    -0.269 OA
BRANCH  31  34
ATOM     34  C   UNL A   1      39.443  24.038  26.860  1.00  0.00     0.039 A 
ATOM     35  C   UNL A   1      40.061  24.966  26.018  1.00  0.00     0.014 A 
ATOM     36  C   UNL A   1      39.299  24.308  28.224  1.00  0.00     0.014 A 
ATOM     37  C   UNL A   1      40.489  26.190  26.536  1.00  0.00     0.010 A 
ATOM     38  C   UNL A   1      39.667  25.553  28.725  1.00  0.00     0.010 A 
ATOM     39  C   UNL A   1      40.270  26.502  27.887  1.00  0.00    -0.014 A 
BRANCH  39  40
ATOM     40  C   UNL A   1      40.674  27.815  28.446  1.00  0.00     0.031 A 
ATOM     41  C   UNL A   1      42.098  28.051  28.865  1.00  0.00     0.074 A 
ATOM     42  C   UNL A   1      39.747  28.775  28.633  1.00  0.00     0.049 A 
ATOM     43  N   UNL A   1      42.630  29.109  29.425  1.00  0.00    -0.248 NA
ATOM     44  C   UNL A   1      43.045  26.946  28.645  1.00  0.00     0.031 C 
ATOM     45  C   UNL A   1      38.326  28.658  28.297  1.00  0.00     0.029 A 
ATOM     46  N   UNL A   1      39.863  30.036  29.157  1.00  0.00    -0.354 N 
ATOM     47  C   UNL A   1      43.965  28.789  29.638  1.00  0.00     0.074 A 
ATOM     48  C   UNL A   1      44.153  27.426  29.190  1.00  0.00     0.031 C 
ATOM     49  C   UNL A   1      37.709  29.812  28.599  1.00  0.00     0.029 A 
ATOM     50  C   UNL A   1      38.679  30.731  29.186  1.00  0.00     0.049 A 
ATOM     51  H   UNL A   1      40.715  30.409  29.482  1.00  0.00     0.167 HD
ATOM     52  C   UNL A   1      44.952  29.567  30.144  1.00  0.00     0.031 A 
ATOM     53  C   UNL A   1      38.403  31.967  29.639  1.00  0.00     0.031 A 
ATOM     54  C   UNL A   1      44.769  30.923  30.585  1.00  0.00     0.049 A 
ATOM     55  C   UNL A   1      39.510  32.802  30.220  1.00  0.00     0.074 A 
ATOM     56  C   UNL A   1      45.715  31.810  31.067  1.00  0.00     0.029 A 
ATOM     57  N   UNL A   1      43.553  31.589  30.600  1.00  0.00    -0.354 N 
ATOM     58  N   UNL A   1      40.781  32.508  30.359  1.00  0.00    -0.248 NA
ATOM     59  C   UNL A   1      39.145  34.143  30.698  1.00  0.00     0.031 C 
ATOM     60  C   UNL A   1      45.063  32.997  31.418  1.00  0.00     0.029 A 
ATOM     61  C   UNL A   1      43.720  32.867  31.104  1.00  0.00     0.049 A 
ATOM     62  H   UNL A   1      42.696  31.208  30.297  1.00  0.00     0.167 HD
ATOM     63  C   UNL A   1      41.371  33.636  30.913  1.00  0.00     0.074 A 
ATOM     64  C   UNL A   1      40.323  34.623  31.072  1.00  0.00     0.031 C 
ATOM     65  C   UNL A   1      42.666  33.836  31.256  1.00  0.00     0.031 A 
BRANCH  52  66
ATOM     66  C   UNL A   1      46.322  28.956  30.253  1.00  0.00    -0.014 A 
ATOM     67  C   UNL A   1      47.243  29.044  29.197  1.00  0.00     0.009 A 
ATOM     68  C   UNL A   1      46.706  28.307  31.436  1.00  0.00     0.009 A 
ATOM     69  C   UNL A   1      48.506  28.459  29.308  1.00  0.00     0.001 A 
ATOM     70  C   UNL A   1      47.980  27.747  31.556  1.00  0.00     0.001 A 
ATOM     71  C   UNL A   1      48.874  27.814  30.489  1.00  0.00     0.000 A 
ENDBRANCH  52  66
BRANCH  53  72
ATOM     72  C   UNL A   1      37.020  32.503  29.547  1.00  0.00    -0.014 A 
ATOM     73  C   UNL A   1      36.104  32.283  30.586  1.00  0.00     0.009 A 
ATOM     74  C   UNL A   1      36.609  33.235  28.422  1.00  0.00     0.009 A 
ATOM     75  C   UNL A   1      34.797  32.763  30.491  1.00  0.00     0.001 A 
ATOM     76  C   UNL A   1      35.308  33.737  28.342  1.00  0.00     0.001 A 
ATOM     77  C   UNL A   1      34.401  33.493  29.371  1.00  0.00     0.000 A 
ENDBRANCH  53  72
BRANCH  65  78
ATOM     78  C   UNL A   1      43.029  35.187  31.805  1.00  0.00    -0.014 A 
ATOM     79  C   UNL A   1      42.918  35.470  33.175  1.00  0.00     0.009 A 
ATOM     80  C   UNL A   1      43.527  36.176  30.942  1.00  0.00     0.009 A 
ATOM     81  C   UNL A   1      43.271  36.730  33.665  1.00  0.00     0.001 A 
ATOM     82  C   UNL A   1      43.903  37.424  31.438  1.00  0.00     0.001 A 
ATOM     83  C   UNL A   1      43.767  37.703  32.797  1.00  0.00     0.000 A 
ENDBRANCH  65  78
ENDBRANCH  39  40
ENDBRANCH  31  34
ENDBRANCH  29  30
ENDBRANCH  28  29
ENDBRANCH  27  28
ENDBRANCH   1  27
TORSDOF 17
ENDMDL
MODEL 3
REMARK VINA RESULT:     -10.1      2.666      6.948
REMARK SMILES C[C@H]1[NH2+]CC[C@@H]1C(=O)N[C@@H](CC(=O)NCCCCCCNC(=O)c1ccc(-c2c3nc(c(-c4ccccc4)c4ccc([nH]4)c(-c4ccccc4)c4nc(c(-c5ccccc5)c5ccc2[nH]5)C=C4)C=C3)cc1)c1cccs1
REMARK SMILES IDX 17 1 16 2 15 3 14 4 12 5 13 6 11 8 10 9 9 10 7 11 8 12 6 14
REMARK SMILES IDX 1 15 2 16 3 17 4 18 5 21 72 22 73 23 76 24 74 25 75 26 18 27
REMARK SMILES IDX 19 28 20 29 21 30 22 31 23 33 24 34 25 35 71 36 26 37 70 38
REMARK SMILES IDX 27 39 28 40 29 41 64 42 30 43 69 44 63 45 65 46 31 47 68 48
REMARK SMILES IDX 62 49 61 50 32 52 54 53 39 54 53 55 40 56 43 57 52 58 66 59
REMARK SMILES IDX 41 60 42 61 51 63 67 64 44 65 33 66 34 67 38 68 35 69 37 70
REMARK SMILES IDX 36 71 55 72 56 73 60 74 57 75 59 76 58 77 45 78 46 79 50 80
REMARK SMILES IDX 47 81 49 82 48 83
REMARK H PARENT 14 7 9 13 3 19 3 20 21 32 65 51 43 62
REMARK Flexibility Score: inf
ROOT
ATOM      1  C   UNL A   1      31.321  28.876  24.037  1.00  0.00     0.002 C 
ENDROOT
BRANCH   1   2
ATOM      2  C   UNL A   1      29.922  28.268  23.921  1.00  0.00     0.021 C 
BRANCH   2   3
ATOM      3  C   UNL A   1      29.902  26.750  23.734  1.00  0.00     0.116 C 
BRANCH   3   4
ATOM      4  N   UNL A   1      29.344  26.095  24.902  1.00  0.00    -0.356 N 
ATOM      5  C   UNL A   1      29.956  25.540  25.983  1.00  0.00     0.222 C 
ATOM      6  O   UNL A   1      29.244  25.035  26.853  1.00  0.00    -0.275 OA
ATOM      7  H   UNL A   1      28.361  26.045  24.915  1.00  0.00     0.163 HD
BRANCH   5   8
ATOM      8  C   UNL A   1      31.461  25.589  26.149  1.00  0.00     0.130 C 
BRANCH   8   9
ATOM      9  C   UNL A   1      32.291  24.543  25.392  1.00  0.00     0.131 C 
BRANCH   9  10
ATOM     10  N   UNL A   1      33.480  24.139  26.122  1.00  0.00    -0.348 N 
ATOM     11  C   UNL A   1      34.291  23.059  26.103  1.00  0.00     0.229 C 
ATOM     12  O   UNL A   1      34.963  22.891  27.125  1.00  0.00    -0.275 OA
ATOM     13  H   UNL A   1      33.760  24.810  26.787  1.00  0.00     0.164 HD
BRANCH  11  14
ATOM     14  C   UNL A   1      34.318  22.074  24.935  1.00  0.00     0.142 C 
ATOM     15  C   UNL A   1      33.991  19.550  24.665  1.00  0.00     0.076 C 
ATOM     16  C   UNL A   1      34.677  20.663  25.458  1.00  0.00     0.192 C 
ATOM     17  N   UNL A   1      36.147  20.532  25.323  1.00  0.00    -0.343 N 
ATOM     18  C   UNL A   1      36.646  21.706  24.613  1.00  0.00     0.261 C 
ATOM     19  H   UNL A   1      36.371  19.688  24.795  1.00  0.00     0.346 HD
ATOM     20  H   UNL A   1      36.581  20.466  26.244  1.00  0.00     0.346 HD
ATOM     21  C   UNL A   1      35.438  22.306  23.929  1.00  0.00     0.081 C 
ENDBRANCH  11  14
ENDBRANCH   9  10
BRANCH   9  22
ATOM     22  C   UNL A   1      32.719  24.950  23.998  1.00  0.00     0.027 A 
ATOM     23  C   UNL A   1      33.550  25.994  23.634  1.00  0.00     0.017 A 
ATOM     24  S   UNL A   1      32.123  24.135  22.598  1.00  0.00    -0.147 S 
ATOM     25  C   UNL A   1      33.678  26.131  22.219  1.00  0.00     0.012 A 
ATOM     26  C   UNL A   1      32.952  25.180  21.540  1.00  0.00     0.065 A 
ENDBRANCH   9  22
ENDBRANCH   8   9
ENDBRANCH   5   8
ENDBRANCH   3   4
ENDBRANCH   2   3
ENDBRANCH   1   2
BRANCH   1  27
ATOM     27  C   UNL A   1      31.799  29.120  25.470  1.00  0.00     0.002 C 
BRANCH  27  28
ATOM     28  C   UNL A   1      33.260  28.753  25.739  1.00  0.00     0.021 C 
BRANCH  28  29
ATOM     29  C   UNL A   1      33.687  28.849  27.201  1.00  0.00     0.116 C 
BRANCH  29  30
ATOM     30  N   UNL A   1      33.645  30.218  27.690  1.00  0.00    -0.352 N 
ATOM     31  C   UNL A   1      34.578  30.909  28.421  1.00  0.00     0.251 C 
ATOM     32  H   UNL A   1      32.830  30.721  27.465  1.00  0.00     0.163 HD
ATOM     33  O   UNL A   1      34.293  31.984  28.934  1.00  0.00    -0.269 OA
BRANCH  31  34
ATOM     34  C   UNL A   1      35.931  30.343  28.600  1.00  0.00     0.039 A 
ATOM     35  C   UNL A   1      36.842  30.420  27.543  1.00  0.00     0.014 A 
ATOM     36  C   UNL A   1      36.292  29.724  29.800  1.00  0.00     0.014 A 
ATOM     37  C   UNL A   1      38.136  29.922  27.709  1.00  0.00     0.010 A 
ATOM     38  C   UNL A   1      37.600  29.287  29.986  1.00  0.00     0.010 A 
ATOM     39  C   UNL A   1      38.532  29.377  28.941  1.00  0.00    -0.014 A 
BRANCH  39  40
ATOM     40  C   UNL A   1      39.915  28.885  29.153  1.00  0.00     0.031 A 
ATOM     41  C   UNL A   1      40.956  29.794  29.742  1.00  0.00     0.074 A 
ATOM     42  C   UNL A   1      40.248  27.641  28.761  1.00  0.00     0.049 A 
ATOM     43  N   UNL A   1      42.229  29.566  29.951  1.00  0.00    -0.248 NA
ATOM     44  C   UNL A   1      40.516  31.145  30.127  1.00  0.00     0.031 C 
ATOM     45  C   UNL A   1      39.337  26.672  28.147  1.00  0.00     0.029 A 
ATOM     46  N   UNL A   1      41.448  26.980  28.815  1.00  0.00    -0.354 N 
ATOM     47  C   UNL A   1      42.741  30.746  30.476  1.00  0.00     0.074 A 
ATOM     48  C   UNL A   1      41.656  31.702  30.510  1.00  0.00     0.031 C 
ATOM     49  C   UNL A   1      40.005  25.532  27.907  1.00  0.00     0.029 A 
ATOM     50  C   UNL A   1      41.397  25.703  28.311  1.00  0.00     0.049 A 
ATOM     51  H   UNL A   1      42.269  27.382  29.182  1.00  0.00     0.167 HD
ATOM     52  C   UNL A   1      43.998  31.006  30.907  1.00  0.00     0.031 A 
ATOM     53  C   UNL A   1      42.364  24.777  28.182  1.00  0.00     0.031 A 
ATOM     54  C   UNL A   1      45.077  30.056  30.878  1.00  0.00     0.049 A 
ATOM     55  C   UNL A   1      43.757  25.098  28.645  1.00  0.00     0.074 A 
ATOM     56  C   UNL A   1      46.374  30.208  31.337  1.00  0.00     0.029 A 
ATOM     57  N   UNL A   1      44.985  28.775  30.357  1.00  0.00    -0.354 N 
ATOM     58  N   UNL A   1      44.213  26.198  29.195  1.00  0.00    -0.248 NA
ATOM     59  C   UNL A   1      44.768  24.044  28.478  1.00  0.00     0.031 C 
ATOM     60  C   UNL A   1      47.079  29.033  31.051  1.00  0.00     0.029 A 
ATOM     61  C   UNL A   1      46.207  28.133  30.462  1.00  0.00     0.049 A 
ATOM     62  H   UNL A   1      44.169  28.380  29.969  1.00  0.00     0.167 HD
ATOM     63  C   UNL A   1      45.553  25.959  29.465  1.00  0.00     0.074 A 
ATOM     64  C   UNL A   1      45.834  24.606  29.030  1.00  0.00     0.031 C 
ATOM     65  C   UNL A   1      46.469  26.786  30.024  1.00  0.00     0.031 A 
BRANCH  52  66
ATOM     66  C   UNL A   1      44.271  32.385  31.441  1.00  0.00    -0.014 A 
ATOM     67  C   UNL A   1      44.750  33.407  30.604  1.00  0.00     0.009 A 
ATOM     68  C   UNL A   1      44.024  32.675  32.791  1.00  0.00     0.009 A 
ATOM     69  C   UNL A   1      45.013  34.678  31.119  1.00  0.00     0.001 A 
ATOM     70  C   UNL A   1      44.259  33.955  33.297  1.00  0.00     0.001 A 
ATOM     71  C   UNL A   1      44.764  34.952  32.463  1.00  0.00     0.000 A 
ENDBRANCH  52  66
BRANCH  53  72
ATOM     72  C   UNL A   1      42.046  23.444  27.605  1.00  0.00    -0.014 A 
ATOM     73  C   UNL A   1      42.272  23.190  26.244  1.00  0.00     0.009 A 
ATOM     74  C   UNL A   1      41.516  22.424  28.409  1.00  0.00     0.009 A 
ATOM     75  C   UNL A   1      41.951  21.948  25.694  1.00  0.00     0.001 A 
ATOM     76  C   UNL A   1      41.221  21.173  27.861  1.00  0.00     0.001 A 
ATOM     77  C   UNL A   1      41.430  20.939  26.503  1.00  0.00     0.000 A 
ENDBRANCH  53  72
BRANCH  65  78
ATOM     78  C   UNL A   1      47.852  26.238  30.232  1.00  0.00    -0.014 A 
ATOM     79  C   UNL A   1      48.809  26.268  29.205  1.00  0.00     0.009 A 
ATOM     80  C   UNL A   1      48.213  25.721  31.486  1.00  0.00     0.009 A 
ATOM     81  C   UNL A   1      50.092  25.761  29.424  1.00  0.00     0.001 A 
ATOM     82  C   UNL A   1      49.503  25.241  31.710  1.00  0.00     0.001 A 
ATOM     83  C   UNL A   1      50.439  25.254  30.676  1.00  0.00     0.000 A 
ENDBRANCH  65  78
ENDBRANCH  39  40
ENDBRANCH  31  34
ENDBRANCH  29  30
ENDBRANCH  28  29
ENDBRANCH  27  28
ENDBRANCH   1  27
TORSDOF 17
ENDMDL
