MODEL 1
REMARK VINA RESULT:     -10.2      0.000      0.000
REMARK SMILES N#Cc1cc2c(nc1N(CC(=O)NCCCCCCNC(=O)c1ccc(-c3c4nc(c(-c5ccccc5)c5ccc([nH]5)c(-c5ccccc5)c5nc(c(-c6ccccc6)c6ccc3[nH]6)C=C5)C=C4)cc1)CC(F)(F)F)CCC2
REMARK SMILES IDX 16 1 15 2 14 3 13 4 11 5 12 6 10 8 9 9 8 10 3 11 4 12 5 13
REMARK SMILES IDX 7 14 6 15 78 16 76 17 77 18 2 19 1 20 71 21 72 22 73 23
REMARK SMILES IDX 74 24 75 25 17 26 18 27 19 28 20 29 21 30 22 32 23 33 24 34
REMARK SMILES IDX 70 35 25 36 69 37 26 38 27 39 28 40 63 41 29 42 68 43 62 44
REMARK SMILES IDX 64 45 30 46 67 47 61 48 60 49 31 51 53 52 38 53 52 54 39 55
REMARK SMILES IDX 42 56 51 57 65 58 40 59 41 60 50 62 66 63 43 64 32 65 33 66
REMARK SMILES IDX 37 67 34 68 36 69 35 70 54 71 55 72 59 73 56 74 58 75 57 76
REMARK SMILES IDX 44 77 45 78 49 79 46 80 48 81 47 82
REMARK H PARENT 13 7 20 31 64 50 42 61
REMARK Flexibility Score: inf
ROOT
ATOM      1  C   UNL A   1      31.297  28.286  24.253  1.00  0.00     0.002 C 
ENDROOT
BRANCH   1   2
ATOM      2  C   UNL A   1      31.995  26.951  23.972  1.00  0.00     0.021 C 
BRANCH   2   3
ATOM      3  C   UNL A   1      31.463  26.239  22.732  1.00  0.00     0.116 C 
BRANCH   3   4
ATOM      4  N   UNL A   1      32.493  25.439  22.103  1.00  0.00    -0.355 N 
ATOM      5  C   UNL A   1      32.787  24.122  22.307  1.00  0.00     0.239 C 
ATOM      6  O   UNL A   1      33.782  23.647  21.754  1.00  0.00    -0.273 OA
ATOM      7  H   UNL A   1      33.056  25.906  21.443  1.00  0.00     0.163 HD
BRANCH   5   8
ATOM      8  C   UNL A   1      31.889  23.257  23.202  1.00  0.00     0.218 C 
BRANCH   8   9
ATOM      9  N   UNL A   1      32.346  23.210  24.617  1.00  0.00    -0.337 N 
BRANCH   9  10
ATOM     10  C   UNL A   1      33.578  22.631  24.885  1.00  0.00     0.147 A 
ATOM     11  C   UNL A   1      33.888  21.251  24.910  1.00  0.00     0.095 A 
ATOM     12  C   UNL A   1      35.225  20.814  25.054  1.00  0.00     0.029 A 
ATOM     13  C   UNL A   1      36.211  21.749  25.241  1.00  0.00    -0.025 A 
ATOM     14  N   UNL A   1      34.590  23.519  25.114  1.00  0.00    -0.234 NA
ATOM     15  C   UNL A   1      35.844  23.073  25.291  1.00  0.00     0.046 A 
ATOM     16  C   UNL A   1      37.685  21.585  25.376  1.00  0.00     0.038 C 
ATOM     17  C   UNL A   1      37.039  23.958  25.513  1.00  0.00     0.057 C 
ATOM     18  C   UNL A   1      38.072  22.933  26.006  1.00  0.00     0.011 C 
BRANCH  11  19
ATOM     19  C   UNL A   1      32.915  20.204  24.844  1.00  0.00     0.103 C 
ATOM     20  N   UNL A   1      32.125  19.357  24.816  1.00  0.00    -0.192 NA
ENDBRANCH  11  19
ENDBRANCH   9  10
BRANCH   9  21
ATOM     21  C   UNL A   1      31.461  23.914  25.590  1.00  0.00     0.234 C 
BRANCH  21  22
ATOM     22  C   UNL A   1      30.730  23.042  26.630  1.00  0.00     0.405 C 
ATOM     23  F   UNL A   1      29.672  23.675  27.188  1.00  0.00    -0.169 F 
ATOM     24  F   UNL A   1      30.265  21.907  26.059  1.00  0.00    -0.169 F 
ATOM     25  F   UNL A   1      31.551  22.670  27.638  1.00  0.00    -0.169 F 
ENDBRANCH  21  22
ENDBRANCH   9  21
ENDBRANCH   8   9
ENDBRANCH   5   8
ENDBRANCH   3   4
ENDBRANCH   2   3
ENDBRANCH   1   2
BRANCH   1  26
ATOM     26  C   UNL A   1      31.811  29.006  25.504  1.00  0.00     0.002 C 
BRANCH  26  27
ATOM     27  C   UNL A   1      32.388  28.077  26.573  1.00  0.00     0.021 C 
BRANCH  27  28
ATOM     28  C   UNL A   1      33.703  28.568  27.167  1.00  0.00     0.116 C 
BRANCH  28  29
ATOM     29  N   UNL A   1      33.637  29.977  27.522  1.00  0.00    -0.352 N 
ATOM     30  C   UNL A   1      34.553  30.735  28.203  1.00  0.00     0.251 C 
ATOM     31  H   UNL A   1      32.823  30.450  27.233  1.00  0.00     0.163 HD
ATOM     32  O   UNL A   1      34.254  31.840  28.641  1.00  0.00    -0.269 OA
BRANCH  30  33
ATOM     33  C   UNL A   1      35.909  30.195  28.418  1.00  0.00     0.039 A 
ATOM     34  C   UNL A   1      36.853  30.303  27.396  1.00  0.00     0.014 A 
ATOM     35  C   UNL A   1      36.246  29.598  29.637  1.00  0.00     0.014 A 
ATOM     36  C   UNL A   1      38.155  29.853  27.616  1.00  0.00     0.010 A 
ATOM     37  C   UNL A   1      37.562  29.226  29.882  1.00  0.00     0.010 A 
ATOM     38  C   UNL A   1      38.526  29.339  28.870  1.00  0.00    -0.014 A 
BRANCH  38  39
ATOM     39  C   UNL A   1      39.914  28.889  29.129  1.00  0.00     0.031 A 
ATOM     40  C   UNL A   1      40.340  27.504  28.728  1.00  0.00     0.074 A 
ATOM     41  C   UNL A   1      40.782  29.714  29.746  1.00  0.00     0.049 A 
ATOM     42  N   UNL A   1      41.503  26.924  28.882  1.00  0.00    -0.248 NA
ATOM     43  C   UNL A   1      39.325  26.652  28.085  1.00  0.00     0.031 C 
ATOM     44  C   UNL A   1      40.478  31.073  30.201  1.00  0.00     0.029 A 
ATOM     45  N   UNL A   1      42.097  29.534  30.090  1.00  0.00    -0.354 N 
ATOM     46  C   UNL A   1      41.357  25.646  28.360  1.00  0.00     0.074 A 
ATOM     47  C   UNL A   1      39.980  25.509  27.942  1.00  0.00     0.031 C 
ATOM     48  C   UNL A   1      41.589  31.617  30.726  1.00  0.00     0.029 A 
ATOM     49  C   UNL A   1      42.666  30.633  30.686  1.00  0.00     0.049 A 
ATOM     50  H   UNL A   1      42.587  28.695  29.927  1.00  0.00     0.167 HD
ATOM     51  C   UNL A   1      42.294  24.681  28.214  1.00  0.00     0.031 A 
ATOM     52  C   UNL A   1      43.916  30.828  31.149  1.00  0.00     0.031 A 
ATOM     53  C   UNL A   1      43.665  24.819  28.624  1.00  0.00     0.049 A 
ATOM     54  C   UNL A   1      44.926  29.720  31.021  1.00  0.00     0.074 A 
ATOM     55  C   UNL A   1      44.699  23.911  28.485  1.00  0.00     0.029 A 
ATOM     56  N   UNL A   1      44.192  25.936  29.253  1.00  0.00    -0.354 N 
ATOM     57  N   UNL A   1      44.786  28.536  30.473  1.00  0.00    -0.248 NA
ATOM     58  C   UNL A   1      46.265  29.976  31.568  1.00  0.00     0.031 C 
ATOM     59  C   UNL A   1      45.836  24.451  29.089  1.00  0.00     0.029 A 
ATOM     60  C   UNL A   1      45.529  25.726  29.540  1.00  0.00     0.049 A 
ATOM     61  H   UNL A   1      43.690  26.757  29.465  1.00  0.00     0.167 HD
ATOM     62  C   UNL A   1      46.024  27.917  30.588  1.00  0.00     0.074 A 
ATOM     63  C   UNL A   1      46.907  28.862  31.239  1.00  0.00     0.031 C 
ATOM     64  C   UNL A   1      46.394  26.675  30.191  1.00  0.00     0.031 A 
BRANCH  51  65
ATOM     65  C   UNL A   1      41.872  23.385  27.578  1.00  0.00    -0.014 A 
ATOM     66  C   UNL A   1      42.113  23.134  26.218  1.00  0.00     0.009 A 
ATOM     67  C   UNL A   1      41.291  22.376  28.362  1.00  0.00     0.009 A 
ATOM     68  C   UNL A   1      41.760  21.906  25.651  1.00  0.00     0.001 A 
ATOM     69  C   UNL A   1      40.968  21.140  27.800  1.00  0.00     0.001 A 
ATOM     70  C   UNL A   1      41.197  20.908  26.445  1.00  0.00     0.000 A 
ENDBRANCH  51  65
BRANCH  52  71
ATOM     71  C   UNL A   1      44.287  32.133  31.757  1.00  0.00    -0.014 A 
ATOM     72  C   UNL A   1      44.128  32.347  33.135  1.00  0.00     0.009 A 
ATOM     73  C   UNL A   1      44.814  33.168  30.968  1.00  0.00     0.009 A 
ATOM     74  C   UNL A   1      44.474  33.575  33.707  1.00  0.00     0.001 A 
ATOM     75  C   UNL A   1      45.188  34.384  31.548  1.00  0.00     0.001 A 
ATOM     76  C   UNL A   1      45.010  34.588  32.914  1.00  0.00     0.000 A 
ENDBRANCH  52  71
BRANCH  64  77
ATOM     77  C   UNL A   1      47.820  26.262  30.430  1.00  0.00    -0.014 A 
ATOM     78  C   UNL A   1      48.809  26.467  29.456  1.00  0.00     0.009 A 
ATOM     79  C   UNL A   1      48.194  25.742  31.680  1.00  0.00     0.009 A 
ATOM     80  C   UNL A   1      50.141  26.139  29.722  1.00  0.00     0.001 A 
ATOM     81  C   UNL A   1      49.529  25.447  31.955  1.00  0.00     0.001 A 
ATOM     82  C   UNL A   1      50.500  25.639  30.974  1.00  0.00     0.000 A 
ENDBRANCH  64  77
ENDBRANCH  38  39
ENDBRANCH  30  33
ENDBRANCH  28  29
ENDBRANCH  27  28
ENDBRANCH  26  27
ENDBRANCH   1  26
TORSDOF 18
ENDMDL
MODEL 2
REMARK VINA RESULT:     -10.2      2.149      7.736
REMARK SMILES N#Cc1cc2c(nc1N(CC(=O)NCCCCCCNC(=O)c1ccc(-c3c4nc(c(-c5ccccc5)c5ccc([nH]5)c(-c5ccccc5)c5nc(c(-c6ccccc6)c6ccc3[nH]6)C=C5)C=C4)cc1)CC(F)(F)F)CCC2
REMARK SMILES IDX 16 1 15 2 14 3 13 4 11 5 12 6 10 8 9 9 8 10 3 11 4 12 5 13
REMARK SMILES IDX 7 14 6 15 78 16 76 17 77 18 2 19 1 20 71 21 72 22 73 23
REMARK SMILES IDX 74 24 75 25 17 26 18 27 19 28 20 29 21 30 22 32 23 33 24 34
REMARK SMILES IDX 70 35 25 36 69 37 26 38 27 39 28 40 63 41 29 42 68 43 62 44
REMARK SMILES IDX 64 45 30 46 67 47 61 48 60 49 31 51 53 52 38 53 52 54 39 55
REMARK SMILES IDX 42 56 51 57 65 58 40 59 41 60 50 62 66 63 43 64 32 65 33 66
REMARK SMILES IDX 37 67 34 68 36 69 35 70 54 71 55 72 59 73 56 74 58 75 57 76
REMARK SMILES IDX 44 77 45 78 49 79 46 80 48 81 47 82
REMARK H PARENT 13 7 20 31 64 50 42 61
REMARK Flexibility Score: inf
ROOT
ATOM      1  C   UNL A   1      35.346  21.816  24.207  1.00  0.00     0.002 C 
ENDROOT
BRANCH   1   2
ATOM      2  C   UNL A   1      33.907  22.241  24.518  1.00  0.00     0.021 C 
BRANCH   2   3
ATOM      3  C   UNL A   1      33.045  22.420  23.272  1.00  0.00     0.116 C 
BRANCH   3   4
ATOM      4  N   UNL A   1      33.552  23.485  22.431  1.00  0.00    -0.355 N 
ATOM      5  C   UNL A   1      32.898  24.595  21.982  1.00  0.00     0.239 C 
ATOM      6  O   UNL A   1      33.472  25.333  21.178  1.00  0.00    -0.273 OA
ATOM      7  H   UNL A   1      34.490  23.397  22.146  1.00  0.00     0.163 HD
BRANCH   5   8
ATOM      8  C   UNL A   1      31.481  24.912  22.477  1.00  0.00     0.218 C 
BRANCH   8   9
ATOM      9  N   UNL A   1      31.454  25.943  23.551  1.00  0.00    -0.337 N 
BRANCH   9  10
ATOM     10  C   UNL A   1      30.930  27.190  23.242  1.00  0.00     0.147 A 
ATOM     11  C   UNL A   1      31.634  28.319  22.762  1.00  0.00     0.095 A 
ATOM     12  C   UNL A   1      30.941  29.481  22.352  1.00  0.00     0.029 A 
ATOM     13  C   UNL A   1      29.578  29.524  22.494  1.00  0.00    -0.025 A 
ATOM     14  N   UNL A   1      29.578  27.299  23.402  1.00  0.00    -0.234 NA
ATOM     15  C   UNL A   1      28.951  28.431  23.045  1.00  0.00     0.046 A 
ATOM     16  C   UNL A   1      28.599  30.581  22.115  1.00  0.00     0.038 C 
ATOM     17  C   UNL A   1      27.466  28.649  23.139  1.00  0.00     0.057 C 
ATOM     18  C   UNL A   1      27.384  30.172  22.964  1.00  0.00     0.011 C 
BRANCH  11  19
ATOM     19  C   UNL A   1      33.060  28.412  22.692  1.00  0.00     0.103 C 
ATOM     20  N   UNL A   1      34.213  28.492  22.610  1.00  0.00    -0.192 NA
ENDBRANCH  11  19
ENDBRANCH   9  10
BRANCH   9  21
ATOM     21  C   UNL A   1      31.891  25.465  24.894  1.00  0.00     0.234 C 
BRANCH  21  22
ATOM     22  C   UNL A   1      33.244  25.988  25.417  1.00  0.00     0.405 C 
ATOM     23  F   UNL A   1      34.230  25.890  24.495  1.00  0.00    -0.169 F 
ATOM     24  F   UNL A   1      33.150  27.291  25.767  1.00  0.00    -0.169 F 
ATOM     25  F   UNL A   1      33.654  25.312  26.514  1.00  0.00    -0.169 F 
ENDBRANCH  21  22
ENDBRANCH   9  21
ENDBRANCH   8   9
ENDBRANCH   5   8
ENDBRANCH   3   4
ENDBRANCH   2   3
ENDBRANCH   1   2
BRANCH   1  26
ATOM     26  C   UNL A   1      36.040  21.080  25.357  1.00  0.00     0.002 C 
BRANCH  26  27
ATOM     27  C   UNL A   1      37.249  20.245  24.934  1.00  0.00     0.021 C 
BRANCH  27  28
ATOM     28  C   UNL A   1      38.576  20.771  25.469  1.00  0.00     0.116 C 
BRANCH  28  29
ATOM     29  N   UNL A   1      39.550  19.702  25.626  1.00  0.00    -0.352 N 
ATOM     30  C   UNL A   1      40.868  19.788  25.993  1.00  0.00     0.251 C 
ATOM     31  H   UNL A   1      39.217  18.794  25.442  1.00  0.00     0.163 HD
ATOM     32  O   UNL A   1      41.626  18.837  25.845  1.00  0.00    -0.269 OA
BRANCH  30  33
ATOM     33  C   UNL A   1      41.370  21.054  26.561  1.00  0.00     0.039 A 
ATOM     34  C   UNL A   1      41.946  21.999  25.710  1.00  0.00     0.014 A 
ATOM     35  C   UNL A   1      41.254  21.308  27.930  1.00  0.00     0.014 A 
ATOM     36  C   UNL A   1      42.362  23.224  26.229  1.00  0.00     0.010 A 
ATOM     37  C   UNL A   1      41.594  22.559  28.430  1.00  0.00     0.010 A 
ATOM     38  C   UNL A   1      42.163  23.524  27.587  1.00  0.00    -0.014 A 
BRANCH  38  39
ATOM     39  C   UNL A   1      42.570  24.836  28.145  1.00  0.00     0.031 A 
ATOM     40  C   UNL A   1      41.543  25.914  28.349  1.00  0.00     0.074 A 
ATOM     41  C   UNL A   1      43.863  25.064  28.444  1.00  0.00     0.049 A 
ATOM     42  N   UNL A   1      41.706  27.129  28.810  1.00  0.00    -0.248 NA
ATOM     43  C   UNL A   1      40.155  25.597  27.970  1.00  0.00     0.031 C 
ATOM     44  C   UNL A   1      44.954  24.103  28.270  1.00  0.00     0.029 A 
ATOM     45  N   UNL A   1      44.478  26.175  28.963  1.00  0.00    -0.354 N 
ATOM     46  C   UNL A   1      40.447  27.715  28.775  1.00  0.00     0.074 A 
ATOM     47  C   UNL A   1      39.543  26.752  28.190  1.00  0.00     0.031 C 
ATOM     48  C   UNL A   1      46.097  24.650  28.715  1.00  0.00     0.029 A 
ATOM     49  C   UNL A   1      45.828  26.014  29.162  1.00  0.00     0.049 A 
ATOM     50  H   UNL A   1      43.998  27.009  29.172  1.00  0.00     0.167 HD
ATOM     51  C   UNL A   1      40.072  28.937  29.217  1.00  0.00     0.031 A 
ATOM     52  C   UNL A   1      46.748  26.869  29.650  1.00  0.00     0.031 A 
ATOM     53  C   UNL A   1      40.971  29.893  29.804  1.00  0.00     0.049 A 
ATOM     54  C   UNL A   1      46.314  28.241  30.087  1.00  0.00     0.074 A 
ATOM     55  C   UNL A   1      40.679  31.144  30.317  1.00  0.00     0.029 A 
ATOM     56  N   UNL A   1      42.336  29.703  29.957  1.00  0.00    -0.354 N 
ATOM     57  N   UNL A   1      45.109  28.760  30.099  1.00  0.00    -0.248 NA
ATOM     58  C   UNL A   1      47.362  29.142  30.585  1.00  0.00     0.031 C 
ATOM     59  C   UNL A   1      41.877  31.739  30.720  1.00  0.00     0.029 A 
ATOM     60  C   UNL A   1      42.905  30.829  30.525  1.00  0.00     0.049 A 
ATOM     61  H   UNL A   1      42.827  28.890  29.700  1.00  0.00     0.167 HD
ATOM     62  C   UNL A   1      45.252  30.038  30.626  1.00  0.00     0.074 A 
ATOM     63  C   UNL A   1      46.655  30.207  30.940  1.00  0.00     0.031 C 
ATOM     64  C   UNL A   1      44.304  30.985  30.829  1.00  0.00     0.031 A 
BRANCH  51  65
ATOM     65  C   UNL A   1      38.622  29.314  29.089  1.00  0.00    -0.014 A 
ATOM     66  C   UNL A   1      37.735  29.158  30.166  1.00  0.00     0.009 A 
ATOM     67  C   UNL A   1      38.152  29.898  27.901  1.00  0.00     0.009 A 
ATOM     68  C   UNL A   1      36.402  29.559  30.049  1.00  0.00     0.001 A 
ATOM     69  C   UNL A   1      36.827  30.324  27.798  1.00  0.00     0.001 A 
ATOM     70  C   UNL A   1      35.952  30.150  28.869  1.00  0.00     0.000 A 
ENDBRANCH  51  65
BRANCH  52  71
ATOM     71  C   UNL A   1      48.168  26.442  29.770  1.00  0.00    -0.014 A 
ATOM     72  C   UNL A   1      49.072  26.676  28.722  1.00  0.00     0.009 A 
ATOM     73  C   UNL A   1      48.632  25.811  30.935  1.00  0.00     0.009 A 
ATOM     74  C   UNL A   1      50.406  26.273  28.832  1.00  0.00     0.001 A 
ATOM     75  C   UNL A   1      49.972  25.437  31.055  1.00  0.00     0.001 A 
ATOM     76  C   UNL A   1      50.855  25.661  30.001  1.00  0.00     0.000 A 
ENDBRANCH  52  71
BRANCH  64  77
ATOM     77  C   UNL A   1      44.740  32.290  31.435  1.00  0.00    -0.014 A 
ATOM     78  C   UNL A   1      45.107  33.378  30.627  1.00  0.00     0.009 A 
ATOM     79  C   UNL A   1      44.699  32.460  32.828  1.00  0.00     0.009 A 
ATOM     80  C   UNL A   1      45.444  34.604  31.206  1.00  0.00     0.001 A 
ATOM     81  C   UNL A   1      45.004  33.695  33.401  1.00  0.00     0.001 A 
ATOM     82  C   UNL A   1      45.383  34.764  32.590  1.00  0.00     0.000 A 
ENDBRANCH  64  77
ENDBRANCH  38  39
ENDBRANCH  30  33
ENDBRANCH  28  29
ENDBRANCH  27  28
ENDBRANCH  26  27
ENDBRANCH   1  26
TORSDOF 18
ENDMDL
MODEL 3
REMARK VINA RESULT:     -10.0      2.560      6.868
REMARK SMILES N#Cc1cc2c(nc1N(CC(=O)NCCCCCCNC(=O)c1ccc(-c3c4nc(c(-c5ccccc5)c5ccc([nH]5)c(-c5ccccc5)c5nc(c(-c6ccccc6)c6ccc3[nH]6)C=C5)C=C4)cc1)CC(F)(F)F)CCC2
REMARK SMILES IDX 16 1 15 2 14 3 13 4 11 5 12 6 10 8 9 9 8 10 3 11 4 12 5 13
REMARK SMILES IDX 7 14 6 15 78 16 76 17 77 18 2 19 1 20 71 21 72 22 73 23
REMARK SMILES IDX 74 24 75 25 17 26 18 27 19 28 20 29 21 30 22 32 23 33 24 34
REMARK SMILES IDX 70 35 25 36 69 37 26 38 27 39 28 40 63 41 29 42 68 43 62 44
REMARK SMILES IDX 64 45 30 46 67 47 61 48 60 49 31 51 53 52 38 53 52 54 39 55
REMARK SMILES IDX 42 56 51 57 65 58 40 59 41 60 50 62 66 63 43 64 32 65 33 66
REMARK SMILES IDX 37 67 34 68 36 69 35 70 54 71 55 72 59 73 56 74 58 75 57 76
REMARK SMILES IDX 44 77 45 78 49 79 46 80 48 81 47 82
REMARK H PARENT 13 7 20 31 64 50 42 61
REMARK Flexibility Score: inf
ROOT
ATOM      1  C   UNL A   1      30.652  29.576  24.303  1.00  0.00     0.002 C 
ENDROOT
BRANCH   1   2
ATOM      2  C   UNL A   1      31.325  29.015  23.045  1.00  0.00     0.021 C 
BRANCH   2   3
ATOM      3  C   UNL A   1      31.104  27.517  22.857  1.00  0.00     0.116 C 
BRANCH   3   4
ATOM      4  N   UNL A   1      32.227  26.902  22.181  1.00  0.00    -0.355 N 
ATOM      5  C   UNL A   1      32.592  25.587  22.167  1.00  0.00     0.239 C 
ATOM      6  O   UNL A   1      33.652  25.275  21.620  1.00  0.00    -0.273 OA
ATOM      7  H   UNL A   1      32.802  27.511  21.664  1.00  0.00     0.163 HD
BRANCH   5   8
ATOM      8  C   UNL A   1      31.692  24.526  22.815  1.00  0.00     0.218 C 
BRANCH   8   9
ATOM      9  N   UNL A   1      31.991  24.307  24.257  1.00  0.00    -0.337 N 
BRANCH   9  10
ATOM     10  C   UNL A   1      33.304  24.031  24.614  1.00  0.00     0.147 A 
ATOM     11  C   UNL A   1      34.237  24.919  25.198  1.00  0.00     0.095 A 
ATOM     12  C   UNL A   1      35.496  24.453  25.642  1.00  0.00     0.029 A 
ATOM     13  C   UNL A   1      35.827  23.139  25.433  1.00  0.00    -0.025 A 
ATOM     14  N   UNL A   1      33.698  22.743  24.391  1.00  0.00    -0.234 NA
ATOM     15  C   UNL A   1      34.916  22.338  24.784  1.00  0.00     0.046 A 
ATOM     16  C   UNL A   1      37.045  22.374  25.824  1.00  0.00     0.038 C 
ATOM     17  C   UNL A   1      35.442  20.938  24.626  1.00  0.00     0.057 C 
ATOM     18  C   UNL A   1      36.939  21.158  24.890  1.00  0.00     0.011 C 
BRANCH  11  19
ATOM     19  C   UNL A   1      34.028  26.326  25.348  1.00  0.00     0.103 C 
ATOM     20  N   UNL A   1      33.835  27.462  25.476  1.00  0.00    -0.192 NA
ENDBRANCH  11  19
ENDBRANCH   9  10
BRANCH   9  21
ATOM     21  C   UNL A   1      30.844  24.534  25.181  1.00  0.00     0.234 C 
BRANCH  21  22
ATOM     22  C   UNL A   1      30.672  23.535  26.343  1.00  0.00     0.405 C 
ATOM     23  F   UNL A   1      29.504  23.704  27.006  1.00  0.00    -0.169 F 
ATOM     24  F   UNL A   1      30.694  22.262  25.884  1.00  0.00    -0.169 F 
ATOM     25  F   UNL A   1      31.668  23.645  27.251  1.00  0.00    -0.169 F 
ENDBRANCH  21  22
ENDBRANCH   9  21
ENDBRANCH   8   9
ENDBRANCH   5   8
ENDBRANCH   3   4
ENDBRANCH   2   3
ENDBRANCH   1   2
BRANCH   1  26
ATOM     26  C   UNL A   1      31.636  30.048  25.377  1.00  0.00     0.002 C 
BRANCH  26  27
ATOM     27  C   UNL A   1      31.282  31.395  26.010  1.00  0.00     0.021 C 
BRANCH  27  28
ATOM     28  C   UNL A   1      32.316  31.893  27.013  1.00  0.00     0.116 C 
BRANCH  28  29
ATOM     29  N   UNL A   1      32.179  33.321  27.255  1.00  0.00    -0.352 N 
ATOM     30  C   UNL A   1      32.912  34.124  28.090  1.00  0.00     0.251 C 
ATOM     31  H   UNL A   1      31.463  33.771  26.751  1.00  0.00     0.163 HD
ATOM     32  O   UNL A   1      32.528  35.252  28.376  1.00  0.00    -0.269 OA
BRANCH  30  33
ATOM     33  C   UNL A   1      34.172  33.605  28.657  1.00  0.00     0.039 A 
ATOM     34  C   UNL A   1      34.132  32.873  29.845  1.00  0.00     0.014 A 
ATOM     35  C   UNL A   1      35.386  33.830  28.001  1.00  0.00     0.014 A 
ATOM     36  C   UNL A   1      35.310  32.324  30.351  1.00  0.00     0.010 A 
ATOM     37  C   UNL A   1      36.543  33.214  28.462  1.00  0.00     0.010 A 
ATOM     38  C   UNL A   1      36.518  32.465  29.648  1.00  0.00    -0.014 A 
BRANCH  38  39
ATOM     39  C   UNL A   1      37.771  31.858  30.156  1.00  0.00     0.031 A 
ATOM     40  C   UNL A   1      38.515  32.511  31.287  1.00  0.00     0.074 A 
ATOM     41  C   UNL A   1      38.252  30.737  29.584  1.00  0.00     0.049 A 
ATOM     42  N   UNL A   1      39.633  32.141  31.859  1.00  0.00    -0.248 NA
ATOM     43  C   UNL A   1      37.941  33.750  31.838  1.00  0.00     0.031 C 
ATOM     44  C   UNL A   1      37.630  30.024  28.466  1.00  0.00     0.029 A 
ATOM     45  N   UNL A   1      39.371  29.997  29.870  1.00  0.00    -0.354 N 
ATOM     46  C   UNL A   1      39.892  33.099  32.830  1.00  0.00     0.074 A 
ATOM     47  C   UNL A   1      38.855  34.100  32.731  1.00  0.00     0.031 C 
ATOM     48  C   UNL A   1      38.353  28.926  28.190  1.00  0.00     0.029 A 
ATOM     49  C   UNL A   1      39.511  28.883  29.078  1.00  0.00     0.049 A 
ATOM     50  H   UNL A   1      40.013  30.241  30.575  1.00  0.00     0.167 HD
ATOM     51  C   UNL A   1      40.890  33.128  33.743  1.00  0.00     0.031 A 
ATOM     52  C   UNL A   1      40.465  27.932  29.068  1.00  0.00     0.031 A 
ATOM     53  C   UNL A   1      41.918  32.128  33.845  1.00  0.00     0.049 A 
ATOM     54  C   UNL A   1      41.593  28.015  30.060  1.00  0.00     0.074 A 
ATOM     55  C   UNL A   1      42.952  32.049  34.761  1.00  0.00     0.029 A 
ATOM     56  N   UNL A   1      42.043  31.034  33.003  1.00  0.00    -0.354 N 
ATOM     57  N   UNL A   1      41.793  28.898  31.008  1.00  0.00    -0.248 NA
ATOM     58  C   UNL A   1      42.621  26.968  29.985  1.00  0.00     0.031 C 
ATOM     59  C   UNL A   1      43.740  30.944  34.433  1.00  0.00     0.029 A 
ATOM     60  C   UNL A   1      43.157  30.293  33.357  1.00  0.00     0.049 A 
ATOM     61  H   UNL A   1      41.430  30.816  32.263  1.00  0.00     0.167 HD
ATOM     62  C   UNL A   1      42.954  28.499  31.659  1.00  0.00     0.074 A 
ATOM     63  C   UNL A   1      43.403  27.285  31.009  1.00  0.00     0.031 C 
ATOM     64  C   UNL A   1      43.592  29.089  32.699  1.00  0.00     0.031 A 
BRANCH  51  65
ATOM     65  C   UNL A   1      40.920  34.275  34.714  1.00  0.00    -0.014 A 
ATOM     66  C   UNL A   1      41.610  35.460  34.414  1.00  0.00     0.009 A 
ATOM     67  C   UNL A   1      40.190  34.198  35.911  1.00  0.00     0.009 A 
ATOM     68  C   UNL A   1      41.588  36.537  35.304  1.00  0.00     0.001 A 
ATOM     69  C   UNL A   1      40.146  35.287  36.784  1.00  0.00     0.001 A 
ATOM     70  C   UNL A   1      40.848  36.453  36.482  1.00  0.00     0.000 A 
ENDBRANCH  51  65
BRANCH  52  71
ATOM     71  C   UNL A   1      40.382  26.809  28.096  1.00  0.00    -0.014 A 
ATOM     72  C   UNL A   1      41.037  26.889  26.857  1.00  0.00     0.009 A 
ATOM     73  C   UNL A   1      39.661  25.645  28.405  1.00  0.00     0.009 A 
ATOM     74  C   UNL A   1      40.958  25.835  25.943  1.00  0.00     0.001 A 
ATOM     75  C   UNL A   1      39.609  24.580  27.501  1.00  0.00     0.001 A 
ATOM     76  C   UNL A   1      40.250  24.680  26.269  1.00  0.00     0.000 A 
ENDBRANCH  52  71
BRANCH  64  77
ATOM     77  C   UNL A   1      44.839  28.427  33.219  1.00  0.00    -0.014 A 
ATOM     78  C   UNL A   1      44.772  27.406  34.178  1.00  0.00     0.009 A 
ATOM     79  C   UNL A   1      46.087  28.771  32.676  1.00  0.00     0.009 A 
ATOM     80  C   UNL A   1      45.935  26.756  34.600  1.00  0.00     0.001 A 
ATOM     81  C   UNL A   1      47.243  28.098  33.074  1.00  0.00     0.001 A 
ATOM     82  C   UNL A   1      47.167  27.097  34.040  1.00  0.00     0.000 A 
ENDBRANCH  64  77
ENDBRANCH  38  39
ENDBRANCH  30  33
ENDBRANCH  28  29
ENDBRANCH  27  28
ENDBRANCH  26  27
ENDBRANCH   1  26
TORSDOF 18
ENDMDL
