MODEL 1
REMARK VINA RESULT:     -11.0      0.000      0.000
REMARK SMILES Cc1noc(-c2ccc(CCl)cc2)c1C(=O)NCCCCCCNC(=O)c1ccc(-c2c3nc(c(-c4ccccc4)c4ccc([nH]4)c(-c4ccccc4)c4nc(c(-c5ccccc5)c5ccc2[nH]5)C=C4)C=C3)cc1
REMARK SMILES IDX 20 1 19 2 18 3 17 4 15 5 16 6 14 8 1 9 2 10 3 11 4 12 5 13
REMARK SMILES IDX 6 14 7 15 13 16 8 17 12 18 9 19 10 20 11 21 21 22 22 23
REMARK SMILES IDX 23 24 24 25 25 26 26 28 27 29 28 30 74 31 29 32 73 33 30 34
REMARK SMILES IDX 31 35 32 36 67 37 33 38 72 39 66 40 68 41 34 42 71 43 65 44
REMARK SMILES IDX 64 45 35 47 57 48 42 49 56 50 43 51 46 52 55 53 69 54 44 55
REMARK SMILES IDX 45 56 54 58 70 59 47 60 36 61 37 62 41 63 38 64 40 65 39 66
REMARK SMILES IDX 58 67 59 68 63 69 60 70 62 71 61 72 48 73 49 74 53 75 50 76
REMARK SMILES IDX 52 77 51 78
REMARK H PARENT 17 7 24 27 68 46 46 57
REMARK Flexibility Score: inf
ROOT
ATOM      1  C   UNL A   1      31.692  29.228  27.018  1.00  0.00     0.002 C 
ENDROOT
BRANCH   1   2
ATOM      2  C   UNL A   1      32.916  28.312  27.003  1.00  0.00     0.021 C 
BRANCH   2   3
ATOM      3  C   UNL A   1      32.712  26.894  26.484  1.00  0.00     0.116 C 
BRANCH   3   4
ATOM      4  N   UNL A   1      31.444  26.308  26.825  1.00  0.00    -0.352 N 
ATOM      5  C   UNL A   1      30.667  25.376  26.188  1.00  0.00     0.257 C 
ATOM      6  O   UNL A   1      29.627  25.084  26.786  1.00  0.00    -0.269 OA
ATOM      7  H   UNL A   1      31.065  26.637  27.672  1.00  0.00     0.163 HD
BRANCH   5   8
ATOM      8  C   UNL A   1      30.985  24.787  24.890  1.00  0.00     0.110 A 
ATOM      9  C   UNL A   1      31.559  22.174  25.062  1.00  0.00     0.071 C 
ATOM     10  C   UNL A   1      31.362  23.488  24.401  1.00  0.00     0.094 A 
ATOM     11  N   UNL A   1      31.522  23.486  23.070  1.00  0.00    -0.084 NA
ATOM     12  O   UNL A   1      31.181  24.741  22.644  1.00  0.00    -0.355 OA
ATOM     13  C   UNL A   1      30.847  25.510  23.708  1.00  0.00     0.179 A 
BRANCH  13  14
ATOM     14  C   UNL A   1      30.423  26.852  23.346  1.00  0.00     0.021 A 
ATOM     15  C   UNL A   1      29.074  27.208  23.469  1.00  0.00     0.012 A 
ATOM     16  C   UNL A   1      31.336  27.800  22.871  1.00  0.00     0.012 A 
ATOM     17  C   UNL A   1      28.647  28.498  23.147  1.00  0.00     0.006 A 
ATOM     18  C   UNL A   1      30.907  29.088  22.538  1.00  0.00     0.006 A 
ATOM     19  C   UNL A   1      29.561  29.454  22.680  1.00  0.00    -0.033 A 
BRANCH  19  20
ATOM     20  C   UNL A   1      29.106  30.851  22.359  1.00  0.00     0.145 C 
ATOM     21  Cl  UNL A   1      28.865  31.805  23.837  1.00  0.00    -0.122 Cl
ENDBRANCH  19  20
ENDBRANCH  13  14
ENDBRANCH   5   8
ENDBRANCH   3   4
ENDBRANCH   2   3
ENDBRANCH   1   2
BRANCH   1  22
ATOM     22  C   UNL A   1      31.680  30.374  26.005  1.00  0.00     0.002 C 
BRANCH  22  23
ATOM     23  C   UNL A   1      31.485  31.782  26.573  1.00  0.00     0.021 C 
BRANCH  23  24
ATOM     24  C   UNL A   1      32.725  32.429  27.179  1.00  0.00     0.116 C 
BRANCH  24  25
ATOM     25  N   UNL A   1      32.493  33.800  27.601  1.00  0.00    -0.352 N 
ATOM     26  C   UNL A   1      33.174  34.558  28.517  1.00  0.00     0.251 C 
ATOM     27  H   UNL A   1      31.735  34.251  27.164  1.00  0.00     0.163 HD
ATOM     28  O   UNL A   1      32.727  35.648  28.868  1.00  0.00    -0.269 OA
BRANCH  26  29
ATOM     29  C   UNL A   1      34.436  34.061  29.106  1.00  0.00     0.039 A 
ATOM     30  C   UNL A   1      34.380  33.311  30.283  1.00  0.00     0.014 A 
ATOM     31  C   UNL A   1      35.670  34.341  28.512  1.00  0.00     0.014 A 
ATOM     32  C   UNL A   1      35.554  32.793  30.832  1.00  0.00     0.010 A 
ATOM     33  C   UNL A   1      36.831  33.760  29.017  1.00  0.00     0.010 A 
ATOM     34  C   UNL A   1      36.785  32.984  30.184  1.00  0.00    -0.014 A 
BRANCH  34  35
ATOM     35  C   UNL A   1      38.033  32.378  30.714  1.00  0.00     0.031 A 
ATOM     36  C   UNL A   1      38.569  31.102  30.125  1.00  0.00     0.074 A 
ATOM     37  C   UNL A   1      38.657  32.950  31.763  1.00  0.00     0.049 A 
ATOM     38  N   UNL A   1      39.617  30.404  30.483  1.00  0.00    -0.248 NA
ATOM     39  C   UNL A   1      37.814  30.520  29.004  1.00  0.00     0.031 C 
ATOM     40  C   UNL A   1      38.220  34.169  32.447  1.00  0.00     0.029 A 
ATOM     41  N   UNL A   1      39.790  32.577  32.441  1.00  0.00    -0.354 N 
ATOM     42  C   UNL A   1      39.640  29.298  29.642  1.00  0.00     0.074 A 
ATOM     43  C   UNL A   1      38.472  29.389  28.794  1.00  0.00     0.031 C 
ATOM     44  C   UNL A   1      39.093  34.461  33.425  1.00  0.00     0.029 A 
ATOM     45  C   UNL A   1      40.123  33.427  33.468  1.00  0.00     0.049 A 
ATOM     46  H   UNL A   1      40.316  31.776  32.213  1.00  0.00     0.167 HD
ATOM     47  C   UNL A   1      40.560  28.307  29.568  1.00  0.00     0.031 A 
ATOM     48  C   UNL A   1      41.136  33.377  34.352  1.00  0.00     0.031 A 
ATOM     49  C   UNL A   1      41.722  28.217  30.412  1.00  0.00     0.049 A 
ATOM     50  C   UNL A   1      42.127  32.249  34.269  1.00  0.00     0.074 A 
ATOM     51  C   UNL A   1      42.740  27.281  30.380  1.00  0.00     0.029 A 
ATOM     52  N   UNL A   1      42.016  29.093  31.445  1.00  0.00    -0.354 N 
ATOM     53  N   UNL A   1      42.173  31.249  33.422  1.00  0.00    -0.248 NA
ATOM     54  C   UNL A   1      43.211  32.248  35.261  1.00  0.00     0.031 C 
ATOM     55  C   UNL A   1      43.617  27.553  31.434  1.00  0.00     0.029 A 
ATOM     56  C   UNL A   1      43.184  28.701  32.079  1.00  0.00     0.049 A 
ATOM     57  H   UNL A   1      41.477  29.879  31.692  1.00  0.00     0.167 HD
ATOM     58  C   UNL A   1      43.305  30.519  33.759  1.00  0.00     0.074 A 
ATOM     59  C   UNL A   1      43.926  31.201  34.875  1.00  0.00     0.031 C 
ATOM     60  C   UNL A   1      43.787  29.385  33.193  1.00  0.00     0.031 A 
BRANCH  47  61
ATOM     61  C   UNL A   1      40.334  27.227  28.544  1.00  0.00    -0.014 A 
ATOM     62  C   UNL A   1      39.581  26.080  28.845  1.00  0.00     0.009 A 
ATOM     63  C   UNL A   1      40.856  27.372  27.249  1.00  0.00     0.009 A 
ATOM     64  C   UNL A   1      39.392  25.084  27.885  1.00  0.00     0.001 A 
ATOM     65  C   UNL A   1      40.638  26.390  26.281  1.00  0.00     0.001 A 
ATOM     66  C   UNL A   1      39.917  25.242  26.603  1.00  0.00     0.000 A 
ENDBRANCH  47  61
BRANCH  48  67
ATOM     67  C   UNL A   1      41.275  34.435  35.387  1.00  0.00    -0.014 A 
ATOM     68  C   UNL A   1      42.061  35.573  35.145  1.00  0.00     0.009 A 
ATOM     69  C   UNL A   1      40.629  34.312  36.627  1.00  0.00     0.009 A 
ATOM     70  C   UNL A   1      42.218  36.549  36.131  1.00  0.00     0.001 A 
ATOM     71  C   UNL A   1      40.761  35.305  37.600  1.00  0.00     0.001 A 
ATOM     72  C   UNL A   1      41.565  36.416  37.355  1.00  0.00     0.000 A 
ENDBRANCH  48  67
BRANCH  60  73
ATOM     73  C   UNL A   1      45.070  28.830  33.751  1.00  0.00    -0.014 A 
ATOM     74  C   UNL A   1      46.320  29.298  33.318  1.00  0.00     0.009 A 
ATOM     75  C   UNL A   1      45.021  27.849  34.754  1.00  0.00     0.009 A 
ATOM     76  C   UNL A   1      47.496  28.769  33.854  1.00  0.00     0.001 A 
ATOM     77  C   UNL A   1      46.198  27.346  35.311  1.00  0.00     0.001 A 
ATOM     78  C   UNL A   1      47.434  27.798  34.853  1.00  0.00     0.000 A 
ENDBRANCH  60  73
ENDBRANCH  34  35
ENDBRANCH  26  29
ENDBRANCH  24  25
ENDBRANCH  23  24
ENDBRANCH  22  23
ENDBRANCH   1  22
TORSDOF 15
ENDMDL
MODEL 2
REMARK VINA RESULT:     -11.0      3.954      8.783
REMARK SMILES Cc1noc(-c2ccc(CCl)cc2)c1C(=O)NCCCCCCNC(=O)c1ccc(-c2c3nc(c(-c4ccccc4)c4ccc([nH]4)c(-c4ccccc4)c4nc(c(-c5ccccc5)c5ccc2[nH]5)C=C4)C=C3)cc1
REMARK SMILES IDX 20 1 19 2 18 3 17 4 15 5 16 6 14 8 1 9 2 10 3 11 4 12 5 13
REMARK SMILES IDX 6 14 7 15 13 16 8 17 12 18 9 19 10 20 11 21 21 22 22 23
REMARK SMILES IDX 23 24 24 25 25 26 26 28 27 29 28 30 74 31 29 32 73 33 30 34
REMARK SMILES IDX 31 35 32 36 67 37 33 38 72 39 66 40 68 41 34 42 71 43 65 44
REMARK SMILES IDX 64 45 35 47 57 48 42 49 56 50 43 51 46 52 55 53 69 54 44 55
REMARK SMILES IDX 45 56 54 58 70 59 47 60 36 61 37 62 41 63 38 64 40 65 39 66
REMARK SMILES IDX 58 67 59 68 63 69 60 70 62 71 61 72 48 73 49 74 53 75 50 76
REMARK SMILES IDX 52 77 51 78
REMARK H PARENT 17 7 24 27 68 46 46 57
REMARK Flexibility Score: inf
ROOT
ATOM      1  C   UNL A   1      36.193  21.626  25.467  1.00  0.00     0.002 C 
ENDROOT
BRANCH   1   2
ATOM      2  C   UNL A   1      36.092  22.697  24.380  1.00  0.00     0.021 C 
BRANCH   2   3
ATOM      3  C   UNL A   1      35.452  24.021  24.773  1.00  0.00     0.116 C 
BRANCH   3   4
ATOM      4  N   UNL A   1      34.410  24.470  23.890  1.00  0.00    -0.352 N 
ATOM      5  C   UNL A   1      33.055  24.589  24.061  1.00  0.00     0.257 C 
ATOM      6  O   UNL A   1      32.454  25.034  23.079  1.00  0.00    -0.269 OA
ATOM      7  H   UNL A   1      34.728  24.741  22.999  1.00  0.00     0.163 HD
BRANCH   5   8
ATOM      8  C   UNL A   1      32.340  24.192  25.271  1.00  0.00     0.110 A 
ATOM      9  C   UNL A   1      31.948  21.544  25.411  1.00  0.00     0.071 C 
ATOM     10  C   UNL A   1      31.866  22.961  25.844  1.00  0.00     0.094 A 
ATOM     11  N   UNL A   1      31.270  23.162  27.027  1.00  0.00    -0.084 NA
ATOM     12  O   UNL A   1      31.404  24.496  27.301  1.00  0.00    -0.355 OA
ATOM     13  C   UNL A   1      32.048  25.109  26.278  1.00  0.00     0.179 A 
BRANCH  13  14
ATOM     14  C   UNL A   1      32.279  26.526  26.503  1.00  0.00     0.021 A 
ATOM     15  C   UNL A   1      33.505  27.094  26.133  1.00  0.00     0.012 A 
ATOM     16  C   UNL A   1      31.301  27.339  27.084  1.00  0.00     0.012 A 
ATOM     17  C   UNL A   1      33.742  28.458  26.319  1.00  0.00     0.006 A 
ATOM     18  C   UNL A   1      31.542  28.702  27.282  1.00  0.00     0.006 A 
ATOM     19  C   UNL A   1      32.760  29.278  26.894  1.00  0.00    -0.033 A 
BRANCH  19  20
ATOM     20  C   UNL A   1      33.004  30.751  27.070  1.00  0.00     0.145 C 
ATOM     21  Cl  UNL A   1      31.566  31.698  26.636  1.00  0.00    -0.122 Cl
ENDBRANCH  19  20
ENDBRANCH  13  14
ENDBRANCH   5   8
ENDBRANCH   3   4
ENDBRANCH   2   3
ENDBRANCH   1   2
BRANCH   1  22
ATOM     22  C   UNL A   1      36.423  20.188  24.994  1.00  0.00     0.002 C 
BRANCH  22  23
ATOM     23  C   UNL A   1      37.870  19.800  24.679  1.00  0.00     0.021 C 
BRANCH  23  24
ATOM     24  C   UNL A   1      38.907  20.207  25.720  1.00  0.00     0.116 C 
BRANCH  24  25
ATOM     25  N   UNL A   1      40.018  19.274  25.800  1.00  0.00    -0.352 N 
ATOM     26  C   UNL A   1      41.329  19.505  26.125  1.00  0.00     0.251 C 
ATOM     27  H   UNL A   1      39.796  18.338  25.589  1.00  0.00     0.163 HD
ATOM     28  O   UNL A   1      42.166  18.616  25.975  1.00  0.00    -0.269 OA
BRANCH  26  29
ATOM     29  C   UNL A   1      41.750  20.827  26.635  1.00  0.00     0.039 A 
ATOM     30  C   UNL A   1      42.224  21.779  25.729  1.00  0.00     0.014 A 
ATOM     31  C   UNL A   1      41.691  21.126  28.000  1.00  0.00     0.014 A 
ATOM     32  C   UNL A   1      42.583  23.049  26.182  1.00  0.00     0.010 A 
ATOM     33  C   UNL A   1      41.976  22.417  28.439  1.00  0.00     0.010 A 
ATOM     34  C   UNL A   1      42.430  23.389  27.536  1.00  0.00    -0.014 A 
BRANCH  34  35
ATOM     35  C   UNL A   1      42.737  24.759  28.023  1.00  0.00     0.031 A 
ATOM     36  C   UNL A   1      44.148  25.141  28.377  1.00  0.00     0.074 A 
ATOM     37  C   UNL A   1      41.736  25.643  28.196  1.00  0.00     0.049 A 
ATOM     38  N   UNL A   1      44.601  26.272  28.857  1.00  0.00    -0.248 NA
ATOM     39  C   UNL A   1      45.182  24.111  28.193  1.00  0.00     0.031 C 
ATOM     40  C   UNL A   1      40.320  25.385  27.922  1.00  0.00     0.029 A 
ATOM     41  N   UNL A   1      41.755  26.939  28.649  1.00  0.00    -0.354 N 
ATOM     42  C   UNL A   1      45.965  26.084  29.042  1.00  0.00     0.074 A 
ATOM     43  C   UNL A   1      46.256  24.716  28.676  1.00  0.00     0.031 C 
ATOM     44  C   UNL A   1      39.613  26.497  28.182  1.00  0.00     0.029 A 
ATOM     45  C   UNL A   1      40.515  27.529  28.684  1.00  0.00     0.049 A 
ATOM     46  H   UNL A   1      42.580  27.402  28.923  1.00  0.00     0.167 HD
ATOM     47  C   UNL A   1      46.895  26.976  29.460  1.00  0.00     0.031 A 
ATOM     48  C   UNL A   1      40.142  28.759  29.082  1.00  0.00     0.031 A 
ATOM     49  C   UNL A   1      46.605  28.337  29.824  1.00  0.00     0.049 A 
ATOM     50  C   UNL A   1      41.190  29.720  29.573  1.00  0.00     0.074 A 
ATOM     51  C   UNL A   1      47.485  29.333  30.209  1.00  0.00     0.029 A 
ATOM     52  N   UNL A   1      45.335  28.893  29.854  1.00  0.00    -0.354 N 
ATOM     53  N   UNL A   1      42.486  29.549  29.675  1.00  0.00    -0.248 NA
ATOM     54  C   UNL A   1      40.722  31.047  29.994  1.00  0.00     0.031 C 
ATOM     55  C   UNL A   1      46.742  30.472  30.534  1.00  0.00     0.029 A 
ATOM     56  C   UNL A   1      45.404  30.208  30.282  1.00  0.00     0.049 A 
ATOM     57  H   UNL A   1      44.506  28.423  29.605  1.00  0.00     0.167 HD
ATOM     58  C   UNL A   1      42.991  30.755  30.142  1.00  0.00     0.074 A 
ATOM     59  C   UNL A   1      41.864  31.653  30.286  1.00  0.00     0.031 C 
ATOM     60  C   UNL A   1      44.274  31.088  30.427  1.00  0.00     0.031 A 
BRANCH  47  61
ATOM     61  C   UNL A   1      48.318  26.496  29.561  1.00  0.00    -0.014 A 
ATOM     62  C   UNL A   1      49.219  26.649  28.494  1.00  0.00     0.009 A 
ATOM     63  C   UNL A   1      48.774  25.908  30.751  1.00  0.00     0.009 A 
ATOM     64  C   UNL A   1      50.532  26.187  28.603  1.00  0.00     0.001 A 
ATOM     65  C   UNL A   1      50.097  25.477  30.869  1.00  0.00     0.001 A 
ATOM     66  C   UNL A   1      50.971  25.606  29.792  1.00  0.00     0.000 A 
ENDBRANCH  47  61
BRANCH  48  67
ATOM     67  C   UNL A   1      38.712  29.160  29.024  1.00  0.00    -0.014 A 
ATOM     68  C   UNL A   1      37.882  29.009  30.146  1.00  0.00     0.009 A 
ATOM     69  C   UNL A   1      38.165  29.691  27.845  1.00  0.00     0.009 A 
ATOM     70  C   UNL A   1      36.530  29.355  30.080  1.00  0.00     0.001 A 
ATOM     71  C   UNL A   1      36.821  30.065  27.791  1.00  0.00     0.001 A 
ATOM     72  C   UNL A   1      36.002  29.886  28.904  1.00  0.00     0.000 A 
ENDBRANCH  48  67
BRANCH  60  73
ATOM     73  C   UNL A   1      44.532  32.497  30.889  1.00  0.00    -0.014 A 
ATOM     74  C   UNL A   1      44.543  32.831  32.251  1.00  0.00     0.009 A 
ATOM     75  C   UNL A   1      44.807  33.497  29.942  1.00  0.00     0.009 A 
ATOM     76  C   UNL A   1      44.789  34.145  32.654  1.00  0.00     0.001 A 
ATOM     77  C   UNL A   1      45.086  34.802  30.349  1.00  0.00     0.001 A 
ATOM     78  C   UNL A   1      45.065  35.128  31.704  1.00  0.00     0.000 A 
ENDBRANCH  60  73
ENDBRANCH  34  35
ENDBRANCH  26  29
ENDBRANCH  24  25
ENDBRANCH  23  24
ENDBRANCH  22  23
ENDBRANCH   1  22
TORSDOF 15
ENDMDL
MODEL 3
REMARK VINA RESULT:     -10.9      4.548      9.361
REMARK SMILES Cc1noc(-c2ccc(CCl)cc2)c1C(=O)NCCCCCCNC(=O)c1ccc(-c2c3nc(c(-c4ccccc4)c4ccc([nH]4)c(-c4ccccc4)c4nc(c(-c5ccccc5)c5ccc2[nH]5)C=C4)C=C3)cc1
REMARK SMILES IDX 20 1 19 2 18 3 17 4 15 5 16 6 14 8 1 9 2 10 3 11 4 12 5 13
REMARK SMILES IDX 6 14 7 15 13 16 8 17 12 18 9 19 10 20 11 21 21 22 22 23
REMARK SMILES IDX 23 24 24 25 25 26 26 28 27 29 28 30 74 31 29 32 73 33 30 34
REMARK SMILES IDX 31 35 32 36 67 37 33 38 72 39 66 40 68 41 34 42 71 43 65 44
REMARK SMILES IDX 64 45 35 47 57 48 42 49 56 50 43 51 46 52 55 53 69 54 44 55
REMARK SMILES IDX 45 56 54 58 70 59 47 60 36 61 37 62 41 63 38 64 40 65 39 66
REMARK SMILES IDX 58 67 59 68 63 69 60 70 62 71 61 72 48 73 49 74 53 75 50 76
REMARK SMILES IDX 52 77 51 78
REMARK H PARENT 17 7 24 27 68 46 46 57
REMARK Flexibility Score: inf
ROOT
ATOM      1  C   UNL A   1      36.310  21.601  25.464  1.00  0.00     0.002 C 
ENDROOT
BRANCH   1   2
ATOM      2  C   UNL A   1      36.347  22.722  24.425  1.00  0.00     0.021 C 
BRANCH   2   3
ATOM      3  C   UNL A   1      35.683  24.039  24.805  1.00  0.00     0.116 C 
BRANCH   3   4
ATOM      4  N   UNL A   1      34.674  24.489  23.885  1.00  0.00    -0.352 N 
ATOM      5  C   UNL A   1      33.319  24.646  24.018  1.00  0.00     0.257 C 
ATOM      6  O   UNL A   1      32.754  25.080  23.010  1.00  0.00    -0.269 OA
ATOM      7  H   UNL A   1      35.021  24.730  22.996  1.00  0.00     0.163 HD
BRANCH   5   8
ATOM      8  C   UNL A   1      32.565  24.298  25.219  1.00  0.00     0.110 A 
ATOM      9  C   UNL A   1      31.827  26.455  26.629  1.00  0.00     0.071 C 
ATOM     10  C   UNL A   1      31.952  25.012  26.307  1.00  0.00     0.094 A 
ATOM     11  N   UNL A   1      31.346  24.182  27.167  1.00  0.00    -0.084 NA
ATOM     12  O   UNL A   1      31.469  22.926  26.636  1.00  0.00    -0.355 OA
ATOM     13  C   UNL A   1      32.172  22.987  25.479  1.00  0.00     0.179 A 
BRANCH  13  14
ATOM     14  C   UNL A   1      32.313  21.701  24.816  1.00  0.00     0.021 A 
ATOM     15  C   UNL A   1      32.064  21.601  23.441  1.00  0.00     0.012 A 
ATOM     16  C   UNL A   1      32.690  20.556  25.523  1.00  0.00     0.012 A 
ATOM     17  C   UNL A   1      32.213  20.381  22.778  1.00  0.00     0.006 A 
ATOM     18  C   UNL A   1      32.829  19.331  24.863  1.00  0.00     0.006 A 
ATOM     19  C   UNL A   1      32.600  19.232  23.483  1.00  0.00    -0.033 A 
BRANCH  19  20
ATOM     20  C   UNL A   1      32.788  17.924  22.765  1.00  0.00     0.145 C 
ATOM     21  Cl  UNL A   1      34.152  17.009  23.440  1.00  0.00    -0.122 Cl
ENDBRANCH  19  20
ENDBRANCH  13  14
ENDBRANCH   5   8
ENDBRANCH   3   4
ENDBRANCH   2   3
ENDBRANCH   1   2
BRANCH   1  22
ATOM     22  C   UNL A   1      36.553  20.180  24.951  1.00  0.00     0.002 C 
BRANCH  22  23
ATOM     23  C   UNL A   1      38.008  19.798  24.670  1.00  0.00     0.021 C 
BRANCH  23  24
ATOM     24  C   UNL A   1      39.011  20.162  25.758  1.00  0.00     0.116 C 
BRANCH  24  25
ATOM     25  N   UNL A   1      40.129  19.237  25.824  1.00  0.00    -0.352 N 
ATOM     26  C   UNL A   1      41.446  19.479  26.114  1.00  0.00     0.251 C 
ATOM     27  H   UNL A   1      39.908  18.297  25.632  1.00  0.00     0.163 HD
ATOM     28  O   UNL A   1      42.284  18.593  25.955  1.00  0.00    -0.269 OA
BRANCH  26  29
ATOM     29  C   UNL A   1      41.871  20.811  26.595  1.00  0.00     0.039 A 
ATOM     30  C   UNL A   1      42.332  21.747  25.667  1.00  0.00     0.014 A 
ATOM     31  C   UNL A   1      41.830  21.133  27.955  1.00  0.00     0.014 A 
ATOM     32  C   UNL A   1      42.695  23.025  26.093  1.00  0.00     0.010 A 
ATOM     33  C   UNL A   1      42.119  22.432  28.368  1.00  0.00     0.010 A 
ATOM     34  C   UNL A   1      42.559  23.389  27.443  1.00  0.00    -0.014 A 
BRANCH  34  35
ATOM     35  C   UNL A   1      42.871  24.767  27.901  1.00  0.00     0.031 A 
ATOM     36  C   UNL A   1      44.291  25.170  28.192  1.00  0.00     0.074 A 
ATOM     37  C   UNL A   1      41.867  25.642  28.107  1.00  0.00     0.049 A 
ATOM     38  N   UNL A   1      44.750  26.311  28.640  1.00  0.00    -0.248 NA
ATOM     39  C   UNL A   1      45.328  24.149  27.974  1.00  0.00     0.031 C 
ATOM     40  C   UNL A   1      40.444  25.365  27.897  1.00  0.00     0.029 A 
ATOM     41  N   UNL A   1      41.890  26.943  28.546  1.00  0.00    -0.354 N 
ATOM     42  C   UNL A   1      46.123  26.141  28.769  1.00  0.00     0.074 A 
ATOM     43  C   UNL A   1      46.415  24.772  28.405  1.00  0.00     0.031 C 
ATOM     44  C   UNL A   1      39.735  26.471  28.175  1.00  0.00     0.029 A 
ATOM     45  C   UNL A   1      40.646  27.519  28.627  1.00  0.00     0.049 A 
ATOM     46  H   UNL A   1      42.720  27.418  28.780  1.00  0.00     0.167 HD
ATOM     47  C   UNL A   1      47.059  27.047  29.138  1.00  0.00     0.031 A 
ATOM     48  C   UNL A   1      40.276  28.749  29.028  1.00  0.00     0.031 A 
ATOM     49  C   UNL A   1      46.768  28.409  29.499  1.00  0.00     0.049 A 
ATOM     50  C   UNL A   1      41.332  29.727  29.463  1.00  0.00     0.074 A 
ATOM     51  C   UNL A   1      47.652  29.419  29.837  1.00  0.00     0.029 A 
ATOM     52  N   UNL A   1      45.494  28.950  29.577  1.00  0.00    -0.354 N 
ATOM     53  N   UNL A   1      42.633  29.572  29.512  1.00  0.00    -0.248 NA
ATOM     54  C   UNL A   1      40.867  31.054  29.890  1.00  0.00     0.031 C 
ATOM     55  C   UNL A   1      46.910  30.553  30.180  1.00  0.00     0.029 A 
ATOM     56  C   UNL A   1      45.566  30.271  29.988  1.00  0.00     0.049 A 
ATOM     57  H   UNL A   1      44.661  28.468  29.369  1.00  0.00     0.167 HD
ATOM     58  C   UNL A   1      43.143  30.789  29.945  1.00  0.00     0.074 A 
ATOM     59  C   UNL A   1      42.013  31.676  30.127  1.00  0.00     0.031 C 
ATOM     60  C   UNL A   1      44.433  31.140  30.171  1.00  0.00     0.031 A 
BRANCH  47  61
ATOM     61  C   UNL A   1      48.491  26.585  29.183  1.00  0.00    -0.014 A 
ATOM     62  C   UNL A   1      49.319  26.656  28.051  1.00  0.00     0.009 A 
ATOM     63  C   UNL A   1      49.029  26.097  30.385  1.00  0.00     0.009 A 
ATOM     64  C   UNL A   1      50.641  26.211  28.110  1.00  0.00     0.001 A 
ATOM     65  C   UNL A   1      50.362  25.684  30.449  1.00  0.00     0.001 A 
ATOM     66  C   UNL A   1      51.163  25.730  29.310  1.00  0.00     0.000 A 
ENDBRANCH  47  61
BRANCH  48  67
ATOM     67  C   UNL A   1      38.839  29.134  29.026  1.00  0.00    -0.014 A 
ATOM     68  C   UNL A   1      38.047  28.939  30.168  1.00  0.00     0.009 A 
ATOM     69  C   UNL A   1      38.250  29.692  27.881  1.00  0.00     0.009 A 
ATOM     70  C   UNL A   1      36.690  29.268  30.154  1.00  0.00     0.001 A 
ATOM     71  C   UNL A   1      36.900  30.051  27.880  1.00  0.00     0.001 A 
ATOM     72  C   UNL A   1      36.119  29.828  29.012  1.00  0.00     0.000 A 
ENDBRANCH  48  67
BRANCH  60  73
ATOM     73  C   UNL A   1      44.694  32.557  30.607  1.00  0.00    -0.014 A 
ATOM     74  C   UNL A   1      44.924  32.879  31.953  1.00  0.00     0.009 A 
ATOM     75  C   UNL A   1      44.748  33.578  29.645  1.00  0.00     0.009 A 
ATOM     76  C   UNL A   1      45.167  34.201  32.331  1.00  0.00     0.001 A 
ATOM     77  C   UNL A   1      45.025  34.893  30.022  1.00  0.00     0.001 A 
ATOM     78  C   UNL A   1      45.222  35.205  31.366  1.00  0.00     0.000 A 
ENDBRANCH  60  73
ENDBRANCH  34  35
ENDBRANCH  26  29
ENDBRANCH  24  25
ENDBRANCH  23  24
ENDBRANCH  22  23
ENDBRANCH   1  22
TORSDOF 15
ENDMDL
