MODEL 1
REMARK VINA RESULT:      -9.8      0.000      0.000
REMARK SMILES Cc1cscc1-c1noc(SCC(=O)NCCCCCCNC(=O)c2ccc(-c3c4nc(c(-c5ccccc5)c5ccc([nH]5)c(-c5ccccc5)c5nc(c(-c6ccccc6)c6ccc3[nH]6)C=C5)C=C4)cc2)n1
REMARK SMILES IDX 18 1 17 2 16 3 15 4 13 5 14 6 12 8 11 9 10 10 7 11 8 12
REMARK SMILES IDX 73 13 9 14 6 15 1 16 2 17 3 18 4 19 5 20 19 21 20 22 21 23
REMARK SMILES IDX 22 24 23 25 24 27 25 28 26 29 72 30 27 31 71 32 28 33 29 34
REMARK SMILES IDX 30 35 65 36 31 37 70 38 64 39 66 40 32 41 69 42 63 43 62 44
REMARK SMILES IDX 33 46 55 47 40 48 54 49 41 50 44 51 53 52 67 53 42 54 43 55
REMARK SMILES IDX 52 57 68 58 45 59 34 60 35 61 39 62 36 63 38 64 37 65 56 66
REMARK SMILES IDX 57 67 61 68 58 69 60 70 59 71 46 72 47 73 51 74 48 75 50 76
REMARK SMILES IDX 49 77
REMARK H PARENT 15 7 22 26 66 45 44 56
REMARK Flexibility Score: inf
ROOT
ATOM      1  C   UNL A   1      38.310  22.325  25.842  1.00  0.00     0.002 C 
ENDROOT
BRANCH   1   2
ATOM      2  C   UNL A   1      37.632  23.699  25.753  1.00  0.00     0.021 C 
BRANCH   2   3
ATOM      3  C   UNL A   1      36.394  23.727  24.854  1.00  0.00     0.116 C 
BRANCH   3   4
ATOM      4  N   UNL A   1      35.209  24.056  25.620  1.00  0.00    -0.355 N 
ATOM      5  C   UNL A   1      33.997  24.532  25.216  1.00  0.00     0.230 C 
ATOM      6  O   UNL A   1      33.161  24.761  26.094  1.00  0.00    -0.274 OA
ATOM      7  H   UNL A   1      35.292  23.913  26.591  1.00  0.00     0.163 HD
BRANCH   5   8
ATOM      8  C   UNL A   1      33.641  24.640  23.746  1.00  0.00     0.179 C 
BRANCH   8   9
ATOM      9  S   UNL A   1      32.097  23.833  23.270  1.00  0.00    -0.055 SA
BRANCH   9  10
ATOM     10  C   UNL A   1      32.246  22.256  23.971  1.00  0.00     0.286 A 
ATOM     11  C   UNL A   1      32.714  20.263  24.379  1.00  0.00     0.204 A 
ATOM     12  N   UNL A   1      31.845  20.566  25.351  1.00  0.00    -0.056 NA
ATOM     13  N   UNL A   1      32.995  21.284  23.510  1.00  0.00    -0.181 NA
ATOM     14  O   UNL A   1      31.546  21.903  25.094  1.00  0.00    -0.327 OA
BRANCH  11  15
ATOM     15  C   UNL A   1      33.273  18.927  24.183  1.00  0.00     0.036 A 
ATOM     16  C   UNL A   1      32.092  18.450  21.906  1.00  0.00     0.046 C 
ATOM     17  C   UNL A   1      32.978  18.087  23.054  1.00  0.00    -0.029 A 
ATOM     18  C   UNL A   1      33.655  16.884  23.157  1.00  0.00     0.069 A 
ATOM     19  S   UNL A   1      34.619  16.774  24.564  1.00  0.00    -0.151 S 
ATOM     20  C   UNL A   1      34.159  18.340  25.062  1.00  0.00     0.077 A 
ENDBRANCH  11  15
ENDBRANCH   9  10
ENDBRANCH   8   9
ENDBRANCH   5   8
ENDBRANCH   3   4
ENDBRANCH   2   3
ENDBRANCH   1   2
BRANCH   1  21
ATOM     21  C   UNL A   1      37.711  21.241  24.940  1.00  0.00     0.002 C 
BRANCH  21  22
ATOM     22  C   UNL A   1      38.453  19.903  24.952  1.00  0.00     0.021 C 
BRANCH  22  23
ATOM     23  C   UNL A   1      39.312  19.660  26.188  1.00  0.00     0.116 C 
BRANCH  23  24
ATOM     24  N   UNL A   1      40.584  19.036  25.861  1.00  0.00    -0.352 N 
ATOM     25  C   UNL A   1      41.842  19.583  25.856  1.00  0.00     0.251 C 
ATOM     26  H   UNL A   1      40.536  18.086  25.607  1.00  0.00     0.163 HD
ATOM     27  O   UNL A   1      42.787  18.950  25.386  1.00  0.00    -0.269 OA
BRANCH  25  28
ATOM     28  C   UNL A   1      42.067  20.940  26.398  1.00  0.00     0.039 A 
ATOM     29  C   UNL A   1      42.006  21.133  27.781  1.00  0.00     0.014 A 
ATOM     30  C   UNL A   1      42.309  22.023  25.549  1.00  0.00     0.014 A 
ATOM     31  C   UNL A   1      42.231  22.403  28.315  1.00  0.00     0.010 A 
ATOM     32  C   UNL A   1      42.603  23.274  26.086  1.00  0.00     0.010 A 
ATOM     33  C   UNL A   1      42.553  23.480  27.474  1.00  0.00    -0.014 A 
BRANCH  33  34
ATOM     34  C   UNL A   1      42.807  24.835  28.023  1.00  0.00     0.031 A 
ATOM     35  C   UNL A   1      44.197  25.230  28.442  1.00  0.00     0.074 A 
ATOM     36  C   UNL A   1      41.783  25.693  28.196  1.00  0.00     0.049 A 
ATOM     37  N   UNL A   1      44.610  26.346  28.990  1.00  0.00    -0.248 NA
ATOM     38  C   UNL A   1      45.258  24.230  28.243  1.00  0.00     0.031 C 
ATOM     39  C   UNL A   1      40.382  25.421  27.867  1.00  0.00     0.029 A 
ATOM     40  N   UNL A   1      41.764  26.968  28.701  1.00  0.00    -0.354 N 
ATOM     41  C   UNL A   1      45.969  26.172  29.220  1.00  0.00     0.074 A 
ATOM     42  C   UNL A   1      46.300  24.829  28.799  1.00  0.00     0.031 C 
ATOM     43  C   UNL A   1      39.646  26.507  28.152  1.00  0.00     0.029 A 
ATOM     44  C   UNL A   1      40.514  27.537  28.717  1.00  0.00     0.049 A 
ATOM     45  H   UNL A   1      42.571  27.433  29.021  1.00  0.00     0.167 HD
ATOM     46  C   UNL A   1      46.867  27.055  29.720  1.00  0.00     0.031 A 
ATOM     47  C   UNL A   1      40.112  28.751  29.137  1.00  0.00     0.031 A 
ATOM     48  C   UNL A   1      46.543  28.398  30.124  1.00  0.00     0.049 A 
ATOM     49  C   UNL A   1      41.127  29.716  29.680  1.00  0.00     0.074 A 
ATOM     50  C   UNL A   1      47.391  29.385  30.593  1.00  0.00     0.029 A 
ATOM     51  N   UNL A   1      45.268  28.940  30.102  1.00  0.00    -0.354 N 
ATOM     52  N   UNL A   1      42.419  29.558  29.836  1.00  0.00    -0.248 NA
ATOM     53  C   UNL A   1      40.628  31.037  30.088  1.00  0.00     0.031 C 
ATOM     54  C   UNL A   1      46.621  30.513  30.895  1.00  0.00     0.029 A 
ATOM     55  C   UNL A   1      45.304  30.245  30.564  1.00  0.00     0.049 A 
ATOM     56  H   UNL A   1      44.457  28.468  29.803  1.00  0.00     0.167 HD
ATOM     57  C   UNL A   1      42.892  30.767  30.328  1.00  0.00     0.074 A 
ATOM     58  C   UNL A   1      41.750  31.653  30.433  1.00  0.00     0.031 C 
ATOM     59  C   UNL A   1      44.160  31.114  30.659  1.00  0.00     0.031 A 
BRANCH  46  60
ATOM     60  C   UNL A   1      48.288  26.587  29.860  1.00  0.00    -0.014 A 
ATOM     61  C   UNL A   1      48.699  25.829  30.969  1.00  0.00     0.009 A 
ATOM     62  C   UNL A   1      49.226  26.891  28.863  1.00  0.00     0.009 A 
ATOM     63  C   UNL A   1      50.029  25.423  31.096  1.00  0.00     0.001 A 
ATOM     64  C   UNL A   1      50.549  26.458  28.977  1.00  0.00     0.001 A 
ATOM     65  C   UNL A   1      50.952  25.735  30.099  1.00  0.00     0.000 A 
ENDBRANCH  46  60
BRANCH  47  66
ATOM     66  C   UNL A   1      38.680  29.135  29.033  1.00  0.00    -0.014 A 
ATOM     67  C   UNL A   1      38.170  29.652  27.832  1.00  0.00     0.009 A 
ATOM     68  C   UNL A   1      37.820  28.993  30.131  1.00  0.00     0.009 A 
ATOM     69  C   UNL A   1      36.834  30.046  27.742  1.00  0.00     0.001 A 
ATOM     70  C   UNL A   1      36.476  29.362  30.030  1.00  0.00     0.001 A 
ATOM     71  C   UNL A   1      35.987  29.895  28.839  1.00  0.00     0.000 A 
ENDBRANCH  47  66
BRANCH  59  72
ATOM     72  C   UNL A   1      44.385  32.526  31.120  1.00  0.00    -0.014 A 
ATOM     73  C   UNL A   1      44.330  32.871  32.479  1.00  0.00     0.009 A 
ATOM     74  C   UNL A   1      44.690  33.521  30.177  1.00  0.00     0.009 A 
ATOM     75  C   UNL A   1      44.538  34.192  32.881  1.00  0.00     0.001 A 
ATOM     76  C   UNL A   1      44.926  34.835  30.584  1.00  0.00     0.001 A 
ATOM     77  C   UNL A   1      44.840  35.171  31.935  1.00  0.00     0.000 A 
ENDBRANCH  59  72
ENDBRANCH  33  34
ENDBRANCH  25  28
ENDBRANCH  23  24
ENDBRANCH  22  23
ENDBRANCH  21  22
ENDBRANCH   1  21
TORSDOF 16
ENDMDL
MODEL 2
REMARK VINA RESULT:      -9.7      1.599      3.503
REMARK SMILES Cc1cscc1-c1noc(SCC(=O)NCCCCCCNC(=O)c2ccc(-c3c4nc(c(-c5ccccc5)c5ccc([nH]5)c(-c5ccccc5)c5nc(c(-c6ccccc6)c6ccc3[nH]6)C=C5)C=C4)cc2)n1
REMARK SMILES IDX 18 1 17 2 16 3 15 4 13 5 14 6 12 8 11 9 10 10 7 11 8 12
REMARK SMILES IDX 73 13 9 14 6 15 1 16 2 17 3 18 4 19 5 20 19 21 20 22 21 23
REMARK SMILES IDX 22 24 23 25 24 27 25 28 26 29 72 30 27 31 71 32 28 33 29 34
REMARK SMILES IDX 30 35 65 36 31 37 70 38 64 39 66 40 32 41 69 42 63 43 62 44
REMARK SMILES IDX 33 46 55 47 40 48 54 49 41 50 44 51 53 52 67 53 42 54 43 55
REMARK SMILES IDX 52 57 68 58 45 59 34 60 35 61 39 62 36 63 38 64 37 65 56 66
REMARK SMILES IDX 57 67 61 68 58 69 60 70 59 71 46 72 47 73 51 74 48 75 50 76
REMARK SMILES IDX 49 77
REMARK H PARENT 15 7 22 26 66 45 44 56
REMARK Flexibility Score: inf
ROOT
ATOM      1  C   UNL A   1      37.264  21.965  25.750  1.00  0.00     0.002 C 
ENDROOT
BRANCH   1   2
ATOM      2  C   UNL A   1      37.190  23.455  25.393  1.00  0.00     0.021 C 
BRANCH   2   3
ATOM      3  C   UNL A   1      35.852  23.886  24.785  1.00  0.00     0.116 C 
BRANCH   3   4
ATOM      4  N   UNL A   1      34.746  23.445  25.611  1.00  0.00    -0.355 N 
ATOM      5  C   UNL A   1      33.758  22.541  25.357  1.00  0.00     0.230 C 
ATOM      6  O   UNL A   1      32.908  22.375  26.237  1.00  0.00    -0.274 OA
ATOM      7  H   UNL A   1      34.701  23.867  26.499  1.00  0.00     0.163 HD
BRANCH   5   8
ATOM      8  C   UNL A   1      33.781  21.674  24.113  1.00  0.00     0.179 C 
BRANCH   8   9
ATOM      9  S   UNL A   1      32.528  22.074  22.876  1.00  0.00    -0.055 SA
BRANCH   9  10
ATOM     10  C   UNL A   1      32.716  23.783  22.666  1.00  0.00     0.286 A 
ATOM     11  C   UNL A   1      32.500  25.859  22.709  1.00  0.00     0.204 A 
ATOM     12  N   UNL A   1      33.511  25.686  21.850  1.00  0.00    -0.056 NA
ATOM     13  N   UNL A   1      31.986  24.707  23.243  1.00  0.00    -0.181 NA
ATOM     14  O   UNL A   1      33.672  24.302  21.835  1.00  0.00    -0.327 OA
BRANCH  11  15
ATOM     15  C   UNL A   1      31.910  27.162  23.010  1.00  0.00     0.036 A 
ATOM     16  C   UNL A   1      33.652  27.857  24.823  1.00  0.00     0.046 C 
ATOM     17  C   UNL A   1      32.431  28.075  23.991  1.00  0.00    -0.029 A 
ATOM     18  C   UNL A   1      31.653  29.219  24.046  1.00  0.00     0.069 A 
ATOM     19  S   UNL A   1      30.343  29.196  22.947  1.00  0.00    -0.151 S 
ATOM     20  C   UNL A   1      30.795  27.656  22.365  1.00  0.00     0.077 A 
ENDBRANCH  11  15
ENDBRANCH   9  10
ENDBRANCH   8   9
ENDBRANCH   5   8
ENDBRANCH   3   4
ENDBRANCH   2   3
ENDBRANCH   1   2
BRANCH   1  21
ATOM     21  C   UNL A   1      37.396  21.012  24.556  1.00  0.00     0.002 C 
BRANCH  21  22
ATOM     22  C   UNL A   1      38.201  19.739  24.827  1.00  0.00     0.021 C 
BRANCH  22  23
ATOM     23  C   UNL A   1      39.097  19.799  26.060  1.00  0.00     0.116 C 
BRANCH  23  24
ATOM     24  N   UNL A   1      40.360  19.109  25.857  1.00  0.00    -0.352 N 
ATOM     25  C   UNL A   1      41.639  19.595  25.955  1.00  0.00     0.251 C 
ATOM     26  H   UNL A   1      40.287  18.158  25.615  1.00  0.00     0.163 HD
ATOM     27  O   UNL A   1      42.589  18.909  25.581  1.00  0.00    -0.269 OA
BRANCH  25  28
ATOM     28  C   UNL A   1      41.882  20.951  26.492  1.00  0.00     0.039 A 
ATOM     29  C   UNL A   1      41.791  21.157  27.871  1.00  0.00     0.014 A 
ATOM     30  C   UNL A   1      42.171  22.022  25.641  1.00  0.00     0.014 A 
ATOM     31  C   UNL A   1      42.032  22.426  28.402  1.00  0.00     0.010 A 
ATOM     32  C   UNL A   1      42.480  23.270  26.176  1.00  0.00     0.010 A 
ATOM     33  C   UNL A   1      42.400  23.488  27.561  1.00  0.00    -0.014 A 
BRANCH  33  34
ATOM     34  C   UNL A   1      42.671  24.841  28.106  1.00  0.00     0.031 A 
ATOM     35  C   UNL A   1      44.062  25.210  28.550  1.00  0.00     0.074 A 
ATOM     36  C   UNL A   1      41.663  25.721  28.253  1.00  0.00     0.049 A 
ATOM     37  N   UNL A   1      44.487  26.320  29.098  1.00  0.00    -0.248 NA
ATOM     38  C   UNL A   1      45.105  24.186  28.378  1.00  0.00     0.031 C 
ATOM     39  C   UNL A   1      40.264  25.477  27.898  1.00  0.00     0.029 A 
ATOM     40  N   UNL A   1      41.661  27.001  28.749  1.00  0.00    -0.354 N 
ATOM     41  C   UNL A   1      45.837  26.120  29.356  1.00  0.00     0.074 A 
ATOM     42  C   UNL A   1      46.149  24.767  28.950  1.00  0.00     0.031 C 
ATOM     43  C   UNL A   1      39.545  26.580  28.162  1.00  0.00     0.029 A 
ATOM     44  C   UNL A   1      40.423  27.595  28.737  1.00  0.00     0.049 A 
ATOM     45  H   UNL A   1      42.472  27.451  29.082  1.00  0.00     0.167 HD
ATOM     46  C   UNL A   1      46.744  26.988  29.867  1.00  0.00     0.031 A 
ATOM     47  C   UNL A   1      40.038  28.820  29.141  1.00  0.00     0.031 A 
ATOM     48  C   UNL A   1      46.440  28.339  30.256  1.00  0.00     0.049 A 
ATOM     49  C   UNL A   1      41.063  29.768  29.698  1.00  0.00     0.074 A 
ATOM     50  C   UNL A   1      47.300  29.312  30.736  1.00  0.00     0.029 A 
ATOM     51  N   UNL A   1      45.178  28.908  30.206  1.00  0.00    -0.354 N 
ATOM     52  N   UNL A   1      42.348  29.583  29.880  1.00  0.00    -0.248 NA
ATOM     53  C   UNL A   1      40.585  31.102  30.087  1.00  0.00     0.031 C 
ATOM     54  C   UNL A   1      46.549  30.458  31.015  1.00  0.00     0.029 A 
ATOM     55  C   UNL A   1      45.232  30.215  30.660  1.00  0.00     0.049 A 
ATOM     56  H   UNL A   1      44.363  28.451  29.894  1.00  0.00     0.167 HD
ATOM     57  C   UNL A   1      42.837  30.786  30.373  1.00  0.00     0.074 A 
ATOM     58  C   UNL A   1      41.713  31.696  30.450  1.00  0.00     0.031 C 
ATOM     59  C   UNL A   1      44.106  31.109  30.726  1.00  0.00     0.031 A 
BRANCH  46  60
ATOM     60  C   UNL A   1      48.152  26.490  30.039  1.00  0.00    -0.014 A 
ATOM     61  C   UNL A   1      49.115  26.668  29.032  1.00  0.00     0.009 A 
ATOM     62  C   UNL A   1      48.526  25.850  31.229  1.00  0.00     0.009 A 
ATOM     63  C   UNL A   1      50.411  26.178  29.198  1.00  0.00     0.001 A 
ATOM     64  C   UNL A   1      49.832  25.387  31.405  1.00  0.00     0.001 A 
ATOM     65  C   UNL A   1      50.770  25.541  30.385  1.00  0.00     0.000 A 
ENDBRANCH  46  60
BRANCH  47  66
ATOM     66  C   UNL A   1      38.618  29.234  29.007  1.00  0.00    -0.014 A 
ATOM     67  C   UNL A   1      37.746  29.142  30.104  1.00  0.00     0.009 A 
ATOM     68  C   UNL A   1      38.125  29.717  27.786  1.00  0.00     0.009 A 
ATOM     69  C   UNL A   1      36.403  29.499  29.972  1.00  0.00     0.001 A 
ATOM     70  C   UNL A   1      36.787  30.100  27.665  1.00  0.00     0.001 A 
ATOM     71  C   UNL A   1      35.926  29.983  28.755  1.00  0.00     0.000 A 
ENDBRANCH  47  66
BRANCH  59  72
ATOM     72  C   UNL A   1      44.351  32.519  31.183  1.00  0.00    -0.014 A 
ATOM     73  C   UNL A   1      44.305  32.868  32.541  1.00  0.00     0.009 A 
ATOM     74  C   UNL A   1      44.668  33.506  30.236  1.00  0.00     0.009 A 
ATOM     75  C   UNL A   1      44.532  34.187  32.939  1.00  0.00     0.001 A 
ATOM     76  C   UNL A   1      44.923  34.818  30.639  1.00  0.00     0.001 A 
ATOM     77  C   UNL A   1      44.845  35.159  31.989  1.00  0.00     0.000 A 
ENDBRANCH  59  72
ENDBRANCH  33  34
ENDBRANCH  25  28
ENDBRANCH  23  24
ENDBRANCH  22  23
ENDBRANCH  21  22
ENDBRANCH   1  21
TORSDOF 16
ENDMDL
MODEL 3
REMARK VINA RESULT:      -9.7      2.497      7.836
REMARK SMILES Cc1cscc1-c1noc(SCC(=O)NCCCCCCNC(=O)c2ccc(-c3c4nc(c(-c5ccccc5)c5ccc([nH]5)c(-c5ccccc5)c5nc(c(-c6ccccc6)c6ccc3[nH]6)C=C5)C=C4)cc2)n1
REMARK SMILES IDX 18 1 17 2 16 3 15 4 13 5 14 6 12 8 11 9 10 10 7 11 8 12
REMARK SMILES IDX 73 13 9 14 6 15 1 16 2 17 3 18 4 19 5 20 19 21 20 22 21 23
REMARK SMILES IDX 22 24 23 25 24 27 25 28 26 29 72 30 27 31 71 32 28 33 29 34
REMARK SMILES IDX 30 35 65 36 31 37 70 38 64 39 66 40 32 41 69 42 63 43 62 44
REMARK SMILES IDX 33 46 55 47 40 48 54 49 41 50 44 51 53 52 67 53 42 54 43 55
REMARK SMILES IDX 52 57 68 58 45 59 34 60 35 61 39 62 36 63 38 64 37 65 56 66
REMARK SMILES IDX 57 67 61 68 58 69 60 70 59 71 46 72 47 73 51 74 48 75 50 76
REMARK SMILES IDX 49 77
REMARK H PARENT 15 7 22 26 66 45 44 56
REMARK Flexibility Score: inf
ROOT
ATOM      1  C   UNL A   1      31.294  25.498  26.232  1.00  0.00     0.002 C 
ENDROOT
BRANCH   1   2
ATOM      2  C   UNL A   1      31.543  24.041  26.646  1.00  0.00     0.021 C 
BRANCH   2   3
ATOM      3  C   UNL A   1      30.860  23.011  25.743  1.00  0.00     0.116 C 
BRANCH   3   4
ATOM      4  N   UNL A   1      31.404  21.687  25.969  1.00  0.00    -0.355 N 
ATOM      5  C   UNL A   1      32.403  21.019  25.326  1.00  0.00     0.230 C 
ATOM      6  O   UNL A   1      32.648  19.871  25.706  1.00  0.00    -0.274 OA
ATOM      7  H   UNL A   1      30.984  21.189  26.707  1.00  0.00     0.163 HD
BRANCH   5   8
ATOM      8  C   UNL A   1      33.270  21.704  24.287  1.00  0.00     0.179 C 
BRANCH   8   9
ATOM      9  S   UNL A   1      32.542  21.825  22.639  1.00  0.00    -0.055 SA
BRANCH   9  10
ATOM     10  C   UNL A   1      32.826  23.477  22.204  1.00  0.00     0.286 A 
ATOM     11  C   UNL A   1      32.992  25.557  22.173  1.00  0.00     0.204 A 
ATOM     12  N   UNL A   1      33.268  25.222  20.907  1.00  0.00    -0.056 NA
ATOM     13  N   UNL A   1      32.723  24.506  23.009  1.00  0.00    -0.181 NA
ATOM     14  O   UNL A   1      33.178  23.831  20.929  1.00  0.00    -0.327 OA
BRANCH  11  15
ATOM     15  C   UNL A   1      32.896  26.939  22.639  1.00  0.00     0.036 A 
ATOM     16  C   UNL A   1      30.290  27.032  22.730  1.00  0.00     0.046 C 
ATOM     17  C   UNL A   1      31.654  27.623  22.883  1.00  0.00    -0.029 A 
ATOM     18  C   UNL A   1      31.892  28.917  23.311  1.00  0.00     0.069 A 
ATOM     19  S   UNL A   1      33.556  29.293  23.424  1.00  0.00    -0.151 S 
ATOM     20  C   UNL A   1      33.995  27.726  22.910  1.00  0.00     0.077 A 
ENDBRANCH  11  15
ENDBRANCH   9  10
ENDBRANCH   8   9
ENDBRANCH   5   8
ENDBRANCH   3   4
ENDBRANCH   2   3
ENDBRANCH   1   2
BRANCH   1  21
ATOM     21  C   UNL A   1      32.547  26.375  26.142  1.00  0.00     0.002 C 
BRANCH  21  22
ATOM     22  C   UNL A   1      32.426  27.752  26.800  1.00  0.00     0.021 C 
BRANCH  22  23
ATOM     23  C   UNL A   1      33.754  28.396  27.182  1.00  0.00     0.116 C 
BRANCH  23  24
ATOM     24  N   UNL A   1      33.607  29.802  27.522  1.00  0.00    -0.352 N 
ATOM     25  C   UNL A   1      34.495  30.641  28.146  1.00  0.00     0.251 C 
ATOM     26  H   UNL A   1      32.747  30.210  27.270  1.00  0.00     0.163 HD
ATOM     27  O   UNL A   1      34.135  31.760  28.508  1.00  0.00    -0.269 OA
BRANCH  25  28
ATOM     28  C   UNL A   1      35.882  30.199  28.403  1.00  0.00     0.039 A 
ATOM     29  C   UNL A   1      36.210  29.708  29.669  1.00  0.00     0.014 A 
ATOM     30  C   UNL A   1      36.863  30.292  27.411  1.00  0.00     0.014 A 
ATOM     31  C   UNL A   1      37.511  29.270  29.929  1.00  0.00     0.010 A 
ATOM     32  C   UNL A   1      38.140  29.791  27.649  1.00  0.00     0.010 A 
ATOM     33  C   UNL A   1      38.481  29.287  28.915  1.00  0.00    -0.014 A 
BRANCH  33  34
ATOM     34  C   UNL A   1      39.865  28.816  29.167  1.00  0.00     0.031 A 
ATOM     35  C   UNL A   1      40.864  29.729  29.826  1.00  0.00     0.074 A 
ATOM     36  C   UNL A   1      40.242  27.589  28.759  1.00  0.00     0.049 A 
ATOM     37  N   UNL A   1      42.130  29.519  30.084  1.00  0.00    -0.248 NA
ATOM     38  C   UNL A   1      40.382  31.061  30.222  1.00  0.00     0.031 C 
ATOM     39  C   UNL A   1      39.383  26.620  28.075  1.00  0.00     0.029 A 
ATOM     40  N   UNL A   1      41.453  26.951  28.855  1.00  0.00    -0.354 N 
ATOM     41  C   UNL A   1      42.599  30.698  30.651  1.00  0.00     0.074 A 
ATOM     42  C   UNL A   1      41.496  31.633  30.654  1.00  0.00     0.031 C 
ATOM     43  C   UNL A   1      40.087  25.501  27.839  1.00  0.00     0.029 A 
ATOM     44  C   UNL A   1      41.453  25.685  28.320  1.00  0.00     0.049 A 
ATOM     45  H   UNL A   1      42.247  27.361  29.268  1.00  0.00     0.167 HD
ATOM     46  C   UNL A   1      43.831  30.974  31.143  1.00  0.00     0.031 A 
ATOM     47  C   UNL A   1      42.441  24.776  28.229  1.00  0.00     0.031 A 
ATOM     48  C   UNL A   1      44.925  30.040  31.157  1.00  0.00     0.049 A 
ATOM     49  C   UNL A   1      43.797  25.102  28.789  1.00  0.00     0.074 A 
ATOM     50  C   UNL A   1      46.195  30.208  31.680  1.00  0.00     0.029 A 
ATOM     51  N   UNL A   1      44.875  28.762  30.626  1.00  0.00    -0.354 N 
ATOM     52  N   UNL A   1      44.208  26.200  29.375  1.00  0.00    -0.248 NA
ATOM     53  C   UNL A   1      44.821  24.052  28.690  1.00  0.00     0.031 C 
ATOM     54  C   UNL A   1      46.928  29.043  31.428  1.00  0.00     0.029 A 
ATOM     55  C   UNL A   1      46.097  28.133  30.794  1.00  0.00     0.049 A 
ATOM     56  H   UNL A   1      44.088  28.359  30.192  1.00  0.00     0.167 HD
ATOM     57  C   UNL A   1      45.525  25.962  29.744  1.00  0.00     0.074 A 
ATOM     58  C   UNL A   1      45.840  24.612  29.326  1.00  0.00     0.031 C 
ATOM     59  C   UNL A   1      46.394  26.788  30.377  1.00  0.00     0.031 A 
BRANCH  46  60
ATOM     60  C   UNL A   1      44.056  32.351  31.702  1.00  0.00    -0.014 A 
ATOM     61  C   UNL A   1      43.820  32.635  33.057  1.00  0.00     0.009 A 
ATOM     62  C   UNL A   1      44.525  33.376  30.867  1.00  0.00     0.009 A 
ATOM     63  C   UNL A   1      44.011  33.926  33.554  1.00  0.00     0.001 A 
ATOM     64  C   UNL A   1      44.743  34.659  31.373  1.00  0.00     0.001 A 
ATOM     65  C   UNL A   1      44.475  34.936  32.713  1.00  0.00     0.000 A 
ENDBRANCH  46  60
BRANCH  47  66
ATOM     66  C   UNL A   1      42.177  23.453  27.607  1.00  0.00    -0.014 A 
ATOM     67  C   UNL A   1      42.564  23.203  26.281  1.00  0.00     0.009 A 
ATOM     68  C   UNL A   1      41.535  22.437  28.329  1.00  0.00     0.009 A 
ATOM     69  C   UNL A   1      42.288  21.972  25.682  1.00  0.00     0.001 A 
ATOM     70  C   UNL A   1      41.284  21.196  27.737  1.00  0.00     0.001 A 
ATOM     71  C   UNL A   1      41.653  20.969  26.412  1.00  0.00     0.000 A 
ENDBRANCH  47  66
BRANCH  59  72
ATOM     72  C   UNL A   1      47.754  26.235  30.697  1.00  0.00    -0.014 A 
ATOM     73  C   UNL A   1      48.053  25.715  31.966  1.00  0.00     0.009 A 
ATOM     74  C   UNL A   1      48.741  26.205  29.699  1.00  0.00     0.009 A 
ATOM     75  C   UNL A   1      49.327  25.212  32.240  1.00  0.00     0.001 A 
ATOM     76  C   UNL A   1      50.003  25.675  29.967  1.00  0.00     0.001 A 
ATOM     77  C   UNL A   1      50.298  25.188  31.239  1.00  0.00     0.000 A 
ENDBRANCH  59  72
ENDBRANCH  33  34
ENDBRANCH  25  28
ENDBRANCH  23  24
ENDBRANCH  22  23
ENDBRANCH  21  22
ENDBRANCH   1  21
TORSDOF 16
ENDMDL
