MODEL 1
REMARK VINA RESULT:     -11.6      0.000      0.000
REMARK SMILES CC1(C)[C@@](C)(C(=O)NCCCCCCNC(=O)c2ccc(-c3c4nc(c(-c5ccccc5)c5ccc([nH]5)c(-c5ccccc5)c5nc(c(-c6ccccc6)c6ccc3[nH]6)C=C5)C=C4)cc2)CC[C@]1(C)C(=O)Nc1ccc(Cl)cc1Cl
REMARK SMILES IDX 11 1 10 2 9 3 8 4 6 5 7 6 4 8 1 9 2 10 3 11 68 12 5 13 66 14
REMARK SMILES IDX 67 15 69 16 70 17 71 18 72 19 73 21 74 22 79 23 75 24 78 25
REMARK SMILES IDX 80 26 76 27 77 28 12 29 13 30 14 31 15 32 16 33 17 35 18 36
REMARK SMILES IDX 19 37 65 38 20 39 64 40 21 41 22 42 23 43 58 44 24 45 63 46
REMARK SMILES IDX 57 47 59 48 25 49 62 50 56 51 55 52 26 54 48 55 33 56 47 57
REMARK SMILES IDX 34 58 37 59 46 60 60 61 35 62 36 63 45 65 61 66 38 67 27 68
REMARK SMILES IDX 28 69 32 70 29 71 31 72 30 73 49 74 50 75 54 76 51 77 53 78
REMARK SMILES IDX 52 79 39 80 40 81 44 82 41 83 43 84 42 85
REMARK H PARENT 8 7 72 20 15 34 59 53 37 64
REMARK Flexibility Score: inf
ROOT
ATOM      1  C   UNL A   1      33.931  31.942  28.362  1.00  0.00     0.002 C 
ENDROOT
BRANCH   1   2
ATOM      2  C   UNL A   1      34.957  31.081  27.632  1.00  0.00     0.021 C 
BRANCH   2   3
ATOM      3  C   UNL A   1      34.441  29.712  27.143  1.00  0.00     0.116 C 
BRANCH   3   4
ATOM      4  N   UNL A   1      34.015  29.751  25.748  1.00  0.00    -0.356 N 
ATOM      5  C   UNL A   1      33.122  29.054  24.984  1.00  0.00     0.226 C 
ATOM      6  O   UNL A   1      33.141  29.356  23.783  1.00  0.00    -0.274 OA
ATOM      7  H   UNL A   1      34.484  30.448  25.233  1.00  0.00     0.163 HD
BRANCH   5   8
ATOM      8  C   UNL A   1      32.099  27.988  25.525  1.00  0.00     0.052 C 
ATOM      9  C   UNL A   1      33.939  26.256  25.768  1.00  0.00     0.013 C 
ATOM     10  C   UNL A   1      32.487  26.449  25.432  1.00  0.00    -0.007 C 
ATOM     11  C   UNL A   1      31.588  25.647  26.411  1.00  0.00     0.013 C 
ATOM     12  C   UNL A   1      32.221  25.986  23.947  1.00  0.00     0.053 C 
ATOM     13  C   UNL A   1      31.683  28.470  26.937  1.00  0.00     0.022 C 
ATOM     14  C   UNL A   1      30.831  27.993  24.628  1.00  0.00     0.018 C 
ATOM     15  C   UNL A   1      30.984  26.875  23.579  1.00  0.00     0.018 C 
ATOM     16  C   UNL A   1      33.319  26.335  22.918  1.00  0.00     0.022 C 
BRANCH  12  17
ATOM     17  C   UNL A   1      31.901  24.442  23.757  1.00  0.00     0.230 C 
ATOM     18  O   UNL A   1      30.869  24.109  23.156  1.00  0.00    -0.274 OA
ATOM     19  N   UNL A   1      32.667  23.372  24.178  1.00  0.00    -0.324 N 
ATOM     20  H   UNL A   1      32.183  22.515  24.144  1.00  0.00     0.170 HD
BRANCH  19  21
ATOM     21  C   UNL A   1      33.990  23.241  24.647  1.00  0.00     0.060 A 
ATOM     22  C   UNL A   1      35.038  23.364  23.729  1.00  0.00     0.029 A 
ATOM     23  C   UNL A   1      34.314  22.908  25.982  1.00  0.00     0.066 A 
ATOM     24  C   UNL A   1      36.370  23.365  24.168  1.00  0.00     0.023 A 
ATOM     25  C   UNL A   1      35.638  23.000  26.435  1.00  0.00     0.043 A 
ATOM     26  Cl  UNL A   1      33.137  22.438  27.151  1.00  0.00    -0.082 Cl
ATOM     27  C   UNL A   1      36.658  23.256  25.526  1.00  0.00     0.042 A 
ATOM     28  Cl  UNL A   1      38.274  23.439  26.085  1.00  0.00    -0.084 Cl
ENDBRANCH  19  21
ENDBRANCH  12  17
ENDBRANCH   5   8
ENDBRANCH   3   4
ENDBRANCH   2   3
ENDBRANCH   1   2
BRANCH   1  29
ATOM     29  C   UNL A   1      34.341  33.400  28.539  1.00  0.00     0.002 C 
BRANCH  29  30
ATOM     30  C   UNL A   1      33.179  34.375  28.747  1.00  0.00     0.021 C 
BRANCH  30  31
ATOM     31  C   UNL A   1      33.596  35.785  29.157  1.00  0.00     0.116 C 
BRANCH  31  32
ATOM     32  N   UNL A   1      32.753  36.306  30.223  1.00  0.00    -0.352 N 
ATOM     33  C   UNL A   1      32.730  35.946  31.546  1.00  0.00     0.251 C 
ATOM     34  H   UNL A   1      32.117  37.009  29.961  1.00  0.00     0.163 HD
ATOM     35  O   UNL A   1      31.806  36.290  32.280  1.00  0.00    -0.269 OA
BRANCH  33  36
ATOM     36  C   UNL A   1      33.831  35.123  32.079  1.00  0.00     0.039 A 
ATOM     37  C   UNL A   1      33.591  33.794  32.433  1.00  0.00     0.014 A 
ATOM     38  C   UNL A   1      35.113  35.670  32.190  1.00  0.00     0.014 A 
ATOM     39  C   UNL A   1      34.657  32.987  32.837  1.00  0.00     0.010 A 
ATOM     40  C   UNL A   1      36.181  34.848  32.522  1.00  0.00     0.010 A 
ATOM     41  C   UNL A   1      35.964  33.499  32.849  1.00  0.00    -0.014 A 
BRANCH  41  42
ATOM     42  C   UNL A   1      37.134  32.661  33.208  1.00  0.00     0.031 A 
ATOM     43  C   UNL A   1      37.853  32.910  34.505  1.00  0.00     0.074 A 
ATOM     44  C   UNL A   1      37.612  31.757  32.332  1.00  0.00     0.049 A 
ATOM     45  N   UNL A   1      38.983  32.411  34.933  1.00  0.00    -0.248 NA
ATOM     46  C   UNL A   1      37.228  33.872  35.430  1.00  0.00     0.031 C 
ATOM     47  C   UNL A   1      37.016  31.432  31.034  1.00  0.00     0.029 A 
ATOM     48  N   UNL A   1      38.727  30.958  32.394  1.00  0.00    -0.354 N 
ATOM     49  C   UNL A   1      39.219  33.018  36.161  1.00  0.00     0.074 A 
ATOM     50  C   UNL A   1      38.139  33.953  36.388  1.00  0.00     0.031 C 
ATOM     51  C   UNL A   1      37.764  30.495  30.429  1.00  0.00     0.029 A 
ATOM     52  C   UNL A   1      38.921  30.194  31.268  1.00  0.00     0.049 A 
ATOM     53  H   UNL A   1      39.332  30.935  33.171  1.00  0.00     0.167 HD
ATOM     54  C   UNL A   1      40.237  32.805  37.027  1.00  0.00     0.031 A 
ATOM     55  C   UNL A   1      39.928  29.363  30.938  1.00  0.00     0.031 A 
ATOM     56  C   UNL A   1      41.304  31.869  36.802  1.00  0.00     0.049 A 
ATOM     57  C   UNL A   1      41.071  29.176  31.899  1.00  0.00     0.074 A 
ATOM     58  C   UNL A   1      42.356  31.545  37.640  1.00  0.00     0.029 A 
ATOM     59  N   UNL A   1      41.456  31.109  35.652  1.00  0.00    -0.354 N 
ATOM     60  N   UNL A   1      41.256  29.718  33.078  1.00  0.00    -0.248 NA
ATOM     61  C   UNL A   1      42.144  28.260  31.485  1.00  0.00     0.031 C 
ATOM     62  C   UNL A   1      43.179  30.633  36.973  1.00  0.00     0.029 A 
ATOM     63  C   UNL A   1      42.601  30.337  35.749  1.00  0.00     0.049 A 
ATOM     64  H   UNL A   1      40.842  31.117  34.883  1.00  0.00     0.167 HD
ATOM     65  C   UNL A   1      42.441  29.181  33.561  1.00  0.00     0.074 A 
ATOM     66  C   UNL A   1      42.931  28.267  32.551  1.00  0.00     0.031 C 
ATOM     67  C   UNL A   1      43.065  29.420  34.741  1.00  0.00     0.031 A 
BRANCH  54  68
ATOM     68  C   UNL A   1      40.251  33.616  38.294  1.00  0.00    -0.014 A 
ATOM     69  C   UNL A   1      39.602  33.166  39.455  1.00  0.00     0.009 A 
ATOM     70  C   UNL A   1      40.954  34.829  38.337  1.00  0.00     0.009 A 
ATOM     71  C   UNL A   1      39.623  33.936  40.621  1.00  0.00     0.001 A 
ATOM     72  C   UNL A   1      41.002  35.580  39.513  1.00  0.00     0.001 A 
ATOM     73  C   UNL A   1      40.327  35.139  40.649  1.00  0.00     0.000 A 
ENDBRANCH  54  68
BRANCH  55  74
ATOM     74  C   UNL A   1      39.908  28.644  29.636  1.00  0.00    -0.014 A 
ATOM     75  C   UNL A   1      39.381  27.346  29.548  1.00  0.00     0.009 A 
ATOM     76  C   UNL A   1      40.425  29.244  28.477  1.00  0.00     0.009 A 
ATOM     77  C   UNL A   1      39.400  26.654  28.336  1.00  0.00     0.001 A 
ATOM     78  C   UNL A   1      40.413  28.561  27.258  1.00  0.00     0.001 A 
ATOM     79  C   UNL A   1      39.910  27.263  27.190  1.00  0.00     0.000 A 
ENDBRANCH  55  74
BRANCH  67  80
ATOM     80  C   UNL A   1      44.318  28.645  35.036  1.00  0.00    -0.014 A 
ATOM     81  C   UNL A   1      45.587  29.150  34.718  1.00  0.00     0.009 A 
ATOM     82  C   UNL A   1      44.224  27.424  35.724  1.00  0.00     0.009 A 
ATOM     83  C   UNL A   1      46.736  28.437  35.067  1.00  0.00     0.001 A 
ATOM     84  C   UNL A   1      45.375  26.728  36.097  1.00  0.00     0.001 A 
ATOM     85  C   UNL A   1      46.630  27.234  35.764  1.00  0.00     0.000 A 
ENDBRANCH  67  80
ENDBRANCH  41  42
ENDBRANCH  33  36
ENDBRANCH  31  32
ENDBRANCH  30  31
ENDBRANCH  29  30
ENDBRANCH   1  29
TORSDOF 15
ENDMDL
MODEL 2
REMARK VINA RESULT:     -11.2      6.150     11.303
REMARK SMILES CC1(C)[C@@](C)(C(=O)NCCCCCCNC(=O)c2ccc(-c3c4nc(c(-c5ccccc5)c5ccc([nH]5)c(-c5ccccc5)c5nc(c(-c6ccccc6)c6ccc3[nH]6)C=C5)C=C4)cc2)CC[C@]1(C)C(=O)Nc1ccc(Cl)cc1Cl
REMARK SMILES IDX 11 1 10 2 9 3 8 4 6 5 7 6 4 8 1 9 2 10 3 11 68 12 5 13 66 14
REMARK SMILES IDX 67 15 69 16 70 17 71 18 72 19 73 21 74 22 79 23 75 24 78 25
REMARK SMILES IDX 80 26 76 27 77 28 12 29 13 30 14 31 15 32 16 33 17 35 18 36
REMARK SMILES IDX 19 37 65 38 20 39 64 40 21 41 22 42 23 43 58 44 24 45 63 46
REMARK SMILES IDX 57 47 59 48 25 49 62 50 56 51 55 52 26 54 48 55 33 56 47 57
REMARK SMILES IDX 34 58 37 59 46 60 60 61 35 62 36 63 45 65 61 66 38 67 27 68
REMARK SMILES IDX 28 69 32 70 29 71 31 72 30 73 49 74 50 75 54 76 51 77 53 78
REMARK SMILES IDX 52 79 39 80 40 81 44 82 41 83 43 84 42 85
REMARK H PARENT 8 7 72 20 15 34 59 53 37 64
REMARK Flexibility Score: inf
ROOT
ATOM      1  C   UNL A   1      39.824  22.292  26.526  1.00  0.00     0.002 C 
ENDROOT
BRANCH   1   2
ATOM      2  C   UNL A   1      38.998  23.525  26.875  1.00  0.00     0.021 C 
BRANCH   2   3
ATOM      3  C   UNL A   1      37.693  23.695  26.070  1.00  0.00     0.116 C 
BRANCH   3   4
ATOM      4  N   UNL A   1      36.657  22.762  26.501  1.00  0.00    -0.356 N 
ATOM      5  C   UNL A   1      35.455  22.344  26.002  1.00  0.00     0.226 C 
ATOM      6  O   UNL A   1      34.830  21.589  26.757  1.00  0.00    -0.274 OA
ATOM      7  H   UNL A   1      36.876  22.329  27.358  1.00  0.00     0.163 HD
BRANCH   5   8
ATOM      8  C   UNL A   1      34.882  22.713  24.584  1.00  0.00     0.052 C 
ATOM      9  C   UNL A   1      34.629  25.149  25.251  1.00  0.00     0.013 C 
ATOM     10  C   UNL A   1      34.023  24.042  24.434  1.00  0.00    -0.007 C 
ATOM     11  C   UNL A   1      33.969  24.437  22.934  1.00  0.00     0.013 C 
ATOM     12  C   UNL A   1      32.571  23.726  24.966  1.00  0.00     0.053 C 
ATOM     13  C   UNL A   1      36.069  22.590  23.596  1.00  0.00     0.022 C 
ATOM     14  C   UNL A   1      33.812  21.663  24.175  1.00  0.00     0.018 C 
ATOM     15  C   UNL A   1      32.427  22.222  24.550  1.00  0.00     0.018 C 
ATOM     16  C   UNL A   1      32.384  23.765  26.500  1.00  0.00     0.022 C 
BRANCH  12  17
ATOM     17  C   UNL A   1      31.407  24.612  24.348  1.00  0.00     0.230 C 
ATOM     18  O   UNL A   1      30.452  24.049  23.791  1.00  0.00    -0.274 OA
ATOM     19  N   UNL A   1      31.304  25.989  24.366  1.00  0.00    -0.324 N 
ATOM     20  H   UNL A   1      30.619  26.333  23.748  1.00  0.00     0.170 HD
BRANCH  19  21
ATOM     21  C   UNL A   1      31.969  27.009  25.077  1.00  0.00     0.060 A 
ATOM     22  C   UNL A   1      31.659  27.190  26.429  1.00  0.00     0.029 A 
ATOM     23  C   UNL A   1      32.873  27.916  24.478  1.00  0.00     0.066 A 
ATOM     24  C   UNL A   1      32.382  28.107  27.207  1.00  0.00     0.023 A 
ATOM     25  C   UNL A   1      33.657  28.766  25.271  1.00  0.00     0.043 A 
ATOM     26  Cl  UNL A   1      33.128  28.007  22.775  1.00  0.00    -0.082 Cl
ATOM     27  C   UNL A   1      33.423  28.836  26.639  1.00  0.00     0.042 A 
ATOM     28  Cl  UNL A   1      34.428  29.824  27.627  1.00  0.00    -0.084 Cl
ENDBRANCH  19  21
ENDBRANCH  12  17
ENDBRANCH   5   8
ENDBRANCH   3   4
ENDBRANCH   2   3
ENDBRANCH   1   2
BRANCH   1  29
ATOM     29  C   UNL A   1      40.775  21.836  27.627  1.00  0.00     0.002 C 
BRANCH  29  30
ATOM     30  C   UNL A   1      41.301  20.406  27.473  1.00  0.00     0.021 C 
BRANCH  30  31
ATOM     31  C   UNL A   1      41.169  19.827  26.067  1.00  0.00     0.116 C 
BRANCH  31  32
ATOM     32  N   UNL A   1      42.337  19.041  25.698  1.00  0.00    -0.352 N 
ATOM     33  C   UNL A   1      43.567  19.483  25.282  1.00  0.00     0.251 C 
ATOM     34  H   UNL A   1      42.232  18.064  25.754  1.00  0.00     0.163 HD
ATOM     35  O   UNL A   1      44.378  18.713  24.772  1.00  0.00    -0.269 OA
BRANCH  33  36
ATOM     36  C   UNL A   1      43.904  20.909  25.446  1.00  0.00     0.039 A 
ATOM     37  C   UNL A   1      43.587  21.815  24.432  1.00  0.00     0.014 A 
ATOM     38  C   UNL A   1      44.503  21.346  26.631  1.00  0.00     0.014 A 
ATOM     39  C   UNL A   1      43.809  23.178  24.635  1.00  0.00     0.010 A 
ATOM     40  C   UNL A   1      44.658  22.707  26.858  1.00  0.00     0.010 A 
ATOM     41  C   UNL A   1      44.312  23.637  25.862  1.00  0.00    -0.014 A 
BRANCH  41  42
ATOM     42  C   UNL A   1      44.505  25.080  26.145  1.00  0.00     0.031 A 
ATOM     43  C   UNL A   1      45.877  25.683  26.021  1.00  0.00     0.074 A 
ATOM     44  C   UNL A   1      43.480  25.820  26.611  1.00  0.00     0.049 A 
ATOM     45  N   UNL A   1      46.293  26.870  26.376  1.00  0.00    -0.248 NA
ATOM     46  C   UNL A   1      46.924  24.821  25.447  1.00  0.00     0.031 C 
ATOM     47  C   UNL A   1      42.104  25.349  26.791  1.00  0.00     0.029 A 
ATOM     48  N   UNL A   1      43.443  27.123  27.040  1.00  0.00    -0.354 N 
ATOM     49  C   UNL A   1      47.654  26.888  26.095  1.00  0.00     0.074 A 
ATOM     50  C   UNL A   1      48.001  25.581  25.583  1.00  0.00     0.031 C 
ATOM     51  C   UNL A   1      41.358  26.352  27.282  1.00  0.00     0.029 A 
ATOM     52  C   UNL A   1      42.211  27.517  27.503  1.00  0.00     0.049 A 
ATOM     53  H   UNL A   1      44.226  27.720  27.018  1.00  0.00     0.167 HD
ATOM     54  C   UNL A   1      48.533  27.908  26.238  1.00  0.00     0.031 A 
ATOM     55  C   UNL A   1      41.817  28.676  28.065  1.00  0.00     0.031 A 
ATOM     56  C   UNL A   1      48.183  29.208  26.739  1.00  0.00     0.049 A 
ATOM     57  C   UNL A   1      42.823  29.779  28.254  1.00  0.00     0.074 A 
ATOM     58  C   UNL A   1      48.990  30.324  26.877  1.00  0.00     0.029 A 
ATOM     59  N   UNL A   1      46.921  29.567  27.188  1.00  0.00    -0.354 N 
ATOM     60  N   UNL A   1      44.095  29.800  27.938  1.00  0.00    -0.248 NA
ATOM     61  C   UNL A   1      42.338  31.020  28.876  1.00  0.00     0.031 C 
ATOM     62  C   UNL A   1      48.232  31.340  27.466  1.00  0.00     0.029 A 
ATOM     63  C   UNL A   1      46.935  30.879  27.630  1.00  0.00     0.049 A 
ATOM     64  H   UNL A   1      46.133  28.977  27.193  1.00  0.00     0.167 HD
ATOM     65  C   UNL A   1      44.552  31.065  28.285  1.00  0.00     0.074 A 
ATOM     66  C   UNL A   1      43.420  31.785  28.831  1.00  0.00     0.031 C 
ATOM     67  C   UNL A   1      45.797  31.585  28.156  1.00  0.00     0.031 A 
BRANCH  54  68
ATOM     68  C   UNL A   1      49.966  27.648  25.861  1.00  0.00    -0.014 A 
ATOM     69  C   UNL A   1      50.897  27.189  26.807  1.00  0.00     0.009 A 
ATOM     70  C   UNL A   1      50.381  27.830  24.533  1.00  0.00     0.009 A 
ATOM     71  C   UNL A   1      52.224  26.959  26.438  1.00  0.00     0.001 A 
ATOM     72  C   UNL A   1      51.700  27.567  24.160  1.00  0.00     0.001 A 
ATOM     73  C   UNL A   1      52.622  27.142  25.115  1.00  0.00     0.000 A 
ENDBRANCH  54  68
BRANCH  55  74
ATOM     74  C   UNL A   1      40.405  28.857  28.495  1.00  0.00    -0.014 A 
ATOM     75  C   UNL A   1      40.015  28.547  29.807  1.00  0.00     0.009 A 
ATOM     76  C   UNL A   1      39.436  29.328  27.595  1.00  0.00     0.009 A 
ATOM     77  C   UNL A   1      38.682  28.676  30.200  1.00  0.00     0.001 A 
ATOM     78  C   UNL A   1      38.108  29.488  28.001  1.00  0.00     0.001 A 
ATOM     79  C   UNL A   1      37.730  29.152  29.299  1.00  0.00     0.000 A 
ENDBRANCH  55  74
BRANCH  67  80
ATOM     80  C   UNL A   1      45.999  33.019  28.560  1.00  0.00    -0.014 A 
ATOM     81  C   UNL A   1      46.413  33.366  29.853  1.00  0.00     0.009 A 
ATOM     82  C   UNL A   1      45.852  34.030  27.596  1.00  0.00     0.009 A 
ATOM     83  C   UNL A   1      46.658  34.702  30.179  1.00  0.00     0.001 A 
ATOM     84  C   UNL A   1      46.126  35.361  27.916  1.00  0.00     0.001 A 
ATOM     85  C   UNL A   1      46.524  35.696  29.209  1.00  0.00     0.000 A 
ENDBRANCH  67  80
ENDBRANCH  41  42
ENDBRANCH  33  36
ENDBRANCH  31  32
ENDBRANCH  30  31
ENDBRANCH  29  30
ENDBRANCH   1  29
TORSDOF 15
ENDMDL
MODEL 3
REMARK VINA RESULT:     -11.2      1.487      2.154
REMARK SMILES CC1(C)[C@@](C)(C(=O)NCCCCCCNC(=O)c2ccc(-c3c4nc(c(-c5ccccc5)c5ccc([nH]5)c(-c5ccccc5)c5nc(c(-c6ccccc6)c6ccc3[nH]6)C=C5)C=C4)cc2)CC[C@]1(C)C(=O)Nc1ccc(Cl)cc1Cl
REMARK SMILES IDX 11 1 10 2 9 3 8 4 6 5 7 6 4 8 1 9 2 10 3 11 68 12 5 13 66 14
REMARK SMILES IDX 67 15 69 16 70 17 71 18 72 19 73 21 74 22 79 23 75 24 78 25
REMARK SMILES IDX 80 26 76 27 77 28 12 29 13 30 14 31 15 32 16 33 17 35 18 36
REMARK SMILES IDX 19 37 65 38 20 39 64 40 21 41 22 42 23 43 58 44 24 45 63 46
REMARK SMILES IDX 57 47 59 48 25 49 62 50 56 51 55 52 26 54 48 55 33 56 47 57
REMARK SMILES IDX 34 58 37 59 46 60 60 61 35 62 36 63 45 65 61 66 38 67 27 68
REMARK SMILES IDX 28 69 32 70 29 71 31 72 30 73 49 74 50 75 54 76 51 77 53 78
REMARK SMILES IDX 52 79 39 80 40 81 44 82 41 83 43 84 42 85
REMARK H PARENT 8 7 72 20 15 34 59 53 37 64
REMARK Flexibility Score: inf
ROOT
ATOM      1  C   UNL A   1      35.220  31.105  28.396  1.00  0.00     0.002 C 
ENDROOT
BRANCH   1   2
ATOM      2  C   UNL A   1      35.667  30.049  27.390  1.00  0.00     0.021 C 
BRANCH   2   3
ATOM      3  C   UNL A   1      34.577  29.046  26.959  1.00  0.00     0.116 C 
BRANCH   3   4
ATOM      4  N   UNL A   1      34.159  29.251  25.575  1.00  0.00    -0.356 N 
ATOM      5  C   UNL A   1      33.155  28.773  24.782  1.00  0.00     0.226 C 
ATOM      6  O   UNL A   1      33.222  29.144  23.603  1.00  0.00    -0.274 OA
ATOM      7  H   UNL A   1      34.741  29.887  25.099  1.00  0.00     0.163 HD
BRANCH   5   8
ATOM      8  C   UNL A   1      31.963  27.869  25.269  1.00  0.00     0.052 C 
ATOM      9  C   UNL A   1      33.549  25.962  25.810  1.00  0.00     0.013 C 
ATOM     10  C   UNL A   1      32.171  26.294  25.308  1.00  0.00    -0.007 C 
ATOM     11  C   UNL A   1      31.089  25.668  26.227  1.00  0.00     0.013 C 
ATOM     12  C   UNL A   1      32.003  25.761  23.831  1.00  0.00     0.053 C 
ATOM     13  C   UNL A   1      31.467  28.492  26.597  1.00  0.00     0.022 C 
ATOM     14  C   UNL A   1      30.802  27.955  24.240  1.00  0.00     0.018 C 
ATOM     15  C   UNL A   1      30.925  26.756  23.280  1.00  0.00     0.018 C 
ATOM     16  C   UNL A   1      33.235  25.912  22.909  1.00  0.00     0.022 C 
BRANCH  12  17
ATOM     17  C   UNL A   1      31.523  24.254  23.697  1.00  0.00     0.230 C 
ATOM     18  O   UNL A   1      30.431  24.014  23.159  1.00  0.00    -0.274 OA
ATOM     19  N   UNL A   1      32.201  23.120  24.103  1.00  0.00    -0.324 N 
ATOM     20  H   UNL A   1      31.634  22.316  24.116  1.00  0.00     0.170 HD
BRANCH  19  21
ATOM     21  C   UNL A   1      33.529  22.867  24.504  1.00  0.00     0.060 A 
ATOM     22  C   UNL A   1      34.509  22.730  23.516  1.00  0.00     0.029 A 
ATOM     23  C   UNL A   1      33.910  22.660  25.850  1.00  0.00     0.066 A 
ATOM     24  C   UNL A   1      35.860  22.601  23.869  1.00  0.00     0.023 A 
ATOM     25  C   UNL A   1      35.266  22.623  26.205  1.00  0.00     0.043 A 
ATOM     26  Cl  UNL A   1      32.777  22.504  27.140  1.00  0.00    -0.082 Cl
ATOM     27  C   UNL A   1      36.236  22.621  25.210  1.00  0.00     0.042 A 
ATOM     28  Cl  UNL A   1      37.902  22.647  25.641  1.00  0.00    -0.084 Cl
ENDBRANCH  19  21
ENDBRANCH  12  17
ENDBRANCH   5   8
ENDBRANCH   3   4
ENDBRANCH   2   3
ENDBRANCH   1   2
BRANCH   1  29
ATOM     29  C   UNL A   1      35.623  32.531  28.036  1.00  0.00     0.002 C 
BRANCH  29  30
ATOM     30  C   UNL A   1      34.474  33.542  28.027  1.00  0.00     0.021 C 
BRANCH  30  31
ATOM     31  C   UNL A   1      34.823  34.910  28.609  1.00  0.00     0.116 C 
BRANCH  31  32
ATOM     32  N   UNL A   1      33.973  35.245  29.741  1.00  0.00    -0.352 N 
ATOM     33  C   UNL A   1      33.996  34.726  31.010  1.00  0.00     0.251 C 
ATOM     34  H   UNL A   1      33.292  35.936  29.575  1.00  0.00     0.163 HD
ATOM     35  O   UNL A   1      33.068  34.922  31.792  1.00  0.00    -0.269 OA
BRANCH  33  36
ATOM     36  C   UNL A   1      35.152  33.911  31.424  1.00  0.00     0.039 A 
ATOM     37  C   UNL A   1      34.944  32.637  31.958  1.00  0.00     0.014 A 
ATOM     38  C   UNL A   1      36.447  34.406  31.244  1.00  0.00     0.014 A 
ATOM     39  C   UNL A   1      36.043  31.827  32.250  1.00  0.00     0.010 A 
ATOM     40  C   UNL A   1      37.535  33.573  31.468  1.00  0.00     0.010 A 
ATOM     41  C   UNL A   1      37.344  32.275  31.973  1.00  0.00    -0.014 A 
BRANCH  41  42
ATOM     42  C   UNL A   1      38.537  31.425  32.207  1.00  0.00     0.031 A 
ATOM     43  C   UNL A   1      39.451  31.733  33.360  1.00  0.00     0.074 A 
ATOM     44  C   UNL A   1      38.854  30.451  31.332  1.00  0.00     0.049 A 
ATOM     45  N   UNL A   1      40.622  31.226  33.645  1.00  0.00    -0.248 NA
ATOM     46  C   UNL A   1      38.997  32.771  34.301  1.00  0.00     0.031 C 
ATOM     47  C   UNL A   1      38.059  30.064  30.165  1.00  0.00     0.029 A 
ATOM     48  N   UNL A   1      39.947  29.622  31.278  1.00  0.00    -0.354 N 
ATOM     49  C   UNL A   1      41.057  31.902  34.778  1.00  0.00     0.074 A 
ATOM     50  C   UNL A   1      40.046  32.884  35.103  1.00  0.00     0.031 C 
ATOM     51  C   UNL A   1      38.685  29.067  29.519  1.00  0.00     0.029 A 
ATOM     52  C   UNL A   1      39.949  28.782  30.191  1.00  0.00     0.049 A 
ATOM     53  H   UNL A   1      40.663  29.630  31.954  1.00  0.00     0.167 HD
ATOM     54  C   UNL A   1      42.191  31.712  35.493  1.00  0.00     0.031 A 
ATOM     55  C   UNL A   1      40.875  27.900  29.769  1.00  0.00     0.031 A 
ATOM     56  C   UNL A   1      43.190  30.729  35.173  1.00  0.00     0.049 A 
ATOM     57  C   UNL A   1      42.147  27.738  30.556  1.00  0.00     0.074 A 
ATOM     58  C   UNL A   1      44.351  30.425  35.862  1.00  0.00     0.029 A 
ATOM     59  N   UNL A   1      43.147  29.893  34.068  1.00  0.00    -0.354 N 
ATOM     60  N   UNL A   1      42.523  28.348  31.654  1.00  0.00    -0.248 NA
ATOM     61  C   UNL A   1      43.123  26.763  30.047  1.00  0.00     0.031 C 
ATOM     62  C   UNL A   1      45.041  29.446  35.142  1.00  0.00     0.029 A 
ATOM     63  C   UNL A   1      44.275  29.091  34.042  1.00  0.00     0.049 A 
ATOM     64  H   UNL A   1      42.422  29.872  33.402  1.00  0.00     0.167 HD
ATOM     65  C   UNL A   1      43.756  27.804  31.988  1.00  0.00     0.074 A 
ATOM     66  C   UNL A   1      44.065  26.812  30.979  1.00  0.00     0.031 C 
ATOM     67  C   UNL A   1      44.559  28.098  33.039  1.00  0.00     0.031 A 
BRANCH  54  68
ATOM     68  C   UNL A   1      42.418  32.601  36.685  1.00  0.00    -0.014 A 
ATOM     69  C   UNL A   1      43.011  33.866  36.549  1.00  0.00     0.009 A 
ATOM     70  C   UNL A   1      42.000  32.180  37.957  1.00  0.00     0.009 A 
ATOM     71  C   UNL A   1      43.218  34.674  37.670  1.00  0.00     0.001 A 
ATOM     72  C   UNL A   1      42.177  33.004  39.070  1.00  0.00     0.001 A 
ATOM     73  C   UNL A   1      42.796  34.244  38.927  1.00  0.00     0.000 A 
ENDBRANCH  54  68
BRANCH  55  74
ATOM     74  C   UNL A   1      40.639  27.100  28.538  1.00  0.00    -0.014 A 
ATOM     75  C   UNL A   1      39.856  25.936  28.584  1.00  0.00     0.009 A 
ATOM     76  C   UNL A   1      41.204  27.487  27.312  1.00  0.00     0.009 A 
ATOM     77  C   UNL A   1      39.669  25.161  27.437  1.00  0.00     0.001 A 
ATOM     78  C   UNL A   1      40.988  26.728  26.159  1.00  0.00     0.001 A 
ATOM     79  C   UNL A   1      40.230  25.560  26.225  1.00  0.00     0.000 A 
ENDBRANCH  55  74
BRANCH  67  80
ATOM     80  C   UNL A   1      45.825  27.303  33.194  1.00  0.00    -0.014 A 
ATOM     81  C   UNL A   1      45.844  26.078  33.876  1.00  0.00     0.009 A 
ATOM     82  C   UNL A   1      46.999  27.753  32.568  1.00  0.00     0.009 A 
ATOM     83  C   UNL A   1      47.020  25.328  33.945  1.00  0.00     0.001 A 
ATOM     84  C   UNL A   1      48.166  26.987  32.613  1.00  0.00     0.001 A 
ATOM     85  C   UNL A   1      48.176  25.778  33.306  1.00  0.00     0.000 A 
ENDBRANCH  67  80
ENDBRANCH  41  42
ENDBRANCH  33  36
ENDBRANCH  31  32
ENDBRANCH  30  31
ENDBRANCH  29  30
ENDBRANCH   1  29
TORSDOF 15
ENDMDL
