MODEL 1
REMARK VINA RESULT:     -11.9      0.000      0.000
REMARK SMILES C[C@@]1(C(=O)NCCCCCCNC(=O)c2ccc(-c3c4nc(c(-c5ccccc5)c5ccc([nH]5)c(-c5ccccc5)c5nc(c(-c6ccccc6)c6ccc3[nH]6)C=C5)C=C4)cc2)[C@@H]2C=C[C@@]3(CN(c4ccccc4)C(=O)[C@H]13)O2
REMARK SMILES IDX 9 1 8 2 7 3 6 4 5 5 3 6 4 7 2 9 1 10 63 11 77 12 64 13 78 14
REMARK SMILES IDX 66 15 75 16 65 17 67 18 68 19 76 20 69 21 70 22 74 23 71 24
REMARK SMILES IDX 73 25 72 26 10 27 11 28 12 29 13 30 14 32 15 33 16 34 62 35
REMARK SMILES IDX 17 36 61 37 18 38 19 39 20 40 55 41 21 42 60 43 54 44 56 45
REMARK SMILES IDX 22 46 59 47 53 48 52 49 23 51 45 52 30 53 44 54 31 55 34 56
REMARK SMILES IDX 43 57 57 58 32 59 33 60 42 62 58 63 35 64 24 65 25 66 29 67
REMARK SMILES IDX 26 68 28 69 27 70 46 71 47 72 51 73 48 74 50 75 49 76 36 77
REMARK SMILES IDX 37 78 41 79 38 80 40 81 39 82
REMARK H PARENT 5 8 12 31 56 50 34 61
REMARK Flexibility Score: inf
ROOT
ATOM      1  C   UNL A   1      32.565  28.614  24.890  1.00  0.00     0.002 C 
ENDROOT
BRANCH   1   2
ATOM      2  C   UNL A   1      33.821  28.154  24.144  1.00  0.00     0.002 C 
BRANCH   2   3
ATOM      3  C   UNL A   1      33.682  27.900  22.645  1.00  0.00     0.021 C 
BRANCH   3   4
ATOM      4  C   UNL A   1      32.702  26.810  22.222  1.00  0.00     0.116 C 
BRANCH   4   5
ATOM      5  N   UNL A   1      33.309  25.513  22.027  1.00  0.00    -0.356 N 
ATOM      6  C   UNL A   1      33.439  24.397  22.781  1.00  0.00     0.229 C 
ATOM      7  O   UNL A   1      33.892  23.434  22.141  1.00  0.00    -0.274 OA
ATOM      8  H   UNL A   1      33.724  25.419  21.139  1.00  0.00     0.163 HD
BRANCH   6   9
ATOM      9  C   UNL A   1      33.048  24.193  24.264  1.00  0.00     0.091 C 
ATOM     10  C   UNL A   1      31.718  24.981  24.474  1.00  0.00     0.026 C 
ATOM     11  C   UNL A   1      34.048  24.749  25.329  1.00  0.00     0.158 C 
ATOM     12  C   UNL A   1      32.837  22.790  24.837  1.00  0.00     0.135 C 
ATOM     13  C   UNL A   1      35.425  24.206  25.146  1.00  0.00     0.004 C 
ATOM     14  O   UNL A   1      33.665  23.940  26.539  1.00  0.00    -0.360 OA
ATOM     15  C   UNL A   1      33.922  22.675  25.918  1.00  0.00     0.118 C 
ATOM     16  C   UNL A   1      32.878  21.441  24.205  1.00  0.00     0.234 C 
ATOM     17  C   UNL A   1      35.352  22.920  25.507  1.00  0.00     0.009 C 
ATOM     18  C   UNL A   1      33.628  21.294  26.468  1.00  0.00     0.166 C 
ATOM     19  N   UNL A   1      33.324  20.561  25.227  1.00  0.00    -0.309 N 
ATOM     20  O   UNL A   1      32.470  21.188  23.086  1.00  0.00    -0.274 OA
BRANCH  19  21
ATOM     21  C   UNL A   1      33.490  19.161  25.086  1.00  0.00     0.044 A 
ATOM     22  C   UNL A   1      34.623  18.633  24.453  1.00  0.00     0.026 A 
ATOM     23  C   UNL A   1      32.522  18.264  25.559  1.00  0.00     0.026 A 
ATOM     24  C   UNL A   1      34.784  17.250  24.308  1.00  0.00     0.002 A 
ATOM     25  C   UNL A   1      32.669  16.884  25.393  1.00  0.00     0.002 A 
ATOM     26  C   UNL A   1      33.804  16.376  24.771  1.00  0.00     0.000 A 
ENDBRANCH  19  21
ENDBRANCH   6   9
ENDBRANCH   4   5
ENDBRANCH   3   4
ENDBRANCH   2   3
ENDBRANCH   1   2
BRANCH   1  27
ATOM     27  C   UNL A   1      32.421  28.187  26.354  1.00  0.00     0.021 C 
BRANCH  27  28
ATOM     28  C   UNL A   1      33.559  28.565  27.298  1.00  0.00     0.116 C 
BRANCH  28  29
ATOM     29  N   UNL A   1      33.546  29.965  27.675  1.00  0.00    -0.352 N 
ATOM     30  C   UNL A   1      34.519  30.740  28.256  1.00  0.00     0.251 C 
ATOM     31  H   UNL A   1      32.704  30.438  27.483  1.00  0.00     0.163 HD
ATOM     32  O   UNL A   1      34.256  31.891  28.595  1.00  0.00    -0.269 OA
BRANCH  30  33
ATOM     33  C   UNL A   1      35.876  30.203  28.507  1.00  0.00     0.039 A 
ATOM     34  C   UNL A   1      36.803  30.236  27.459  1.00  0.00     0.014 A 
ATOM     35  C   UNL A   1      36.232  29.632  29.731  1.00  0.00     0.014 A 
ATOM     36  C   UNL A   1      38.098  29.751  27.655  1.00  0.00     0.010 A 
ATOM     37  C   UNL A   1      37.542  29.201  29.945  1.00  0.00     0.010 A 
ATOM     38  C   UNL A   1      38.486  29.255  28.909  1.00  0.00    -0.014 A 
BRANCH  38  39
ATOM     39  C   UNL A   1      39.877  28.792  29.149  1.00  0.00     0.031 A 
ATOM     40  C   UNL A   1      40.886  29.708  29.782  1.00  0.00     0.074 A 
ATOM     41  C   UNL A   1      40.247  27.561  28.748  1.00  0.00     0.049 A 
ATOM     42  N   UNL A   1      42.157  29.498  30.018  1.00  0.00    -0.248 NA
ATOM     43  C   UNL A   1      40.411  31.042  30.182  1.00  0.00     0.031 C 
ATOM     44  C   UNL A   1      39.376  26.584  28.093  1.00  0.00     0.029 A 
ATOM     45  N   UNL A   1      41.462  26.925  28.827  1.00  0.00    -0.354 N 
ATOM     46  C   UNL A   1      42.637  30.677  30.574  1.00  0.00     0.074 A 
ATOM     47  C   UNL A   1      41.531  31.609  30.609  1.00  0.00     0.031 C 
ATOM     48  C   UNL A   1      40.078  25.467  27.846  1.00  0.00     0.029 A 
ATOM     49  C   UNL A   1      41.454  25.659  28.296  1.00  0.00     0.049 A 
ATOM     50  H   UNL A   1      42.261  27.338  29.226  1.00  0.00     0.167 HD
ATOM     51  C   UNL A   1      43.884  30.957  31.026  1.00  0.00     0.031 A 
ATOM     52  C   UNL A   1      42.443  24.754  28.178  1.00  0.00     0.031 A 
ATOM     53  C   UNL A   1      44.982  30.029  31.011  1.00  0.00     0.049 A 
ATOM     54  C   UNL A   1      43.815  25.084  28.692  1.00  0.00     0.074 A 
ATOM     55  C   UNL A   1      46.266  30.204  31.501  1.00  0.00     0.029 A 
ATOM     56  N   UNL A   1      44.928  28.751  30.478  1.00  0.00    -0.354 N 
ATOM     57  N   UNL A   1      44.237  26.185  29.263  1.00  0.00    -0.248 NA
ATOM     58  C   UNL A   1      44.842  24.042  28.552  1.00  0.00     0.031 C 
ATOM     59  C   UNL A   1      46.998  29.042  31.234  1.00  0.00     0.029 A 
ATOM     60  C   UNL A   1      46.160  28.132  30.611  1.00  0.00     0.049 A 
ATOM     61  H   UNL A   1      44.132  28.343  30.066  1.00  0.00     0.167 HD
ATOM     62  C   UNL A   1      45.573  25.961  29.572  1.00  0.00     0.074 A 
ATOM     63  C   UNL A   1      45.887  24.617  29.133  1.00  0.00     0.031 C 
ATOM     64  C   UNL A   1      46.458  26.796  30.168  1.00  0.00     0.031 A 
BRANCH  51  65
ATOM     65  C   UNL A   1      44.124  32.337  31.567  1.00  0.00    -0.014 A 
ATOM     66  C   UNL A   1      44.551  33.380  30.731  1.00  0.00     0.009 A 
ATOM     67  C   UNL A   1      43.896  32.603  32.926  1.00  0.00     0.009 A 
ATOM     68  C   UNL A   1      44.781  34.655  31.253  1.00  0.00     0.001 A 
ATOM     69  C   UNL A   1      44.103  33.884  33.440  1.00  0.00     0.001 A 
ATOM     70  C   UNL A   1      44.554  34.906  32.606  1.00  0.00     0.000 A 
ENDBRANCH  51  65
BRANCH  52  71
ATOM     71  C   UNL A   1      42.164  23.434  27.561  1.00  0.00    -0.014 A 
ATOM     72  C   UNL A   1      41.569  22.411  28.315  1.00  0.00     0.009 A 
ATOM     73  C   UNL A   1      42.483  23.193  26.216  1.00  0.00     0.009 A 
ATOM     74  C   UNL A   1      41.313  21.166  27.737  1.00  0.00     0.001 A 
ATOM     75  C   UNL A   1      42.207  21.953  25.636  1.00  0.00     0.001 A 
ATOM     76  C   UNL A   1      41.628  20.939  26.398  1.00  0.00     0.000 A 
ENDBRANCH  52  71
BRANCH  64  77
ATOM     77  C   UNL A   1      47.843  26.269  30.402  1.00  0.00    -0.014 A 
ATOM     78  C   UNL A   1      48.222  25.755  31.651  1.00  0.00     0.009 A 
ATOM     79  C   UNL A   1      48.769  26.252  29.347  1.00  0.00     0.009 A 
ATOM     80  C   UNL A   1      49.512  25.258  31.846  1.00  0.00     0.001 A 
ATOM     81  C   UNL A   1      50.051  25.736  29.540  1.00  0.00     0.001 A 
ATOM     82  C   UNL A   1      50.423  25.245  30.791  1.00  0.00     0.000 A 
ENDBRANCH  64  77
ENDBRANCH  38  39
ENDBRANCH  30  33
ENDBRANCH  28  29
ENDBRANCH  27  28
ENDBRANCH   1  27
TORSDOF 14
ENDMDL
MODEL 2
REMARK VINA RESULT:     -11.8      2.316      6.621
REMARK SMILES C[C@@]1(C(=O)NCCCCCCNC(=O)c2ccc(-c3c4nc(c(-c5ccccc5)c5ccc([nH]5)c(-c5ccccc5)c5nc(c(-c6ccccc6)c6ccc3[nH]6)C=C5)C=C4)cc2)[C@@H]2C=C[C@@]3(CN(c4ccccc4)C(=O)[C@H]13)O2
REMARK SMILES IDX 9 1 8 2 7 3 6 4 5 5 3 6 4 7 2 9 1 10 63 11 77 12 64 13 78 14
REMARK SMILES IDX 66 15 75 16 65 17 67 18 68 19 76 20 69 21 70 22 74 23 71 24
REMARK SMILES IDX 73 25 72 26 10 27 11 28 12 29 13 30 14 32 15 33 16 34 62 35
REMARK SMILES IDX 17 36 61 37 18 38 19 39 20 40 55 41 21 42 60 43 54 44 56 45
REMARK SMILES IDX 22 46 59 47 53 48 52 49 23 51 45 52 30 53 44 54 31 55 34 56
REMARK SMILES IDX 43 57 57 58 32 59 33 60 42 62 58 63 35 64 24 65 25 66 29 67
REMARK SMILES IDX 26 68 28 69 27 70 46 71 47 72 51 73 48 74 50 75 49 76 36 77
REMARK SMILES IDX 37 78 41 79 38 80 40 81 39 82
REMARK H PARENT 5 8 12 31 56 50 34 61
REMARK Flexibility Score: inf
ROOT
ATOM      1  C   UNL A   1      31.500  29.767  25.379  1.00  0.00     0.002 C 
ENDROOT
BRANCH   1   2
ATOM      2  C   UNL A   1      32.744  28.976  25.791  1.00  0.00     0.002 C 
BRANCH   2   3
ATOM      3  C   UNL A   1      33.722  28.596  24.682  1.00  0.00     0.021 C 
BRANCH   3   4
ATOM      4  C   UNL A   1      33.115  28.149  23.356  1.00  0.00     0.116 C 
BRANCH   4   5
ATOM      5  N   UNL A   1      33.604  26.874  22.881  1.00  0.00    -0.356 N 
ATOM      6  C   UNL A   1      33.238  25.584  23.062  1.00  0.00     0.229 C 
ATOM      7  O   UNL A   1      33.842  24.802  22.310  1.00  0.00    -0.274 OA
ATOM      8  H   UNL A   1      34.384  26.966  22.288  1.00  0.00     0.163 HD
BRANCH   6   9
ATOM      9  C   UNL A   1      32.161  25.021  24.018  1.00  0.00     0.091 C 
ATOM     10  C   UNL A   1      30.820  25.711  23.616  1.00  0.00     0.026 C 
ATOM     11  C   UNL A   1      32.357  25.319  25.540  1.00  0.00     0.158 C 
ATOM     12  C   UNL A   1      31.887  23.517  24.098  1.00  0.00     0.135 C 
ATOM     13  C   UNL A   1      33.686  24.860  26.037  1.00  0.00     0.004 C 
ATOM     14  O   UNL A   1      31.518  24.234  26.161  1.00  0.00    -0.360 OA
ATOM     15  C   UNL A   1      32.245  23.162  25.549  1.00  0.00     0.118 C 
ATOM     16  C   UNL A   1      32.451  22.362  23.344  1.00  0.00     0.234 C 
ATOM     17  C   UNL A   1      33.624  23.525  26.041  1.00  0.00     0.009 C 
ATOM     18  C   UNL A   1      31.912  21.684  25.569  1.00  0.00     0.166 C 
ATOM     19  N   UNL A   1      32.417  21.268  24.249  1.00  0.00    -0.309 N 
ATOM     20  O   UNL A   1      32.735  22.381  22.160  1.00  0.00    -0.274 OA
BRANCH  19  21
ATOM     21  C   UNL A   1      32.835  19.948  23.953  1.00  0.00     0.044 A 
ATOM     22  C   UNL A   1      33.897  19.359  24.650  1.00  0.00     0.026 A 
ATOM     23  C   UNL A   1      32.212  19.197  22.946  1.00  0.00     0.026 A 
ATOM     24  C   UNL A   1      34.315  18.056  24.353  1.00  0.00     0.002 A 
ATOM     25  C   UNL A   1      32.643  17.906  22.631  1.00  0.00     0.002 A 
ATOM     26  C   UNL A   1      33.693  17.332  23.339  1.00  0.00     0.000 A 
ENDBRANCH  19  21
ENDBRANCH   6   9
ENDBRANCH   4   5
ENDBRANCH   3   4
ENDBRANCH   2   3
ENDBRANCH   1   2
BRANCH   1  27
ATOM     27  C   UNL A   1      31.284  31.132  26.038  1.00  0.00     0.021 C 
BRANCH  27  28
ATOM     28  C   UNL A   1      32.418  31.665  26.910  1.00  0.00     0.116 C 
BRANCH  28  29
ATOM     29  N   UNL A   1      32.211  33.034  27.341  1.00  0.00    -0.352 N 
ATOM     30  C   UNL A   1      32.990  33.847  28.125  1.00  0.00     0.251 C 
ATOM     31  H   UNL A   1      31.377  33.447  27.020  1.00  0.00     0.163 HD
ATOM     32  O   UNL A   1      32.567  34.951  28.462  1.00  0.00    -0.269 OA
BRANCH  30  33
ATOM     33  C   UNL A   1      34.323  33.408  28.595  1.00  0.00     0.039 A 
ATOM     34  C   UNL A   1      34.397  32.689  29.793  1.00  0.00     0.014 A 
ATOM     35  C   UNL A   1      35.495  33.731  27.906  1.00  0.00     0.014 A 
ATOM     36  C   UNL A   1      35.633  32.245  30.268  1.00  0.00     0.010 A 
ATOM     37  C   UNL A   1      36.723  33.238  28.350  1.00  0.00     0.010 A 
ATOM     38  C   UNL A   1      36.804  32.492  29.536  1.00  0.00    -0.014 A 
BRANCH  38  39
ATOM     39  C   UNL A   1      38.117  31.975  29.998  1.00  0.00     0.031 A 
ATOM     40  C   UNL A   1      38.645  30.666  29.481  1.00  0.00     0.074 A 
ATOM     41  C   UNL A   1      38.812  32.658  30.926  1.00  0.00     0.049 A 
ATOM     42  N   UNL A   1      39.741  30.030  29.811  1.00  0.00    -0.248 NA
ATOM     43  C   UNL A   1      37.823  29.970  28.478  1.00  0.00     0.031 C 
ATOM     44  C   UNL A   1      38.399  33.925  31.534  1.00  0.00     0.029 A 
ATOM     45  N   UNL A   1      40.014  32.376  31.527  1.00  0.00    -0.354 N 
ATOM     46  C   UNL A   1      39.731  28.854  29.074  1.00  0.00     0.074 A 
ATOM     47  C   UNL A   1      38.505  28.847  28.305  1.00  0.00     0.031 C 
ATOM     48  C   UNL A   1      39.340  34.319  32.407  1.00  0.00     0.029 A 
ATOM     49  C   UNL A   1      40.405  33.321  32.444  1.00  0.00     0.049 A 
ATOM     50  H   UNL A   1      40.545  31.574  31.320  1.00  0.00     0.167 HD
ATOM     51  C   UNL A   1      40.663  27.871  29.030  1.00  0.00     0.031 A 
ATOM     52  C   UNL A   1      41.495  33.376  33.232  1.00  0.00     0.031 A 
ATOM     53  C   UNL A   1      41.892  27.881  29.777  1.00  0.00     0.049 A 
ATOM     54  C   UNL A   1      42.518  32.280  33.161  1.00  0.00     0.074 A 
ATOM     55  C   UNL A   1      42.924  26.957  29.752  1.00  0.00     0.029 A 
ATOM     56  N   UNL A   1      42.256  28.864  30.683  1.00  0.00    -0.354 N 
ATOM     57  N   UNL A   1      42.517  31.200  32.419  1.00  0.00    -0.248 NA
ATOM     58  C   UNL A   1      43.695  32.415  34.031  1.00  0.00     0.031 C 
ATOM     59  C   UNL A   1      43.898  27.365  30.670  1.00  0.00     0.029 A 
ATOM     60  C   UNL A   1      43.489  28.561  31.237  1.00  0.00     0.049 A 
ATOM     61  H   UNL A   1      41.719  29.659  30.901  1.00  0.00     0.167 HD
ATOM     62  C   UNL A   1      43.702  30.538  32.714  1.00  0.00     0.074 A 
ATOM     63  C   UNL A   1      44.400  31.342  33.696  1.00  0.00     0.031 C 
ATOM     64  C   UNL A   1      44.169  29.369  32.214  1.00  0.00     0.031 A 
BRANCH  51  65
ATOM     65  C   UNL A   1      40.376  26.691  28.146  1.00  0.00    -0.014 A 
ATOM     66  C   UNL A   1      40.860  26.636  26.830  1.00  0.00     0.009 A 
ATOM     67  C   UNL A   1      39.634  25.609  28.645  1.00  0.00     0.009 A 
ATOM     68  C   UNL A   1      40.574  25.537  26.018  1.00  0.00     0.001 A 
ATOM     69  C   UNL A   1      39.371  24.500  27.839  1.00  0.00     0.001 A 
ATOM     70  C   UNL A   1      39.833  24.469  26.523  1.00  0.00     0.000 A 
ENDBRANCH  51  65
BRANCH  52  71
ATOM     71  C   UNL A   1      41.685  34.530  34.145  1.00  0.00    -0.014 A 
ATOM     72  C   UNL A   1      41.218  34.473  35.467  1.00  0.00     0.009 A 
ATOM     73  C   UNL A   1      42.341  35.690  33.703  1.00  0.00     0.009 A 
ATOM     74  C   UNL A   1      41.389  35.562  36.324  1.00  0.00     0.001 A 
ATOM     75  C   UNL A   1      42.529  36.768  34.570  1.00  0.00     0.001 A 
ATOM     76  C   UNL A   1      42.048  36.705  35.876  1.00  0.00     0.000 A 
ENDBRANCH  52  71
BRANCH  64  77
ATOM     77  C   UNL A   1      45.510  28.903  32.703  1.00  0.00    -0.014 A 
ATOM     78  C   UNL A   1      45.625  28.091  33.840  1.00  0.00     0.009 A 
ATOM     79  C   UNL A   1      46.668  29.253  31.991  1.00  0.00     0.009 A 
ATOM     80  C   UNL A   1      46.880  27.659  34.272  1.00  0.00     0.001 A 
ATOM     81  C   UNL A   1      47.919  28.802  32.414  1.00  0.00     0.001 A 
ATOM     82  C   UNL A   1      48.025  28.011  33.558  1.00  0.00     0.000 A 
ENDBRANCH  64  77
ENDBRANCH  38  39
ENDBRANCH  30  33
ENDBRANCH  28  29
ENDBRANCH  27  28
ENDBRANCH   1  27
TORSDOF 14
ENDMDL
MODEL 3
REMARK VINA RESULT:     -11.8      2.242      7.888
REMARK SMILES C[C@@]1(C(=O)NCCCCCCNC(=O)c2ccc(-c3c4nc(c(-c5ccccc5)c5ccc([nH]5)c(-c5ccccc5)c5nc(c(-c6ccccc6)c6ccc3[nH]6)C=C5)C=C4)cc2)[C@@H]2C=C[C@@]3(CN(c4ccccc4)C(=O)[C@H]13)O2
REMARK SMILES IDX 9 1 8 2 7 3 6 4 5 5 3 6 4 7 2 9 1 10 63 11 77 12 64 13 78 14
REMARK SMILES IDX 66 15 75 16 65 17 67 18 68 19 76 20 69 21 70 22 74 23 71 24
REMARK SMILES IDX 73 25 72 26 10 27 11 28 12 29 13 30 14 32 15 33 16 34 62 35
REMARK SMILES IDX 17 36 61 37 18 38 19 39 20 40 55 41 21 42 60 43 54 44 56 45
REMARK SMILES IDX 22 46 59 47 53 48 52 49 23 51 45 52 30 53 44 54 31 55 34 56
REMARK SMILES IDX 43 57 57 58 32 59 33 60 42 62 58 63 35 64 24 65 25 66 29 67
REMARK SMILES IDX 26 68 28 69 27 70 46 71 47 72 51 73 48 74 50 75 49 76 36 77
REMARK SMILES IDX 37 78 41 79 38 80 40 81 39 82
REMARK H PARENT 5 8 12 31 56 50 34 61
REMARK Flexibility Score: inf
ROOT
ATOM      1  C   UNL A   1      36.033  20.208  25.014  1.00  0.00     0.002 C 
ENDROOT
BRANCH   1   2
ATOM      2  C   UNL A   1      35.445  21.621  24.981  1.00  0.00     0.002 C 
BRANCH   2   3
ATOM      3  C   UNL A   1      34.942  22.193  26.304  1.00  0.00     0.021 C 
BRANCH   3   4
ATOM      4  C   UNL A   1      33.469  21.969  26.632  1.00  0.00     0.116 C 
BRANCH   4   5
ATOM      5  N   UNL A   1      32.717  23.185  26.843  1.00  0.00    -0.356 N 
ATOM      6  C   UNL A   1      32.105  24.081  26.035  1.00  0.00     0.229 C 
ATOM      7  O   UNL A   1      31.416  24.902  26.661  1.00  0.00    -0.274 OA
ATOM      8  H   UNL A   1      32.631  23.416  27.796  1.00  0.00     0.163 HD
BRANCH   6   9
ATOM      9  C   UNL A   1      32.129  24.148  24.489  1.00  0.00     0.091 C 
ATOM     10  C   UNL A   1      31.756  22.718  23.988  1.00  0.00     0.026 C 
ATOM     11  C   UNL A   1      33.503  24.488  23.829  1.00  0.00     0.158 C 
ATOM     12  C   UNL A   1      31.241  25.137  23.730  1.00  0.00     0.135 C 
ATOM     13  C   UNL A   1      34.075  25.767  24.344  1.00  0.00     0.004 C 
ATOM     14  O   UNL A   1      33.063  24.989  22.479  1.00  0.00    -0.360 OA
ATOM     15  C   UNL A   1      32.249  26.043  23.006  1.00  0.00     0.118 C 
ATOM     16  C   UNL A   1      30.217  26.115  24.196  1.00  0.00     0.234 C 
ATOM     17  C   UNL A   1      33.299  26.732  23.841  1.00  0.00     0.009 C 
ATOM     18  C   UNL A   1      31.311  26.959  22.248  1.00  0.00     0.166 C 
ATOM     19  N   UNL A   1      30.263  27.181  23.259  1.00  0.00    -0.309 N 
ATOM     20  O   UNL A   1      29.441  25.920  25.113  1.00  0.00    -0.274 OA
BRANCH  19  21
ATOM     21  C   UNL A   1      29.438  28.333  23.289  1.00  0.00     0.044 A 
ATOM     22  C   UNL A   1      28.057  28.232  23.083  1.00  0.00     0.026 A 
ATOM     23  C   UNL A   1      29.979  29.607  23.510  1.00  0.00     0.026 A 
ATOM     24  C   UNL A   1      27.243  29.370  23.106  1.00  0.00     0.002 A 
ATOM     25  C   UNL A   1      29.173  30.748  23.508  1.00  0.00     0.002 A 
ATOM     26  C   UNL A   1      27.801  30.629  23.312  1.00  0.00     0.000 A 
ENDBRANCH  19  21
ENDBRANCH   6   9
ENDBRANCH   4   5
ENDBRANCH   3   4
ENDBRANCH   2   3
ENDBRANCH   1   2
BRANCH   1  27
ATOM     27  C   UNL A   1      37.507  20.050  24.629  1.00  0.00     0.021 C 
BRANCH  27  28
ATOM     28  C   UNL A   1      38.539  20.368  25.708  1.00  0.00     0.116 C 
BRANCH  28  29
ATOM     29  N   UNL A   1      39.653  19.440  25.722  1.00  0.00    -0.352 N 
ATOM     30  C   UNL A   1      40.964  19.628  26.084  1.00  0.00     0.251 C 
ATOM     31  H   UNL A   1      39.435  18.528  25.424  1.00  0.00     0.163 HD
ATOM     32  O   UNL A   1      41.776  18.722  25.912  1.00  0.00    -0.269 OA
BRANCH  30  33
ATOM     33  C   UNL A   1      41.423  20.914  26.655  1.00  0.00     0.039 A 
ATOM     34  C   UNL A   1      41.933  21.880  25.781  1.00  0.00     0.014 A 
ATOM     35  C   UNL A   1      41.403  21.163  28.030  1.00  0.00     0.014 A 
ATOM     36  C   UNL A   1      42.366  23.112  26.275  1.00  0.00     0.010 A 
ATOM     37  C   UNL A   1      41.783  22.415  28.517  1.00  0.00     0.010 A 
ATOM     38  C   UNL A   1      42.269  23.400  27.644  1.00  0.00    -0.014 A 
BRANCH  38  39
ATOM     39  C   UNL A   1      42.671  24.728  28.176  1.00  0.00     0.031 A 
ATOM     40  C   UNL A   1      41.643  25.801  28.399  1.00  0.00     0.074 A 
ATOM     41  C   UNL A   1      43.971  24.986  28.407  1.00  0.00     0.049 A 
ATOM     42  N   UNL A   1      41.813  27.035  28.802  1.00  0.00    -0.248 NA
ATOM     43  C   UNL A   1      40.243  25.449  28.112  1.00  0.00     0.031 C 
ATOM     44  C   UNL A   1      45.073  24.044  28.202  1.00  0.00     0.029 A 
ATOM     45  N   UNL A   1      44.587  26.127  28.860  1.00  0.00    -0.354 N 
ATOM     46  C   UNL A   1      40.550  27.612  28.798  1.00  0.00     0.074 A 
ATOM     47  C   UNL A   1      39.627  26.604  28.319  1.00  0.00     0.031 C 
ATOM     48  C   UNL A   1      46.227  24.639  28.546  1.00  0.00     0.029 A 
ATOM     49  C   UNL A   1      45.951  26.010  28.964  1.00  0.00     0.049 A 
ATOM     50  H   UNL A   1      44.097  26.950  29.089  1.00  0.00     0.167 HD
ATOM     51  C   UNL A   1      40.186  28.863  29.168  1.00  0.00     0.031 A 
ATOM     52  C   UNL A   1      46.879  26.907  29.347  1.00  0.00     0.031 A 
ATOM     53  C   UNL A   1      41.094  29.863  29.661  1.00  0.00     0.049 A 
ATOM     54  C   UNL A   1      46.451  28.286  29.760  1.00  0.00     0.074 A 
ATOM     55  C   UNL A   1      40.809  31.140  30.117  1.00  0.00     0.029 A 
ATOM     56  N   UNL A   1      42.466  29.699  29.765  1.00  0.00    -0.354 N 
ATOM     57  N   UNL A   1      45.245  28.797  29.799  1.00  0.00    -0.248 NA
ATOM     58  C   UNL A   1      47.513  29.207  30.189  1.00  0.00     0.031 C 
ATOM     59  C   UNL A   1      42.013  31.760  30.464  1.00  0.00     0.029 A 
ATOM     60  C   UNL A   1      43.044  30.857  30.260  1.00  0.00     0.049 A 
ATOM     61  H   UNL A   1      42.958  28.881  29.523  1.00  0.00     0.167 HD
ATOM     62  C   UNL A   1      45.400  30.091  30.278  1.00  0.00     0.074 A 
ATOM     63  C   UNL A   1      46.814  30.284  30.524  1.00  0.00     0.031 C 
ATOM     64  C   UNL A   1      44.452  31.034  30.496  1.00  0.00     0.031 A 
BRANCH  51  65
ATOM     65  C   UNL A   1      38.733  29.223  29.040  1.00  0.00    -0.014 A 
ATOM     66  C   UNL A   1      37.851  29.076  30.121  1.00  0.00     0.009 A 
ATOM     67  C   UNL A   1      38.246  29.738  27.829  1.00  0.00     0.009 A 
ATOM     68  C   UNL A   1      36.501  29.404  29.981  1.00  0.00     0.001 A 
ATOM     69  C   UNL A   1      36.901  30.089  27.699  1.00  0.00     0.001 A 
ATOM     70  C   UNL A   1      36.028  29.912  28.772  1.00  0.00     0.000 A 
ENDBRANCH  51  65
BRANCH  52  71
ATOM     71  C   UNL A   1      48.311  26.518  29.378  1.00  0.00    -0.014 A 
ATOM     72  C   UNL A   1      48.854  25.904  30.516  1.00  0.00     0.009 A 
ATOM     73  C   UNL A   1      49.138  26.752  28.268  1.00  0.00     0.009 A 
ATOM     74  C   UNL A   1      50.203  25.545  30.548  1.00  0.00     0.001 A 
ATOM     75  C   UNL A   1      50.481  26.373  28.297  1.00  0.00     0.001 A 
ATOM     76  C   UNL A   1      51.014  25.776  29.438  1.00  0.00     0.000 A 
ENDBRANCH  52  71
BRANCH  64  77
ATOM     77  C   UNL A   1      44.912  32.351  31.052  1.00  0.00    -0.014 A 
ATOM     78  C   UNL A   1      45.021  32.556  32.435  1.00  0.00     0.009 A 
ATOM     79  C   UNL A   1      45.278  33.385  30.176  1.00  0.00     0.009 A 
ATOM     80  C   UNL A   1      45.463  33.783  32.932  1.00  0.00     0.001 A 
ATOM     81  C   UNL A   1      45.738  34.604  30.675  1.00  0.00     0.001 A 
ATOM     82  C   UNL A   1      45.824  34.804  32.053  1.00  0.00     0.000 A 
ENDBRANCH  64  77
ENDBRANCH  38  39
ENDBRANCH  30  33
ENDBRANCH  28  29
ENDBRANCH  27  28
ENDBRANCH   1  27
TORSDOF 14
ENDMDL
