MODEL 1
REMARK VINA RESULT:     -12.6      0.000      0.000
REMARK SMILES O=C(NCCCCCCNC(=O)[C@H]1CC=CC[C@@H]1C(=O)N[C@@H]1CCCN(c2ccccc2F)C1=O)c1ccc(-c2c3nc(c(-c4ccccc4)c4ccc([nH]4)c(-c4ccccc4)c4nc(c(-c5ccccc5)c5ccc2[nH]5)C=C4)C=C3)cc1
REMARK SMILES IDX 7 1 6 2 5 3 4 4 3 5 1 6 2 7 36 9 37 10 83 11 38 12 82 13
REMARK SMILES IDX 39 14 40 15 41 16 76 17 42 18 81 19 75 20 77 21 43 22 80 23
REMARK SMILES IDX 74 24 73 25 44 27 66 28 51 29 65 30 52 31 55 32 64 33 78 34
REMARK SMILES IDX 53 35 54 36 63 38 79 39 56 40 45 41 46 42 50 43 47 44 49 45
REMARK SMILES IDX 48 46 67 47 68 48 72 49 69 50 71 51 70 52 57 53 58 54 62 55
REMARK SMILES IDX 59 56 61 57 60 58 8 59 9 60 10 61 11 62 12 64 13 65 14 66
REMARK SMILES IDX 18 67 15 68 17 69 16 70 19 71 20 72 21 73 22 75 23 76 34 77
REMARK SMILES IDX 24 78 26 79 35 80 25 81 27 82 28 83 32 84 29 85 31 86 33 87
REMARK SMILES IDX 30 88
REMARK H PARENT 3 8 77 26 55 37 10 63 21 74
REMARK Flexibility Score: inf
ROOT
ATOM      1  C   UNL A   1      32.268  29.750  27.206  1.00  0.00     0.002 C 
ENDROOT
BRANCH   1   2
ATOM      2  C   UNL A   1      31.686  30.747  26.196  1.00  0.00     0.002 C 
BRANCH   2   3
ATOM      3  C   UNL A   1      31.435  32.148  26.759  1.00  0.00     0.021 C 
BRANCH   3   4
ATOM      4  C   UNL A   1      32.682  32.797  27.345  1.00  0.00     0.116 C 
BRANCH   4   5
ATOM      5  N   UNL A   1      32.452  34.207  27.617  1.00  0.00    -0.352 N 
ATOM      6  O   UNL A   1      32.480  36.051  28.924  1.00  0.00    -0.269 OA
ATOM      7  C   UNL A   1      32.990  34.970  28.613  1.00  0.00     0.251 C 
ATOM      8  H   UNL A   1      31.831  34.668  27.008  1.00  0.00     0.163 HD
BRANCH   7   9
ATOM      9  C   UNL A   1      34.202  34.499  29.306  1.00  0.00     0.039 A 
ATOM     10  C   UNL A   1      34.086  33.865  30.547  1.00  0.00     0.014 A 
ATOM     11  C   UNL A   1      35.449  34.648  28.696  1.00  0.00     0.014 A 
ATOM     12  C   UNL A   1      35.225  33.446  31.218  1.00  0.00     0.010 A 
ATOM     13  C   UNL A   1      36.586  34.153  29.334  1.00  0.00     0.010 A 
ATOM     14  C   UNL A   1      36.478  33.542  30.594  1.00  0.00    -0.014 A 
BRANCH  14  15
ATOM     15  C   UNL A   1      37.639  32.854  31.202  1.00  0.00     0.031 A 
ATOM     16  C   UNL A   1      38.260  31.653  30.560  1.00  0.00     0.074 A 
ATOM     17  C   UNL A   1      38.103  33.330  32.375  1.00  0.00     0.049 A 
ATOM     18  N   UNL A   1      39.250  30.915  30.995  1.00  0.00    -0.248 NA
ATOM     19  C   UNL A   1      37.703  31.214  29.271  1.00  0.00     0.031 C 
ATOM     20  C   UNL A   1      37.557  34.490  33.090  1.00  0.00     0.029 A 
ATOM     21  N   UNL A   1      39.132  32.907  33.172  1.00  0.00    -0.354 N 
ATOM     22  C   UNL A   1      39.419  29.912  30.050  1.00  0.00     0.074 A 
ATOM     23  C   UNL A   1      38.425  30.129  29.021  1.00  0.00     0.031 C 
ATOM     24  C   UNL A   1      38.270  34.697  34.205  1.00  0.00     0.029 A 
ATOM     25  C   UNL A   1      39.271  33.647  34.322  1.00  0.00     0.049 A 
ATOM     26  H   UNL A   1      39.714  32.146  32.945  1.00  0.00     0.167 HD
ATOM     27  C   UNL A   1      40.322  28.904  30.054  1.00  0.00     0.031 A 
ATOM     28  C   UNL A   1      40.088  33.477  35.377  1.00  0.00     0.031 A 
ATOM     29  C   UNL A   1      41.307  28.708  31.086  1.00  0.00     0.049 A 
ATOM     30  C   UNL A   1      41.041  32.320  35.368  1.00  0.00     0.074 A 
ATOM     31  C   UNL A   1      42.311  27.756  31.144  1.00  0.00     0.029 A 
ATOM     32  N   UNL A   1      41.401  29.462  32.245  1.00  0.00    -0.354 N 
ATOM     33  N   UNL A   1      41.241  31.425  34.431  1.00  0.00    -0.248 NA
ATOM     34  C   UNL A   1      41.875  32.142  36.563  1.00  0.00     0.031 C 
ATOM     35  C   UNL A   1      42.967  27.890  32.372  1.00  0.00     0.029 A 
ATOM     36  C   UNL A   1      42.412  28.963  33.050  1.00  0.00     0.049 A 
ATOM     37  H   UNL A   1      40.833  30.235  32.464  1.00  0.00     0.167 HD
ATOM     38  C   UNL A   1      42.229  30.584  34.918  1.00  0.00     0.074 A 
ATOM     39  C   UNL A   1      42.610  31.094  36.220  1.00  0.00     0.031 C 
ATOM     40  C   UNL A   1      42.768  29.481  34.344  1.00  0.00     0.031 A 
BRANCH  27  41
ATOM     41  C   UNL A   1      40.275  27.906  28.932  1.00  0.00    -0.014 A 
ATOM     42  C   UNL A   1      40.997  28.101  27.746  1.00  0.00     0.009 A 
ATOM     43  C   UNL A   1      39.569  26.705  29.108  1.00  0.00     0.009 A 
ATOM     44  C   UNL A   1      41.000  27.118  26.751  1.00  0.00     0.001 A 
ATOM     45  C   UNL A   1      39.592  25.716  28.124  1.00  0.00     0.001 A 
ATOM     46  C   UNL A   1      40.304  25.925  26.944  1.00  0.00     0.000 A 
ENDBRANCH  27  41
BRANCH  28  47
ATOM     47  C   UNL A   1      39.989  34.385  36.549  1.00  0.00    -0.014 A 
ATOM     48  C   UNL A   1      39.186  34.054  37.651  1.00  0.00     0.009 A 
ATOM     49  C   UNL A   1      40.695  35.598  36.565  1.00  0.00     0.009 A 
ATOM     50  C   UNL A   1      39.069  34.934  38.728  1.00  0.00     0.001 A 
ATOM     51  C   UNL A   1      40.604  36.460  37.659  1.00  0.00     0.001 A 
ATOM     52  C   UNL A   1      39.781  36.134  38.734  1.00  0.00     0.000 A 
ENDBRANCH  28  47
BRANCH  40  53
ATOM     53  C   UNL A   1      43.833  28.763  35.120  1.00  0.00    -0.014 A 
ATOM     54  C   UNL A   1      45.189  29.076  34.946  1.00  0.00     0.009 A 
ATOM     55  C   UNL A   1      43.471  27.795  36.069  1.00  0.00     0.009 A 
ATOM     56  C   UNL A   1      46.166  28.413  35.689  1.00  0.00     0.001 A 
ATOM     57  C   UNL A   1      44.448  27.156  36.832  1.00  0.00     0.001 A 
ATOM     58  C   UNL A   1      45.795  27.459  36.636  1.00  0.00     0.000 A 
ENDBRANCH  40  53
ENDBRANCH  14  15
ENDBRANCH   7   9
ENDBRANCH   4   5
ENDBRANCH   3   4
ENDBRANCH   2   3
ENDBRANCH   1   2
BRANCH   1  59
ATOM     59  C   UNL A   1      33.715  29.332  26.918  1.00  0.00     0.021 C 
BRANCH  59  60
ATOM     60  C   UNL A   1      33.809  28.102  26.018  1.00  0.00     0.116 C 
BRANCH  60  61
ATOM     61  N   UNL A   1      32.932  27.070  26.504  1.00  0.00    -0.356 N 
ATOM     62  C   UNL A   1      31.870  26.453  25.956  1.00  0.00     0.224 C 
ATOM     63  H   UNL A   1      33.152  26.757  27.411  1.00  0.00     0.163 HD
ATOM     64  O   UNL A   1      31.180  25.805  26.759  1.00  0.00    -0.275 OA
BRANCH  62  65
ATOM     65  C   UNL A   1      31.493  26.399  24.473  1.00  0.00     0.095 C 
ATOM     66  C   UNL A   1      30.223  27.221  24.214  1.00  0.00     0.041 C 
ATOM     67  C   UNL A   1      32.480  26.464  23.301  1.00  0.00     0.095 C 
ATOM     68  C   UNL A   1      30.525  28.601  23.730  1.00  0.00    -0.030 C 
ATOM     69  C   UNL A   1      32.779  27.929  22.866  1.00  0.00     0.041 C 
ATOM     70  C   UNL A   1      31.682  28.920  23.139  1.00  0.00    -0.030 C 
BRANCH  67  71
ATOM     71  C   UNL A   1      31.938  25.684  22.082  1.00  0.00     0.224 C 
ATOM     72  O   UNL A   1      31.533  26.268  21.070  1.00  0.00    -0.275 OA
ATOM     73  N   UNL A   1      31.896  24.328  22.014  1.00  0.00    -0.344 N 
ATOM     74  H   UNL A   1      31.628  24.006  21.122  1.00  0.00     0.164 HD
BRANCH  73  75
ATOM     75  C   UNL A   1      32.155  23.226  22.950  1.00  0.00     0.172 C 
ATOM     76  C   UNL A   1      31.083  23.046  24.020  1.00  0.00     0.037 C 
ATOM     77  C   UNL A   1      33.641  23.075  23.311  1.00  0.00     0.249 C 
ATOM     78  C   UNL A   1      31.598  22.361  25.270  1.00  0.00     0.025 C 
ATOM     79  N   UNL A   1      33.967  22.876  24.650  1.00  0.00    -0.308 N 
ATOM     80  O   UNL A   1      34.471  23.054  22.394  1.00  0.00    -0.272 OA
ATOM     81  C   UNL A   1      32.958  22.874  25.709  1.00  0.00     0.126 C 
BRANCH  79  82
ATOM     82  C   UNL A   1      35.349  22.847  25.045  1.00  0.00     0.080 A 
ATOM     83  C   UNL A   1      35.999  24.024  25.441  1.00  0.00     0.029 A 
ATOM     84  C   UNL A   1      36.089  21.651  25.075  1.00  0.00     0.146 A 
ATOM     85  C   UNL A   1      37.328  23.994  25.884  1.00  0.00     0.002 A 
ATOM     86  C   UNL A   1      37.412  21.619  25.514  1.00  0.00     0.041 A 
ATOM     87  F   UNL A   1      35.576  20.509  24.592  1.00  0.00    -0.205 F 
ATOM     88  C   UNL A   1      38.032  22.792  25.927  1.00  0.00     0.003 A 
ENDBRANCH  79  82
ENDBRANCH  73  75
ENDBRANCH  67  71
ENDBRANCH  62  65
ENDBRANCH  60  61
ENDBRANCH  59  60
ENDBRANCH   1  59
TORSDOF 16
ENDMDL
MODEL 2
REMARK VINA RESULT:     -12.4      4.810     10.160
REMARK SMILES O=C(NCCCCCCNC(=O)[C@H]1CC=CC[C@@H]1C(=O)N[C@@H]1CCCN(c2ccccc2F)C1=O)c1ccc(-c2c3nc(c(-c4ccccc4)c4ccc([nH]4)c(-c4ccccc4)c4nc(c(-c5ccccc5)c5ccc2[nH]5)C=C4)C=C3)cc1
REMARK SMILES IDX 7 1 6 2 5 3 4 4 3 5 1 6 2 7 36 9 37 10 83 11 38 12 82 13
REMARK SMILES IDX 39 14 40 15 41 16 76 17 42 18 81 19 75 20 77 21 43 22 80 23
REMARK SMILES IDX 74 24 73 25 44 27 66 28 51 29 65 30 52 31 55 32 64 33 78 34
REMARK SMILES IDX 53 35 54 36 63 38 79 39 56 40 45 41 46 42 50 43 47 44 49 45
REMARK SMILES IDX 48 46 67 47 68 48 72 49 69 50 71 51 70 52 57 53 58 54 62 55
REMARK SMILES IDX 59 56 61 57 60 58 8 59 9 60 10 61 11 62 12 64 13 65 14 66
REMARK SMILES IDX 18 67 15 68 17 69 16 70 19 71 20 72 21 73 22 75 23 76 34 77
REMARK SMILES IDX 24 78 26 79 35 80 25 81 27 82 28 83 32 84 29 85 31 86 33 87
REMARK SMILES IDX 30 88
REMARK H PARENT 3 8 77 26 55 37 10 63 21 74
REMARK Flexibility Score: inf
ROOT
ATOM      1  C   UNL A   1      37.355  22.226  25.011  1.00  0.00     0.002 C 
ENDROOT
BRANCH   1   2
ATOM      2  C   UNL A   1      36.919  20.756  24.957  1.00  0.00     0.002 C 
BRANCH   2   3
ATOM      3  C   UNL A   1      38.073  19.751  24.946  1.00  0.00     0.021 C 
BRANCH   3   4
ATOM      4  C   UNL A   1      39.286  20.213  25.744  1.00  0.00     0.116 C 
BRANCH   4   5
ATOM      5  N   UNL A   1      40.232  19.124  25.924  1.00  0.00    -0.352 N 
ATOM      6  O   UNL A   1      42.299  18.210  25.910  1.00  0.00    -0.269 OA
ATOM      7  C   UNL A   1      41.586  19.203  26.083  1.00  0.00     0.251 C 
ATOM      8  H   UNL A   1      39.849  18.217  25.934  1.00  0.00     0.163 HD
BRANCH   7   9
ATOM      9  C   UNL A   1      42.190  20.486  26.480  1.00  0.00     0.039 A 
ATOM     10  C   UNL A   1      42.706  21.341  25.499  1.00  0.00     0.014 A 
ATOM     11  C   UNL A   1      42.201  20.859  27.825  1.00  0.00     0.014 A 
ATOM     12  C   UNL A   1      43.302  22.536  25.869  1.00  0.00     0.010 A 
ATOM     13  C   UNL A   1      42.727  22.099  28.188  1.00  0.00     0.010 A 
ATOM     14  C   UNL A   1      43.272  22.946  27.211  1.00  0.00    -0.014 A 
BRANCH  14  15
ATOM     15  C   UNL A   1      43.670  24.332  27.548  1.00  0.00     0.031 A 
ATOM     16  C   UNL A   1      42.662  25.350  27.984  1.00  0.00     0.074 A 
ATOM     17  C   UNL A   1      44.972  24.656  27.422  1.00  0.00     0.049 A 
ATOM     18  N   UNL A   1      42.850  26.613  28.267  1.00  0.00    -0.248 NA
ATOM     19  C   UNL A   1      41.267  24.903  28.114  1.00  0.00     0.031 C 
ATOM     20  C   UNL A   1      46.032  23.737  26.991  1.00  0.00     0.029 A 
ATOM     21  N   UNL A   1      45.629  25.837  27.642  1.00  0.00    -0.354 N 
ATOM     22  C   UNL A   1      41.597  27.120  28.585  1.00  0.00     0.074 A 
ATOM     23  C   UNL A   1      40.653  26.031  28.451  1.00  0.00     0.031 C 
ATOM     24  C   UNL A   1      47.207  24.382  27.001  1.00  0.00     0.029 A 
ATOM     25  C   UNL A   1      46.974  25.772  27.365  1.00  0.00     0.049 A 
ATOM     26  H   UNL A   1      45.182  26.652  27.965  1.00  0.00     0.167 HD
ATOM     27  C   UNL A   1      41.274  28.383  28.948  1.00  0.00     0.031 A 
ATOM     28  C   UNL A   1      47.912  26.736  27.362  1.00  0.00     0.031 A 
ATOM     29  C   UNL A   1      42.228  29.453  29.081  1.00  0.00     0.049 A 
ATOM     30  C   UNL A   1      47.508  28.133  27.722  1.00  0.00     0.074 A 
ATOM     31  C   UNL A   1      42.009  30.751  29.511  1.00  0.00     0.029 A 
ATOM     32  N   UNL A   1      43.575  29.357  28.768  1.00  0.00    -0.354 N 
ATOM     33  N   UNL A   1      46.333  28.580  28.095  1.00  0.00    -0.248 NA
ATOM     34  C   UNL A   1      48.553  29.162  27.655  1.00  0.00     0.031 C 
ATOM     35  C   UNL A   1      43.209  31.458  29.390  1.00  0.00     0.029 A 
ATOM     36  C   UNL A   1      44.189  30.586  28.945  1.00  0.00     0.049 A 
ATOM     37  H   UNL A   1      44.027  28.537  28.464  1.00  0.00     0.167 HD
ATOM     38  C   UNL A   1      46.499  29.939  28.315  1.00  0.00     0.074 A 
ATOM     39  C   UNL A   1      47.895  30.237  28.065  1.00  0.00     0.031 C 
ATOM     40  C   UNL A   1      45.577  30.861  28.683  1.00  0.00     0.031 A 
BRANCH  27  41
ATOM     41  C   UNL A   1      39.827  28.701  29.198  1.00  0.00    -0.014 A 
ATOM     42  C   UNL A   1      39.233  28.485  30.449  1.00  0.00     0.009 A 
ATOM     43  C   UNL A   1      39.074  29.318  28.185  1.00  0.00     0.009 A 
ATOM     44  C   UNL A   1      37.906  28.865  30.676  1.00  0.00     0.001 A 
ATOM     45  C   UNL A   1      37.757  29.717  28.421  1.00  0.00     0.001 A 
ATOM     46  C   UNL A   1      37.173  29.487  29.665  1.00  0.00     0.000 A 
ENDBRANCH  27  41
BRANCH  28  47
ATOM     47  C   UNL A   1      49.303  26.420  26.944  1.00  0.00    -0.014 A 
ATOM     48  C   UNL A   1      50.254  25.982  27.878  1.00  0.00     0.009 A 
ATOM     49  C   UNL A   1      49.689  26.567  25.602  1.00  0.00     0.009 A 
ATOM     50  C   UNL A   1      51.568  25.729  27.481  1.00  0.00     0.001 A 
ATOM     51  C   UNL A   1      50.994  26.279  25.201  1.00  0.00     0.001 A 
ATOM     52  C   UNL A   1      51.936  25.873  26.143  1.00  0.00     0.000 A 
ENDBRANCH  28  47
BRANCH  40  53
ATOM     53  C   UNL A   1      46.056  32.274  28.844  1.00  0.00    -0.014 A 
ATOM     54  C   UNL A   1      46.570  32.726  30.069  1.00  0.00     0.009 A 
ATOM     55  C   UNL A   1      46.036  33.147  27.747  1.00  0.00     0.009 A 
ATOM     56  C   UNL A   1      47.029  34.037  30.199  1.00  0.00     0.001 A 
ATOM     57  C   UNL A   1      46.524  34.448  27.871  1.00  0.00     0.001 A 
ATOM     58  C   UNL A   1      47.012  34.894  29.098  1.00  0.00     0.000 A 
ENDBRANCH  40  53
ENDBRANCH  14  15
ENDBRANCH   7   9
ENDBRANCH   4   5
ENDBRANCH   3   4
ENDBRANCH   2   3
ENDBRANCH   1   2
BRANCH   1  59
ATOM     59  C   UNL A   1      36.722  23.113  23.932  1.00  0.00     0.021 C 
BRANCH  59  60
ATOM     60  C   UNL A   1      35.664  24.061  24.491  1.00  0.00     0.116 C 
BRANCH  60  61
ATOM     61  N   UNL A   1      34.848  24.570  23.422  1.00  0.00    -0.356 N 
ATOM     62  C   UNL A   1      33.601  24.272  23.015  1.00  0.00     0.224 C 
ATOM     63  H   UNL A   1      35.286  25.271  22.886  1.00  0.00     0.163 HD
ATOM     64  O   UNL A   1      33.308  24.707  21.890  1.00  0.00    -0.275 OA
BRANCH  62  65
ATOM     65  C   UNL A   1      32.513  23.548  23.814  1.00  0.00     0.095 C 
ATOM     66  C   UNL A   1      32.303  22.130  23.267  1.00  0.00     0.041 C 
ATOM     67  C   UNL A   1      32.330  23.621  25.335  1.00  0.00     0.095 C 
ATOM     68  C   UNL A   1      33.064  21.101  24.035  1.00  0.00    -0.030 C 
ATOM     69  C   UNL A   1      33.175  22.546  26.080  1.00  0.00     0.041 C 
ATOM     70  C   UNL A   1      33.470  21.298  25.295  1.00  0.00    -0.030 C 
BRANCH  67  71
ATOM     71  C   UNL A   1      30.844  23.438  25.718  1.00  0.00     0.224 C 
ATOM     72  O   UNL A   1      30.421  22.367  26.169  1.00  0.00    -0.275 OA
ATOM     73  N   UNL A   1      29.916  24.425  25.625  1.00  0.00    -0.344 N 
ATOM     74  H   UNL A   1      29.051  24.164  26.019  1.00  0.00     0.164 HD
BRANCH  73  75
ATOM     75  C   UNL A   1      29.891  25.789  25.080  1.00  0.00     0.172 C 
ATOM     76  C   UNL A   1      29.846  25.855  23.557  1.00  0.00     0.037 C 
ATOM     77  C   UNL A   1      30.767  26.774  25.871  1.00  0.00     0.249 C 
ATOM     78  C   UNL A   1      30.400  27.152  23.000  1.00  0.00     0.025 C 
ATOM     79  N   UNL A   1      31.583  27.642  25.150  1.00  0.00    -0.308 N 
ATOM     80  O   UNL A   1      30.648  26.809  27.101  1.00  0.00    -0.272 OA
ATOM     81  C   UNL A   1      31.676  27.596  23.691  1.00  0.00     0.126 C 
BRANCH  79  82
ATOM     82  C   UNL A   1      32.501  28.496  25.852  1.00  0.00     0.080 A 
ATOM     83  C   UNL A   1      32.153  29.821  26.149  1.00  0.00     0.029 A 
ATOM     84  C   UNL A   1      33.758  28.038  26.286  1.00  0.00     0.146 A 
ATOM     85  C   UNL A   1      33.017  30.641  26.885  1.00  0.00     0.002 A 
ATOM     86  C   UNL A   1      34.622  28.853  27.017  1.00  0.00     0.041 A 
ATOM     87  F   UNL A   1      34.214  26.827  25.931  1.00  0.00    -0.205 F 
ATOM     88  C   UNL A   1      34.247  30.156  27.325  1.00  0.00     0.003 A 
ENDBRANCH  79  82
ENDBRANCH  73  75
ENDBRANCH  67  71
ENDBRANCH  62  65
ENDBRANCH  60  61
ENDBRANCH  59  60
ENDBRANCH   1  59
TORSDOF 16
ENDMDL
MODEL 3
REMARK VINA RESULT:     -12.4      0.409      5.633
REMARK SMILES O=C(NCCCCCCNC(=O)[C@H]1CC=CC[C@@H]1C(=O)N[C@@H]1CCCN(c2ccccc2F)C1=O)c1ccc(-c2c3nc(c(-c4ccccc4)c4ccc([nH]4)c(-c4ccccc4)c4nc(c(-c5ccccc5)c5ccc2[nH]5)C=C4)C=C3)cc1
REMARK SMILES IDX 7 1 6 2 5 3 4 4 3 5 1 6 2 7 36 9 37 10 83 11 38 12 82 13
REMARK SMILES IDX 39 14 40 15 41 16 76 17 42 18 81 19 75 20 77 21 43 22 80 23
REMARK SMILES IDX 74 24 73 25 44 27 66 28 51 29 65 30 52 31 55 32 64 33 78 34
REMARK SMILES IDX 53 35 54 36 63 38 79 39 56 40 45 41 46 42 50 43 47 44 49 45
REMARK SMILES IDX 48 46 67 47 68 48 72 49 69 50 71 51 70 52 57 53 58 54 62 55
REMARK SMILES IDX 59 56 61 57 60 58 8 59 9 60 10 61 11 62 12 64 13 65 14 66
REMARK SMILES IDX 18 67 15 68 17 69 16 70 19 71 20 72 21 73 22 75 23 76 34 77
REMARK SMILES IDX 24 78 26 79 35 80 25 81 27 82 28 83 32 84 29 85 31 86 33 87
REMARK SMILES IDX 30 88
REMARK H PARENT 3 8 77 26 55 37 10 63 21 74
REMARK Flexibility Score: inf
ROOT
ATOM      1  C   UNL A   1      32.384  29.824  27.181  1.00  0.00     0.002 C 
ENDROOT
BRANCH   1   2
ATOM      2  C   UNL A   1      31.663  30.742  26.185  1.00  0.00     0.002 C 
BRANCH   2   3
ATOM      3  C   UNL A   1      31.451  32.174  26.683  1.00  0.00     0.021 C 
BRANCH   3   4
ATOM      4  C   UNL A   1      32.673  32.763  27.374  1.00  0.00     0.116 C 
BRANCH   4   5
ATOM      5  N   UNL A   1      32.488  34.182  27.631  1.00  0.00    -0.352 N 
ATOM      6  O   UNL A   1      32.563  36.036  28.922  1.00  0.00    -0.269 OA
ATOM      7  C   UNL A   1      33.040  34.936  28.628  1.00  0.00     0.251 C 
ATOM      8  H   UNL A   1      31.892  34.659  27.010  1.00  0.00     0.163 HD
BRANCH   7   9
ATOM      9  C   UNL A   1      34.225  34.429  29.340  1.00  0.00     0.039 A 
ATOM     10  C   UNL A   1      34.075  33.835  30.598  1.00  0.00     0.014 A 
ATOM     11  C   UNL A   1      35.481  34.504  28.735  1.00  0.00     0.014 A 
ATOM     12  C   UNL A   1      35.190  33.384  31.287  1.00  0.00     0.010 A 
ATOM     13  C   UNL A   1      36.591  33.976  29.393  1.00  0.00     0.010 A 
ATOM     14  C   UNL A   1      36.449  33.405  30.668  1.00  0.00    -0.014 A 
BRANCH  14  15
ATOM     15  C   UNL A   1      37.574  32.682  31.303  1.00  0.00     0.031 A 
ATOM     16  C   UNL A   1      38.184  33.157  32.585  1.00  0.00     0.074 A 
ATOM     17  C   UNL A   1      38.051  31.592  30.670  1.00  0.00     0.049 A 
ATOM     18  N   UNL A   1      39.203  32.658  33.237  1.00  0.00    -0.248 NA
ATOM     19  C   UNL A   1      37.586  34.343  33.216  1.00  0.00     0.031 C 
ATOM     20  C   UNL A   1      37.533  31.054  29.407  1.00  0.00     0.029 A 
ATOM     21  N   UNL A   1      39.073  30.740  30.996  1.00  0.00    -0.354 N 
ATOM     22  C   UNL A   1      39.386  33.481  34.341  1.00  0.00     0.074 A 
ATOM     23  C   UNL A   1      38.378  34.517  34.268  1.00  0.00     0.031 C 
ATOM     24  C   UNL A   1      38.224  29.954  29.079  1.00  0.00     0.029 A 
ATOM     25  C   UNL A   1      39.276  29.751  30.063  1.00  0.00     0.049 A 
ATOM     26  H   UNL A   1      39.610  30.828  31.816  1.00  0.00     0.167 HD
ATOM     27  C   UNL A   1      40.316  33.374  35.317  1.00  0.00     0.031 A 
ATOM     28  C   UNL A   1      40.231  28.807  29.985  1.00  0.00     0.031 A 
ATOM     29  C   UNL A   1      41.308  32.332  35.376  1.00  0.00     0.049 A 
ATOM     30  C   UNL A   1      41.275  28.750  31.060  1.00  0.00     0.074 A 
ATOM     31  C   UNL A   1      42.251  32.098  36.363  1.00  0.00     0.029 A 
ATOM     32  N   UNL A   1      41.498  31.364  34.402  1.00  0.00    -0.354 N 
ATOM     33  N   UNL A   1      41.387  29.488  32.137  1.00  0.00    -0.248 NA
ATOM     34  C   UNL A   1      42.328  27.739  30.906  1.00  0.00     0.031 C 
ATOM     35  C   UNL A   1      43.056  31.032  35.952  1.00  0.00     0.029 A 
ATOM     36  C   UNL A   1      42.577  30.563  34.739  1.00  0.00     0.049 A 
ATOM     37  H   UNL A   1      40.950  31.262  33.592  1.00  0.00     0.167 HD
ATOM     38  C   UNL A   1      42.516  29.025  32.795  1.00  0.00     0.074 A 
ATOM     39  C   UNL A   1      43.036  27.922  32.011  1.00  0.00     0.031 C 
ATOM     40  C   UNL A   1      43.081  29.477  33.941  1.00  0.00     0.031 A 
BRANCH  27  41
ATOM     41  C   UNL A   1      40.341  34.424  36.391  1.00  0.00    -0.014 A 
ATOM     42  C   UNL A   1      41.087  35.603  36.249  1.00  0.00     0.009 A 
ATOM     43  C   UNL A   1      39.525  34.270  37.524  1.00  0.00     0.009 A 
ATOM     44  C   UNL A   1      41.027  36.599  37.229  1.00  0.00     0.001 A 
ATOM     45  C   UNL A   1      39.448  35.275  38.489  1.00  0.00     0.001 A 
ATOM     46  C   UNL A   1      40.203  36.438  38.342  1.00  0.00     0.000 A 
ENDBRANCH  27  41
BRANCH  28  47
ATOM     47  C   UNL A   1      40.278  27.890  28.817  1.00  0.00    -0.014 A 
ATOM     48  C   UNL A   1      39.685  26.620  28.875  1.00  0.00     0.009 A 
ATOM     49  C   UNL A   1      40.929  28.280  27.636  1.00  0.00     0.009 A 
ATOM     50  C   UNL A   1      39.771  25.750  27.786  1.00  0.00     0.001 A 
ATOM     51  C   UNL A   1      40.983  27.423  26.536  1.00  0.00     0.001 A 
ATOM     52  C   UNL A   1      40.416  26.153  26.617  1.00  0.00     0.000 A 
ENDBRANCH  28  47
BRANCH  40  53
ATOM     53  C   UNL A   1      44.316  28.770  34.415  1.00  0.00    -0.014 A 
ATOM     54  C   UNL A   1      44.231  27.681  35.296  1.00  0.00     0.009 A 
ATOM     55  C   UNL A   1      45.574  29.168  33.939  1.00  0.00     0.009 A 
ATOM     56  C   UNL A   1      45.388  27.021  35.713  1.00  0.00     0.001 A 
ATOM     57  C   UNL A   1      46.726  28.487  34.334  1.00  0.00     0.001 A 
ATOM     58  C   UNL A   1      46.633  27.420  35.226  1.00  0.00     0.000 A 
ENDBRANCH  40  53
ENDBRANCH  14  15
ENDBRANCH   7   9
ENDBRANCH   4   5
ENDBRANCH   3   4
ENDBRANCH   2   3
ENDBRANCH   1   2
BRANCH   1  59
ATOM     59  C   UNL A   1      33.786  29.390  26.739  1.00  0.00     0.021 C 
BRANCH  59  60
ATOM     60  C   UNL A   1      33.793  28.034  26.037  1.00  0.00     0.116 C 
BRANCH  60  61
ATOM     61  N   UNL A   1      32.705  27.226  26.520  1.00  0.00    -0.356 N 
ATOM     62  C   UNL A   1      31.588  26.766  25.930  1.00  0.00     0.224 C 
ATOM     63  H   UNL A   1      32.797  26.959  27.464  1.00  0.00     0.163 HD
ATOM     64  O   UNL A   1      30.732  26.329  26.716  1.00  0.00    -0.275 OA
BRANCH  62  65
ATOM     65  C   UNL A   1      31.313  26.651  24.427  1.00  0.00     0.095 C 
ATOM     66  C   UNL A   1      30.159  27.577  24.022  1.00  0.00     0.041 C 
ATOM     67  C   UNL A   1      32.383  26.537  23.334  1.00  0.00     0.095 C 
ATOM     68  C   UNL A   1      30.638  28.884  23.481  1.00  0.00    -0.030 C 
ATOM     69  C   UNL A   1      32.865  27.932  22.837  1.00  0.00     0.041 C 
ATOM     70  C   UNL A   1      31.862  29.044  22.964  1.00  0.00    -0.030 C 
BRANCH  67  71
ATOM     71  C   UNL A   1      31.850  25.735  22.125  1.00  0.00     0.224 C 
ATOM     72  O   UNL A   1      31.456  26.300  21.099  1.00  0.00    -0.275 OA
ATOM     73  N   UNL A   1      31.806  24.378  22.083  1.00  0.00    -0.344 N 
ATOM     74  H   UNL A   1      31.545  24.040  21.195  1.00  0.00     0.164 HD
BRANCH  73  75
ATOM     75  C   UNL A   1      32.053  23.293  23.042  1.00  0.00     0.172 C 
ATOM     76  C   UNL A   1      31.006  23.180  24.145  1.00  0.00     0.037 C 
ATOM     77  C   UNL A   1      33.543  23.101  23.367  1.00  0.00     0.249 C 
ATOM     78  C   UNL A   1      31.532  22.511  25.400  1.00  0.00     0.025 C 
ATOM     79  N   UNL A   1      33.899  22.927  24.702  1.00  0.00    -0.308 N 
ATOM     80  O   UNL A   1      34.345  23.026  22.429  1.00  0.00    -0.272 OA
ATOM     81  C   UNL A   1      32.921  22.989  25.787  1.00  0.00     0.126 C 
BRANCH  79  82
ATOM     82  C   UNL A   1      35.290  22.861  25.060  1.00  0.00     0.080 A 
ATOM     83  C   UNL A   1      35.975  24.016  25.463  1.00  0.00     0.029 A 
ATOM     84  C   UNL A   1      36.004  21.649  25.046  1.00  0.00     0.146 A 
ATOM     85  C   UNL A   1      37.313  23.949  25.871  1.00  0.00     0.002 A 
ATOM     86  C   UNL A   1      37.337  21.580  25.449  1.00  0.00     0.041 A 
ATOM     87  F   UNL A   1      35.454  20.529  24.553  1.00  0.00    -0.205 F 
ATOM     88  C   UNL A   1      37.992  22.732  25.870  1.00  0.00     0.003 A 
ENDBRANCH  79  82
ENDBRANCH  73  75
ENDBRANCH  67  71
ENDBRANCH  62  65
ENDBRANCH  60  61
ENDBRANCH  59  60
ENDBRANCH   1  59
TORSDOF 16
ENDMDL
