MODEL 1
REMARK VINA RESULT:     -11.0      0.000      0.000
REMARK SMILES C[C@@H]1CCCN(C(=O)c2ccncc2/C=C/C(=O)NCCCCCCNC(=O)c2ccc(-c3c4nc(c(-c5ccccc5)c5ccc([nH]5)c(-c5ccccc5)c5nc(c(-c6ccccc6)c6ccc3[nH]6)C=C5)C=C4)cc2)[C@@H]1C
REMARK SMILES IDX 22 1 21 2 20 3 19 4 17 5 18 6 16 8 15 9 14 10 9 11 10 12
REMARK SMILES IDX 11 13 13 14 12 15 7 16 8 17 6 18 1 19 2 20 3 21 77 22 4 23
REMARK SMILES IDX 78 24 5 25 23 26 24 27 25 28 26 29 27 30 28 32 29 33 30 34
REMARK SMILES IDX 76 35 31 36 75 37 32 38 33 39 34 40 69 41 35 42 74 43 68 44
REMARK SMILES IDX 70 45 36 46 73 47 67 48 66 49 37 51 59 52 44 53 58 54 45 55
REMARK SMILES IDX 48 56 57 57 71 58 46 59 47 60 56 62 72 63 49 64 38 65 39 66
REMARK SMILES IDX 43 67 40 68 42 69 41 70 60 71 61 72 65 73 62 74 64 75 63 76
REMARK SMILES IDX 50 77 51 78 55 79 52 80 54 81 53 82
REMARK H PARENT 19 7 26 31 70 50 48 61
REMARK Flexibility Score: inf
ROOT
ATOM      1  C   UNL A   1      32.642  29.250  23.881  1.00  0.00     0.002 C 
ENDROOT
BRANCH   1   2
ATOM      2  C   UNL A   1      31.135  29.226  24.157  1.00  0.00     0.021 C 
BRANCH   2   3
ATOM      3  C   UNL A   1      30.282  28.815  22.959  1.00  0.00     0.116 C 
BRANCH   3   4
ATOM      4  N   UNL A   1      31.084  28.063  22.014  1.00  0.00    -0.353 N 
ATOM      5  C   UNL A   1      31.457  26.759  22.001  1.00  0.00     0.244 C 
ATOM      6  O   UNL A   1      32.118  26.329  21.058  1.00  0.00    -0.270 OA
ATOM      7  H   UNL A   1      31.415  28.589  21.250  1.00  0.00     0.163 HD
BRANCH   5   8
ATOM      8  C   UNL A   1      31.005  25.808  23.044  1.00  0.00     0.072 C 
ATOM      9  C   UNL A   1      31.739  25.336  24.065  1.00  0.00     0.016 C 
BRANCH   9  10
ATOM     10  C   UNL A   1      31.218  24.380  25.064  1.00  0.00     0.006 A 
ATOM     11  C   UNL A   1      31.519  23.008  25.046  1.00  0.00     0.050 A 
ATOM     12  C   UNL A   1      31.034  22.150  26.040  1.00  0.00     0.034 A 
ATOM     13  C   UNL A   1      30.187  22.677  26.994  1.00  0.00     0.112 A 
ATOM     14  C   UNL A   1      30.347  24.788  26.073  1.00  0.00     0.119 A 
ATOM     15  N   UNL A   1      29.822  23.973  27.024  1.00  0.00    -0.264 NA
BRANCH  11  16
ATOM     16  C   UNL A   1      32.433  22.445  24.025  1.00  0.00     0.254 C 
ATOM     17  O   UNL A   1      31.887  22.017  23.012  1.00  0.00    -0.269 OA
BRANCH  16  18
ATOM     18  N   UNL A   1      33.811  22.420  24.276  1.00  0.00    -0.336 N 
ATOM     19  C   UNL A   1      34.435  21.824  27.272  1.00  0.00     0.010 C 
ATOM     20  C   UNL A   1      35.327  21.542  26.061  1.00  0.00     0.008 C 
ATOM     21  C   UNL A   1      36.267  22.727  25.804  1.00  0.00     0.007 C 
ATOM     22  C   UNL A   1      34.516  21.207  24.777  1.00  0.00     0.085 C 
ATOM     23  C   UNL A   1      35.505  23.935  25.278  1.00  0.00     0.022 C 
ATOM     24  C   UNL A   1      33.692  19.929  24.972  1.00  0.00     0.031 C 
ATOM     25  C   UNL A   1      34.697  23.571  24.038  1.00  0.00     0.120 C 
ENDBRANCH  16  18
ENDBRANCH  11  16
ENDBRANCH   9  10
ENDBRANCH   5   8
ENDBRANCH   3   4
ENDBRANCH   2   3
ENDBRANCH   1   2
BRANCH   1  26
ATOM     26  C   UNL A   1      33.502  28.575  24.959  1.00  0.00     0.002 C 
BRANCH  26  27
ATOM     27  C   UNL A   1      32.747  28.116  26.212  1.00  0.00     0.021 C 
BRANCH  27  28
ATOM     28  C   UNL A   1      33.376  28.551  27.532  1.00  0.00     0.116 C 
BRANCH  28  29
ATOM     29  N   UNL A   1      33.468  30.000  27.637  1.00  0.00    -0.352 N 
ATOM     30  C   UNL A   1      34.496  30.778  28.106  1.00  0.00     0.251 C 
ATOM     31  H   UNL A   1      32.676  30.494  27.326  1.00  0.00     0.163 HD
ATOM     32  O   UNL A   1      34.319  31.971  28.327  1.00  0.00    -0.269 OA
BRANCH  30  33
ATOM     33  C   UNL A   1      35.822  30.175  28.361  1.00  0.00     0.039 A 
ATOM     34  C   UNL A   1      36.764  30.152  27.330  1.00  0.00     0.014 A 
ATOM     35  C   UNL A   1      36.130  29.621  29.608  1.00  0.00     0.014 A 
ATOM     36  C   UNL A   1      38.041  29.639  27.570  1.00  0.00     0.010 A 
ATOM     37  C   UNL A   1      37.421  29.166  29.863  1.00  0.00     0.010 A 
ATOM     38  C   UNL A   1      38.392  29.180  28.850  1.00  0.00    -0.014 A 
BRANCH  38  39
ATOM     39  C   UNL A   1      39.778  28.742  29.158  1.00  0.00     0.031 A 
ATOM     40  C   UNL A   1      40.738  29.676  29.839  1.00  0.00     0.074 A 
ATOM     41  C   UNL A   1      40.188  27.518  28.767  1.00  0.00     0.049 A 
ATOM     42  N   UNL A   1      42.009  29.502  30.105  1.00  0.00    -0.248 NA
ATOM     43  C   UNL A   1      40.209  30.982  30.264  1.00  0.00     0.031 C 
ATOM     44  C   UNL A   1      39.358  26.522  28.086  1.00  0.00     0.029 A 
ATOM     45  N   UNL A   1      41.412  26.906  28.882  1.00  0.00    -0.354 N 
ATOM     46  C   UNL A   1      42.429  30.672  30.726  1.00  0.00     0.074 A 
ATOM     47  C   UNL A   1      41.294  31.569  30.751  1.00  0.00     0.031 C 
ATOM     48  C   UNL A   1      40.088  25.418  27.864  1.00  0.00     0.029 A 
ATOM     49  C   UNL A   1      41.450  25.645  28.336  1.00  0.00     0.049 A 
ATOM     50  H   UNL A   1      42.188  27.330  29.313  1.00  0.00     0.167 HD
ATOM     51  C   UNL A   1      43.645  30.965  31.247  1.00  0.00     0.031 A 
ATOM     52  C   UNL A   1      42.472  24.775  28.213  1.00  0.00     0.031 A 
ATOM     53  C   UNL A   1      44.775  30.076  31.220  1.00  0.00     0.049 A 
ATOM     54  C   UNL A   1      43.831  25.164  28.729  1.00  0.00     0.074 A 
ATOM     55  C   UNL A   1      46.040  30.277  31.744  1.00  0.00     0.029 A 
ATOM     56  N   UNL A   1      44.777  28.820  30.636  1.00  0.00    -0.354 N 
ATOM     57  N   UNL A   1      44.196  26.253  29.358  1.00  0.00    -0.248 NA
ATOM     58  C   UNL A   1      44.919  24.197  28.519  1.00  0.00     0.031 C 
ATOM     59  C   UNL A   1      46.825  29.164  31.430  1.00  0.00     0.029 A 
ATOM     60  C   UNL A   1      46.031  28.246  30.762  1.00  0.00     0.049 A 
ATOM     61  H   UNL A   1      44.003  28.397  30.198  1.00  0.00     0.167 HD
ATOM     62  C   UNL A   1      45.546  26.090  29.643  1.00  0.00     0.074 A 
ATOM     63  C   UNL A   1      45.929  24.790  29.138  1.00  0.00     0.031 C 
ATOM     64  C   UNL A   1      46.394  26.946  30.263  1.00  0.00     0.031 A 
BRANCH  51  65
ATOM     65  C   UNL A   1      43.818  32.308  31.900  1.00  0.00    -0.014 A 
ATOM     66  C   UNL A   1      43.570  32.481  33.270  1.00  0.00     0.009 A 
ATOM     67  C   UNL A   1      44.303  33.394  31.155  1.00  0.00     0.009 A 
ATOM     68  C   UNL A   1      43.779  33.720  33.878  1.00  0.00     0.001 A 
ATOM     69  C   UNL A   1      44.539  34.626  31.770  1.00  0.00     0.001 A 
ATOM     70  C   UNL A   1      44.271  34.790  33.129  1.00  0.00     0.000 A 
ENDBRANCH  51  65
BRANCH  52  71
ATOM     71  C   UNL A   1      42.270  23.456  27.554  1.00  0.00    -0.014 A 
ATOM     72  C   UNL A   1      41.856  22.343  28.301  1.00  0.00     0.009 A 
ATOM     73  C   UNL A   1      42.536  23.292  26.185  1.00  0.00     0.009 A 
ATOM     74  C   UNL A   1      41.756  21.084  27.701  1.00  0.00     0.001 A 
ATOM     75  C   UNL A   1      42.401  22.040  25.581  1.00  0.00     0.001 A 
ATOM     76  C   UNL A   1      42.026  20.935  26.342  1.00  0.00     0.000 A 
ENDBRANCH  52  71
BRANCH  64  77
ATOM     77  C   UNL A   1      47.813  26.489  30.461  1.00  0.00    -0.014 A 
ATOM     78  C   UNL A   1      48.205  25.825  31.633  1.00  0.00     0.009 A 
ATOM     79  C   UNL A   1      48.754  26.679  29.437  1.00  0.00     0.009 A 
ATOM     80  C   UNL A   1      49.522  25.384  31.786  1.00  0.00     0.001 A 
ATOM     81  C   UNL A   1      50.060  26.210  29.580  1.00  0.00     0.001 A 
ATOM     82  C   UNL A   1      50.445  25.570  30.757  1.00  0.00     0.000 A 
ENDBRANCH  64  77
ENDBRANCH  38  39
ENDBRANCH  30  33
ENDBRANCH  28  29
ENDBRANCH  27  28
ENDBRANCH  26  27
ENDBRANCH   1  26
TORSDOF 16
ENDMDL
MODEL 2
REMARK VINA RESULT:     -10.4      1.768      2.256
REMARK SMILES C[C@@H]1CCCN(C(=O)c2ccncc2/C=C/C(=O)NCCCCCCNC(=O)c2ccc(-c3c4nc(c(-c5ccccc5)c5ccc([nH]5)c(-c5ccccc5)c5nc(c(-c6ccccc6)c6ccc3[nH]6)C=C5)C=C4)cc2)[C@@H]1C
REMARK SMILES IDX 22 1 21 2 20 3 19 4 17 5 18 6 16 8 15 9 14 10 9 11 10 12
REMARK SMILES IDX 11 13 13 14 12 15 7 16 8 17 6 18 1 19 2 20 3 21 77 22 4 23
REMARK SMILES IDX 78 24 5 25 23 26 24 27 25 28 26 29 27 30 28 32 29 33 30 34
REMARK SMILES IDX 76 35 31 36 75 37 32 38 33 39 34 40 69 41 35 42 74 43 68 44
REMARK SMILES IDX 70 45 36 46 73 47 67 48 66 49 37 51 59 52 44 53 58 54 45 55
REMARK SMILES IDX 48 56 57 57 71 58 46 59 47 60 56 62 72 63 49 64 38 65 39 66
REMARK SMILES IDX 43 67 40 68 42 69 41 70 60 71 61 72 65 73 62 74 64 75 63 76
REMARK SMILES IDX 50 77 51 78 55 79 52 80 54 81 53 82
REMARK H PARENT 19 7 26 31 70 50 48 61
REMARK Flexibility Score: inf
ROOT
ATOM      1  C   UNL A   1      33.672  28.472  24.955  1.00  0.00     0.002 C 
ENDROOT
BRANCH   1   2
ATOM      2  C   UNL A   1      34.036  28.661  23.479  1.00  0.00     0.021 C 
BRANCH   2   3
ATOM      3  C   UNL A   1      33.399  27.642  22.537  1.00  0.00     0.116 C 
BRANCH   3   4
ATOM      4  N   UNL A   1      32.103  28.119  22.095  1.00  0.00    -0.353 N 
ATOM      5  C   UNL A   1      30.850  27.795  22.498  1.00  0.00     0.244 C 
ATOM      6  O   UNL A   1      29.886  28.370  21.997  1.00  0.00    -0.270 OA
ATOM      7  H   UNL A   1      32.139  28.794  21.379  1.00  0.00     0.163 HD
BRANCH   5   8
ATOM      8  C   UNL A   1      30.608  26.836  23.602  1.00  0.00     0.072 C 
ATOM      9  C   UNL A   1      31.063  25.575  23.677  1.00  0.00     0.016 C 
BRANCH   9  10
ATOM     10  C   UNL A   1      30.773  24.673  24.811  1.00  0.00     0.006 A 
ATOM     11  C   UNL A   1      31.286  23.370  24.908  1.00  0.00     0.050 A 
ATOM     12  C   UNL A   1      31.015  22.568  26.025  1.00  0.00     0.034 A 
ATOM     13  C   UNL A   1      30.164  23.070  26.990  1.00  0.00     0.112 A 
ATOM     14  C   UNL A   1      29.921  25.059  25.845  1.00  0.00     0.119 A 
ATOM     15  N   UNL A   1      29.601  24.291  26.917  1.00  0.00    -0.264 NA
BRANCH  11  16
ATOM     16  C   UNL A   1      32.203  22.836  23.875  1.00  0.00     0.254 C 
ATOM     17  O   UNL A   1      31.657  22.337  22.896  1.00  0.00    -0.269 OA
BRANCH  16  18
ATOM     18  N   UNL A   1      33.587  22.914  24.079  1.00  0.00    -0.336 N 
ATOM     19  C   UNL A   1      34.366  22.253  27.025  1.00  0.00     0.010 C 
ATOM     20  C   UNL A   1      35.233  22.093  25.775  1.00  0.00     0.008 C 
ATOM     21  C   UNL A   1      36.065  23.361  25.537  1.00  0.00     0.007 C 
ATOM     22  C   UNL A   1      34.405  21.744  24.505  1.00  0.00     0.085 C 
ATOM     23  C   UNL A   1      35.189  24.522  25.088  1.00  0.00     0.022 C 
ATOM     24  C   UNL A   1      33.695  20.396  24.672  1.00  0.00     0.031 C 
ATOM     25  C   UNL A   1      34.368  24.142  23.861  1.00  0.00     0.120 C 
ENDBRANCH  16  18
ENDBRANCH  11  16
ENDBRANCH   9  10
ENDBRANCH   5   8
ENDBRANCH   3   4
ENDBRANCH   2   3
ENDBRANCH   1   2
BRANCH   1  26
ATOM     26  C   UNL A   1      32.476  29.309  25.433  1.00  0.00     0.002 C 
BRANCH  26  27
ATOM     27  C   UNL A   1      32.600  29.886  26.848  1.00  0.00     0.021 C 
BRANCH  27  28
ATOM     28  C   UNL A   1      34.003  30.349  27.227  1.00  0.00     0.116 C 
BRANCH  28  29
ATOM     29  N   UNL A   1      33.978  31.582  28.000  1.00  0.00    -0.352 N 
ATOM     30  C   UNL A   1      34.788  31.984  29.032  1.00  0.00     0.251 C 
ATOM     31  H   UNL A   1      33.276  32.223  27.743  1.00  0.00     0.163 HD
ATOM     32  O   UNL A   1      34.486  32.958  29.712  1.00  0.00    -0.269 OA
BRANCH  30  33
ATOM     33  C   UNL A   1      36.022  31.231  29.337  1.00  0.00     0.039 A 
ATOM     34  C   UNL A   1      37.229  31.655  28.775  1.00  0.00     0.014 A 
ATOM     35  C   UNL A   1      35.989  30.102  30.162  1.00  0.00     0.014 A 
ATOM     36  C   UNL A   1      38.415  30.991  29.098  1.00  0.00     0.010 A 
ATOM     37  C   UNL A   1      37.179  29.480  30.531  1.00  0.00     0.010 A 
ATOM     38  C   UNL A   1      38.404  29.924  30.012  1.00  0.00    -0.014 A 
BRANCH  38  39
ATOM     39  C   UNL A   1      39.667  29.281  30.460  1.00  0.00     0.031 A 
ATOM     40  C   UNL A   1      40.408  29.812  31.655  1.00  0.00     0.074 A 
ATOM     41  C   UNL A   1      40.176  28.254  29.751  1.00  0.00     0.049 A 
ATOM     42  N   UNL A   1      41.568  29.440  32.137  1.00  0.00    -0.248 NA
ATOM     43  C   UNL A   1      39.774  30.915  32.397  1.00  0.00     0.031 C 
ATOM     44  C   UNL A   1      39.561  27.654  28.565  1.00  0.00     0.029 A 
ATOM     45  N   UNL A   1      41.334  27.536  29.922  1.00  0.00    -0.354 N 
ATOM     46  C   UNL A   1      41.801  30.260  33.235  1.00  0.00     0.074 A 
ATOM     47  C   UNL A   1      40.689  31.183  33.318  1.00  0.00     0.031 C 
ATOM     48  C   UNL A   1      40.334  26.648  28.129  1.00  0.00     0.029 A 
ATOM     49  C   UNL A   1      41.524  26.563  28.969  1.00  0.00     0.049 A 
ATOM     50  H   UNL A   1      41.967  27.702  30.656  1.00  0.00     0.167 HD
ATOM     51  C   UNL A   1      42.836  30.233  34.108  1.00  0.00     0.031 A 
ATOM     52  C   UNL A   1      42.551  25.712  28.781  1.00  0.00     0.031 A 
ATOM     53  C   UNL A   1      43.943  29.318  34.026  1.00  0.00     0.049 A 
ATOM     54  C   UNL A   1      43.726  25.761  29.721  1.00  0.00     0.074 A 
ATOM     55  C   UNL A   1      45.027  29.199  34.879  1.00  0.00     0.029 A 
ATOM     56  N   UNL A   1      44.109  28.367  33.031  1.00  0.00    -0.354 N 
ATOM     57  N   UNL A   1      43.905  26.508  30.782  1.00  0.00    -0.248 NA
ATOM     58  C   UNL A   1      44.840  24.846  29.435  1.00  0.00     0.031 C 
ATOM     59  C   UNL A   1      45.877  28.212  34.371  1.00  0.00     0.029 A 
ATOM     60  C   UNL A   1      45.293  27.677  33.234  1.00  0.00     0.049 A 
ATOM     61  H   UNL A   1      43.480  28.205  32.292  1.00  0.00     0.167 HD
ATOM     62  C   UNL A   1      45.135  26.133  31.305  1.00  0.00     0.074 A 
ATOM     63  C   UNL A   1      45.649  25.078  30.458  1.00  0.00     0.031 C 
ATOM     64  C   UNL A   1      45.785  26.623  32.388  1.00  0.00     0.031 A 
BRANCH  51  65
ATOM     65  C   UNL A   1      42.821  31.222  35.239  1.00  0.00    -0.014 A 
ATOM     66  C   UNL A   1      42.262  30.889  36.482  1.00  0.00     0.009 A 
ATOM     67  C   UNL A   1      43.436  32.475  35.086  1.00  0.00     0.009 A 
ATOM     68  C   UNL A   1      42.295  31.798  37.541  1.00  0.00     0.001 A 
ATOM     69  C   UNL A   1      43.493  33.372  36.154  1.00  0.00     0.001 A 
ATOM     70  C   UNL A   1      42.918  33.035  37.379  1.00  0.00     0.000 A 
ENDBRANCH  51  65
BRANCH  52  71
ATOM     71  C   UNL A   1      42.540  24.749  27.647  1.00  0.00    -0.014 A 
ATOM     72  C   UNL A   1      43.118  25.092  26.415  1.00  0.00     0.009 A 
ATOM     73  C   UNL A   1      41.910  23.501  27.774  1.00  0.00     0.009 A 
ATOM     74  C   UNL A   1      43.026  24.226  25.322  1.00  0.00     0.001 A 
ATOM     75  C   UNL A   1      41.850  22.622  26.690  1.00  0.00     0.001 A 
ATOM     76  C   UNL A   1      42.394  22.991  25.461  1.00  0.00     0.000 A 
ENDBRANCH  52  71
BRANCH  64  77
ATOM     77  C   UNL A   1      47.108  26.000  32.740  1.00  0.00    -0.014 A 
ATOM     78  C   UNL A   1      48.306  26.483  32.195  1.00  0.00     0.009 A 
ATOM     79  C   UNL A   1      47.156  24.951  33.671  1.00  0.00     0.009 A 
ATOM     80  C   UNL A   1      49.527  25.909  32.556  1.00  0.00     0.001 A 
ATOM     81  C   UNL A   1      48.380  24.400  34.054  1.00  0.00     0.001 A 
ATOM     82  C   UNL A   1      49.563  24.874  33.490  1.00  0.00     0.000 A 
ENDBRANCH  64  77
ENDBRANCH  38  39
ENDBRANCH  30  33
ENDBRANCH  28  29
ENDBRANCH  27  28
ENDBRANCH  26  27
ENDBRANCH   1  26
TORSDOF 16
ENDMDL
MODEL 3
REMARK VINA RESULT:     -10.3      2.819      4.357
REMARK SMILES C[C@@H]1CCCN(C(=O)c2ccncc2/C=C/C(=O)NCCCCCCNC(=O)c2ccc(-c3c4nc(c(-c5ccccc5)c5ccc([nH]5)c(-c5ccccc5)c5nc(c(-c6ccccc6)c6ccc3[nH]6)C=C5)C=C4)cc2)[C@@H]1C
REMARK SMILES IDX 22 1 21 2 20 3 19 4 17 5 18 6 16 8 15 9 14 10 9 11 10 12
REMARK SMILES IDX 11 13 13 14 12 15 7 16 8 17 6 18 1 19 2 20 3 21 77 22 4 23
REMARK SMILES IDX 78 24 5 25 23 26 24 27 25 28 26 29 27 30 28 32 29 33 30 34
REMARK SMILES IDX 76 35 31 36 75 37 32 38 33 39 34 40 69 41 35 42 74 43 68 44
REMARK SMILES IDX 70 45 36 46 73 47 67 48 66 49 37 51 59 52 44 53 58 54 45 55
REMARK SMILES IDX 48 56 57 57 71 58 46 59 47 60 56 62 72 63 49 64 38 65 39 66
REMARK SMILES IDX 43 67 40 68 42 69 41 70 60 71 61 72 65 73 62 74 64 75 63 76
REMARK SMILES IDX 50 77 51 78 55 79 52 80 54 81 53 82
REMARK H PARENT 19 7 26 31 70 50 48 61
REMARK Flexibility Score: inf
ROOT
ATOM      1  C   UNL A   1      34.922  31.745  28.489  1.00  0.00     0.002 C 
ENDROOT
BRANCH   1   2
ATOM      2  C   UNL A   1      34.915  30.518  27.570  1.00  0.00     0.021 C 
BRANCH   2   3
ATOM      3  C   UNL A   1      33.607  30.306  26.812  1.00  0.00     0.116 C 
BRANCH   3   4
ATOM      4  N   UNL A   1      32.705  29.489  27.600  1.00  0.00    -0.353 N 
ATOM      5  C   UNL A   1      32.011  28.368  27.283  1.00  0.00     0.244 C 
ATOM      6  O   UNL A   1      31.327  27.816  28.143  1.00  0.00    -0.270 OA
ATOM      7  H   UNL A   1      32.572  29.803  28.524  1.00  0.00     0.163 HD
BRANCH   5   8
ATOM      8  C   UNL A   1      32.132  27.725  25.953  1.00  0.00     0.072 C 
ATOM      9  C   UNL A   1      32.915  26.678  25.641  1.00  0.00     0.016 C 
BRANCH   9  10
ATOM     10  C   UNL A   1      32.987  26.095  24.286  1.00  0.00     0.006 A 
ATOM     11  C   UNL A   1      32.566  24.789  23.987  1.00  0.00     0.050 A 
ATOM     12  C   UNL A   1      32.617  24.296  22.677  1.00  0.00     0.034 A 
ATOM     13  C   UNL A   1      33.166  25.105  21.702  1.00  0.00     0.112 A 
ATOM     14  C   UNL A   1      33.530  26.807  23.218  1.00  0.00     0.119 A 
ATOM     15  N   UNL A   1      33.637  26.343  21.946  1.00  0.00    -0.264 NA
BRANCH  11  16
ATOM     16  C   UNL A   1      31.970  23.926  25.033  1.00  0.00     0.254 C 
ATOM     17  O   UNL A   1      31.027  24.417  25.645  1.00  0.00    -0.269 OA
BRANCH  16  18
ATOM     18  N   UNL A   1      32.512  22.654  25.263  1.00  0.00    -0.336 N 
ATOM     19  C   UNL A   1      35.346  22.353  23.997  1.00  0.00     0.010 C 
ATOM     20  C   UNL A   1      34.777  21.594  25.198  1.00  0.00     0.008 C 
ATOM     21  C   UNL A   1      34.119  20.286  24.740  1.00  0.00     0.007 C 
ATOM     22  C   UNL A   1      33.772  22.442  26.029  1.00  0.00     0.085 C 
ATOM     23  C   UNL A   1      32.829  20.552  23.977  1.00  0.00     0.022 C 
ATOM     24  C   UNL A   1      34.463  23.674  26.626  1.00  0.00     0.031 C 
ATOM     25  C   UNL A   1      31.876  21.409  24.802  1.00  0.00     0.120 C 
ENDBRANCH  16  18
ENDBRANCH  11  16
ENDBRANCH   9  10
ENDBRANCH   5   8
ENDBRANCH   3   4
ENDBRANCH   2   3
ENDBRANCH   1   2
BRANCH   1  26
ATOM     26  C   UNL A   1      35.326  33.057  27.802  1.00  0.00     0.002 C 
BRANCH  26  27
ATOM     27  C   UNL A   1      34.458  34.274  28.145  1.00  0.00     0.021 C 
BRANCH  27  28
ATOM     28  C   UNL A   1      33.260  33.971  29.041  1.00  0.00     0.116 C 
BRANCH  28  29
ATOM     29  N   UNL A   1      33.232  34.827  30.217  1.00  0.00    -0.352 N 
ATOM     30  C   UNL A   1      33.973  34.753  31.370  1.00  0.00     0.251 C 
ATOM     31  H   UNL A   1      32.588  35.570  30.180  1.00  0.00     0.163 HD
ATOM     32  O   UNL A   1      33.665  35.425  32.348  1.00  0.00    -0.269 OA
BRANCH  30  33
ATOM     33  C   UNL A   1      35.139  33.847  31.442  1.00  0.00     0.039 A 
ATOM     34  C   UNL A   1      36.364  34.280  30.929  1.00  0.00     0.014 A 
ATOM     35  C   UNL A   1      35.022  32.569  31.998  1.00  0.00     0.014 A 
ATOM     36  C   UNL A   1      37.490  33.460  31.040  1.00  0.00     0.010 A 
ATOM     37  C   UNL A   1      36.156  31.779  32.163  1.00  0.00     0.010 A 
ATOM     38  C   UNL A   1      37.404  32.221  31.695  1.00  0.00    -0.014 A 
BRANCH  38  39
ATOM     39  C   UNL A   1      38.611  31.388  31.929  1.00  0.00     0.031 A 
ATOM     40  C   UNL A   1      39.547  31.704  33.062  1.00  0.00     0.074 A 
ATOM     41  C   UNL A   1      38.895  30.380  31.080  1.00  0.00     0.049 A 
ATOM     42  N   UNL A   1      40.694  31.148  33.364  1.00  0.00    -0.248 NA
ATOM     43  C   UNL A   1      39.154  32.799  33.965  1.00  0.00     0.031 C 
ATOM     44  C   UNL A   1      38.076  29.978  29.935  1.00  0.00     0.029 A 
ATOM     45  N   UNL A   1      39.958  29.511  31.046  1.00  0.00    -0.354 N 
ATOM     46  C   UNL A   1      41.156  31.822  34.488  1.00  0.00     0.074 A 
ATOM     47  C   UNL A   1      40.194  32.862  34.784  1.00  0.00     0.031 C 
ATOM     48  C   UNL A   1      38.653  28.931  29.325  1.00  0.00     0.029 A 
ATOM     49  C   UNL A   1      39.908  28.620  30.001  1.00  0.00     0.049 A 
ATOM     50  H   UNL A   1      40.687  29.526  31.707  1.00  0.00     0.167 HD
ATOM     51  C   UNL A   1      42.271  31.583  35.220  1.00  0.00     0.031 A 
ATOM     52  C   UNL A   1      40.785  27.671  29.617  1.00  0.00     0.031 A 
ATOM     53  C   UNL A   1      43.229  30.551  34.926  1.00  0.00     0.049 A 
ATOM     54  C   UNL A   1      42.054  27.484  30.405  1.00  0.00     0.074 A 
ATOM     55  C   UNL A   1      44.376  30.218  35.625  1.00  0.00     0.029 A 
ATOM     56  N   UNL A   1      43.153  29.688  33.844  1.00  0.00    -0.354 N 
ATOM     57  N   UNL A   1      42.450  28.097  31.493  1.00  0.00    -0.248 NA
ATOM     58  C   UNL A   1      42.997  26.471  29.908  1.00  0.00     0.031 C 
ATOM     59  C   UNL A   1      45.024  29.188  34.936  1.00  0.00     0.029 A 
ATOM     60  C   UNL A   1      44.249  28.842  33.841  1.00  0.00     0.049 A 
ATOM     61  H   UNL A   1      42.428  29.677  33.178  1.00  0.00     0.167 HD
ATOM     62  C   UNL A   1      43.670  27.524  31.826  1.00  0.00     0.074 A 
ATOM     63  C   UNL A   1      43.939  26.501  30.839  1.00  0.00     0.031 C 
ATOM     64  C   UNL A   1      44.498  27.822  32.856  1.00  0.00     0.031 A 
BRANCH  51  65
ATOM     65  C   UNL A   1      42.515  32.452  36.421  1.00  0.00    -0.014 A 
ATOM     66  C   UNL A   1      42.051  32.075  37.691  1.00  0.00     0.009 A 
ATOM     67  C   UNL A   1      43.279  33.623  36.298  1.00  0.00     0.009 A 
ATOM     68  C   UNL A   1      42.325  32.865  38.809  1.00  0.00     0.001 A 
ATOM     69  C   UNL A   1      43.576  34.398  37.421  1.00  0.00     0.001 A 
ATOM     70  C   UNL A   1      43.093  34.022  38.675  1.00  0.00     0.000 A 
ENDBRANCH  51  65
BRANCH  52  71
ATOM     71  C   UNL A   1      40.517  26.832  28.418  1.00  0.00    -0.014 A 
ATOM     72  C   UNL A   1      39.747  25.664  28.524  1.00  0.00     0.009 A 
ATOM     73  C   UNL A   1      41.070  27.167  27.172  1.00  0.00     0.009 A 
ATOM     74  C   UNL A   1      39.572  24.827  27.418  1.00  0.00     0.001 A 
ATOM     75  C   UNL A   1      40.866  26.347  26.060  1.00  0.00     0.001 A 
ATOM     76  C   UNL A   1      40.130  25.170  26.188  1.00  0.00     0.000 A 
ENDBRANCH  52  71
BRANCH  64  77
ATOM     77  C   UNL A   1      45.756  27.011  32.989  1.00  0.00    -0.014 A 
ATOM     78  C   UNL A   1      45.767  25.796  33.690  1.00  0.00     0.009 A 
ATOM     79  C   UNL A   1      46.932  27.444  32.357  1.00  0.00     0.009 A 
ATOM     80  C   UNL A   1      46.940  25.044  33.778  1.00  0.00     0.001 A 
ATOM     81  C   UNL A   1      48.095  26.675  32.420  1.00  0.00     0.001 A 
ATOM     82  C   UNL A   1      48.100  25.480  33.137  1.00  0.00     0.000 A 
ENDBRANCH  64  77
ENDBRANCH  38  39
ENDBRANCH  30  33
ENDBRANCH  28  29
ENDBRANCH  27  28
ENDBRANCH  26  27
ENDBRANCH   1  26
TORSDOF 16
ENDMDL
