MODEL 1
REMARK VINA RESULT:     -11.2      0.000      0.000
REMARK SMILES CC(C)n1ncnc1C[C@@H](C(=O)NCCCCCCNC(=O)c1ccc(-c2c3nc(c(-c4ccccc4)c4ccc([nH]4)c(-c4ccccc4)c4nc(c(-c5ccccc5)c5ccc2[nH]5)C=C4)C=C3)cc1)c1cccc(Br)c1
REMARK SMILES IDX 16 1 15 2 14 3 13 4 11 5 12 6 10 8 9 9 8 10 4 11 5 12 6 13
REMARK SMILES IDX 7 14 2 15 1 16 3 17 71 18 72 19 77 20 73 21 75 22 74 23
REMARK SMILES IDX 76 24 17 25 18 26 19 27 20 28 21 29 22 31 23 32 24 33 70 34
REMARK SMILES IDX 25 35 69 36 26 37 27 38 28 39 63 40 29 41 68 42 62 43 64 44
REMARK SMILES IDX 30 45 67 46 61 47 60 48 31 50 53 51 38 52 52 53 39 54 42 55
REMARK SMILES IDX 51 56 65 57 40 58 41 59 50 61 66 62 43 63 32 64 33 65 37 66
REMARK SMILES IDX 34 67 36 68 35 69 54 70 55 71 59 72 56 73 58 74 57 75 44 76
REMARK SMILES IDX 45 77 49 78 46 79 48 80 47 81
REMARK H PARENT 13 7 20 30 64 49 42 60
REMARK Flexibility Score: inf
ROOT
ATOM      1  C   UNL A   1      37.251  21.705  24.350  1.00  0.00     0.002 C 
ENDROOT
BRANCH   1   2
ATOM      2  C   UNL A   1      37.494  22.778  25.410  1.00  0.00     0.021 C 
BRANCH   2   3
ATOM      3  C   UNL A   1      36.255  23.316  26.132  1.00  0.00     0.116 C 
BRANCH   3   4
ATOM      4  N   UNL A   1      35.521  22.214  26.717  1.00  0.00    -0.356 N 
ATOM      5  C   UNL A   1      34.164  22.023  26.682  1.00  0.00     0.228 C 
ATOM      6  O   UNL A   1      33.643  21.565  27.703  1.00  0.00    -0.274 OA
ATOM      7  H   UNL A   1      36.050  21.531  27.188  1.00  0.00     0.163 HD
BRANCH   5   8
ATOM      8  C   UNL A   1      33.369  22.263  25.374  1.00  0.00     0.116 C 
BRANCH   8   9
ATOM      9  C   UNL A   1      32.005  22.927  25.701  1.00  0.00     0.095 C 
BRANCH   9  10
ATOM     10  C   UNL A   1      31.947  24.419  25.791  1.00  0.00     0.128 A 
ATOM     11  N   UNL A   1      31.884  25.310  24.733  1.00  0.00    -0.248 N 
ATOM     12  N   UNL A   1      31.792  26.579  25.189  1.00  0.00    -0.159 NA
ATOM     13  C   UNL A   1      31.601  26.387  26.490  1.00  0.00     0.246 A 
ATOM     14  N   UNL A   1      31.697  25.093  26.897  1.00  0.00    -0.220 NA
BRANCH  11  15
ATOM     15  C   UNL A   1      31.543  25.038  23.338  1.00  0.00     0.103 C 
ATOM     16  C   UNL A   1      32.804  24.568  22.604  1.00  0.00     0.033 C 
ATOM     17  C   UNL A   1      30.437  23.983  23.176  1.00  0.00     0.033 C 
ENDBRANCH  11  15
ENDBRANCH   9  10
ENDBRANCH   8   9
BRANCH   8  18
ATOM     18  C   UNL A   1      33.121  20.919  24.609  1.00  0.00    -0.034 A 
ATOM     19  C   UNL A   1      32.545  20.905  23.322  1.00  0.00     0.004 A 
ATOM     20  C   UNL A   1      33.411  19.664  25.181  1.00  0.00     0.020 A 
ATOM     21  C   UNL A   1      32.129  19.713  22.715  1.00  0.00     0.001 A 
ATOM     22  C   UNL A   1      32.995  18.473  24.571  1.00  0.00     0.018 A 
ATOM     23  C   UNL A   1      32.329  18.495  23.353  1.00  0.00     0.016 A 
ATOM     24  Br  UNL A   1      33.300  16.815  25.432  1.00  0.00    -0.051 Br
ENDBRANCH   8  18
ENDBRANCH   5   8
ENDBRANCH   3   4
ENDBRANCH   2   3
ENDBRANCH   1   2
BRANCH   1  25
ATOM     25  C   UNL A   1      36.987  20.297  24.889  1.00  0.00     0.002 C 
BRANCH  25  26
ATOM     26  C   UNL A   1      38.194  19.348  24.935  1.00  0.00     0.021 C 
BRANCH  26  27
ATOM     27  C   UNL A   1      39.284  19.778  25.905  1.00  0.00     0.116 C 
BRANCH  27  28
ATOM     28  N   UNL A   1      40.542  19.068  25.692  1.00  0.00    -0.352 N 
ATOM     29  C   UNL A   1      41.830  19.569  25.720  1.00  0.00     0.251 C 
ATOM     30  H   UNL A   1      40.463  18.106  25.504  1.00  0.00     0.163 HD
ATOM     31  O   UNL A   1      42.752  18.955  25.210  1.00  0.00    -0.269 OA
BRANCH  29  32
ATOM     32  C   UNL A   1      42.079  20.860  26.391  1.00  0.00     0.039 A 
ATOM     33  C   UNL A   1      42.535  21.972  25.676  1.00  0.00     0.014 A 
ATOM     34  C   UNL A   1      41.876  20.939  27.766  1.00  0.00     0.014 A 
ATOM     35  C   UNL A   1      42.733  23.174  26.352  1.00  0.00     0.010 A 
ATOM     36  C   UNL A   1      41.919  22.152  28.399  1.00  0.00     0.010 A 
ATOM     37  C   UNL A   1      42.416  23.253  27.715  1.00  0.00    -0.014 A 
BRANCH  37  38
ATOM     38  C   UNL A   1      42.496  24.511  28.443  1.00  0.00     0.031 A 
ATOM     39  C   UNL A   1      41.384  25.451  28.156  1.00  0.00     0.074 A 
ATOM     40  C   UNL A   1      43.356  24.704  29.467  1.00  0.00     0.049 A 
ATOM     41  N   UNL A   1      41.459  26.594  27.560  1.00  0.00    -0.248 NA
ATOM     42  C   UNL A   1      40.007  25.013  28.442  1.00  0.00     0.031 C 
ATOM     43  C   UNL A   1      44.284  23.737  30.068  1.00  0.00     0.029 A 
ATOM     44  N   UNL A   1      43.486  25.783  30.283  1.00  0.00    -0.354 N 
ATOM     45  C   UNL A   1      40.170  27.117  27.578  1.00  0.00     0.074 A 
ATOM     46  C   UNL A   1      39.299  26.032  27.954  1.00  0.00     0.031 C 
ATOM     47  C   UNL A   1      44.685  24.185  31.279  1.00  0.00     0.029 A 
ATOM     48  C   UNL A   1      44.185  25.536  31.459  1.00  0.00     0.049 A 
ATOM     49  H   UNL A   1      43.115  26.667  30.059  1.00  0.00     0.167 HD
ATOM     50  C   UNL A   1      39.958  28.462  27.547  1.00  0.00     0.031 A 
ATOM     51  C   UNL A   1      44.318  26.373  32.517  1.00  0.00     0.031 A 
ATOM     52  C   UNL A   1      41.153  29.175  27.167  1.00  0.00     0.049 A 
ATOM     53  C   UNL A   1      44.000  27.737  32.038  1.00  0.00     0.074 A 
ATOM     54  C   UNL A   1      41.978  29.179  26.060  1.00  0.00     0.029 A 
ATOM     55  N   UNL A   1      41.881  29.744  28.186  1.00  0.00    -0.354 N 
ATOM     56  N   UNL A   1      44.746  28.390  31.194  1.00  0.00    -0.248 NA
ATOM     57  C   UNL A   1      42.627  28.199  32.146  1.00  0.00     0.031 C 
ATOM     58  C   UNL A   1      43.298  29.304  26.588  1.00  0.00     0.029 A 
ATOM     59  C   UNL A   1      43.202  29.451  27.974  1.00  0.00     0.049 A 
ATOM     60  H   UNL A   1      41.517  30.268  28.935  1.00  0.00     0.167 HD
ATOM     61  C   UNL A   1      43.844  29.011  30.343  1.00  0.00     0.074 A 
ATOM     62  C   UNL A   1      42.562  28.956  31.046  1.00  0.00     0.031 C 
ATOM     63  C   UNL A   1      44.163  29.245  29.036  1.00  0.00     0.031 A 
BRANCH  50  64
ATOM     64  C   UNL A   1      38.835  29.149  28.288  1.00  0.00    -0.014 A 
ATOM     65  C   UNL A   1      38.797  29.045  29.691  1.00  0.00     0.009 A 
ATOM     66  C   UNL A   1      37.672  29.634  27.662  1.00  0.00     0.009 A 
ATOM     67  C   UNL A   1      37.630  29.320  30.412  1.00  0.00     0.001 A 
ATOM     68  C   UNL A   1      36.518  29.950  28.383  1.00  0.00     0.001 A 
ATOM     69  C   UNL A   1      36.486  29.762  29.756  1.00  0.00     0.000 A 
ENDBRANCH  50  64
BRANCH  51  70
ATOM     70  C   UNL A   1      44.460  26.068  33.957  1.00  0.00    -0.014 A 
ATOM     71  C   UNL A   1      43.385  25.530  34.683  1.00  0.00     0.009 A 
ATOM     72  C   UNL A   1      45.735  26.031  34.548  1.00  0.00     0.009 A 
ATOM     73  C   UNL A   1      43.589  24.933  35.935  1.00  0.00     0.001 A 
ATOM     74  C   UNL A   1      45.937  25.435  35.798  1.00  0.00     0.001 A 
ATOM     75  C   UNL A   1      44.867  24.870  36.484  1.00  0.00     0.000 A 
ENDBRANCH  51  70
BRANCH  63  76
ATOM     76  C   UNL A   1      45.599  29.035  28.613  1.00  0.00    -0.014 A 
ATOM     77  C   UNL A   1      46.625  29.963  28.867  1.00  0.00     0.009 A 
ATOM     78  C   UNL A   1      45.949  27.794  28.062  1.00  0.00     0.009 A 
ATOM     79  C   UNL A   1      47.955  29.667  28.546  1.00  0.00     0.001 A 
ATOM     80  C   UNL A   1      47.278  27.490  27.763  1.00  0.00     0.001 A 
ATOM     81  C   UNL A   1      48.280  28.428  27.997  1.00  0.00     0.000 A 
ENDBRANCH  63  76
ENDBRANCH  37  38
ENDBRANCH  29  32
ENDBRANCH  27  28
ENDBRANCH  26  27
ENDBRANCH  25  26
ENDBRANCH   1  25
TORSDOF 17
ENDMDL
MODEL 2
REMARK VINA RESULT:     -11.1      2.832      7.451
REMARK SMILES CC(C)n1ncnc1C[C@@H](C(=O)NCCCCCCNC(=O)c1ccc(-c2c3nc(c(-c4ccccc4)c4ccc([nH]4)c(-c4ccccc4)c4nc(c(-c5ccccc5)c5ccc2[nH]5)C=C4)C=C3)cc1)c1cccc(Br)c1
REMARK SMILES IDX 16 1 15 2 14 3 13 4 11 5 12 6 10 8 9 9 8 10 4 11 5 12 6 13
REMARK SMILES IDX 7 14 2 15 1 16 3 17 71 18 72 19 77 20 73 21 75 22 74 23
REMARK SMILES IDX 76 24 17 25 18 26 19 27 20 28 21 29 22 31 23 32 24 33 70 34
REMARK SMILES IDX 25 35 69 36 26 37 27 38 28 39 63 40 29 41 68 42 62 43 64 44
REMARK SMILES IDX 30 45 67 46 61 47 60 48 31 50 53 51 38 52 52 53 39 54 42 55
REMARK SMILES IDX 51 56 65 57 40 58 41 59 50 61 66 62 43 63 32 64 33 65 37 66
REMARK SMILES IDX 34 67 36 68 35 69 54 70 55 71 59 72 56 73 58 74 57 75 44 76
REMARK SMILES IDX 45 77 49 78 46 79 48 80 47 81
REMARK H PARENT 13 7 20 30 64 49 42 60
REMARK Flexibility Score: inf
ROOT
ATOM      1  C   UNL A   1      31.695  26.330  26.490  1.00  0.00     0.002 C 
ENDROOT
BRANCH   1   2
ATOM      2  C   UNL A   1      31.738  25.389  25.289  1.00  0.00     0.021 C 
BRANCH   2   3
ATOM      3  C   UNL A   1      33.111  24.819  24.917  1.00  0.00     0.116 C 
BRANCH   3   4
ATOM      4  N   UNL A   1      33.833  24.475  26.125  1.00  0.00    -0.356 N 
ATOM      5  C   UNL A   1      34.406  23.266  26.421  1.00  0.00     0.228 C 
ATOM      6  O   UNL A   1      34.324  22.886  27.592  1.00  0.00    -0.274 OA
ATOM      7  H   UNL A   1      33.921  25.183  26.803  1.00  0.00     0.163 HD
BRANCH   5   8
ATOM      8  C   UNL A   1      35.216  22.496  25.348  1.00  0.00     0.116 C 
BRANCH   8   9
ATOM      9  C   UNL A   1      34.790  21.004  25.336  1.00  0.00     0.095 C 
BRANCH   9  10
ATOM     10  C   UNL A   1      33.777  20.564  24.327  1.00  0.00     0.128 A 
ATOM     11  N   UNL A   1      33.481  19.260  23.967  1.00  0.00    -0.248 N 
ATOM     12  N   UNL A   1      32.478  19.238  23.061  1.00  0.00    -0.159 NA
ATOM     13  C   UNL A   1      32.079  20.505  23.065  1.00  0.00     0.246 A 
ATOM     14  N   UNL A   1      32.847  21.344  23.812  1.00  0.00    -0.220 NA
BRANCH  11  15
ATOM     15  C   UNL A   1      33.820  18.026  24.672  1.00  0.00     0.103 C 
ATOM     16  C   UNL A   1      32.712  17.716  25.684  1.00  0.00     0.033 C 
ATOM     17  C   UNL A   1      34.005  16.821  23.736  1.00  0.00     0.033 C 
ENDBRANCH  11  15
ENDBRANCH   9  10
ENDBRANCH   8   9
BRANCH   8  18
ATOM     18  C   UNL A   1      36.756  22.593  25.624  1.00  0.00    -0.034 A 
ATOM     19  C   UNL A   1      37.621  21.520  25.329  1.00  0.00     0.004 A 
ATOM     20  C   UNL A   1      37.341  23.728  26.220  1.00  0.00     0.020 A 
ATOM     21  C   UNL A   1      38.955  21.512  25.757  1.00  0.00     0.001 A 
ATOM     22  C   UNL A   1      38.676  23.717  26.646  1.00  0.00     0.018 A 
ATOM     23  C   UNL A   1      39.477  22.601  26.442  1.00  0.00     0.016 A 
ATOM     24  Br  UNL A   1      39.390  25.219  27.550  1.00  0.00    -0.051 Br
ENDBRANCH   8  18
ENDBRANCH   5   8
ENDBRANCH   3   4
ENDBRANCH   2   3
ENDBRANCH   1   2
BRANCH   1  25
ATOM     25  C   UNL A   1      31.789  27.822  26.160  1.00  0.00     0.002 C 
BRANCH  25  26
ATOM     26  C   UNL A   1      32.582  28.690  27.148  1.00  0.00     0.021 C 
BRANCH  26  27
ATOM     27  C   UNL A   1      33.747  29.438  26.519  1.00  0.00     0.116 C 
BRANCH  27  28
ATOM     28  N   UNL A   1      33.758  30.857  26.860  1.00  0.00    -0.352 N 
ATOM     29  C   UNL A   1      34.595  31.528  27.732  1.00  0.00     0.251 C 
ATOM     30  H   UNL A   1      33.081  31.410  26.409  1.00  0.00     0.163 HD
ATOM     31  O   UNL A   1      34.294  32.626  28.169  1.00  0.00    -0.269 OA
BRANCH  29  32
ATOM     32  C   UNL A   1      35.873  30.900  28.120  1.00  0.00     0.039 A 
ATOM     33  C   UNL A   1      36.094  29.532  27.931  1.00  0.00     0.014 A 
ATOM     34  C   UNL A   1      36.850  31.699  28.709  1.00  0.00     0.014 A 
ATOM     35  C   UNL A   1      37.327  28.992  28.292  1.00  0.00     0.010 A 
ATOM     36  C   UNL A   1      38.109  31.205  28.917  1.00  0.00     0.010 A 
ATOM     37  C   UNL A   1      38.329  29.841  28.782  1.00  0.00    -0.014 A 
BRANCH  37  38
ATOM     38  C   UNL A   1      39.669  29.349  29.067  1.00  0.00     0.031 A 
ATOM     39  C   UNL A   1      39.907  29.029  30.496  1.00  0.00     0.074 A 
ATOM     40  C   UNL A   1      40.529  28.978  28.093  1.00  0.00     0.049 A 
ATOM     41  N   UNL A   1      40.709  29.630  31.310  1.00  0.00    -0.248 NA
ATOM     42  C   UNL A   1      39.058  28.009  31.136  1.00  0.00     0.031 C 
ATOM     43  C   UNL A   1      40.295  28.933  26.644  1.00  0.00     0.029 A 
ATOM     44  N   UNL A   1      41.767  28.429  28.209  1.00  0.00    -0.354 N 
ATOM     45  C   UNL A   1      40.622  28.936  32.513  1.00  0.00     0.074 A 
ATOM     46  C   UNL A   1      39.465  28.084  32.404  1.00  0.00     0.031 C 
ATOM     47  C   UNL A   1      41.242  28.169  26.055  1.00  0.00     0.029 A 
ATOM     48  C   UNL A   1      42.238  27.819  27.052  1.00  0.00     0.049 A 
ATOM     49  H   UNL A   1      42.288  28.461  29.044  1.00  0.00     0.167 HD
ATOM     50  C   UNL A   1      41.663  28.920  33.391  1.00  0.00     0.031 A 
ATOM     51  C   UNL A   1      43.353  27.057  26.930  1.00  0.00     0.031 A 
ATOM     52  C   UNL A   1      42.638  29.933  33.071  1.00  0.00     0.049 A 
ATOM     53  C   UNL A   1      44.217  27.358  28.093  1.00  0.00     0.074 A 
ATOM     54  C   UNL A   1      42.619  31.310  32.965  1.00  0.00     0.029 A 
ATOM     55  N   UNL A   1      43.760  29.516  32.393  1.00  0.00    -0.354 N 
ATOM     56  N   UNL A   1      44.800  28.508  28.272  1.00  0.00    -0.248 NA
ATOM     57  C   UNL A   1      44.072  26.539  29.285  1.00  0.00     0.031 C 
ATOM     58  C   UNL A   1      43.448  31.602  31.841  1.00  0.00     0.029 A 
ATOM     59  C   UNL A   1      43.991  30.402  31.375  1.00  0.00     0.049 A 
ATOM     60  H   UNL A   1      44.300  28.721  32.603  1.00  0.00     0.167 HD
ATOM     61  C   UNL A   1      44.670  28.756  29.630  1.00  0.00     0.074 A 
ATOM     62  C   UNL A   1      44.322  27.463  30.218  1.00  0.00     0.031 C 
ATOM     63  C   UNL A   1      44.568  30.034  30.101  1.00  0.00     0.031 A 
BRANCH  50  64
ATOM     64  C   UNL A   1      42.022  27.724  34.240  1.00  0.00    -0.014 A 
ATOM     65  C   UNL A   1      41.767  27.784  35.623  1.00  0.00     0.009 A 
ATOM     66  C   UNL A   1      42.857  26.680  33.800  1.00  0.00     0.009 A 
ATOM     67  C   UNL A   1      42.388  26.906  36.519  1.00  0.00     0.001 A 
ATOM     68  C   UNL A   1      43.445  25.775  34.687  1.00  0.00     0.001 A 
ATOM     69  C   UNL A   1      43.237  25.908  36.051  1.00  0.00     0.000 A 
ENDBRANCH  50  64
BRANCH  51  70
ATOM     70  C   UNL A   1      43.629  25.918  26.030  1.00  0.00    -0.014 A 
ATOM     71  C   UNL A   1      44.921  25.705  25.521  1.00  0.00     0.009 A 
ATOM     72  C   UNL A   1      42.694  24.874  25.904  1.00  0.00     0.009 A 
ATOM     73  C   UNL A   1      45.277  24.474  24.952  1.00  0.00     0.001 A 
ATOM     74  C   UNL A   1      43.051  23.646  25.335  1.00  0.00     0.001 A 
ATOM     75  C   UNL A   1      44.348  23.440  24.876  1.00  0.00     0.000 A 
ENDBRANCH  51  70
BRANCH  63  76
ATOM     76  C   UNL A   1      44.848  31.163  29.137  1.00  0.00    -0.014 A 
ATOM     77  C   UNL A   1      43.890  31.676  28.243  1.00  0.00     0.009 A 
ATOM     78  C   UNL A   1      46.082  31.821  29.233  1.00  0.00     0.009 A 
ATOM     79  C   UNL A   1      44.175  32.793  27.448  1.00  0.00     0.001 A 
ATOM     80  C   UNL A   1      46.359  32.948  28.458  1.00  0.00     0.001 A 
ATOM     81  C   UNL A   1      45.410  33.430  27.560  1.00  0.00     0.000 A 
ENDBRANCH  63  76
ENDBRANCH  37  38
ENDBRANCH  29  32
ENDBRANCH  27  28
ENDBRANCH  26  27
ENDBRANCH  25  26
ENDBRANCH   1  25
TORSDOF 17
ENDMDL
MODEL 3
REMARK VINA RESULT:     -11.1      3.261      7.810
REMARK SMILES CC(C)n1ncnc1C[C@@H](C(=O)NCCCCCCNC(=O)c1ccc(-c2c3nc(c(-c4ccccc4)c4ccc([nH]4)c(-c4ccccc4)c4nc(c(-c5ccccc5)c5ccc2[nH]5)C=C4)C=C3)cc1)c1cccc(Br)c1
REMARK SMILES IDX 16 1 15 2 14 3 13 4 11 5 12 6 10 8 9 9 8 10 4 11 5 12 6 13
REMARK SMILES IDX 7 14 2 15 1 16 3 17 71 18 72 19 77 20 73 21 75 22 74 23
REMARK SMILES IDX 76 24 17 25 18 26 19 27 20 28 21 29 22 31 23 32 24 33 70 34
REMARK SMILES IDX 25 35 69 36 26 37 27 38 28 39 63 40 29 41 68 42 62 43 64 44
REMARK SMILES IDX 30 45 67 46 61 47 60 48 31 50 53 51 38 52 52 53 39 54 42 55
REMARK SMILES IDX 51 56 65 57 40 58 41 59 50 61 66 62 43 63 32 64 33 65 37 66
REMARK SMILES IDX 34 67 36 68 35 69 54 70 55 71 59 72 56 73 58 74 57 75 44 76
REMARK SMILES IDX 45 77 49 78 46 79 48 80 47 81
REMARK H PARENT 13 7 20 30 64 49 42 60
REMARK Flexibility Score: inf
ROOT
ATOM      1  C   UNL A   1      36.071  30.835  27.805  1.00  0.00     0.002 C 
ENDROOT
BRANCH   1   2
ATOM      2  C   UNL A   1      35.568  29.441  27.440  1.00  0.00     0.021 C 
BRANCH   2   3
ATOM      3  C   UNL A   1      34.166  29.360  26.826  1.00  0.00     0.116 C 
BRANCH   3   4
ATOM      4  N   UNL A   1      33.335  28.493  27.635  1.00  0.00    -0.356 N 
ATOM      5  C   UNL A   1      32.225  27.804  27.222  1.00  0.00     0.228 C 
ATOM      6  O   UNL A   1      31.287  27.735  28.020  1.00  0.00    -0.274 OA
ATOM      7  H   UNL A   1      33.594  28.387  28.579  1.00  0.00     0.163 HD
BRANCH   5   8
ATOM      8  C   UNL A   1      32.223  27.054  25.865  1.00  0.00     0.116 C 
BRANCH   8   9
ATOM      9  C   UNL A   1      30.775  26.958  25.318  1.00  0.00     0.095 C 
BRANCH   9  10
ATOM     10  C   UNL A   1      30.448  27.677  24.048  1.00  0.00     0.128 A 
ATOM     11  N   UNL A   1      31.232  27.740  22.908  1.00  0.00    -0.248 N 
ATOM     12  N   UNL A   1      30.597  28.435  21.937  1.00  0.00    -0.159 NA
ATOM     13  C   UNL A   1      29.385  28.587  22.460  1.00  0.00     0.246 A 
ATOM     14  N   UNL A   1      29.255  28.150  23.741  1.00  0.00    -0.220 NA
BRANCH  11  15
ATOM     15  C   UNL A   1      32.367  26.897  22.541  1.00  0.00     0.103 C 
ATOM     16  C   UNL A   1      31.973  26.032  21.340  1.00  0.00     0.033 C 
ATOM     17  C   UNL A   1      33.634  27.698  22.196  1.00  0.00     0.033 C 
ENDBRANCH  11  15
ENDBRANCH   9  10
ENDBRANCH   8   9
BRANCH   8  18
ATOM     18  C   UNL A   1      32.817  25.612  26.016  1.00  0.00    -0.034 A 
ATOM     19  C   UNL A   1      32.096  24.586  26.660  1.00  0.00     0.004 A 
ATOM     20  C   UNL A   1      34.111  25.281  25.562  1.00  0.00     0.020 A 
ATOM     21  C   UNL A   1      32.690  23.360  26.983  1.00  0.00     0.001 A 
ATOM     22  C   UNL A   1      34.701  24.053  25.886  1.00  0.00     0.018 A 
ATOM     23  C   UNL A   1      34.006  23.102  26.620  1.00  0.00     0.016 A 
ATOM     24  Br  UNL A   1      36.484  23.696  25.360  1.00  0.00    -0.051 Br
ENDBRANCH   8  18
ENDBRANCH   5   8
ENDBRANCH   3   4
ENDBRANCH   2   3
ENDBRANCH   1   2
BRANCH   1  25
ATOM     25  C   UNL A   1      34.996  31.924  27.876  1.00  0.00     0.002 C 
BRANCH  25  26
ATOM     26  C   UNL A   1      35.498  33.368  28.023  1.00  0.00     0.021 C 
BRANCH  26  27
ATOM     27  C   UNL A   1      36.455  33.576  29.187  1.00  0.00     0.116 C 
BRANCH  27  28
ATOM     28  N   UNL A   1      35.797  33.469  30.486  1.00  0.00    -0.352 N 
ATOM     29  C   UNL A   1      35.861  32.437  31.402  1.00  0.00     0.251 C 
ATOM     30  H   UNL A   1      35.233  34.233  30.743  1.00  0.00     0.163 HD
ATOM     31  O   UNL A   1      35.022  32.326  32.280  1.00  0.00    -0.269 OA
BRANCH  29  32
ATOM     32  C   UNL A   1      36.974  31.472  31.313  1.00  0.00     0.039 A 
ATOM     33  C   UNL A   1      36.734  30.098  31.198  1.00  0.00     0.014 A 
ATOM     34  C   UNL A   1      38.277  31.958  31.376  1.00  0.00     0.014 A 
ATOM     35  C   UNL A   1      37.819  29.230  31.094  1.00  0.00     0.010 A 
ATOM     36  C   UNL A   1      39.335  31.128  31.117  1.00  0.00     0.010 A 
ATOM     37  C   UNL A   1      39.117  29.759  31.050  1.00  0.00    -0.014 A 
BRANCH  37  38
ATOM     38  C   UNL A   1      40.277  28.908  30.829  1.00  0.00     0.031 A 
ATOM     39  C   UNL A   1      41.042  28.591  32.060  1.00  0.00     0.074 A 
ATOM     40  C   UNL A   1      40.491  28.262  29.662  1.00  0.00     0.049 A 
ATOM     41  N   UNL A   1      42.243  28.964  32.353  1.00  0.00    -0.248 NA
ATOM     42  C   UNL A   1      40.347  27.892  33.155  1.00  0.00     0.031 C 
ATOM     43  C   UNL A   1      39.631  28.228  28.472  1.00  0.00     0.029 A 
ATOM     44  N   UNL A   1      41.473  27.379  29.340  1.00  0.00    -0.354 N 
ATOM     45  C   UNL A   1      42.535  28.376  33.580  1.00  0.00     0.074 A 
ATOM     46  C   UNL A   1      41.282  27.897  34.106  1.00  0.00     0.031 C 
ATOM     47  C   UNL A   1      39.995  27.196  27.677  1.00  0.00     0.029 A 
ATOM     48  C   UNL A   1      41.212  26.611  28.211  1.00  0.00     0.049 A 
ATOM     49  H   UNL A   1      42.302  27.291  29.864  1.00  0.00     0.167 HD
ATOM     50  C   UNL A   1      43.820  28.091  33.934  1.00  0.00     0.031 A 
ATOM     51  C   UNL A   1      41.930  25.551  27.765  1.00  0.00     0.031 A 
ATOM     52  C   UNL A   1      44.763  28.760  33.072  1.00  0.00     0.049 A 
ATOM     53  C   UNL A   1      43.267  25.632  28.394  1.00  0.00     0.074 A 
ATOM     54  C   UNL A   1      45.037  30.076  32.757  1.00  0.00     0.029 A 
ATOM     55  N   UNL A   1      45.324  28.005  32.068  1.00  0.00    -0.354 N 
ATOM     56  N   UNL A   1      44.130  26.567  28.119  1.00  0.00    -0.248 NA
ATOM     57  C   UNL A   1      43.475  24.941  29.656  1.00  0.00     0.031 C 
ATOM     58  C   UNL A   1      45.320  30.066  31.358  1.00  0.00     0.029 A 
ATOM     59  C   UNL A   1      45.285  28.742  30.915  1.00  0.00     0.049 A 
ATOM     60  H   UNL A   1      45.688  27.095  32.163  1.00  0.00     0.167 HD
ATOM     61  C   UNL A   1      44.686  26.898  29.346  1.00  0.00     0.074 A 
ATOM     62  C   UNL A   1      44.333  25.789  30.232  1.00  0.00     0.031 C 
ATOM     63  C   UNL A   1      45.121  28.168  29.597  1.00  0.00     0.031 A 
BRANCH  50  64
ATOM     64  C   UNL A   1      44.215  26.878  34.741  1.00  0.00    -0.014 A 
ATOM     65  C   UNL A   1      44.275  25.632  34.090  1.00  0.00     0.009 A 
ATOM     66  C   UNL A   1      44.242  26.855  36.148  1.00  0.00     0.009 A 
ATOM     67  C   UNL A   1      44.266  24.431  34.810  1.00  0.00     0.001 A 
ATOM     68  C   UNL A   1      44.276  25.660  36.870  1.00  0.00     0.001 A 
ATOM     69  C   UNL A   1      44.255  24.446  36.201  1.00  0.00     0.000 A 
ENDBRANCH  50  64
BRANCH  51  70
ATOM     70  C   UNL A   1      41.487  24.345  27.035  1.00  0.00    -0.014 A 
ATOM     71  C   UNL A   1      42.380  23.636  26.215  1.00  0.00     0.009 A 
ATOM     72  C   UNL A   1      40.271  23.723  27.371  1.00  0.00     0.009 A 
ATOM     73  C   UNL A   1      42.087  22.332  25.789  1.00  0.00     0.001 A 
ATOM     74  C   UNL A   1      39.980  22.422  26.945  1.00  0.00     0.001 A 
ATOM     75  C   UNL A   1      40.896  21.720  26.168  1.00  0.00     0.000 A 
ENDBRANCH  51  70
BRANCH  63  76
ATOM     76  C   UNL A   1      45.208  29.125  28.431  1.00  0.00    -0.014 A 
ATOM     77  C   UNL A   1      44.127  29.910  27.988  1.00  0.00     0.009 A 
ATOM     78  C   UNL A   1      46.465  29.341  27.847  1.00  0.00     0.009 A 
ATOM     79  C   UNL A   1      44.296  30.856  26.971  1.00  0.00     0.001 A 
ATOM     80  C   UNL A   1      46.639  30.300  26.848  1.00  0.00     0.001 A 
ATOM     81  C   UNL A   1      45.555  31.053  26.404  1.00  0.00     0.000 A 
ENDBRANCH  63  76
ENDBRANCH  37  38
ENDBRANCH  29  32
ENDBRANCH  27  28
ENDBRANCH  26  27
ENDBRANCH  25  26
ENDBRANCH   1  25
TORSDOF 17
ENDMDL
