MODEL 1
REMARK VINA RESULT:     -10.7      0.000      0.000
REMARK SMILES COc1ccc(OC)c(/C=N/[NH+]=C2/NC(=O)[C@@H](CC(=O)NCCCCCCNC(=O)c3ccc(-c4c5nc(c(-c6ccccc6)c6ccc([nH]6)c(-c6ccccc6)c6nc(c(-c7ccccc7)c7ccc4[nH]7)C=C6)C=C5)cc3)S2)c1
REMARK SMILES IDX 23 1 22 2 21 3 19 4 20 5 18 7 17 8 12 9 13 10 14 12 79 13
REMARK SMILES IDX 15 14 16 16 11 17 10 18 9 19 3 20 4 21 80 22 5 23 6 24 2 25
REMARK SMILES IDX 1 26 7 27 8 28 24 29 25 30 26 31 27 32 28 33 29 34 30 36
REMARK SMILES IDX 31 37 32 38 78 39 33 40 77 41 34 42 35 43 36 44 71 45 37 46
REMARK SMILES IDX 76 47 70 48 72 49 38 50 75 51 69 52 68 53 39 55 61 56 46 57
REMARK SMILES IDX 60 58 47 59 50 60 59 61 73 62 48 63 49 64 58 66 74 67 51 68
REMARK SMILES IDX 40 69 41 70 45 71 42 72 44 73 43 74 62 75 63 76 67 77 64 78
REMARK SMILES IDX 66 79 65 80 52 81 53 82 57 83 54 84 56 85 55 86
REMARK H PARENT 21 6 12 11 14 15 28 35 72 54 50 65
REMARK Flexibility Score: inf
ROOT
ATOM      1  C   UNL A   1      33.430  31.759  27.876  1.00  0.00     0.021 C 
ENDROOT
BRANCH   1   2
ATOM      2  C   UNL A   1      33.825  30.470  27.160  1.00  0.00     0.116 C 
BRANCH   2   3
ATOM      3  N   UNL A   1      32.998  29.363  27.608  1.00  0.00    -0.356 N 
ATOM      4  C   UNL A   1      31.930  28.752  27.031  1.00  0.00     0.221 C 
ATOM      5  O   UNL A   1      31.366  27.863  27.672  1.00  0.00    -0.275 OA
ATOM      6  H   UNL A   1      33.257  28.991  28.482  1.00  0.00     0.163 HD
BRANCH   4   7
ATOM      7  C   UNL A   1      31.462  29.129  25.642  1.00  0.00     0.127 C 
BRANCH   7   8
ATOM      8  C   UNL A   1      32.160  28.448  24.463  1.00  0.00     0.183 C 
ATOM      9  N   UNL A   1      31.117  25.010  23.108  1.00  0.00    -0.142 N 
ATOM     10  C   UNL A   1      31.569  26.184  23.392  1.00  0.00     0.337 C 
ATOM     11  H   UNL A   1      30.491  24.874  22.360  1.00  0.00     0.343 HD
ATOM     12  N   UNL A   1      31.102  27.245  22.695  1.00  0.00    -0.202 N 
ATOM     13  S   UNL A   1      32.629  26.696  24.662  1.00  0.00    -0.020 SA
ATOM     14  C   UNL A   1      31.299  28.490  23.214  1.00  0.00     0.322 C 
ATOM     15  H   UNL A   1      30.635  27.122  21.838  1.00  0.00     0.316 HD
ATOM     16  O   UNL A   1      30.780  29.491  22.752  1.00  0.00    -0.246 OA
BRANCH   9  17
ATOM     17  N   UNL A   1      31.541  23.937  23.894  1.00  0.00    -0.093 NA
ATOM     18  C   UNL A   1      32.132  23.011  23.209  1.00  0.00     0.170 C 
BRANCH  18  19
ATOM     19  C   UNL A   1      32.869  21.905  23.834  1.00  0.00     0.042 A 
ATOM     20  C   UNL A   1      32.799  19.635  24.661  1.00  0.00     0.119 A 
ATOM     21  C   UNL A   1      34.126  19.746  25.066  1.00  0.00     0.050 A 
ATOM     22  C   UNL A   1      32.158  20.714  24.052  1.00  0.00     0.060 A 
ATOM     23  C   UNL A   1      34.836  20.922  24.817  1.00  0.00     0.051 A 
ATOM     24  C   UNL A   1      34.225  22.002  24.175  1.00  0.00     0.128 A 
BRANCH  20  25
ATOM     25  O   UNL A   1      32.154  18.474  24.988  1.00  0.00    -0.497 OA
ATOM     26  C   UNL A   1      33.049  17.426  25.353  1.00  0.00     0.278 C 
ENDBRANCH  20  25
BRANCH  24  27
ATOM     27  O   UNL A   1      35.050  23.077  23.984  1.00  0.00    -0.496 OA
ATOM     28  C   UNL A   1      35.286  23.901  25.122  1.00  0.00     0.278 C 
ENDBRANCH  24  27
ENDBRANCH  18  19
ENDBRANCH   9  17
ENDBRANCH   7   8
ENDBRANCH   4   7
ENDBRANCH   2   3
ENDBRANCH   1   2
BRANCH   1  29
ATOM     29  C   UNL A   1      34.447  32.258  28.910  1.00  0.00     0.002 C 
BRANCH  29  30
ATOM     30  C   UNL A   1      34.581  33.781  28.994  1.00  0.00     0.002 C 
BRANCH  30  31
ATOM     31  C   UNL A   1      33.257  34.551  29.025  1.00  0.00     0.021 C 
BRANCH  31  32
ATOM     32  C   UNL A   1      33.370  36.013  29.448  1.00  0.00     0.116 C 
BRANCH  32  33
ATOM     33  N   UNL A   1      32.524  36.320  30.590  1.00  0.00    -0.352 N 
ATOM     34  C   UNL A   1      32.605  35.858  31.882  1.00  0.00     0.251 C 
ATOM     35  H   UNL A   1      31.788  36.948  30.413  1.00  0.00     0.163 HD
ATOM     36  O   UNL A   1      31.683  36.049  32.666  1.00  0.00    -0.269 OA
BRANCH  34  37
ATOM     37  C   UNL A   1      33.804  35.112  32.324  1.00  0.00     0.039 A 
ATOM     38  C   UNL A   1      33.652  33.810  32.807  1.00  0.00     0.014 A 
ATOM     39  C   UNL A   1      35.070  35.701  32.275  1.00  0.00     0.014 A 
ATOM     40  C   UNL A   1      34.779  33.074  33.180  1.00  0.00     0.010 A 
ATOM     41  C   UNL A   1      36.197  34.944  32.584  1.00  0.00     0.010 A 
ATOM     42  C   UNL A   1      36.063  33.624  33.042  1.00  0.00    -0.014 A 
BRANCH  42  43
ATOM     43  C   UNL A   1      37.278  32.835  33.365  1.00  0.00     0.031 A 
ATOM     44  C   UNL A   1      38.041  33.096  34.634  1.00  0.00     0.074 A 
ATOM     45  C   UNL A   1      37.746  31.938  32.475  1.00  0.00     0.049 A 
ATOM     46  N   UNL A   1      39.155  32.551  35.054  1.00  0.00    -0.248 NA
ATOM     47  C   UNL A   1      37.496  34.125  35.532  1.00  0.00     0.031 C 
ATOM     48  C   UNL A   1      37.135  31.631  31.181  1.00  0.00     0.029 A 
ATOM     49  N   UNL A   1      38.856  31.132  32.521  1.00  0.00    -0.354 N 
ATOM     50  C   UNL A   1      39.458  33.190  36.250  1.00  0.00     0.074 A 
ATOM     51  C   UNL A   1      38.434  34.190  36.466  1.00  0.00     0.031 C 
ATOM     52  C   UNL A   1      37.870  30.693  30.562  1.00  0.00     0.029 A 
ATOM     53  C   UNL A   1      39.017  30.358  31.399  1.00  0.00     0.049 A 
ATOM     54  H   UNL A   1      39.476  31.112  33.284  1.00  0.00     0.167 HD
ATOM     55  C   UNL A   1      40.486  32.958  37.100  1.00  0.00     0.031 A 
ATOM     56  C   UNL A   1      39.983  29.479  31.073  1.00  0.00     0.031 A 
ATOM     57  C   UNL A   1      41.497  31.955  36.897  1.00  0.00     0.049 A 
ATOM     58  C   UNL A   1      41.103  29.218  32.039  1.00  0.00     0.074 A 
ATOM     59  C   UNL A   1      42.528  31.585  37.741  1.00  0.00     0.029 A 
ATOM     60  N   UNL A   1      41.607  31.165  35.761  1.00  0.00    -0.354 N 
ATOM     61  N   UNL A   1      41.325  29.766  33.208  1.00  0.00    -0.248 NA
ATOM     62  C   UNL A   1      42.094  28.207  31.646  1.00  0.00     0.031 C 
ATOM     63  C   UNL A   1      43.293  30.606  37.096  1.00  0.00     0.029 A 
ATOM     64  C   UNL A   1      42.706  30.331  35.870  1.00  0.00     0.049 A 
ATOM     65  H   UNL A   1      40.993  31.195  34.992  1.00  0.00     0.167 HD
ATOM     66  C   UNL A   1      42.472  29.156  33.700  1.00  0.00     0.074 A 
ATOM     67  C   UNL A   1      42.888  28.185  32.708  1.00  0.00     0.031 C 
ATOM     68  C   UNL A   1      43.119  29.379  34.870  1.00  0.00     0.031 A 
BRANCH  55  69
ATOM     69  C   UNL A   1      40.573  33.826  38.326  1.00  0.00    -0.014 A 
ATOM     70  C   UNL A   1      41.268  35.047  38.310  1.00  0.00     0.009 A 
ATOM     71  C   UNL A   1      39.944  33.419  39.512  1.00  0.00     0.009 A 
ATOM     72  C   UNL A   1      41.373  35.815  39.471  1.00  0.00     0.001 A 
ATOM     73  C   UNL A   1      40.026  34.203  40.663  1.00  0.00     0.001 A 
ATOM     74  C   UNL A   1      40.752  35.393  40.646  1.00  0.00     0.000 A 
ENDBRANCH  55  69
BRANCH  56  75
ATOM     75  C   UNL A   1      39.914  28.767  29.771  1.00  0.00    -0.014 A 
ATOM     76  C   UNL A   1      40.462  29.343  28.616  1.00  0.00     0.009 A 
ATOM     77  C   UNL A   1      39.334  27.491  29.688  1.00  0.00     0.009 A 
ATOM     78  C   UNL A   1      40.420  28.660  27.399  1.00  0.00     0.001 A 
ATOM     79  C   UNL A   1      39.315  26.801  28.474  1.00  0.00     0.001 A 
ATOM     80  C   UNL A   1      39.853  27.389  27.330  1.00  0.00     0.000 A 
ENDBRANCH  56  75
BRANCH  68  81
ATOM     81  C   UNL A   1      44.338  28.548  35.149  1.00  0.00    -0.014 A 
ATOM     82  C   UNL A   1      44.238  27.301  35.785  1.00  0.00     0.009 A 
ATOM     83  C   UNL A   1      45.600  29.001  34.731  1.00  0.00     0.009 A 
ATOM     84  C   UNL A   1      45.383  26.537  36.023  1.00  0.00     0.001 A 
ATOM     85  C   UNL A   1      46.738  28.224  34.948  1.00  0.00     0.001 A 
ATOM     86  C   UNL A   1      46.630  26.997  35.600  1.00  0.00     0.000 A 
ENDBRANCH  68  81
ENDBRANCH  42  43
ENDBRANCH  34  37
ENDBRANCH  32  33
ENDBRANCH  31  32
ENDBRANCH  30  31
ENDBRANCH  29  30
ENDBRANCH   1  29
TORSDOF 18
ENDMDL
MODEL 2
REMARK VINA RESULT:     -10.6      2.477      7.595
REMARK SMILES COc1ccc(OC)c(/C=N/[NH+]=C2/NC(=O)[C@@H](CC(=O)NCCCCCCNC(=O)c3ccc(-c4c5nc(c(-c6ccccc6)c6ccc([nH]6)c(-c6ccccc6)c6nc(c(-c7ccccc7)c7ccc4[nH]7)C=C6)C=C5)cc3)S2)c1
REMARK SMILES IDX 23 1 22 2 21 3 19 4 20 5 18 7 17 8 12 9 13 10 14 12 79 13
REMARK SMILES IDX 15 14 16 16 11 17 10 18 9 19 3 20 4 21 80 22 5 23 6 24 2 25
REMARK SMILES IDX 1 26 7 27 8 28 24 29 25 30 26 31 27 32 28 33 29 34 30 36
REMARK SMILES IDX 31 37 32 38 78 39 33 40 77 41 34 42 35 43 36 44 71 45 37 46
REMARK SMILES IDX 76 47 70 48 72 49 38 50 75 51 69 52 68 53 39 55 61 56 46 57
REMARK SMILES IDX 60 58 47 59 50 60 59 61 73 62 48 63 49 64 58 66 74 67 51 68
REMARK SMILES IDX 40 69 41 70 45 71 42 72 44 73 43 74 62 75 63 76 67 77 64 78
REMARK SMILES IDX 66 79 65 80 52 81 53 82 57 83 54 84 56 85 55 86
REMARK H PARENT 21 6 12 11 14 15 28 35 72 54 50 65
REMARK Flexibility Score: inf
ROOT
ATOM      1  C   UNL A   1      33.171  28.272  25.421  1.00  0.00     0.021 C 
ENDROOT
BRANCH   1   2
ATOM      2  C   UNL A   1      33.619  26.822  25.589  1.00  0.00     0.116 C 
BRANCH   2   3
ATOM      3  N   UNL A   1      32.597  26.048  26.271  1.00  0.00    -0.356 N 
ATOM      4  C   UNL A   1      32.343  24.713  26.283  1.00  0.00     0.221 C 
ATOM      5  O   UNL A   1      31.354  24.326  26.907  1.00  0.00    -0.275 OA
ATOM      6  H   UNL A   1      31.979  26.585  26.819  1.00  0.00     0.163 HD
BRANCH   4   7
ATOM      7  C   UNL A   1      33.255  23.732  25.579  1.00  0.00     0.127 C 
BRANCH   7   8
ATOM      8  C   UNL A   1      32.983  23.468  24.097  1.00  0.00     0.183 C 
ATOM      9  N   UNL A   1      32.317  26.269  21.555  1.00  0.00    -0.142 N 
ATOM     10  C   UNL A   1      32.570  25.211  22.248  1.00  0.00     0.337 C 
ATOM     11  H   UNL A   1      33.010  26.684  20.991  1.00  0.00     0.343 HD
ATOM     12  N   UNL A   1      33.832  24.726  22.256  1.00  0.00    -0.202 N 
ATOM     13  S   UNL A   1      31.559  24.322  23.339  1.00  0.00    -0.020 SA
ATOM     14  C   UNL A   1      34.177  23.849  23.240  1.00  0.00     0.322 C 
ATOM     15  H   UNL A   1      34.483  24.999  21.570  1.00  0.00     0.316 HD
ATOM     16  O   UNL A   1      35.323  23.483  23.432  1.00  0.00    -0.246 OA
BRANCH   9  17
ATOM     17  N   UNL A   1      31.032  26.808  21.628  1.00  0.00    -0.093 NA
ATOM     18  C   UNL A   1      30.945  27.795  22.464  1.00  0.00     0.170 C 
BRANCH  18  19
ATOM     19  C   UNL A   1      29.769  28.671  22.541  1.00  0.00     0.042 A 
ATOM     20  C   UNL A   1      28.847  30.865  22.120  1.00  0.00     0.119 A 
ATOM     21  C   UNL A   1      27.637  30.458  22.678  1.00  0.00     0.050 A 
ATOM     22  C   UNL A   1      29.922  29.980  22.056  1.00  0.00     0.060 A 
ATOM     23  C   UNL A   1      27.481  29.146  23.127  1.00  0.00     0.051 A 
ATOM     24  C   UNL A   1      28.534  28.232  23.039  1.00  0.00     0.128 A 
BRANCH  20  25
ATOM     25  O   UNL A   1      28.940  32.179  21.753  1.00  0.00    -0.497 OA
ATOM     26  C   UNL A   1      28.779  33.076  22.849  1.00  0.00     0.278 C 
ENDBRANCH  20  25
BRANCH  24  27
ATOM     27  O   UNL A   1      28.228  26.981  23.502  1.00  0.00    -0.496 OA
ATOM     28  C   UNL A   1      28.986  26.518  24.616  1.00  0.00     0.278 C 
ENDBRANCH  24  27
ENDBRANCH  18  19
ENDBRANCH   9  17
ENDBRANCH   7   8
ENDBRANCH   4   7
ENDBRANCH   2   3
ENDBRANCH   1   2
BRANCH   1  29
ATOM     29  C   UNL A   1      31.813  28.604  26.050  1.00  0.00     0.002 C 
BRANCH  29  30
ATOM     30  C   UNL A   1      31.872  29.588  27.221  1.00  0.00     0.002 C 
BRANCH  30  31
ATOM     31  C   UNL A   1      31.601  31.051  26.856  1.00  0.00     0.021 C 
BRANCH  31  32
ATOM     32  C   UNL A   1      32.827  31.961  26.875  1.00  0.00     0.116 C 
BRANCH  32  33
ATOM     33  N   UNL A   1      32.510  33.298  27.348  1.00  0.00    -0.352 N 
ATOM     34  C   UNL A   1      33.115  34.039  28.334  1.00  0.00     0.251 C 
ATOM     35  H   UNL A   1      31.753  33.736  26.897  1.00  0.00     0.163 HD
ATOM     36  O   UNL A   1      32.585  35.062  28.754  1.00  0.00    -0.269 OA
BRANCH  34  37
ATOM     37  C   UNL A   1      34.404  33.592  28.906  1.00  0.00     0.039 A 
ATOM     38  C   UNL A   1      34.397  32.768  30.035  1.00  0.00     0.014 A 
ATOM     39  C   UNL A   1      35.616  33.996  28.338  1.00  0.00     0.014 A 
ATOM     40  C   UNL A   1      35.604  32.295  30.555  1.00  0.00     0.010 A 
ATOM     41  C   UNL A   1      36.813  33.471  28.817  1.00  0.00     0.010 A 
ATOM     42  C   UNL A   1      36.820  32.618  29.932  1.00  0.00    -0.014 A 
BRANCH  42  43
ATOM     43  C   UNL A   1      38.108  32.069  30.426  1.00  0.00     0.031 A 
ATOM     44  C   UNL A   1      38.668  30.802  29.844  1.00  0.00     0.074 A 
ATOM     45  C   UNL A   1      38.734  32.667  31.458  1.00  0.00     0.049 A 
ATOM     46  N   UNL A   1      39.745  30.141  30.189  1.00  0.00    -0.248 NA
ATOM     47  C   UNL A   1      37.903  30.181  28.753  1.00  0.00     0.031 C 
ATOM     48  C   UNL A   1      38.267  33.868  32.152  1.00  0.00     0.029 A 
ATOM     49  N   UNL A   1      39.893  32.331  32.113  1.00  0.00    -0.354 N 
ATOM     50  C   UNL A   1      39.771  29.014  29.377  1.00  0.00     0.074 A 
ATOM     51  C   UNL A   1      38.581  29.059  28.553  1.00  0.00     0.031 C 
ATOM     52  C   UNL A   1      39.138  34.176  33.126  1.00  0.00     0.029 A 
ATOM     53  C   UNL A   1      40.204  33.180  33.146  1.00  0.00     0.049 A 
ATOM     54  H   UNL A   1      40.446  31.555  31.867  1.00  0.00     0.167 HD
ATOM     55  C   UNL A   1      40.704  28.035  29.310  1.00  0.00     0.031 A 
ATOM     56  C   UNL A   1      41.229  33.158  34.018  1.00  0.00     0.031 A 
ATOM     57  C   UNL A   1      41.896  27.995  30.116  1.00  0.00     0.049 A 
ATOM     58  C   UNL A   1      42.267  32.079  33.914  1.00  0.00     0.074 A 
ATOM     59  C   UNL A   1      42.944  27.094  30.063  1.00  0.00     0.029 A 
ATOM     60  N   UNL A   1      42.193  28.894  31.130  1.00  0.00    -0.354 N 
ATOM     61  N   UNL A   1      42.324  31.069  33.080  1.00  0.00    -0.248 NA
ATOM     62  C   UNL A   1      43.388  32.145  34.861  1.00  0.00     0.031 C 
ATOM     63  C   UNL A   1      43.851  27.416  31.077  1.00  0.00     0.029 A 
ATOM     64  C   UNL A   1      43.392  28.551  31.729  1.00  0.00     0.049 A 
ATOM     65  H   UNL A   1      41.632  29.662  31.385  1.00  0.00     0.167 HD
ATOM     66  C   UNL A   1      43.494  30.388  33.389  1.00  0.00     0.074 A 
ATOM     67  C   UNL A   1      44.124  31.111  34.476  1.00  0.00     0.031 C 
ATOM     68  C   UNL A   1      44.002  29.268  32.820  1.00  0.00     0.031 A 
BRANCH  55  69
ATOM     69  C   UNL A   1      40.457  26.916  28.336  1.00  0.00    -0.014 A 
ATOM     70  C   UNL A   1      39.706  25.785  28.697  1.00  0.00     0.009 A 
ATOM     71  C   UNL A   1      40.980  26.996  27.038  1.00  0.00     0.009 A 
ATOM     72  C   UNL A   1      39.527  24.737  27.792  1.00  0.00     0.001 A 
ATOM     73  C   UNL A   1      40.775  25.960  26.125  1.00  0.00     0.001 A 
ATOM     74  C   UNL A   1      40.061  24.826  26.507  1.00  0.00     0.000 A 
ENDBRANCH  55  69
BRANCH  56  75
ATOM     75  C   UNL A   1      41.326  34.216  35.057  1.00  0.00    -0.014 A 
ATOM     76  C   UNL A   1      40.776  34.014  36.331  1.00  0.00     0.009 A 
ATOM     77  C   UNL A   1      42.003  35.416  34.789  1.00  0.00     0.009 A 
ATOM     78  C   UNL A   1      40.892  34.998  37.314  1.00  0.00     0.001 A 
ATOM     79  C   UNL A   1      42.137  36.389  35.781  1.00  0.00     0.001 A 
ATOM     80  C   UNL A   1      41.577  36.181  37.041  1.00  0.00     0.000 A 
ENDBRANCH  56  75
BRANCH  68  81
ATOM     81  C   UNL A   1      45.311  28.761  33.353  1.00  0.00    -0.014 A 
ATOM     82  C   UNL A   1      45.357  27.811  34.385  1.00  0.00     0.009 A 
ATOM     83  C   UNL A   1      46.515  29.208  32.784  1.00  0.00     0.009 A 
ATOM     84  C   UNL A   1      46.584  27.341  34.858  1.00  0.00     0.001 A 
ATOM     85  C   UNL A   1      47.738  28.718  33.242  1.00  0.00     0.001 A 
ATOM     86  C   UNL A   1      47.772  27.791  34.282  1.00  0.00     0.000 A 
ENDBRANCH  68  81
ENDBRANCH  42  43
ENDBRANCH  34  37
ENDBRANCH  32  33
ENDBRANCH  31  32
ENDBRANCH  30  31
ENDBRANCH  29  30
ENDBRANCH   1  29
TORSDOF 18
ENDMDL
MODEL 3
REMARK VINA RESULT:     -10.1      5.020     10.327
REMARK SMILES COc1ccc(OC)c(/C=N/[NH+]=C2/NC(=O)[C@@H](CC(=O)NCCCCCCNC(=O)c3ccc(-c4c5nc(c(-c6ccccc6)c6ccc([nH]6)c(-c6ccccc6)c6nc(c(-c7ccccc7)c7ccc4[nH]7)C=C6)C=C5)cc3)S2)c1
REMARK SMILES IDX 23 1 22 2 21 3 19 4 20 5 18 7 17 8 12 9 13 10 14 12 79 13
REMARK SMILES IDX 15 14 16 16 11 17 10 18 9 19 3 20 4 21 80 22 5 23 6 24 2 25
REMARK SMILES IDX 1 26 7 27 8 28 24 29 25 30 26 31 27 32 28 33 29 34 30 36
REMARK SMILES IDX 31 37 32 38 78 39 33 40 77 41 34 42 35 43 36 44 71 45 37 46
REMARK SMILES IDX 76 47 70 48 72 49 38 50 75 51 69 52 68 53 39 55 61 56 46 57
REMARK SMILES IDX 60 58 47 59 50 60 59 61 73 62 48 63 49 64 58 66 74 67 51 68
REMARK SMILES IDX 40 69 41 70 45 71 42 72 44 73 43 74 62 75 63 76 67 77 64 78
REMARK SMILES IDX 66 79 65 80 52 81 53 82 57 83 54 84 56 85 55 86
REMARK H PARENT 21 6 12 11 14 15 28 35 72 54 50 65
REMARK Flexibility Score: inf
ROOT
ATOM      1  C   UNL A   1      38.411  23.817  25.744  1.00  0.00     0.021 C 
ENDROOT
BRANCH   1   2
ATOM      2  C   UNL A   1      37.047  23.232  26.101  1.00  0.00     0.116 C 
BRANCH   2   3
ATOM      3  N   UNL A   1      36.970  21.837  25.702  1.00  0.00    -0.356 N 
ATOM      4  C   UNL A   1      35.949  21.112  25.174  1.00  0.00     0.221 C 
ATOM      5  O   UNL A   1      36.141  19.909  24.987  1.00  0.00    -0.275 OA
ATOM      6  H   UNL A   1      37.802  21.329  25.839  1.00  0.00     0.163 HD
BRANCH   4   7
ATOM      7  C   UNL A   1      34.632  21.759  24.805  1.00  0.00     0.127 C 
BRANCH   7   8
ATOM      8  C   UNL A   1      33.575  21.866  25.905  1.00  0.00     0.183 C 
ATOM      9  N   UNL A   1      30.213  23.658  25.420  1.00  0.00    -0.142 N 
ATOM     10  C   UNL A   1      31.258  22.976  25.746  1.00  0.00     0.337 C 
ATOM     11  H   UNL A   1      29.379  23.210  25.150  1.00  0.00     0.343 HD
ATOM     12  N   UNL A   1      31.217  21.629  25.631  1.00  0.00    -0.202 N 
ATOM     13  S   UNL A   1      32.840  23.509  26.209  1.00  0.00    -0.020 SA
ATOM     14  C   UNL A   1      32.397  20.949  25.630  1.00  0.00     0.322 C 
ATOM     15  H   UNL A   1      30.358  21.154  25.550  1.00  0.00     0.316 HD
ATOM     16  O   UNL A   1      32.478  19.761  25.369  1.00  0.00    -0.246 OA
BRANCH   9  17
ATOM     17  N   UNL A   1      30.301  25.050  25.460  1.00  0.00    -0.093 NA
ATOM     18  C   UNL A   1      30.375  25.586  24.283  1.00  0.00     0.170 C 
BRANCH  18  19
ATOM     19  C   UNL A   1      30.236  27.030  24.055  1.00  0.00     0.042 A 
ATOM     20  C   UNL A   1      28.930  28.809  23.071  1.00  0.00     0.119 A 
ATOM     21  C   UNL A   1      29.877  29.736  23.501  1.00  0.00     0.050 A 
ATOM     22  C   UNL A   1      29.106  27.452  23.336  1.00  0.00     0.060 A 
ATOM     23  C   UNL A   1      30.980  29.313  24.244  1.00  0.00     0.051 A 
ATOM     24  C   UNL A   1      31.158  27.962  24.552  1.00  0.00     0.128 A 
BRANCH  20  25
ATOM     25  O   UNL A   1      27.906  29.292  22.303  1.00  0.00    -0.497 OA
ATOM     26  C   UNL A   1      28.067  30.667  21.962  1.00  0.00     0.278 C 
ENDBRANCH  20  25
BRANCH  24  27
ATOM     27  O   UNL A   1      32.273  27.702  25.300  1.00  0.00    -0.496 OA
ATOM     28  C   UNL A   1      32.155  27.914  26.704  1.00  0.00     0.278 C 
ENDBRANCH  24  27
ENDBRANCH  18  19
ENDBRANCH   9  17
ENDBRANCH   7   8
ENDBRANCH   4   7
ENDBRANCH   2   3
ENDBRANCH   1   2
BRANCH   1  29
ATOM     29  C   UNL A   1      39.260  24.251  26.944  1.00  0.00     0.002 C 
BRANCH  29  30
ATOM     30  C   UNL A   1      40.081  23.131  27.588  1.00  0.00     0.002 C 
BRANCH  30  31
ATOM     31  C   UNL A   1      40.342  21.917  26.691  1.00  0.00     0.021 C 
BRANCH  31  32
ATOM     32  C   UNL A   1      41.397  20.944  27.212  1.00  0.00     0.116 C 
BRANCH  32  33
ATOM     33  N   UNL A   1      42.426  20.669  26.221  1.00  0.00    -0.352 N 
ATOM     34  C   UNL A   1      43.334  21.528  25.649  1.00  0.00     0.251 C 
ATOM     35  H   UNL A   1      42.480  19.735  25.918  1.00  0.00     0.163 HD
ATOM     36  O   UNL A   1      43.986  21.176  24.672  1.00  0.00    -0.269 OA
BRANCH  34  37
ATOM     37  C   UNL A   1      43.512  22.888  26.201  1.00  0.00     0.039 A 
ATOM     38  C   UNL A   1      43.253  23.992  25.384  1.00  0.00     0.014 A 
ATOM     39  C   UNL A   1      43.947  23.074  27.517  1.00  0.00     0.014 A 
ATOM     40  C   UNL A   1      43.367  25.282  25.906  1.00  0.00     0.010 A 
ATOM     41  C   UNL A   1      43.995  24.357  28.054  1.00  0.00     0.010 A 
ATOM     42  C   UNL A   1      43.709  25.474  27.254  1.00  0.00    -0.014 A 
BRANCH  42  43
ATOM     43  C   UNL A   1      43.766  26.834  27.848  1.00  0.00     0.031 A 
ATOM     44  C   UNL A   1      42.503  27.541  28.253  1.00  0.00     0.074 A 
ATOM     45  C   UNL A   1      44.951  27.467  27.947  1.00  0.00     0.049 A 
ATOM     46  N   UNL A   1      42.352  28.752  28.730  1.00  0.00    -0.248 NA
ATOM     47  C   UNL A   1      41.245  26.804  28.069  1.00  0.00     0.031 C 
ATOM     48  C   UNL A   1      46.243  26.917  27.536  1.00  0.00     0.029 A 
ATOM     49  N   UNL A   1      45.254  28.723  28.411  1.00  0.00    -0.354 N 
ATOM     50  C   UNL A   1      40.983  28.929  28.877  1.00  0.00     0.074 A 
ATOM     51  C   UNL A   1      40.346  27.720  28.399  1.00  0.00     0.031 C 
ATOM     52  C   UNL A   1      47.202  27.825  27.779  1.00  0.00     0.029 A 
ATOM     53  C   UNL A   1      46.590  29.029  28.331  1.00  0.00     0.049 A 
ATOM     54  H   UNL A   1      44.578  29.345  28.765  1.00  0.00     0.167 HD
ATOM     55  C   UNL A   1      40.313  29.995  29.376  1.00  0.00     0.031 A 
ATOM     56  C   UNL A   1      47.251  30.155  28.659  1.00  0.00     0.031 A 
ATOM     57  C   UNL A   1      40.943  31.192  29.866  1.00  0.00     0.049 A 
ATOM     58  C   UNL A   1      46.495  31.317  29.233  1.00  0.00     0.074 A 
ATOM     59  C   UNL A   1      40.357  32.290  30.470  1.00  0.00     0.029 A 
ATOM     60  N   UNL A   1      42.304  31.450  29.800  1.00  0.00    -0.354 N 
ATOM     61  N   UNL A   1      45.207  31.435  29.449  1.00  0.00    -0.248 NA
ATOM     62  C   UNL A   1      47.283  32.495  29.620  1.00  0.00     0.031 C 
ATOM     63  C   UNL A   1      41.357  33.236  30.724  1.00  0.00     0.029 A 
ATOM     64  C   UNL A   1      42.574  32.702  30.324  1.00  0.00     0.049 A 
ATOM     65  H   UNL A   1      42.978  30.833  29.433  1.00  0.00     0.167 HD
ATOM     66  C   UNL A   1      45.032  32.692  30.014  1.00  0.00     0.074 A 
ATOM     67  C   UNL A   1      46.348  33.290  30.121  1.00  0.00     0.031 C 
ATOM     68  C   UNL A   1      43.885  33.293  30.412  1.00  0.00     0.031 A 
BRANCH  55  69
ATOM     69  C   UNL A   1      38.811  29.913  29.398  1.00  0.00    -0.014 A 
ATOM     70  C   UNL A   1      38.119  29.481  30.542  1.00  0.00     0.009 A 
ATOM     71  C   UNL A   1      38.078  30.278  28.260  1.00  0.00     0.009 A 
ATOM     72  C   UNL A   1      36.727  29.369  30.526  1.00  0.00     0.001 A 
ATOM     73  C   UNL A   1      36.684  30.194  28.256  1.00  0.00     0.001 A 
ATOM     74  C   UNL A   1      36.011  29.726  29.383  1.00  0.00     0.000 A 
ENDBRANCH  55  69
BRANCH  56  75
ATOM     75  C   UNL A   1      48.723  30.220  28.465  1.00  0.00    -0.014 A 
ATOM     76  C   UNL A   1      49.592  29.771  29.469  1.00  0.00     0.009 A 
ATOM     77  C   UNL A   1      49.261  30.695  27.259  1.00  0.00     0.009 A 
ATOM     78  C   UNL A   1      50.974  29.807  29.274  1.00  0.00     0.001 A 
ATOM     79  C   UNL A   1      50.642  30.709  27.058  1.00  0.00     0.001 A 
ATOM     80  C   UNL A   1      51.497  30.270  28.067  1.00  0.00     0.000 A 
ENDBRANCH  56  75
BRANCH  68  81
ATOM     81  C   UNL A   1      44.001  34.665  31.013  1.00  0.00    -0.014 A 
ATOM     82  C   UNL A   1      44.226  34.840  32.387  1.00  0.00     0.009 A 
ATOM     83  C   UNL A   1      43.929  35.797  30.184  1.00  0.00     0.009 A 
ATOM     84  C   UNL A   1      44.345  36.123  32.924  1.00  0.00     0.001 A 
ATOM     85  C   UNL A   1      44.073  37.077  30.720  1.00  0.00     0.001 A 
ATOM     86  C   UNL A   1      44.274  37.239  32.090  1.00  0.00     0.000 A 
ENDBRANCH  68  81
ENDBRANCH  42  43
ENDBRANCH  34  37
ENDBRANCH  32  33
ENDBRANCH  31  32
ENDBRANCH  30  31
ENDBRANCH  29  30
ENDBRANCH   1  29
TORSDOF 18
ENDMDL
