MODEL 1
REMARK VINA RESULT:     -11.9      0.000      0.000
REMARK SMILES O=C(C[C@@H]([NH2+]Cc1cccnc1)C(=O)NCCCCCCNC(=O)c1ccc(-c2c3nc(c(-c4ccccc4)c4ccc([nH]4)c(-c4ccccc4)c4nc(c(-c5ccccc5)c5ccc2[nH]5)C=C4)C=C3)cc1)Nc1ccc2ccccc2c1
REMARK SMILES IDX 18 1 17 2 16 3 15 4 13 5 14 6 4 8 3 9 2 10 1 11 73 12 74 14
REMARK SMILES IDX 75 15 83 16 76 17 82 18 77 19 81 20 78 21 80 22 79 23 5 24
REMARK SMILES IDX 6 27 7 28 8 29 12 30 9 31 11 32 10 33 19 34 20 35 21 36
REMARK SMILES IDX 22 37 23 38 24 40 25 41 26 42 72 43 27 44 71 45 28 46 29 47
REMARK SMILES IDX 30 48 65 49 31 50 70 51 64 52 66 53 32 54 69 55 63 56 62 57
REMARK SMILES IDX 33 59 55 60 40 61 54 62 41 63 44 64 53 65 67 66 42 67 43 68
REMARK SMILES IDX 52 70 68 71 45 72 34 73 35 74 39 75 36 76 38 77 37 78 56 79
REMARK SMILES IDX 57 80 61 81 58 82 60 83 59 84 46 85 47 86 51 87 48 88 50 89
REMARK SMILES IDX 49 90
REMARK H PARENT 15 7 73 13 5 25 5 26 22 39 66 58 44 69
REMARK Flexibility Score: inf
ROOT
ATOM      1  C   UNL A   1      36.023  22.023  25.047  1.00  0.00     0.002 C 
ENDROOT
BRANCH   1   2
ATOM      2  C   UNL A   1      36.195  23.529  25.288  1.00  0.00     0.021 C 
BRANCH   2   3
ATOM      3  C   UNL A   1      34.862  24.277  25.358  1.00  0.00     0.116 C 
BRANCH   3   4
ATOM      4  N   UNL A   1      34.466  24.664  24.022  1.00  0.00    -0.351 N 
ATOM      5  C   UNL A   1      33.533  24.122  23.194  1.00  0.00     0.278 C 
ATOM      6  O   UNL A   1      33.499  24.529  22.029  1.00  0.00    -0.268 OA
ATOM      7  H   UNL A   1      34.946  25.442  23.655  1.00  0.00     0.163 HD
BRANCH   5   8
ATOM      8  C   UNL A   1      32.464  23.135  23.706  1.00  0.00     0.282 C 
BRANCH   8   9
ATOM      9  C   UNL A   1      31.028  23.624  23.417  1.00  0.00     0.175 C 
BRANCH   9  10
ATOM     10  C   UNL A   1      30.695  24.966  24.042  1.00  0.00     0.230 C 
ATOM     11  O   UNL A   1      30.206  25.053  25.161  1.00  0.00    -0.274 OA
ATOM     12  N   UNL A   1      30.986  26.019  23.191  1.00  0.00    -0.326 N 
ATOM     13  H   UNL A   1      31.514  25.825  22.383  1.00  0.00     0.169 HD
BRANCH  12  14
ATOM     14  C   UNL A   1      30.579  27.341  23.406  1.00  0.00     0.041 A 
ATOM     15  C   UNL A   1      31.363  28.113  24.263  1.00  0.00     0.027 A 
ATOM     16  C   UNL A   1      29.438  27.887  22.817  1.00  0.00     0.034 A 
ATOM     17  C   UNL A   1      31.077  29.463  24.443  1.00  0.00     0.011 A 
ATOM     18  C   UNL A   1      29.063  29.213  23.106  1.00  0.00    -0.016 A 
ATOM     19  C   UNL A   1      29.928  30.026  23.876  1.00  0.00    -0.018 A 
ATOM     20  C   UNL A   1      27.839  29.753  22.673  1.00  0.00     0.009 A 
ATOM     21  C   UNL A   1      29.610  31.373  24.093  1.00  0.00     0.009 A 
ATOM     22  C   UNL A   1      27.497  31.075  22.971  1.00  0.00     0.001 A 
ATOM     23  C   UNL A   1      28.395  31.892  23.651  1.00  0.00     0.001 A 
ENDBRANCH  12  14
ENDBRANCH   9  10
ENDBRANCH   8   9
BRANCH   8  24
ATOM     24  N   UNL A   1      32.757  21.736  23.254  1.00  0.00    -0.332 N 
ATOM     25  H   UNL A   1      33.736  21.697  22.973  1.00  0.00     0.347 HD
ATOM     26  H   UNL A   1      32.099  21.547  22.498  1.00  0.00     0.347 HD
BRANCH  24  27
ATOM     27  C   UNL A   1      32.531  20.673  24.256  1.00  0.00     0.299 C 
BRANCH  27  28
ATOM     28  C   UNL A   1      33.083  19.310  23.915  1.00  0.00     0.024 A 
ATOM     29  C   UNL A   1      34.197  18.814  24.606  1.00  0.00     0.013 A 
ATOM     30  C   UNL A   1      32.497  18.445  22.998  1.00  0.00     0.120 A 
ATOM     31  C   UNL A   1      34.689  17.539  24.328  1.00  0.00     0.021 A 
ATOM     32  N   UNL A   1      32.966  17.212  22.688  1.00  0.00    -0.264 NA
ATOM     33  C   UNL A   1      34.052  16.788  23.359  1.00  0.00     0.111 A 
ENDBRANCH  27  28
ENDBRANCH  24  27
ENDBRANCH   8  24
ENDBRANCH   5   8
ENDBRANCH   3   4
ENDBRANCH   2   3
ENDBRANCH   1   2
BRANCH   1  34
ATOM     34  C   UNL A   1      37.167  21.372  24.263  1.00  0.00     0.002 C 
BRANCH  34  35
ATOM     35  C   UNL A   1      37.807  20.171  24.961  1.00  0.00     0.021 C 
BRANCH  35  36
ATOM     36  C   UNL A   1      38.947  20.541  25.902  1.00  0.00     0.116 C 
BRANCH  36  37
ATOM     37  N   UNL A   1      40.012  19.551  25.870  1.00  0.00    -0.352 N 
ATOM     38  C   UNL A   1      41.359  19.729  26.050  1.00  0.00     0.251 C 
ATOM     39  H   UNL A   1      39.724  18.626  25.694  1.00  0.00     0.163 HD
ATOM     40  O   UNL A   1      42.149  18.840  25.763  1.00  0.00    -0.269 OA
BRANCH  38  41
ATOM     41  C   UNL A   1      41.850  21.017  26.582  1.00  0.00     0.039 A 
ATOM     42  C   UNL A   1      42.210  22.026  25.687  1.00  0.00     0.014 A 
ATOM     43  C   UNL A   1      41.945  21.225  27.961  1.00  0.00     0.014 A 
ATOM     44  C   UNL A   1      42.615  23.267  26.178  1.00  0.00     0.010 A 
ATOM     45  C   UNL A   1      42.270  22.487  28.447  1.00  0.00     0.010 A 
ATOM     46  C   UNL A   1      42.615  23.518  27.560  1.00  0.00    -0.014 A 
BRANCH  46  47
ATOM     47  C   UNL A   1      42.980  24.851  28.099  1.00  0.00     0.031 A 
ATOM     48  C   UNL A   1      41.919  25.893  28.318  1.00  0.00     0.074 A 
ATOM     49  C   UNL A   1      44.273  25.142  28.338  1.00  0.00     0.049 A 
ATOM     50  N   UNL A   1      42.047  27.127  28.738  1.00  0.00    -0.248 NA
ATOM     51  C   UNL A   1      40.534  25.506  28.003  1.00  0.00     0.031 C 
ATOM     52  C   UNL A   1      45.399  24.227  28.136  1.00  0.00     0.029 A 
ATOM     53  N   UNL A   1      44.857  26.292  28.803  1.00  0.00    -0.354 N 
ATOM     54  C   UNL A   1      40.766  27.663  28.727  1.00  0.00     0.074 A 
ATOM     55  C   UNL A   1      39.884  26.643  28.201  1.00  0.00     0.031 C 
ATOM     56  C   UNL A   1      46.534  24.840  28.512  1.00  0.00     0.029 A 
ATOM     57  C   UNL A   1      46.223  26.201  28.933  1.00  0.00     0.049 A 
ATOM     58  H   UNL A   1      44.348  27.105  29.022  1.00  0.00     0.167 HD
ATOM     59  C   UNL A   1      40.354  28.885  29.138  1.00  0.00     0.031 A 
ATOM     60  C   UNL A   1      47.123  27.115  29.342  1.00  0.00     0.031 A 
ATOM     61  C   UNL A   1      41.232  29.900  29.656  1.00  0.00     0.049 A 
ATOM     62  C   UNL A   1      46.646  28.482  29.748  1.00  0.00     0.074 A 
ATOM     63  C   UNL A   1      40.910  31.157  30.137  1.00  0.00     0.029 A 
ATOM     64  N   UNL A   1      42.610  29.776  29.753  1.00  0.00    -0.354 N 
ATOM     65  N   UNL A   1      45.424  28.953  29.792  1.00  0.00    -0.248 NA
ATOM     66  C   UNL A   1      47.677  29.441  30.170  1.00  0.00     0.031 C 
ATOM     67  C   UNL A   1      42.098  31.817  30.467  1.00  0.00     0.029 A 
ATOM     68  C   UNL A   1      43.155  30.944  30.259  1.00  0.00     0.049 A 
ATOM     69  H   UNL A   1      43.124  28.976  29.500  1.00  0.00     0.167 HD
ATOM     70  C   UNL A   1      45.534  30.250  30.278  1.00  0.00     0.074 A 
ATOM     71  C   UNL A   1      46.942  30.484  30.528  1.00  0.00     0.031 C 
ATOM     72  C   UNL A   1      44.558  31.164  30.500  1.00  0.00     0.031 A 
BRANCH  59  73
ATOM     73  C   UNL A   1      38.884  29.190  29.031  1.00  0.00    -0.014 A 
ATOM     74  C   UNL A   1      38.024  29.034  30.131  1.00  0.00     0.009 A 
ATOM     75  C   UNL A   1      38.353  29.658  27.819  1.00  0.00     0.009 A 
ATOM     76  C   UNL A   1      36.657  29.297  30.005  1.00  0.00     0.001 A 
ATOM     77  C   UNL A   1      36.993  29.954  27.707  1.00  0.00     0.001 A 
ATOM     78  C   UNL A   1      36.144  29.761  28.795  1.00  0.00     0.000 A 
ENDBRANCH  59  73
BRANCH  60  79
ATOM     79  C   UNL A   1      48.565  26.765  29.407  1.00  0.00    -0.014 A 
ATOM     80  C   UNL A   1      49.393  26.951  28.288  1.00  0.00     0.009 A 
ATOM     81  C   UNL A   1      49.124  26.233  30.580  1.00  0.00     0.009 A 
ATOM     82  C   UNL A   1      50.741  26.585  28.334  1.00  0.00     0.001 A 
ATOM     83  C   UNL A   1      50.479  25.899  30.633  1.00  0.00     0.001 A 
ATOM     84  C   UNL A   1      51.283  26.064  29.507  1.00  0.00     0.000 A 
ENDBRANCH  60  79
BRANCH  72  85
ATOM     85  C   UNL A   1      44.974  32.487  31.080  1.00  0.00    -0.014 A 
ATOM     86  C   UNL A   1      45.159  33.618  30.271  1.00  0.00     0.009 A 
ATOM     87  C   UNL A   1      45.147  32.610  32.468  1.00  0.00     0.009 A 
ATOM     88  C   UNL A   1      45.546  34.835  30.836  1.00  0.00     0.001 A 
ATOM     89  C   UNL A   1      45.499  33.836  33.035  1.00  0.00     0.001 A 
ATOM     90  C   UNL A   1      45.710  34.944  32.217  1.00  0.00     0.000 A 
ENDBRANCH  72  85
ENDBRANCH  46  47
ENDBRANCH  38  41
ENDBRANCH  36  37
ENDBRANCH  35  36
ENDBRANCH  34  35
ENDBRANCH   1  34
TORSDOF 19
ENDMDL
MODEL 2
REMARK VINA RESULT:     -11.7      1.820      2.541
REMARK SMILES O=C(C[C@@H]([NH2+]Cc1cccnc1)C(=O)NCCCCCCNC(=O)c1ccc(-c2c3nc(c(-c4ccccc4)c4ccc([nH]4)c(-c4ccccc4)c4nc(c(-c5ccccc5)c5ccc2[nH]5)C=C4)C=C3)cc1)Nc1ccc2ccccc2c1
REMARK SMILES IDX 18 1 17 2 16 3 15 4 13 5 14 6 4 8 3 9 2 10 1 11 73 12 74 14
REMARK SMILES IDX 75 15 83 16 76 17 82 18 77 19 81 20 78 21 80 22 79 23 5 24
REMARK SMILES IDX 6 27 7 28 8 29 12 30 9 31 11 32 10 33 19 34 20 35 21 36
REMARK SMILES IDX 22 37 23 38 24 40 25 41 26 42 72 43 27 44 71 45 28 46 29 47
REMARK SMILES IDX 30 48 65 49 31 50 70 51 64 52 66 53 32 54 69 55 63 56 62 57
REMARK SMILES IDX 33 59 55 60 40 61 54 62 41 63 44 64 53 65 67 66 42 67 43 68
REMARK SMILES IDX 52 70 68 71 45 72 34 73 35 74 39 75 36 76 38 77 37 78 56 79
REMARK SMILES IDX 57 80 61 81 58 82 60 83 59 84 46 85 47 86 51 87 48 88 50 89
REMARK SMILES IDX 49 90
REMARK H PARENT 15 7 73 13 5 25 5 26 22 39 66 58 44 69
REMARK Flexibility Score: inf
ROOT
ATOM      1  C   UNL A   1      37.132  22.311  24.674  1.00  0.00     0.002 C 
ENDROOT
BRANCH   1   2
ATOM      2  C   UNL A   1      36.398  22.785  23.412  1.00  0.00     0.021 C 
BRANCH   2   3
ATOM      3  C   UNL A   1      35.086  23.509  23.723  1.00  0.00     0.116 C 
BRANCH   3   4
ATOM      4  N   UNL A   1      34.035  22.959  22.896  1.00  0.00    -0.351 N 
ATOM      5  C   UNL A   1      32.918  22.266  23.246  1.00  0.00     0.278 C 
ATOM      6  O   UNL A   1      32.257  21.752  22.338  1.00  0.00    -0.268 OA
ATOM      7  H   UNL A   1      34.144  23.110  21.929  1.00  0.00     0.163 HD
BRANCH   5   8
ATOM      8  C   UNL A   1      32.407  22.224  24.701  1.00  0.00     0.282 C 
BRANCH   8   9
ATOM      9  C   UNL A   1      31.041  22.926  24.862  1.00  0.00     0.175 C 
BRANCH   9  10
ATOM     10  C   UNL A   1      31.105  24.234  25.630  1.00  0.00     0.230 C 
ATOM     11  O   UNL A   1      30.386  24.450  26.597  1.00  0.00    -0.274 OA
ATOM     12  N   UNL A   1      32.028  25.109  25.084  1.00  0.00    -0.326 N 
ATOM     13  H   UNL A   1      32.647  24.759  24.403  1.00  0.00     0.169 HD
BRANCH  12  14
ATOM     14  C   UNL A   1      32.141  26.459  25.440  1.00  0.00     0.041 A 
ATOM     15  C   UNL A   1      31.191  27.333  24.911  1.00  0.00     0.027 A 
ATOM     16  C   UNL A   1      33.152  26.941  26.269  1.00  0.00     0.034 A 
ATOM     17  C   UNL A   1      31.180  28.669  25.301  1.00  0.00     0.011 A 
ATOM     18  C   UNL A   1      33.231  28.317  26.556  1.00  0.00    -0.016 A 
ATOM     19  C   UNL A   1      32.196  29.177  26.118  1.00  0.00    -0.018 A 
ATOM     20  C   UNL A   1      34.322  28.874  27.246  1.00  0.00     0.009 A 
ATOM     21  C   UNL A   1      32.216  30.531  26.476  1.00  0.00     0.009 A 
ATOM     22  C   UNL A   1      34.369  30.244  27.521  1.00  0.00     0.001 A 
ATOM     23  C   UNL A   1      33.303  31.065  27.165  1.00  0.00     0.001 A 
ENDBRANCH  12  14
ENDBRANCH   9  10
ENDBRANCH   8   9
BRANCH   8  24
ATOM     24  N   UNL A   1      32.473  20.835  25.259  1.00  0.00    -0.332 N 
ATOM     25  H   UNL A   1      31.672  20.315  24.900  1.00  0.00     0.347 HD
ATOM     26  H   UNL A   1      32.476  20.945  26.274  1.00  0.00     0.347 HD
BRANCH  24  27
ATOM     27  C   UNL A   1      33.694  20.066  24.938  1.00  0.00     0.299 C 
BRANCH  27  28
ATOM     28  C   UNL A   1      33.537  18.566  24.875  1.00  0.00     0.024 A 
ATOM     29  C   UNL A   1      34.411  17.804  24.087  1.00  0.00     0.013 A 
ATOM     30  C   UNL A   1      32.616  17.851  25.633  1.00  0.00     0.120 A 
ATOM     31  C   UNL A   1      34.302  16.414  24.056  1.00  0.00     0.021 A 
ATOM     32  N   UNL A   1      32.469  16.505  25.605  1.00  0.00    -0.264 NA
ATOM     33  C   UNL A   1      33.315  15.817  24.816  1.00  0.00     0.111 A 
ENDBRANCH  27  28
ENDBRANCH  24  27
ENDBRANCH   8  24
ENDBRANCH   5   8
ENDBRANCH   3   4
ENDBRANCH   2   3
ENDBRANCH   1   2
BRANCH   1  34
ATOM     34  C   UNL A   1      36.930  20.829  25.004  1.00  0.00     0.002 C 
BRANCH  34  35
ATOM     35  C   UNL A   1      38.189  19.972  24.858  1.00  0.00     0.021 C 
BRANCH  35  36
ATOM     36  C   UNL A   1      39.212  20.189  25.966  1.00  0.00     0.116 C 
BRANCH  36  37
ATOM     37  N   UNL A   1      40.222  19.142  25.976  1.00  0.00    -0.352 N 
ATOM     38  C   UNL A   1      41.586  19.261  26.050  1.00  0.00     0.251 C 
ATOM     39  H   UNL A   1      39.877  18.222  25.922  1.00  0.00     0.163 HD
ATOM     40  O   UNL A   1      42.308  18.303  25.813  1.00  0.00    -0.269 OA
BRANCH  38  41
ATOM     41  C   UNL A   1      42.176  20.568  26.404  1.00  0.00     0.039 A 
ATOM     42  C   UNL A   1      42.607  21.416  25.382  1.00  0.00     0.014 A 
ATOM     43  C   UNL A   1      42.294  20.955  27.743  1.00  0.00     0.014 A 
ATOM     44  C   UNL A   1      43.107  22.678  25.702  1.00  0.00     0.010 A 
ATOM     45  C   UNL A   1      42.716  22.242  28.054  1.00  0.00     0.010 A 
ATOM     46  C   UNL A   1      43.134  23.113  27.037  1.00  0.00    -0.014 A 
BRANCH  46  47
ATOM     47  C   UNL A   1      43.602  24.476  27.391  1.00  0.00     0.031 A 
ATOM     48  C   UNL A   1      42.618  25.518  27.845  1.00  0.00     0.074 A 
ATOM     49  C   UNL A   1      44.904  24.790  27.251  1.00  0.00     0.049 A 
ATOM     50  N   UNL A   1      42.828  26.773  28.155  1.00  0.00    -0.248 NA
ATOM     51  C   UNL A   1      41.209  25.103  27.942  1.00  0.00     0.031 C 
ATOM     52  C   UNL A   1      45.952  23.877  26.790  1.00  0.00     0.029 A 
ATOM     53  N   UNL A   1      45.567  25.968  27.482  1.00  0.00    -0.354 N 
ATOM     54  C   UNL A   1      41.581  27.296  28.472  1.00  0.00     0.074 A 
ATOM     55  C   UNL A   1      40.613  26.243  28.258  1.00  0.00     0.031 C 
ATOM     56  C   UNL A   1      47.132  24.518  26.811  1.00  0.00     0.029 A 
ATOM     57  C   UNL A   1      46.917  25.897  27.236  1.00  0.00     0.049 A 
ATOM     58  H   UNL A   1      45.119  26.787  27.795  1.00  0.00     0.167 HD
ATOM     59  C   UNL A   1      41.270  28.534  28.923  1.00  0.00     0.031 A 
ATOM     60  C   UNL A   1      47.874  26.839  27.338  1.00  0.00     0.031 A 
ATOM     61  C   UNL A   1      42.233  29.583  29.130  1.00  0.00     0.049 A 
ATOM     62  C   UNL A   1      47.495  28.220  27.795  1.00  0.00     0.074 A 
ATOM     63  C   UNL A   1      42.026  30.860  29.621  1.00  0.00     0.029 A 
ATOM     64  N   UNL A   1      43.587  29.476  28.850  1.00  0.00    -0.354 N 
ATOM     65  N   UNL A   1      46.322  28.682  28.151  1.00  0.00    -0.248 NA
ATOM     66  C   UNL A   1      48.580  29.209  27.871  1.00  0.00     0.031 C 
ATOM     67  C   UNL A   1      43.244  31.546  29.580  1.00  0.00     0.029 A 
ATOM     68  C   UNL A   1      44.223  30.674  29.130  1.00  0.00     0.049 A 
ATOM     69  H   UNL A   1      44.030  28.669  28.503  1.00  0.00     0.167 HD
ATOM     70  C   UNL A   1      46.531  30.003  28.526  1.00  0.00     0.074 A 
ATOM     71  C   UNL A   1      47.948  30.262  28.368  1.00  0.00     0.031 C 
ATOM     72  C   UNL A   1      45.633  30.918  28.965  1.00  0.00     0.031 A 
BRANCH  59  73
ATOM     73  C   UNL A   1      39.820  28.820  29.209  1.00  0.00    -0.014 A 
ATOM     74  C   UNL A   1      38.980  29.381  28.233  1.00  0.00     0.009 A 
ATOM     75  C   UNL A   1      39.280  28.506  30.466  1.00  0.00     0.009 A 
ATOM     76  C   UNL A   1      37.644  29.664  28.524  1.00  0.00     0.001 A 
ATOM     77  C   UNL A   1      37.935  28.758  30.743  1.00  0.00     0.001 A 
ATOM     78  C   UNL A   1      37.121  29.347  29.777  1.00  0.00     0.000 A 
ENDBRANCH  59  73
BRANCH  60  79
ATOM     79  C   UNL A   1      49.286  26.505  27.019  1.00  0.00    -0.014 A 
ATOM     80  C   UNL A   1      50.127  25.958  28.002  1.00  0.00     0.009 A 
ATOM     81  C   UNL A   1      49.808  26.739  25.737  1.00  0.00     0.009 A 
ATOM     82  C   UNL A   1      51.466  25.681  27.716  1.00  0.00     0.001 A 
ATOM     83  C   UNL A   1      51.138  26.431  25.445  1.00  0.00     0.001 A 
ATOM     84  C   UNL A   1      51.969  25.914  26.437  1.00  0.00     0.000 A 
ENDBRANCH  60  79
BRANCH  72  85
ATOM     85  C   UNL A   1      46.162  32.273  29.346  1.00  0.00    -0.014 A 
ATOM     86  C   UNL A   1      46.214  33.328  28.422  1.00  0.00     0.009 A 
ATOM     87  C   UNL A   1      46.581  32.507  30.666  1.00  0.00     0.009 A 
ATOM     88  C   UNL A   1      46.709  34.577  28.801  1.00  0.00     0.001 A 
ATOM     89  C   UNL A   1      47.044  33.765  31.052  1.00  0.00     0.001 A 
ATOM     90  C   UNL A   1      47.118  34.796  30.116  1.00  0.00     0.000 A 
ENDBRANCH  72  85
ENDBRANCH  46  47
ENDBRANCH  38  41
ENDBRANCH  36  37
ENDBRANCH  35  36
ENDBRANCH  34  35
ENDBRANCH   1  34
TORSDOF 19
ENDMDL
MODEL 3
REMARK VINA RESULT:     -11.6      1.473      3.162
REMARK SMILES O=C(C[C@@H]([NH2+]Cc1cccnc1)C(=O)NCCCCCCNC(=O)c1ccc(-c2c3nc(c(-c4ccccc4)c4ccc([nH]4)c(-c4ccccc4)c4nc(c(-c5ccccc5)c5ccc2[nH]5)C=C4)C=C3)cc1)Nc1ccc2ccccc2c1
REMARK SMILES IDX 18 1 17 2 16 3 15 4 13 5 14 6 4 8 3 9 2 10 1 11 73 12 74 14
REMARK SMILES IDX 75 15 83 16 76 17 82 18 77 19 81 20 78 21 80 22 79 23 5 24
REMARK SMILES IDX 6 27 7 28 8 29 12 30 9 31 11 32 10 33 19 34 20 35 21 36
REMARK SMILES IDX 22 37 23 38 24 40 25 41 26 42 72 43 27 44 71 45 28 46 29 47
REMARK SMILES IDX 30 48 65 49 31 50 70 51 64 52 66 53 32 54 69 55 63 56 62 57
REMARK SMILES IDX 33 59 55 60 40 61 54 62 41 63 44 64 53 65 67 66 42 67 43 68
REMARK SMILES IDX 52 70 68 71 45 72 34 73 35 74 39 75 36 76 38 77 37 78 56 79
REMARK SMILES IDX 57 80 61 81 58 82 60 83 59 84 46 85 47 86 51 87 48 88 50 89
REMARK SMILES IDX 49 90
REMARK H PARENT 15 7 73 13 5 25 5 26 22 39 66 58 44 69
REMARK Flexibility Score: inf
ROOT
ATOM      1  C   UNL A   1      35.835  21.143  25.050  1.00  0.00     0.002 C 
ENDROOT
BRANCH   1   2
ATOM      2  C   UNL A   1      34.774  20.038  24.959  1.00  0.00     0.021 C 
BRANCH   2   3
ATOM      3  C   UNL A   1      33.345  20.573  25.082  1.00  0.00     0.116 C 
BRANCH   3   4
ATOM      4  N   UNL A   1      33.101  20.961  26.453  1.00  0.00    -0.351 N 
ATOM      5  C   UNL A   1      32.791  22.177  26.976  1.00  0.00     0.278 C 
ATOM      6  O   UNL A   1      32.798  22.287  28.206  1.00  0.00    -0.268 OA
ATOM      7  H   UNL A   1      33.169  20.230  27.110  1.00  0.00     0.163 HD
BRANCH   5   8
ATOM      8  C   UNL A   1      32.315  23.348  26.092  1.00  0.00     0.282 C 
BRANCH   8   9
ATOM      9  C   UNL A   1      30.881  23.802  26.442  1.00  0.00     0.175 C 
BRANCH   9  10
ATOM     10  C   UNL A   1      30.553  25.213  25.991  1.00  0.00     0.230 C 
ATOM     11  O   UNL A   1      30.737  26.182  26.718  1.00  0.00    -0.274 OA
ATOM     12  N   UNL A   1      30.016  25.237  24.716  1.00  0.00    -0.326 N 
ATOM     13  H   UNL A   1      30.060  24.411  24.182  1.00  0.00     0.169 HD
BRANCH  12  14
ATOM     14  C   UNL A   1      29.416  26.361  24.134  1.00  0.00     0.041 A 
ATOM     15  C   UNL A   1      28.021  26.393  24.112  1.00  0.00     0.027 A 
ATOM     16  C   UNL A   1      30.150  27.409  23.580  1.00  0.00     0.034 A 
ATOM     17  C   UNL A   1      27.357  27.522  23.643  1.00  0.00     0.011 A 
ATOM     18  C   UNL A   1      29.484  28.492  22.976  1.00  0.00    -0.016 A 
ATOM     19  C   UNL A   1      28.074  28.577  23.067  1.00  0.00    -0.018 A 
ATOM     20  C   UNL A   1      30.173  29.486  22.259  1.00  0.00     0.009 A 
ATOM     21  C   UNL A   1      27.408  29.696  22.550  1.00  0.00     0.009 A 
ATOM     22  C   UNL A   1      29.484  30.553  21.675  1.00  0.00     0.001 A 
ATOM     23  C   UNL A   1      28.109  30.674  21.847  1.00  0.00     0.001 A 
ENDBRANCH  12  14
ENDBRANCH   9  10
ENDBRANCH   8   9
BRANCH   8  24
ATOM     24  N   UNL A   1      33.333  24.447  26.054  1.00  0.00    -0.332 N 
ATOM     25  H   UNL A   1      33.964  24.317  26.844  1.00  0.00     0.347 HD
ATOM     26  H   UNL A   1      32.801  25.317  26.086  1.00  0.00     0.347 HD
BRANCH  24  27
ATOM     27  C   UNL A   1      34.154  24.526  24.827  1.00  0.00     0.299 C 
BRANCH  27  28
ATOM     28  C   UNL A   1      33.937  25.742  23.959  1.00  0.00     0.024 A 
ATOM     29  C   UNL A   1      33.612  25.585  22.605  1.00  0.00     0.013 A 
ATOM     30  C   UNL A   1      33.951  27.047  24.438  1.00  0.00     0.120 A 
ATOM     31  C   UNL A   1      33.368  26.701  21.804  1.00  0.00     0.021 A 
ATOM     32  N   UNL A   1      33.744  28.151  23.681  1.00  0.00    -0.264 NA
ATOM     33  C   UNL A   1      33.458  27.953  22.381  1.00  0.00     0.111 A 
ENDBRANCH  27  28
ENDBRANCH  24  27
ENDBRANCH   8  24
ENDBRANCH   5   8
ENDBRANCH   3   4
ENDBRANCH   2   3
ENDBRANCH   1   2
BRANCH   1  34
ATOM     34  C   UNL A   1      37.140  20.830  24.311  1.00  0.00     0.002 C 
BRANCH  34  35
ATOM     35  C   UNL A   1      37.940  19.671  24.908  1.00  0.00     0.021 C 
BRANCH  35  36
ATOM     36  C   UNL A   1      38.950  20.100  25.965  1.00  0.00     0.116 C 
BRANCH  36  37
ATOM     37  N   UNL A   1      40.180  19.329  25.876  1.00  0.00    -0.352 N 
ATOM     38  C   UNL A   1      41.475  19.752  26.030  1.00  0.00     0.251 C 
ATOM     39  H   UNL A   1      40.066  18.371  25.679  1.00  0.00     0.163 HD
ATOM     40  O   UNL A   1      42.409  19.035  25.696  1.00  0.00    -0.269 OA
BRANCH  38  41
ATOM     41  C   UNL A   1      41.732  21.095  26.589  1.00  0.00     0.039 A 
ATOM     42  C   UNL A   1      41.713  21.266  27.975  1.00  0.00     0.014 A 
ATOM     43  C   UNL A   1      41.998  22.177  25.745  1.00  0.00     0.014 A 
ATOM     44  C   UNL A   1      42.016  22.515  28.517  1.00  0.00     0.010 A 
ATOM     45  C   UNL A   1      42.379  23.399  26.289  1.00  0.00     0.010 A 
ATOM     46  C   UNL A   1      42.384  23.582  27.680  1.00  0.00    -0.014 A 
BRANCH  46  47
ATOM     47  C   UNL A   1      42.772  24.899  28.241  1.00  0.00     0.031 A 
ATOM     48  C   UNL A   1      41.738  25.973  28.432  1.00  0.00     0.074 A 
ATOM     49  C   UNL A   1      44.066  25.146  28.525  1.00  0.00     0.049 A 
ATOM     50  N   UNL A   1      41.892  27.199  28.866  1.00  0.00    -0.248 NA
ATOM     51  C   UNL A   1      40.353  25.634  28.068  1.00  0.00     0.031 C 
ATOM     52  C   UNL A   1      45.168  24.197  28.355  1.00  0.00     0.029 A 
ATOM     53  N   UNL A   1      44.670  26.274  29.019  1.00  0.00    -0.354 N 
ATOM     54  C   UNL A   1      40.630  27.777  28.816  1.00  0.00     0.074 A 
ATOM     55  C   UNL A   1      39.734  26.789  28.253  1.00  0.00     0.031 C 
ATOM     56  C   UNL A   1      46.308  24.770  28.774  1.00  0.00     0.029 A 
ATOM     57  C   UNL A   1      46.026  26.138  29.194  1.00  0.00     0.049 A 
ATOM     58  H   UNL A   1      44.180  27.101  29.227  1.00  0.00     0.167 HD
ATOM     59  C   UNL A   1      40.243  29.009  29.222  1.00  0.00     0.031 A 
ATOM     60  C   UNL A   1      46.941  27.019  29.640  1.00  0.00     0.031 A 
ATOM     61  C   UNL A   1      41.135  29.991  29.777  1.00  0.00     0.049 A 
ATOM     62  C   UNL A   1      46.495  28.398  30.041  1.00  0.00     0.074 A 
ATOM     63  C   UNL A   1      40.838  31.255  30.257  1.00  0.00     0.029 A 
ATOM     64  N   UNL A   1      42.505  29.822  29.920  1.00  0.00    -0.354 N 
ATOM     65  N   UNL A   1      45.288  28.908  30.047  1.00  0.00    -0.248 NA
ATOM     66  C   UNL A   1      47.541  29.320  30.504  1.00  0.00     0.031 C 
ATOM     67  C   UNL A   1      42.034  31.873  30.632  1.00  0.00     0.029 A 
ATOM     68  C   UNL A   1      43.069  30.969  30.452  1.00  0.00     0.049 A 
ATOM     69  H   UNL A   1      43.001  29.008  29.678  1.00  0.00     0.167 HD
ATOM     70  C   UNL A   1      45.423  30.197  30.546  1.00  0.00     0.074 A 
ATOM     71  C   UNL A   1      46.828  30.384  30.845  1.00  0.00     0.031 C 
ATOM     72  C   UNL A   1      44.470  31.141  30.743  1.00  0.00     0.031 A 
BRANCH  59  73
ATOM     73  C   UNL A   1      38.789  29.362  29.067  1.00  0.00    -0.014 A 
ATOM     74  C   UNL A   1      38.292  29.899  27.868  1.00  0.00     0.009 A 
ATOM     75  C   UNL A   1      37.896  29.136  30.127  1.00  0.00     0.009 A 
ATOM     76  C   UNL A   1      36.944  30.246  27.751  1.00  0.00     0.001 A 
ATOM     77  C   UNL A   1      36.542  29.451  29.994  1.00  0.00     0.001 A 
ATOM     78  C   UNL A   1      36.069  30.017  28.812  1.00  0.00     0.000 A 
ENDBRANCH  59  73
BRANCH  60  79
ATOM     79  C   UNL A   1      48.369  26.622  29.751  1.00  0.00    -0.014 A 
ATOM     80  C   UNL A   1      49.250  26.829  28.677  1.00  0.00     0.009 A 
ATOM     81  C   UNL A   1      48.860  26.025  30.923  1.00  0.00     0.009 A 
ATOM     82  C   UNL A   1      50.583  26.420  28.764  1.00  0.00     0.001 A 
ATOM     83  C   UNL A   1      50.201  25.647  31.019  1.00  0.00     0.001 A 
ATOM     84  C   UNL A   1      51.057  25.834  29.936  1.00  0.00     0.000 A 
ENDBRANCH  60  79
BRANCH  72  85
ATOM     85  C   UNL A   1      44.908  32.446  31.347  1.00  0.00    -0.014 A 
ATOM     86  C   UNL A   1      44.908  32.650  32.735  1.00  0.00     0.009 A 
ATOM     87  C   UNL A   1      45.365  33.477  30.510  1.00  0.00     0.009 A 
ATOM     88  C   UNL A   1      45.321  33.872  33.270  1.00  0.00     0.001 A 
ATOM     89  C   UNL A   1      45.810  34.685  31.049  1.00  0.00     0.001 A 
ATOM     90  C   UNL A   1      45.776  34.885  32.428  1.00  0.00     0.000 A 
ENDBRANCH  72  85
ENDBRANCH  46  47
ENDBRANCH  38  41
ENDBRANCH  36  37
ENDBRANCH  35  36
ENDBRANCH  34  35
ENDBRANCH   1  34
TORSDOF 19
ENDMDL
