MODEL 1
REMARK VINA RESULT:      -9.4      0.000      0.000
REMARK SMILES CN(CCOCC1CC1)C(=O)N1CC[C@](C)(C(=O)NCCCCCCNC(=O)c2ccc(-c3c4nc(c(-c5ccccc5)c5ccc([nH]5)c(-c5ccccc5)c5nc(c(-c6ccccc6)c6ccc3[nH]6)C=C5)C=C4)cc2)C1
REMARK SMILES IDX 20 1 19 2 17 3 18 4 15 6 12 7 13 8 77 9 14 10 16 11 10 12
REMARK SMILES IDX 11 13 2 14 1 15 3 16 4 17 5 18 6 19 7 20 8 21 9 22 21 23
REMARK SMILES IDX 22 24 23 25 24 26 25 27 26 28 27 29 28 31 29 32 30 33 76 34
REMARK SMILES IDX 31 35 75 36 32 37 33 38 34 39 69 40 35 41 74 42 68 43 70 44
REMARK SMILES IDX 36 45 73 46 67 47 66 48 37 50 59 51 44 52 58 53 45 54 48 55
REMARK SMILES IDX 57 56 71 57 46 58 47 59 56 61 72 62 49 63 38 64 39 65 43 66
REMARK SMILES IDX 40 67 42 68 41 69 60 70 61 71 65 72 62 73 64 74 63 75 50 76
REMARK SMILES IDX 51 77 55 78 52 79 54 80 53 81
REMARK H PARENT 19 5 26 30 70 49 48 60
REMARK Flexibility Score: inf
ROOT
ATOM      1  C   UNL A   1      34.526  29.935  27.485  1.00  0.00     0.116 C 
ENDROOT
BRANCH   1   2
ATOM      2  N   UNL A   1      33.871  30.011  26.194  1.00  0.00    -0.356 N 
ATOM      3  C   UNL A   1      32.938  29.245  25.574  1.00  0.00     0.227 C 
ATOM      4  O   UNL A   1      32.617  29.630  24.445  1.00  0.00    -0.274 OA
ATOM      5  H   UNL A   1      34.164  30.780  25.653  1.00  0.00     0.163 HD
BRANCH   3   6
ATOM      6  C   UNL A   1      32.236  28.046  26.240  1.00  0.00     0.066 C 
ATOM      7  N   UNL A   1      32.452  25.702  25.640  1.00  0.00    -0.324 N 
ATOM      8  C   UNL A   1      31.068  26.068  25.408  1.00  0.00     0.122 C 
ATOM      9  C   UNL A   1      33.108  26.783  26.362  1.00  0.00     0.138 C 
ATOM     10  C   UNL A   1      31.068  27.581  25.337  1.00  0.00     0.040 C 
ATOM     11  C   UNL A   1      31.710  28.488  27.611  1.00  0.00     0.024 C 
BRANCH   7  12
ATOM     12  C   UNL A   1      32.901  24.502  25.144  1.00  0.00     0.319 C 
ATOM     13  O   UNL A   1      33.745  24.514  24.239  1.00  0.00    -0.248 OA
BRANCH  12  14
ATOM     14  N   UNL A   1      32.471  23.286  25.645  1.00  0.00    -0.325 N 
ATOM     15  C   UNL A   1      32.713  23.046  27.069  1.00  0.00     0.148 C 
BRANCH  14  16
ATOM     16  C   UNL A   1      31.787  22.182  24.966  1.00  0.00     0.149 C 
BRANCH  16  17
ATOM     17  C   UNL A   1      32.657  20.931  24.732  1.00  0.00     0.181 C 
BRANCH  17  18
ATOM     18  O   UNL A   1      33.927  21.193  24.150  1.00  0.00    -0.379 OA
BRANCH  18  19
ATOM     19  C   UNL A   1      35.060  20.763  24.902  1.00  0.00     0.163 C 
BRANCH  19  20
ATOM     20  C   UNL A   1      35.929  21.916  25.257  1.00  0.00     0.015 C 
ATOM     21  C   UNL A   1      37.430  21.797  25.243  1.00  0.00     0.006 C 
ATOM     22  C   UNL A   1      36.731  22.565  24.157  1.00  0.00     0.006 C 
ENDBRANCH  19  20
ENDBRANCH  18  19
ENDBRANCH  17  18
ENDBRANCH  16  17
ENDBRANCH  14  16
ENDBRANCH  12  14
ENDBRANCH   7  12
ENDBRANCH   3   6
ENDBRANCH   1   2
BRANCH   1  23
ATOM     23  C   UNL A   1      35.098  31.297  27.889  1.00  0.00     0.021 C 
BRANCH  23  24
ATOM     24  C   UNL A   1      34.265  32.099  28.896  1.00  0.00     0.002 C 
BRANCH  24  25
ATOM     25  C   UNL A   1      34.493  33.611  28.887  1.00  0.00     0.002 C 
BRANCH  25  26
ATOM     26  C   UNL A   1      33.223  34.462  28.858  1.00  0.00     0.021 C 
BRANCH  26  27
ATOM     27  C   UNL A   1      33.382  35.879  29.401  1.00  0.00     0.116 C 
BRANCH  27  28
ATOM     28  N   UNL A   1      32.524  36.139  30.546  1.00  0.00    -0.352 N 
ATOM     29  C   UNL A   1      32.642  35.701  31.841  1.00  0.00     0.251 C 
ATOM     30  H   UNL A   1      31.745  36.713  30.366  1.00  0.00     0.163 HD
ATOM     31  O   UNL A   1      31.724  35.883  32.640  1.00  0.00    -0.269 OA
BRANCH  29  32
ATOM     32  C   UNL A   1      33.862  34.987  32.276  1.00  0.00     0.039 A 
ATOM     33  C   UNL A   1      33.745  33.677  32.746  1.00  0.00     0.014 A 
ATOM     34  C   UNL A   1      35.115  35.605  32.230  1.00  0.00     0.014 A 
ATOM     35  C   UNL A   1      34.890  32.967  33.112  1.00  0.00     0.010 A 
ATOM     36  C   UNL A   1      36.263  34.870  32.520  1.00  0.00     0.010 A 
ATOM     37  C   UNL A   1      36.163  33.543  32.968  1.00  0.00    -0.014 A 
BRANCH  37  38
ATOM     38  C   UNL A   1      37.395  32.774  33.283  1.00  0.00     0.031 A 
ATOM     39  C   UNL A   1      38.149  33.036  34.560  1.00  0.00     0.074 A 
ATOM     40  C   UNL A   1      37.863  31.870  32.400  1.00  0.00     0.049 A 
ATOM     41  N   UNL A   1      39.266  32.497  34.983  1.00  0.00    -0.248 NA
ATOM     42  C   UNL A   1      37.590  34.049  35.469  1.00  0.00     0.031 C 
ATOM     43  C   UNL A   1      37.248  31.546  31.109  1.00  0.00     0.029 A 
ATOM     44  N   UNL A   1      38.969  31.058  32.451  1.00  0.00    -0.354 N 
ATOM     45  C   UNL A   1      39.542  33.109  36.200  1.00  0.00     0.074 A 
ATOM     46  C   UNL A   1      38.512  34.099  36.420  1.00  0.00     0.031 C 
ATOM     47  C   UNL A   1      37.969  30.587  30.507  1.00  0.00     0.029 A 
ATOM     48  C   UNL A   1      39.119  30.257  31.343  1.00  0.00     0.049 A 
ATOM     49  H   UNL A   1      39.596  31.048  33.210  1.00  0.00     0.167 HD
ATOM     50  C   UNL A   1      40.548  32.853  37.071  1.00  0.00     0.031 A 
ATOM     51  C   UNL A   1      40.077  29.366  31.030  1.00  0.00     0.031 A 
ATOM     52  C   UNL A   1      41.573  31.866  36.857  1.00  0.00     0.049 A 
ATOM     53  C   UNL A   1      41.200  29.122  32.003  1.00  0.00     0.074 A 
ATOM     54  C   UNL A   1      42.616  31.512  37.696  1.00  0.00     0.029 A 
ATOM     55  N   UNL A   1      41.684  31.075  35.725  1.00  0.00    -0.354 N 
ATOM     56  N   UNL A   1      41.412  29.670  33.174  1.00  0.00    -0.248 NA
ATOM     57  C   UNL A   1      42.205  28.123  31.616  1.00  0.00     0.031 C 
ATOM     58  C   UNL A   1      43.388  30.543  37.049  1.00  0.00     0.029 A 
ATOM     59  C   UNL A   1      42.786  30.245  35.837  1.00  0.00     0.049 A 
ATOM     60  H   UNL A   1      41.070  31.098  34.956  1.00  0.00     0.167 HD
ATOM     61  C   UNL A   1      42.551  29.053  33.679  1.00  0.00     0.074 A 
ATOM     62  C   UNL A   1      42.973  28.081  32.694  1.00  0.00     0.031 C 
ATOM     63  C   UNL A   1      43.190  29.273  34.854  1.00  0.00     0.031 A 
BRANCH  50  64
ATOM     64  C   UNL A   1      40.589  33.654  38.343  1.00  0.00    -0.014 A 
ATOM     65  C   UNL A   1      41.315  34.853  38.423  1.00  0.00     0.009 A 
ATOM     66  C   UNL A   1      39.846  33.237  39.459  1.00  0.00     0.009 A 
ATOM     67  C   UNL A   1      41.319  35.603  39.601  1.00  0.00     0.001 A 
ATOM     68  C   UNL A   1      39.827  34.004  40.626  1.00  0.00     0.001 A 
ATOM     69  C   UNL A   1      40.570  35.181  40.698  1.00  0.00     0.000 A 
ENDBRANCH  50  64
BRANCH  51  70
ATOM     70  C   UNL A   1      40.028  28.628  29.738  1.00  0.00    -0.014 A 
ATOM     71  C   UNL A   1      40.452  29.237  28.547  1.00  0.00     0.009 A 
ATOM     72  C   UNL A   1      39.519  27.321  29.684  1.00  0.00     0.009 A 
ATOM     73  C   UNL A   1      40.328  28.571  27.326  1.00  0.00     0.001 A 
ATOM     74  C   UNL A   1      39.430  26.643  28.467  1.00  0.00     0.001 A 
ATOM     75  C   UNL A   1      39.820  27.274  27.287  1.00  0.00     0.000 A 
ENDBRANCH  51  70
BRANCH  63  76
ATOM     76  C   UNL A   1      44.377  28.405  35.168  1.00  0.00    -0.014 A 
ATOM     77  C   UNL A   1      44.237  27.176  35.829  1.00  0.00     0.009 A 
ATOM     78  C   UNL A   1      45.656  28.816  34.761  1.00  0.00     0.009 A 
ATOM     79  C   UNL A   1      45.360  26.395  36.113  1.00  0.00     0.001 A 
ATOM     80  C   UNL A   1      46.773  28.018  35.015  1.00  0.00     0.001 A 
ATOM     81  C   UNL A   1      46.626  26.815  35.702  1.00  0.00     0.000 A 
ENDBRANCH  63  76
ENDBRANCH  37  38
ENDBRANCH  29  32
ENDBRANCH  27  28
ENDBRANCH  26  27
ENDBRANCH  25  26
ENDBRANCH  24  25
ENDBRANCH  23  24
ENDBRANCH   1  23
TORSDOF 20
ENDMDL
MODEL 2
REMARK VINA RESULT:      -9.2      1.913      6.416
REMARK SMILES CN(CCOCC1CC1)C(=O)N1CC[C@](C)(C(=O)NCCCCCCNC(=O)c2ccc(-c3c4nc(c(-c5ccccc5)c5ccc([nH]5)c(-c5ccccc5)c5nc(c(-c6ccccc6)c6ccc3[nH]6)C=C5)C=C4)cc2)C1
REMARK SMILES IDX 20 1 19 2 17 3 18 4 15 6 12 7 13 8 77 9 14 10 16 11 10 12
REMARK SMILES IDX 11 13 2 14 1 15 3 16 4 17 5 18 6 19 7 20 8 21 9 22 21 23
REMARK SMILES IDX 22 24 23 25 24 26 25 27 26 28 27 29 28 31 29 32 30 33 76 34
REMARK SMILES IDX 31 35 75 36 32 37 33 38 34 39 69 40 35 41 74 42 68 43 70 44
REMARK SMILES IDX 36 45 73 46 67 47 66 48 37 50 59 51 44 52 58 53 45 54 48 55
REMARK SMILES IDX 57 56 71 57 46 58 47 59 56 61 72 62 49 63 38 64 39 65 43 66
REMARK SMILES IDX 40 67 42 68 41 69 60 70 61 71 65 72 62 73 64 74 63 75 50 76
REMARK SMILES IDX 51 77 55 78 52 79 54 80 53 81
REMARK H PARENT 19 5 26 30 70 49 48 60
REMARK Flexibility Score: inf
ROOT
ATOM      1  C   UNL A   1      33.688  29.241  26.344  1.00  0.00     0.116 C 
ENDROOT
BRANCH   1   2
ATOM      2  N   UNL A   1      33.937  28.645  25.046  1.00  0.00    -0.356 N 
ATOM      3  C   UNL A   1      33.352  27.635  24.356  1.00  0.00     0.227 C 
ATOM      4  O   UNL A   1      33.854  27.401  23.251  1.00  0.00    -0.274 OA
ATOM      5  H   UNL A   1      34.688  29.061  24.564  1.00  0.00     0.163 HD
BRANCH   3   6
ATOM      6  C   UNL A   1      32.092  26.889  24.835  1.00  0.00     0.066 C 
ATOM      7  N   UNL A   1      31.984  24.659  25.795  1.00  0.00    -0.324 N 
ATOM      8  C   UNL A   1      31.235  24.617  24.553  1.00  0.00     0.122 C 
ATOM      9  C   UNL A   1      32.294  26.047  26.109  1.00  0.00     0.138 C 
ATOM     10  C   UNL A   1      31.698  25.831  23.774  1.00  0.00     0.040 C 
ATOM     11  C   UNL A   1      30.962  27.908  25.020  1.00  0.00     0.024 C 
BRANCH   7  12
ATOM     12  C   UNL A   1      32.292  23.470  26.411  1.00  0.00     0.319 C 
ATOM     13  O   UNL A   1      31.535  23.049  27.295  1.00  0.00    -0.248 OA
BRANCH  12  14
ATOM     14  N   UNL A   1      33.394  22.715  26.052  1.00  0.00    -0.325 N 
ATOM     15  C   UNL A   1      34.600  22.896  26.863  1.00  0.00     0.148 C 
BRANCH  14  16
ATOM     16  C   UNL A   1      33.546  21.733  24.974  1.00  0.00     0.149 C 
BRANCH  16  17
ATOM     17  C   UNL A   1      32.238  21.041  24.544  1.00  0.00     0.181 C 
BRANCH  17  18
ATOM     18  O   UNL A   1      32.004  19.781  25.160  1.00  0.00    -0.379 OA
BRANCH  18  19
ATOM     19  C   UNL A   1      33.082  18.849  25.103  1.00  0.00     0.163 C 
BRANCH  19  20
ATOM     20  C   UNL A   1      32.747  17.706  24.212  1.00  0.00     0.015 C 
ATOM     21  C   UNL A   1      33.745  17.170  23.220  1.00  0.00     0.006 C 
ATOM     22  C   UNL A   1      33.431  16.385  24.463  1.00  0.00     0.006 C 
ENDBRANCH  19  20
ENDBRANCH  18  19
ENDBRANCH  17  18
ENDBRANCH  16  17
ENDBRANCH  14  16
ENDBRANCH  12  14
ENDBRANCH   7  12
ENDBRANCH   3   6
ENDBRANCH   1   2
BRANCH   1  23
ATOM     23  C   UNL A   1      34.962  29.253  27.194  1.00  0.00     0.021 C 
BRANCH  23  24
ATOM     24  C   UNL A   1      35.049  30.360  28.251  1.00  0.00     0.002 C 
BRANCH  24  25
ATOM     25  C   UNL A   1      34.936  31.789  27.722  1.00  0.00     0.002 C 
BRANCH  25  26
ATOM     26  C   UNL A   1      33.662  32.535  28.124  1.00  0.00     0.021 C 
BRANCH  26  27
ATOM     27  C   UNL A   1      33.794  34.053  28.188  1.00  0.00     0.116 C 
BRANCH  27  28
ATOM     28  N   UNL A   1      33.347  34.600  29.458  1.00  0.00    -0.352 N 
ATOM     29  C   UNL A   1      33.822  34.365  30.724  1.00  0.00     0.251 C 
ATOM     30  H   UNL A   1      32.594  35.232  29.403  1.00  0.00     0.163 HD
ATOM     31  O   UNL A   1      33.208  34.788  31.702  1.00  0.00    -0.269 OA
BRANCH  29  32
ATOM     32  C   UNL A   1      35.061  33.582  30.919  1.00  0.00     0.039 A 
ATOM     33  C   UNL A   1      36.259  34.075  30.397  1.00  0.00     0.014 A 
ATOM     34  C   UNL A   1      35.045  32.363  31.603  1.00  0.00     0.014 A 
ATOM     35  C   UNL A   1      37.450  33.378  30.616  1.00  0.00     0.010 A 
ATOM     36  C   UNL A   1      36.243  31.710  31.887  1.00  0.00     0.010 A 
ATOM     37  C   UNL A   1      37.458  32.208  31.393  1.00  0.00    -0.014 A 
BRANCH  37  38
ATOM     38  C   UNL A   1      38.727  31.496  31.695  1.00  0.00     0.031 A 
ATOM     39  C   UNL A   1      39.181  30.351  30.830  1.00  0.00     0.074 A 
ATOM     40  C   UNL A   1      39.451  31.848  32.777  1.00  0.00     0.049 A 
ATOM     41  N   UNL A   1      40.234  29.582  30.964  1.00  0.00    -0.248 NA
ATOM     42  C   UNL A   1      38.333  30.009  29.677  1.00  0.00     0.031 C 
ATOM     43  C   UNL A   1      39.104  32.916  33.719  1.00  0.00     0.029 A 
ATOM     44  N   UNL A   1      40.629  31.343  33.269  1.00  0.00    -0.354 N 
ATOM     45  C   UNL A   1      40.169  28.668  29.919  1.00  0.00     0.074 A 
ATOM     46  C   UNL A   1      38.946  28.937  29.196  1.00  0.00     0.031 C 
ATOM     47  C   UNL A   1      40.062  33.003  34.656  1.00  0.00     0.029 A 
ATOM     48  C   UNL A   1      41.066  31.973  34.411  1.00  0.00     0.049 A 
ATOM     49  H   UNL A   1      41.116  30.600  32.845  1.00  0.00     0.167 HD
ATOM     50  C   UNL A   1      41.059  27.706  29.576  1.00  0.00     0.031 A 
ATOM     51  C   UNL A   1      42.146  31.742  35.179  1.00  0.00     0.031 A 
ATOM     52  C   UNL A   1      42.278  27.437  30.291  1.00  0.00     0.049 A 
ATOM     53  C   UNL A   1      43.104  30.647  34.790  1.00  0.00     0.074 A 
ATOM     54  C   UNL A   1      43.259  26.505  30.001  1.00  0.00     0.029 A 
ATOM     55  N   UNL A   1      42.684  28.102  31.437  1.00  0.00    -0.354 N 
ATOM     56  N   UNL A   1      43.054  29.831  33.766  1.00  0.00    -0.248 NA
ATOM     57  C   UNL A   1      44.276  30.456  35.656  1.00  0.00     0.031 C 
ATOM     58  C   UNL A   1      44.234  26.569  31.001  1.00  0.00     0.029 A 
ATOM     59  C   UNL A   1      43.893  27.589  31.875  1.00  0.00     0.049 A 
ATOM     60  H   UNL A   1      42.187  28.830  31.874  1.00  0.00     0.167 HD
ATOM     61  C   UNL A   1      44.207  29.057  33.844  1.00  0.00     0.074 A 
ATOM     62  C   UNL A   1      44.941  29.514  35.004  1.00  0.00     0.031 C 
ATOM     63  C   UNL A   1      44.620  28.059  33.026  1.00  0.00     0.031 A 
BRANCH  50  64
ATOM     64  C   UNL A   1      40.748  26.871  28.364  1.00  0.00    -0.014 A 
ATOM     65  C   UNL A   1      41.298  27.180  27.110  1.00  0.00     0.009 A 
ATOM     66  C   UNL A   1      39.944  25.726  28.487  1.00  0.00     0.009 A 
ATOM     67  C   UNL A   1      41.026  26.378  25.999  1.00  0.00     0.001 A 
ATOM     68  C   UNL A   1      39.698  24.910  27.382  1.00  0.00     0.001 A 
ATOM     69  C   UNL A   1      40.233  25.241  26.137  1.00  0.00     0.000 A 
ENDBRANCH  50  64
BRANCH  51  70
ATOM     70  C   UNL A   1      42.393  32.559  36.398  1.00  0.00    -0.014 A 
ATOM     71  C   UNL A   1      41.901  32.152  37.648  1.00  0.00     0.009 A 
ATOM     72  C   UNL A   1      43.092  33.774  36.311  1.00  0.00     0.009 A 
ATOM     73  C   UNL A   1      42.065  32.963  38.773  1.00  0.00     0.001 A 
ATOM     74  C   UNL A   1      43.286  34.565  37.445  1.00  0.00     0.001 A 
ATOM     75  C   UNL A   1      42.759  34.166  38.672  1.00  0.00     0.000 A 
ENDBRANCH  51  70
BRANCH  63  76
ATOM     76  C   UNL A   1      45.955  27.433  33.321  1.00  0.00    -0.014 A 
ATOM     77  C   UNL A   1      46.071  26.295  34.132  1.00  0.00     0.009 A 
ATOM     78  C   UNL A   1      47.113  27.978  32.745  1.00  0.00     0.009 A 
ATOM     79  C   UNL A   1      47.326  25.740  34.395  1.00  0.00     0.001 A 
ATOM     80  C   UNL A   1      48.363  27.402  32.980  1.00  0.00     0.001 A 
ATOM     81  C   UNL A   1      48.469  26.292  33.815  1.00  0.00     0.000 A 
ENDBRANCH  63  76
ENDBRANCH  37  38
ENDBRANCH  29  32
ENDBRANCH  27  28
ENDBRANCH  26  27
ENDBRANCH  25  26
ENDBRANCH  24  25
ENDBRANCH  23  24
ENDBRANCH   1  23
TORSDOF 20
ENDMDL
MODEL 3
REMARK VINA RESULT:      -9.2      3.393      8.713
REMARK SMILES CN(CCOCC1CC1)C(=O)N1CC[C@](C)(C(=O)NCCCCCCNC(=O)c2ccc(-c3c4nc(c(-c5ccccc5)c5ccc([nH]5)c(-c5ccccc5)c5nc(c(-c6ccccc6)c6ccc3[nH]6)C=C5)C=C4)cc2)C1
REMARK SMILES IDX 20 1 19 2 17 3 18 4 15 6 12 7 13 8 77 9 14 10 16 11 10 12
REMARK SMILES IDX 11 13 2 14 1 15 3 16 4 17 5 18 6 19 7 20 8 21 9 22 21 23
REMARK SMILES IDX 22 24 23 25 24 26 25 27 26 28 27 29 28 31 29 32 30 33 76 34
REMARK SMILES IDX 31 35 75 36 32 37 33 38 34 39 69 40 35 41 74 42 68 43 70 44
REMARK SMILES IDX 36 45 73 46 67 47 66 48 37 50 59 51 44 52 58 53 45 54 48 55
REMARK SMILES IDX 57 56 71 57 46 58 47 59 56 61 72 62 49 63 38 64 39 65 43 66
REMARK SMILES IDX 40 67 42 68 41 69 60 70 61 71 65 72 62 73 64 74 63 75 50 76
REMARK SMILES IDX 51 77 55 78 52 79 54 80 53 81
REMARK H PARENT 19 5 26 30 70 49 48 60
REMARK Flexibility Score: inf
ROOT
ATOM      1  C   UNL A   1      33.247  22.445  25.155  1.00  0.00     0.116 C 
ENDROOT
BRANCH   1   2
ATOM      2  N   UNL A   1      31.925  22.066  25.614  1.00  0.00    -0.356 N 
ATOM      3  C   UNL A   1      30.821  22.772  25.963  1.00  0.00     0.227 C 
ATOM      4  O   UNL A   1      29.856  22.086  26.317  1.00  0.00    -0.274 OA
ATOM      5  H   UNL A   1      31.803  21.091  25.687  1.00  0.00     0.163 HD
BRANCH   3   6
ATOM      6  C   UNL A   1      30.709  24.303  25.837  1.00  0.00     0.066 C 
ATOM      7  N   UNL A   1      31.622  25.700  24.070  1.00  0.00    -0.324 N 
ATOM      8  C   UNL A   1      32.281  26.097  25.301  1.00  0.00     0.122 C 
ATOM      9  C   UNL A   1      30.515  24.813  24.396  1.00  0.00     0.138 C 
ATOM     10  C   UNL A   1      32.055  24.944  26.256  1.00  0.00     0.040 C 
ATOM     11  C   UNL A   1      29.578  24.787  26.751  1.00  0.00     0.024 C 
BRANCH   7  12
ATOM     12  C   UNL A   1      32.134  26.157  22.880  1.00  0.00     0.319 C 
ATOM     13  O   UNL A   1      32.390  25.335  21.991  1.00  0.00    -0.248 OA
BRANCH  12  14
ATOM     14  N   UNL A   1      32.338  27.503  22.630  1.00  0.00    -0.325 N 
ATOM     15  C   UNL A   1      33.688  27.892  22.218  1.00  0.00     0.148 C 
BRANCH  14  16
ATOM     16  C   UNL A   1      31.394  28.622  22.703  1.00  0.00     0.149 C 
BRANCH  16  17
ATOM     17  C   UNL A   1      31.159  29.175  24.122  1.00  0.00     0.181 C 
BRANCH  17  18
ATOM     18  O   UNL A   1      32.345  29.510  24.831  1.00  0.00    -0.379 OA
BRANCH  18  19
ATOM     19  C   UNL A   1      32.167  30.280  26.019  1.00  0.00     0.163 C 
BRANCH  19  20
ATOM     20  C   UNL A   1      32.921  29.684  27.154  1.00  0.00     0.015 C 
ATOM     21  C   UNL A   1      34.180  28.890  26.925  1.00  0.00     0.006 C 
ATOM     22  C   UNL A   1      34.263  30.275  27.503  1.00  0.00     0.006 C 
ENDBRANCH  19  20
ENDBRANCH  18  19
ENDBRANCH  17  18
ENDBRANCH  16  17
ENDBRANCH  14  16
ENDBRANCH  12  14
ENDBRANCH   7  12
ENDBRANCH   3   6
ENDBRANCH   1   2
BRANCH   1  23
ATOM     23  C   UNL A   1      33.362  22.298  23.635  1.00  0.00     0.021 C 
BRANCH  23  24
ATOM     24  C   UNL A   1      34.597  22.942  22.993  1.00  0.00     0.002 C 
BRANCH  24  25
ATOM     25  C   UNL A   1      35.944  22.504  23.567  1.00  0.00     0.002 C 
BRANCH  25  26
ATOM     26  C   UNL A   1      36.748  23.606  24.259  1.00  0.00     0.021 C 
BRANCH  26  27
ATOM     27  C   UNL A   1      37.168  23.297  25.693  1.00  0.00     0.116 C 
BRANCH  27  28
ATOM     28  N   UNL A   1      38.391  22.516  25.761  1.00  0.00    -0.352 N 
ATOM     29  C   UNL A   1      39.640  22.886  26.194  1.00  0.00     0.251 C 
ATOM     30  H   UNL A   1      38.313  21.584  25.452  1.00  0.00     0.163 HD
ATOM     31  O   UNL A   1      40.600  22.137  26.019  1.00  0.00    -0.269 OA
BRANCH  29  32
ATOM     32  C   UNL A   1      39.841  24.195  26.849  1.00  0.00     0.039 A 
ATOM     33  C   UNL A   1      39.361  24.380  28.148  1.00  0.00     0.014 A 
ATOM     34  C   UNL A   1      40.490  25.242  26.188  1.00  0.00     0.014 A 
ATOM     35  C   UNL A   1      39.586  25.592  28.805  1.00  0.00     0.010 A 
ATOM     36  C   UNL A   1      40.783  26.421  26.872  1.00  0.00     0.010 A 
ATOM     37  C   UNL A   1      40.331  26.610  28.186  1.00  0.00    -0.014 A 
BRANCH  37  38
ATOM     38  C   UNL A   1      40.641  27.876  28.901  1.00  0.00     0.031 A 
ATOM     39  C   UNL A   1      41.971  28.057  29.584  1.00  0.00     0.074 A 
ATOM     40  C   UNL A   1      39.710  28.847  28.977  1.00  0.00     0.049 A 
ATOM     41  N   UNL A   1      42.403  29.069  30.294  1.00  0.00    -0.248 NA
ATOM     42  C   UNL A   1      42.933  26.948  29.476  1.00  0.00     0.031 C 
ATOM     43  C   UNL A   1      38.368  28.785  28.391  1.00  0.00     0.029 A 
ATOM     44  N   UNL A   1      39.748  30.079  29.583  1.00  0.00    -0.354 N 
ATOM     45  C   UNL A   1      43.679  28.717  30.717  1.00  0.00     0.074 A 
ATOM     46  C   UNL A   1      43.929  27.376  30.237  1.00  0.00     0.031 C 
ATOM     47  C   UNL A   1      37.725  29.936  28.642  1.00  0.00     0.029 A 
ATOM     48  C   UNL A   1      38.586  30.801  29.441  1.00  0.00     0.049 A 
ATOM     49  H   UNL A   1      40.534  30.415  30.072  1.00  0.00     0.167 HD
ATOM     50  C   UNL A   1      44.574  29.451  31.421  1.00  0.00     0.031 A 
ATOM     51  C   UNL A   1      38.248  32.016  29.911  1.00  0.00     0.031 A 
ATOM     52  C   UNL A   1      44.330  30.787  31.897  1.00  0.00     0.049 A 
ATOM     53  C   UNL A   1      39.252  32.798  30.714  1.00  0.00     0.074 A 
ATOM     54  C   UNL A   1      45.187  31.624  32.590  1.00  0.00     0.029 A 
ATOM     55  N   UNL A   1      43.143  31.482  31.727  1.00  0.00    -0.354 N 
ATOM     56  N   UNL A   1      40.474  32.471  31.056  1.00  0.00    -0.248 NA
ATOM     57  C   UNL A   1      38.833  34.127  31.182  1.00  0.00     0.031 C 
ATOM     58  C   UNL A   1      44.501  32.805  32.887  1.00  0.00     0.029 A 
ATOM     59  C   UNL A   1      43.240  32.731  32.317  1.00  0.00     0.049 A 
ATOM     60  H   UNL A   1      42.349  31.138  31.257  1.00  0.00     0.167 HD
ATOM     61  C   UNL A   1      40.981  33.568  31.743  1.00  0.00     0.074 A 
ATOM     62  C   UNL A   1      39.941  34.573  31.755  1.00  0.00     0.031 C 
ATOM     63  C   UNL A   1      42.201  33.727  32.312  1.00  0.00     0.031 A 
BRANCH  50  64
ATOM     64  C   UNL A   1      45.909  28.826  31.717  1.00  0.00    -0.014 A 
ATOM     65  C   UNL A   1      46.109  28.058  32.875  1.00  0.00     0.009 A 
ATOM     66  C   UNL A   1      46.964  28.955  30.799  1.00  0.00     0.009 A 
ATOM     67  C   UNL A   1      47.346  27.457  33.123  1.00  0.00     0.001 A 
ATOM     68  C   UNL A   1      48.189  28.328  31.034  1.00  0.00     0.001 A 
ATOM     69  C   UNL A   1      48.381  27.587  32.200  1.00  0.00     0.000 A 
ENDBRANCH  50  64
BRANCH  51  70
ATOM     70  C   UNL A   1      36.898  32.581  29.637  1.00  0.00    -0.014 A 
ATOM     71  C   UNL A   1      35.839  32.375  30.534  1.00  0.00     0.009 A 
ATOM     72  C   UNL A   1      36.654  33.298  28.456  1.00  0.00     0.009 A 
ATOM     73  C   UNL A   1      34.555  32.837  30.233  1.00  0.00     0.001 A 
ATOM     74  C   UNL A   1      35.377  33.790  28.175  1.00  0.00     0.001 A 
ATOM     75  C   UNL A   1      34.326  33.546  29.056  1.00  0.00     0.000 A 
ENDBRANCH  51  70
BRANCH  63  76
ATOM     76  C   UNL A   1      42.499  35.059  32.943  1.00  0.00    -0.014 A 
ATOM     77  C   UNL A   1      43.246  36.040  32.274  1.00  0.00     0.009 A 
ATOM     78  C   UNL A   1      41.991  35.345  34.221  1.00  0.00     0.009 A 
ATOM     79  C   UNL A   1      43.513  37.266  32.890  1.00  0.00     0.001 A 
ATOM     80  C   UNL A   1      42.230  36.583  34.820  1.00  0.00     0.001 A 
ATOM     81  C   UNL A   1      43.002  37.537  34.159  1.00  0.00     0.000 A 
ENDBRANCH  63  76
ENDBRANCH  37  38
ENDBRANCH  29  32
ENDBRANCH  27  28
ENDBRANCH  26  27
ENDBRANCH  25  26
ENDBRANCH  24  25
ENDBRANCH  23  24
ENDBRANCH   1  23
TORSDOF 20
ENDMDL
