MODEL 1
REMARK VINA RESULT:     -12.0      0.000      0.000
REMARK SMILES O=C(NCCCCCCNC(=O)[C@H]1[C@H]2CC[C@H](CC2)[C@@H]1C(=O)Nc1ccc(Cc2ccncc2)cc1)c1ccc(-c2c3nc(c(-c4ccccc4)c4ccc([nH]4)c(-c4ccccc4)c4nc(c(-c5ccccc5)c5ccc2[nH]5)C=C4)C=C3)cc1
REMARK SMILES IDX 7 1 6 2 5 3 4 4 3 5 1 6 2 7 37 9 38 10 84 11 39 12 83 13
REMARK SMILES IDX 40 14 41 15 42 16 77 17 43 18 82 19 76 20 78 21 44 22 81 23
REMARK SMILES IDX 75 24 74 25 45 27 67 28 52 29 66 30 53 31 56 32 65 33 79 34
REMARK SMILES IDX 54 35 55 36 64 38 80 39 57 40 46 41 47 42 51 43 48 44 50 45
REMARK SMILES IDX 49 46 68 47 69 48 73 49 70 50 72 51 71 52 58 53 59 54 63 55
REMARK SMILES IDX 60 56 62 57 61 58 8 59 9 60 10 61 11 62 12 64 13 65 14 66
REMARK SMILES IDX 20 67 15 68 19 69 17 70 16 71 18 72 21 73 22 74 23 75 24 77
REMARK SMILES IDX 25 78 36 79 26 80 35 81 27 82 28 83 29 84 30 85 34 86 31 87
REMARK SMILES IDX 33 88 32 89
REMARK H PARENT 3 8 78 26 56 37 10 63 23 76
REMARK Flexibility Score: inf
ROOT
ATOM      1  C   UNL A   1      37.114  22.030  24.623  1.00  0.00     0.002 C 
ENDROOT
BRANCH   1   2
ATOM      2  C   UNL A   1      36.778  20.551  24.842  1.00  0.00     0.002 C 
BRANCH   2   3
ATOM      3  C   UNL A   1      37.970  19.597  24.932  1.00  0.00     0.021 C 
BRANCH   3   4
ATOM      4  C   UNL A   1      39.100  20.048  25.847  1.00  0.00     0.116 C 
BRANCH   4   5
ATOM      5  N   UNL A   1      40.296  19.235  25.715  1.00  0.00    -0.352 N 
ATOM      6  O   UNL A   1      42.511  18.802  25.659  1.00  0.00    -0.269 OA
ATOM      7  C   UNL A   1      41.605  19.578  25.949  1.00  0.00     0.251 C 
ATOM      8  H   UNL A   1      40.147  18.309  25.416  1.00  0.00     0.163 HD
BRANCH   7   9
ATOM      9  C   UNL A   1      41.923  20.899  26.531  1.00  0.00     0.039 A 
ATOM     10  C   UNL A   1      41.894  21.092  27.915  1.00  0.00     0.014 A 
ATOM     11  C   UNL A   1      42.266  21.956  25.683  1.00  0.00     0.014 A 
ATOM     12  C   UNL A   1      42.072  22.367  28.436  1.00  0.00     0.010 A 
ATOM     13  C   UNL A   1      42.535  23.219  26.218  1.00  0.00     0.010 A 
ATOM     14  C   UNL A   1      42.418  23.440  27.597  1.00  0.00    -0.014 A 
BRANCH  14  15
ATOM     15  C   UNL A   1      42.740  24.751  28.215  1.00  0.00     0.031 A 
ATOM     16  C   UNL A   1      44.148  25.128  28.580  1.00  0.00     0.074 A 
ATOM     17  C   UNL A   1      41.734  25.630  28.393  1.00  0.00     0.049 A 
ATOM     18  N   UNL A   1      44.595  26.271  29.039  1.00  0.00    -0.248 NA
ATOM     19  C   UNL A   1      45.187  24.101  28.413  1.00  0.00     0.031 C 
ATOM     20  C   UNL A   1      40.323  25.364  28.097  1.00  0.00     0.029 A 
ATOM     21  N   UNL A   1      41.743  26.930  28.826  1.00  0.00    -0.354 N 
ATOM     22  C   UNL A   1      45.959  26.098  29.230  1.00  0.00     0.074 A 
ATOM     23  C   UNL A   1      46.267  24.735  28.855  1.00  0.00     0.031 C 
ATOM     24  C   UNL A   1      39.615  26.485  28.291  1.00  0.00     0.029 A 
ATOM     25  C   UNL A   1      40.507  27.527  28.782  1.00  0.00     0.049 A 
ATOM     26  H   UNL A   1      42.555  27.390  29.138  1.00  0.00     0.167 HD
ATOM     27  C   UNL A   1      46.871  26.997  29.673  1.00  0.00     0.031 A 
ATOM     28  C   UNL A   1      40.127  28.776  29.104  1.00  0.00     0.031 A 
ATOM     29  C   UNL A   1      46.561  28.351  30.056  1.00  0.00     0.049 A 
ATOM     30  C   UNL A   1      41.159  29.746  29.593  1.00  0.00     0.074 A 
ATOM     31  C   UNL A   1      47.420  29.338  30.510  1.00  0.00     0.029 A 
ATOM     32  N   UNL A   1      45.291  28.908  30.033  1.00  0.00    -0.354 N 
ATOM     33  N   UNL A   1      42.451  29.571  29.738  1.00  0.00    -0.248 NA
ATOM     34  C   UNL A   1      40.682  31.085  29.961  1.00  0.00     0.031 C 
ATOM     35  C   UNL A   1      46.664  30.480  30.798  1.00  0.00     0.029 A 
ATOM     36  C   UNL A   1      45.342  30.219  30.478  1.00  0.00     0.049 A 
ATOM     37  H   UNL A   1      44.475  28.441  29.744  1.00  0.00     0.167 HD
ATOM     38  C   UNL A   1      42.940  30.777  30.216  1.00  0.00     0.074 A 
ATOM     39  C   UNL A   1      41.815  31.686  30.298  1.00  0.00     0.031 C 
ATOM     40  C   UNL A   1      44.208  31.101  30.570  1.00  0.00     0.031 A 
BRANCH  27  41
ATOM     41  C   UNL A   1      48.300  26.543  29.782  1.00  0.00    -0.014 A 
ATOM     42  C   UNL A   1      49.215  26.776  28.742  1.00  0.00     0.009 A 
ATOM     43  C   UNL A   1      48.755  25.934  30.962  1.00  0.00     0.009 A 
ATOM     44  C   UNL A   1      50.551  26.391  28.875  1.00  0.00     0.001 A 
ATOM     45  C   UNL A   1      50.096  25.569  31.100  1.00  0.00     0.001 A 
ATOM     46  C   UNL A   1      50.991  25.793  30.055  1.00  0.00     0.000 A 
ENDBRANCH  27  41
BRANCH  28  47
ATOM     47  C   UNL A   1      38.699  29.168  28.988  1.00  0.00    -0.014 A 
ATOM     48  C   UNL A   1      38.183  29.654  27.777  1.00  0.00     0.009 A 
ATOM     49  C   UNL A   1      37.841  29.044  30.092  1.00  0.00     0.009 A 
ATOM     50  C   UNL A   1      36.841  30.029  27.682  1.00  0.00     0.001 A 
ATOM     51  C   UNL A   1      36.493  29.389  29.986  1.00  0.00     0.001 A 
ATOM     52  C   UNL A   1      35.997  29.890  28.784  1.00  0.00     0.000 A 
ENDBRANCH  28  47
BRANCH  40  53
ATOM     53  C   UNL A   1      44.428  32.499  31.070  1.00  0.00    -0.014 A 
ATOM     54  C   UNL A   1      44.743  33.541  30.183  1.00  0.00     0.009 A 
ATOM     55  C   UNL A   1      44.321  32.777  32.440  1.00  0.00     0.009 A 
ATOM     56  C   UNL A   1      44.991  34.826  30.666  1.00  0.00     0.001 A 
ATOM     57  C   UNL A   1      44.543  34.069  32.917  1.00  0.00     0.001 A 
ATOM     58  C   UNL A   1      44.889  35.089  32.032  1.00  0.00     0.000 A 
ENDBRANCH  40  53
ENDBRANCH  14  15
ENDBRANCH   7   9
ENDBRANCH   4   5
ENDBRANCH   3   4
ENDBRANCH   2   3
ENDBRANCH   1   2
BRANCH   1  59
ATOM     59  C   UNL A   1      36.852  22.964  25.805  1.00  0.00     0.021 C 
BRANCH  59  60
ATOM     60  C   UNL A   1      36.044  24.216  25.483  1.00  0.00     0.116 C 
BRANCH  60  61
ATOM     61  N   UNL A   1      35.226  24.063  24.304  1.00  0.00    -0.356 N 
ATOM     62  C   UNL A   1      34.172  24.745  23.799  1.00  0.00     0.224 C 
ATOM     63  H   UNL A   1      35.494  23.297  23.745  1.00  0.00     0.163 HD
ATOM     64  O   UNL A   1      33.733  24.303  22.728  1.00  0.00    -0.275 OA
BRANCH  62  65
ATOM     65  C   UNL A   1      33.438  25.912  24.472  1.00  0.00     0.094 C 
ATOM     66  C   UNL A   1      33.753  27.260  23.762  1.00  0.00     0.002 C 
ATOM     67  C   UNL A   1      31.917  25.796  24.795  1.00  0.00     0.094 C 
ATOM     68  C   UNL A   1      32.941  27.402  22.470  1.00  0.00     0.005 C 
ATOM     69  C   UNL A   1      33.337  28.406  24.710  1.00  0.00     0.005 C 
ATOM     70  C   UNL A   1      31.227  27.110  24.292  1.00  0.00     0.002 C 
ATOM     71  C   UNL A   1      31.447  27.312  22.780  1.00  0.00     0.005 C 
ATOM     72  C   UNL A   1      31.837  28.325  25.010  1.00  0.00     0.005 C 
BRANCH  67  73
ATOM     73  C   UNL A   1      31.683  25.522  26.301  1.00  0.00     0.228 C 
ATOM     74  O   UNL A   1      31.399  26.421  27.097  1.00  0.00    -0.274 OA
ATOM     75  N   UNL A   1      31.756  24.257  26.818  1.00  0.00    -0.326 N 
ATOM     76  H   UNL A   1      31.553  24.181  27.778  1.00  0.00     0.169 HD
BRANCH  75  77
ATOM     77  C   UNL A   1      32.077  23.058  26.179  1.00  0.00     0.041 A 
ATOM     78  C   UNL A   1      31.326  22.722  25.057  1.00  0.00     0.026 A 
ATOM     79  C   UNL A   1      33.148  22.254  26.572  1.00  0.00     0.026 A 
ATOM     80  C   UNL A   1      31.735  21.668  24.245  1.00  0.00     0.006 A 
ATOM     81  C   UNL A   1      33.521  21.159  25.788  1.00  0.00     0.006 A 
ATOM     82  C   UNL A   1      32.844  20.880  24.591  1.00  0.00    -0.043 A 
BRANCH  82  83
ATOM     83  C   UNL A   1      33.307  19.770  23.672  1.00  0.00     0.071 C 
BRANCH  83  84
ATOM     84  C   UNL A   1      33.447  18.427  24.345  1.00  0.00    -0.041 A 
ATOM     85  C   UNL A   1      32.384  17.863  25.058  1.00  0.00     0.024 A 
ATOM     86  C   UNL A   1      34.644  17.710  24.272  1.00  0.00     0.024 A 
ATOM     87  C   UNL A   1      32.568  16.640  25.683  1.00  0.00     0.111 A 
ATOM     88  C   UNL A   1      34.724  16.484  24.916  1.00  0.00     0.111 A 
ATOM     89  N   UNL A   1      33.716  15.938  25.628  1.00  0.00    -0.265 NA
ENDBRANCH  83  84
ENDBRANCH  82  83
ENDBRANCH  75  77
ENDBRANCH  67  73
ENDBRANCH  62  65
ENDBRANCH  60  61
ENDBRANCH  59  60
ENDBRANCH   1  59
TORSDOF 17
ENDMDL
MODEL 2
REMARK VINA RESULT:     -11.9      3.151      8.996
REMARK SMILES O=C(NCCCCCCNC(=O)[C@H]1[C@H]2CC[C@H](CC2)[C@@H]1C(=O)Nc1ccc(Cc2ccncc2)cc1)c1ccc(-c2c3nc(c(-c4ccccc4)c4ccc([nH]4)c(-c4ccccc4)c4nc(c(-c5ccccc5)c5ccc2[nH]5)C=C4)C=C3)cc1
REMARK SMILES IDX 7 1 6 2 5 3 4 4 3 5 1 6 2 7 37 9 38 10 84 11 39 12 83 13
REMARK SMILES IDX 40 14 41 15 42 16 77 17 43 18 82 19 76 20 78 21 44 22 81 23
REMARK SMILES IDX 75 24 74 25 45 27 67 28 52 29 66 30 53 31 56 32 65 33 79 34
REMARK SMILES IDX 54 35 55 36 64 38 80 39 57 40 46 41 47 42 51 43 48 44 50 45
REMARK SMILES IDX 49 46 68 47 69 48 73 49 70 50 72 51 71 52 58 53 59 54 63 55
REMARK SMILES IDX 60 56 62 57 61 58 8 59 9 60 10 61 11 62 12 64 13 65 14 66
REMARK SMILES IDX 20 67 15 68 19 69 17 70 16 71 18 72 21 73 22 74 23 75 24 77
REMARK SMILES IDX 25 78 36 79 26 80 35 81 27 82 28 83 29 84 30 85 34 86 31 87
REMARK SMILES IDX 33 88 32 89
REMARK H PARENT 3 8 78 26 56 37 10 63 23 76
REMARK Flexibility Score: inf
ROOT
ATOM      1  C   UNL A   1      33.039  28.424  27.040  1.00  0.00     0.002 C 
ENDROOT
BRANCH   1   2
ATOM      2  C   UNL A   1      33.303  29.852  27.528  1.00  0.00     0.002 C 
BRANCH   2   3
ATOM      3  C   UNL A   1      32.192  30.869  27.265  1.00  0.00     0.021 C 
BRANCH   3   4
ATOM      4  C   UNL A   1      32.624  32.138  26.544  1.00  0.00     0.116 C 
BRANCH   4   5
ATOM      5  N   UNL A   1      32.292  33.347  27.275  1.00  0.00    -0.352 N 
ATOM      6  O   UNL A   1      32.483  34.908  28.896  1.00  0.00    -0.269 OA
ATOM      7  C   UNL A   1      32.977  33.956  28.297  1.00  0.00     0.251 C 
ATOM      8  H   UNL A   1      31.458  33.793  26.999  1.00  0.00     0.163 HD
BRANCH   7   9
ATOM      9  C   UNL A   1      34.307  33.446  28.694  1.00  0.00     0.039 A 
ATOM     10  C   UNL A   1      35.447  33.788  27.963  1.00  0.00     0.014 A 
ATOM     11  C   UNL A   1      34.416  32.622  29.818  1.00  0.00     0.014 A 
ATOM     12  C   UNL A   1      36.667  33.200  28.273  1.00  0.00     0.010 A 
ATOM     13  C   UNL A   1      35.662  32.104  30.184  1.00  0.00     0.010 A 
ATOM     14  C   UNL A   1      36.793  32.371  29.401  1.00  0.00    -0.014 A 
BRANCH  14  15
ATOM     15  C   UNL A   1      38.144  31.883  29.776  1.00  0.00     0.031 A 
ATOM     16  C   UNL A   1      39.018  32.636  30.738  1.00  0.00     0.074 A 
ATOM     17  C   UNL A   1      38.553  30.702  29.270  1.00  0.00     0.049 A 
ATOM     18  N   UNL A   1      40.181  32.288  31.233  1.00  0.00    -0.248 NA
ATOM     19  C   UNL A   1      38.535  33.944  31.207  1.00  0.00     0.031 C 
ATOM     20  C   UNL A   1      37.798  29.894  28.308  1.00  0.00     0.029 A 
ATOM     21  N   UNL A   1      39.677  29.960  29.518  1.00  0.00    -0.354 N 
ATOM     22  C   UNL A   1      40.575  33.334  32.055  1.00  0.00     0.074 A 
ATOM     23  C   UNL A   1      39.538  34.341  31.981  1.00  0.00     0.031 C 
ATOM     24  C   UNL A   1      38.445  28.739  28.101  1.00  0.00     0.029 A 
ATOM     25  C   UNL A   1      39.687  28.751  28.865  1.00  0.00     0.049 A 
ATOM     26  H   UNL A   1      40.406  30.262  30.107  1.00  0.00     0.167 HD
ATOM     27  C   UNL A   1      41.697  33.442  32.807  1.00  0.00     0.031 A 
ATOM     28  C   UNL A   1      40.594  27.760  28.872  1.00  0.00     0.031 A 
ATOM     29  C   UNL A   1      42.734  32.443  32.870  1.00  0.00     0.049 A 
ATOM     30  C   UNL A   1      41.827  27.910  29.712  1.00  0.00     0.074 A 
ATOM     31  C   UNL A   1      43.904  32.459  33.610  1.00  0.00     0.029 A 
ATOM     32  N   UNL A   1      42.725  31.248  32.165  1.00  0.00    -0.354 N 
ATOM     33  N   UNL A   1      42.167  28.896  30.507  1.00  0.00    -0.248 NA
ATOM     34  C   UNL A   1      42.799  26.811  29.656  1.00  0.00     0.031 C 
ATOM     35  C   UNL A   1      44.623  31.293  33.322  1.00  0.00     0.029 A 
ATOM     36  C   UNL A   1      43.877  30.528  32.441  1.00  0.00     0.049 A 
ATOM     37  H   UNL A   1      42.008  30.956  31.558  1.00  0.00     0.167 HD
ATOM     38  C   UNL A   1      43.393  28.537  31.045  1.00  0.00     0.074 A 
ATOM     39  C   UNL A   1      43.717  27.226  30.518  1.00  0.00     0.031 C 
ATOM     40  C   UNL A   1      44.189  29.235  31.891  1.00  0.00     0.031 A 
BRANCH  27  41
ATOM     41  C   UNL A   1      41.875  34.695  33.618  1.00  0.00    -0.014 A 
ATOM     42  C   UNL A   1      41.334  34.803  34.909  1.00  0.00     0.009 A 
ATOM     43  C   UNL A   1      42.646  35.754  33.113  1.00  0.00     0.009 A 
ATOM     44  C   UNL A   1      41.546  35.955  35.671  1.00  0.00     0.001 A 
ATOM     45  C   UNL A   1      42.873  36.895  33.885  1.00  0.00     0.001 A 
ATOM     46  C   UNL A   1      42.319  36.997  35.161  1.00  0.00     0.000 A 
ENDBRANCH  27  41
BRANCH  28  47
ATOM     47  C   UNL A   1      40.374  26.548  28.043  1.00  0.00    -0.014 A 
ATOM     48  C   UNL A   1      39.595  25.482  28.520  1.00  0.00     0.009 A 
ATOM     49  C   UNL A   1      40.935  26.460  26.759  1.00  0.00     0.009 A 
ATOM     50  C   UNL A   1      39.402  24.344  27.735  1.00  0.00     0.001 A 
ATOM     51  C   UNL A   1      40.714  25.334  25.965  1.00  0.00     0.001 A 
ATOM     52  C   UNL A   1      39.957  24.273  26.457  1.00  0.00     0.000 A 
ENDBRANCH  28  47
BRANCH  40  53
ATOM     53  C   UNL A   1      45.479  28.581  32.292  1.00  0.00    -0.014 A 
ATOM     54  C   UNL A   1      46.653  28.784  31.550  1.00  0.00     0.009 A 
ATOM     55  C   UNL A   1      45.520  27.751  33.423  1.00  0.00     0.009 A 
ATOM     56  C   UNL A   1      47.834  28.133  31.907  1.00  0.00     0.001 A 
ATOM     57  C   UNL A   1      46.708  27.122  33.793  1.00  0.00     0.001 A 
ATOM     58  C   UNL A   1      47.861  27.304  33.029  1.00  0.00     0.000 A 
ENDBRANCH  40  53
ENDBRANCH  14  15
ENDBRANCH   7   9
ENDBRANCH   4   5
ENDBRANCH   3   4
ENDBRANCH   2   3
ENDBRANCH   1   2
BRANCH   1  59
ATOM     59  C   UNL A   1      33.947  27.915  25.920  1.00  0.00     0.021 C 
BRANCH  59  60
ATOM     60  C   UNL A   1      33.970  26.402  25.734  1.00  0.00     0.116 C 
BRANCH  60  61
ATOM     61  N   UNL A   1      34.088  26.013  24.349  1.00  0.00    -0.356 N 
ATOM     62  C   UNL A   1      34.012  24.830  23.698  1.00  0.00     0.224 C 
ATOM     63  H   UNL A   1      34.260  26.774  23.748  1.00  0.00     0.163 HD
ATOM     64  O   UNL A   1      34.158  24.902  22.470  1.00  0.00    -0.275 OA
BRANCH  62  65
ATOM     65  C   UNL A   1      33.868  23.445  24.343  1.00  0.00     0.094 C 
ATOM     66  C   UNL A   1      35.256  22.778  24.561  1.00  0.00     0.002 C 
ATOM     67  C   UNL A   1      32.958  23.257  25.595  1.00  0.00     0.094 C 
ATOM     68  C   UNL A   1      35.955  23.357  25.796  1.00  0.00     0.005 C 
ATOM     69  C   UNL A   1      35.026  21.271  24.811  1.00  0.00     0.005 C 
ATOM     70  C   UNL A   1      33.773  22.435  26.651  1.00  0.00     0.002 C 
ATOM     71  C   UNL A   1      35.079  23.158  27.032  1.00  0.00     0.005 C 
ATOM     72  C   UNL A   1      34.161  21.069  26.060  1.00  0.00     0.005 C 
BRANCH  67  73
ATOM     73  C   UNL A   1      31.610  22.595  25.214  1.00  0.00     0.228 C 
ATOM     74  O   UNL A   1      31.411  21.385  25.348  1.00  0.00    -0.274 OA
ATOM     75  N   UNL A   1      30.562  23.332  24.733  1.00  0.00    -0.326 N 
ATOM     76  H   UNL A   1      29.736  22.826  24.558  1.00  0.00     0.169 HD
BRANCH  75  77
ATOM     77  C   UNL A   1      30.495  24.698  24.455  1.00  0.00     0.041 A 
ATOM     78  C   UNL A   1      30.256  25.548  25.531  1.00  0.00     0.026 A 
ATOM     79  C   UNL A   1      30.735  25.224  23.185  1.00  0.00     0.026 A 
ATOM     80  C   UNL A   1      30.403  26.923  25.367  1.00  0.00     0.006 A 
ATOM     81  C   UNL A   1      30.822  26.609  23.010  1.00  0.00     0.006 A 
ATOM     82  C   UNL A   1      30.700  27.471  24.110  1.00  0.00    -0.043 A 
BRANCH  82  83
ATOM     83  C   UNL A   1      30.907  28.963  23.959  1.00  0.00     0.071 C 
BRANCH  83  84
ATOM     84  C   UNL A   1      29.654  29.730  23.615  1.00  0.00    -0.041 A 
ATOM     85  C   UNL A   1      29.519  31.081  23.955  1.00  0.00     0.024 A 
ATOM     86  C   UNL A   1      28.595  29.111  22.947  1.00  0.00     0.024 A 
ATOM     87  C   UNL A   1      28.339  31.737  23.644  1.00  0.00     0.111 A 
ATOM     88  C   UNL A   1      27.461  29.859  22.662  1.00  0.00     0.111 A 
ATOM     89  N   UNL A   1      27.306  31.154  23.005  1.00  0.00    -0.265 NA
ENDBRANCH  83  84
ENDBRANCH  82  83
ENDBRANCH  75  77
ENDBRANCH  67  73
ENDBRANCH  62  65
ENDBRANCH  60  61
ENDBRANCH  59  60
ENDBRANCH   1  59
TORSDOF 17
ENDMDL
MODEL 3
REMARK VINA RESULT:     -11.9      0.259      5.609
REMARK SMILES O=C(NCCCCCCNC(=O)[C@H]1[C@H]2CC[C@H](CC2)[C@@H]1C(=O)Nc1ccc(Cc2ccncc2)cc1)c1ccc(-c2c3nc(c(-c4ccccc4)c4ccc([nH]4)c(-c4ccccc4)c4nc(c(-c5ccccc5)c5ccc2[nH]5)C=C4)C=C3)cc1
REMARK SMILES IDX 7 1 6 2 5 3 4 4 3 5 1 6 2 7 37 9 38 10 84 11 39 12 83 13
REMARK SMILES IDX 40 14 41 15 42 16 77 17 43 18 82 19 76 20 78 21 44 22 81 23
REMARK SMILES IDX 75 24 74 25 45 27 67 28 52 29 66 30 53 31 56 32 65 33 79 34
REMARK SMILES IDX 54 35 55 36 64 38 80 39 57 40 46 41 47 42 51 43 48 44 50 45
REMARK SMILES IDX 49 46 68 47 69 48 73 49 70 50 72 51 71 52 58 53 59 54 63 55
REMARK SMILES IDX 60 56 62 57 61 58 8 59 9 60 10 61 11 62 12 64 13 65 14 66
REMARK SMILES IDX 20 67 15 68 19 69 17 70 16 71 18 72 21 73 22 74 23 75 24 77
REMARK SMILES IDX 25 78 36 79 26 80 35 81 27 82 28 83 29 84 30 85 34 86 31 87
REMARK SMILES IDX 33 88 32 89
REMARK H PARENT 3 8 78 26 56 37 10 63 23 76
REMARK Flexibility Score: inf
ROOT
ATOM      1  C   UNL A   1      37.042  21.897  24.569  1.00  0.00     0.002 C 
ENDROOT
BRANCH   1   2
ATOM      2  C   UNL A   1      36.737  20.420  24.832  1.00  0.00     0.002 C 
BRANCH   2   3
ATOM      3  C   UNL A   1      37.948  19.498  24.980  1.00  0.00     0.021 C 
BRANCH   3   4
ATOM      4  C   UNL A   1      39.079  20.039  25.841  1.00  0.00     0.116 C 
BRANCH   4   5
ATOM      5  N   UNL A   1      40.273  19.213  25.795  1.00  0.00    -0.352 N 
ATOM      6  O   UNL A   1      42.486  18.767  25.825  1.00  0.00    -0.269 OA
ATOM      7  C   UNL A   1      41.578  19.565  26.039  1.00  0.00     0.251 C 
ATOM      8  H   UNL A   1      40.126  18.270  25.556  1.00  0.00     0.163 HD
BRANCH   7   9
ATOM      9  C   UNL A   1      41.890  20.921  26.539  1.00  0.00     0.039 A 
ATOM     10  C   UNL A   1      42.182  21.957  25.648  1.00  0.00     0.014 A 
ATOM     11  C   UNL A   1      41.882  21.161  27.916  1.00  0.00     0.014 A 
ATOM     12  C   UNL A   1      42.596  23.189  26.136  1.00  0.00     0.010 A 
ATOM     13  C   UNL A   1      42.211  22.430  28.403  1.00  0.00     0.010 A 
ATOM     14  C   UNL A   1      42.592  23.448  27.518  1.00  0.00    -0.014 A 
BRANCH  14  15
ATOM     15  C   UNL A   1      42.903  24.822  27.984  1.00  0.00     0.031 A 
ATOM     16  C   UNL A   1      41.823  25.841  28.216  1.00  0.00     0.074 A 
ATOM     17  C   UNL A   1      44.189  25.123  28.253  1.00  0.00     0.049 A 
ATOM     18  N   UNL A   1      41.932  27.050  28.711  1.00  0.00    -0.248 NA
ATOM     19  C   UNL A   1      40.450  25.466  27.848  1.00  0.00     0.031 C 
ATOM     20  C   UNL A   1      45.325  24.220  28.044  1.00  0.00     0.029 A 
ATOM     21  N   UNL A   1      44.754  26.248  28.793  1.00  0.00    -0.354 N 
ATOM     22  C   UNL A   1      40.651  27.584  28.700  1.00  0.00     0.074 A 
ATOM     23  C   UNL A   1      39.780  26.576  28.132  1.00  0.00     0.031 C 
ATOM     24  C   UNL A   1      46.438  24.799  28.514  1.00  0.00     0.029 A 
ATOM     25  C   UNL A   1      46.107  26.133  28.998  1.00  0.00     0.049 A 
ATOM     26  H   UNL A   1      44.241  27.060  29.012  1.00  0.00     0.167 HD
ATOM     27  C   UNL A   1      40.238  28.801  29.129  1.00  0.00     0.031 A 
ATOM     28  C   UNL A   1      46.991  27.004  29.516  1.00  0.00     0.031 A 
ATOM     29  C   UNL A   1      41.108  29.807  29.684  1.00  0.00     0.049 A 
ATOM     30  C   UNL A   1      46.504  28.344  29.979  1.00  0.00     0.074 A 
ATOM     31  C   UNL A   1      40.781  31.068  30.154  1.00  0.00     0.029 A 
ATOM     32  N   UNL A   1      42.479  29.667  29.841  1.00  0.00    -0.354 N 
ATOM     33  N   UNL A   1      45.282  28.818  29.988  1.00  0.00    -0.248 NA
ATOM     34  C   UNL A   1      47.518  29.266  30.505  1.00  0.00     0.031 C 
ATOM     35  C   UNL A   1      41.959  31.705  30.559  1.00  0.00     0.029 A 
ATOM     36  C   UNL A   1      43.013  30.824  30.387  1.00  0.00     0.049 A 
ATOM     37  H   UNL A   1      42.996  28.865  29.600  1.00  0.00     0.167 HD
ATOM     38  C   UNL A   1      45.380  30.096  30.518  1.00  0.00     0.074 A 
ATOM     39  C   UNL A   1      46.773  30.306  30.856  1.00  0.00     0.031 C 
ATOM     40  C   UNL A   1      44.405  31.020  30.697  1.00  0.00     0.031 A 
BRANCH  27  41
ATOM     41  C   UNL A   1      38.775  29.124  29.005  1.00  0.00    -0.014 A 
ATOM     42  C   UNL A   1      37.914  29.015  30.108  1.00  0.00     0.009 A 
ATOM     43  C   UNL A   1      38.265  29.607  27.789  1.00  0.00     0.009 A 
ATOM     44  C   UNL A   1      36.566  29.363  29.992  1.00  0.00     0.001 A 
ATOM     45  C   UNL A   1      36.921  29.974  27.682  1.00  0.00     0.001 A 
ATOM     46  C   UNL A   1      36.073  29.847  28.781  1.00  0.00     0.000 A 
ENDBRANCH  27  41
BRANCH  28  47
ATOM     47  C   UNL A   1      48.427  26.637  29.604  1.00  0.00    -0.014 A 
ATOM     48  C   UNL A   1      49.320  26.973  28.576  1.00  0.00     0.009 A 
ATOM     49  C   UNL A   1      48.913  25.955  30.732  1.00  0.00     0.009 A 
ATOM     50  C   UNL A   1      50.667  26.614  28.665  1.00  0.00     0.001 A 
ATOM     51  C   UNL A   1      50.265  25.625  30.833  1.00  0.00     0.001 A 
ATOM     52  C   UNL A   1      51.139  25.946  29.796  1.00  0.00     0.000 A 
ENDBRANCH  28  47
BRANCH  40  53
ATOM     53  C   UNL A   1      44.826  32.332  31.290  1.00  0.00    -0.014 A 
ATOM     54  C   UNL A   1      45.226  33.400  30.470  1.00  0.00     0.009 A 
ATOM     55  C   UNL A   1      44.826  32.503  32.683  1.00  0.00     0.009 A 
ATOM     56  C   UNL A   1      45.660  34.599  31.036  1.00  0.00     0.001 A 
ATOM     57  C   UNL A   1      45.235  33.713  33.245  1.00  0.00     0.001 A 
ATOM     58  C   UNL A   1      45.662  34.755  32.422  1.00  0.00     0.000 A 
ENDBRANCH  40  53
ENDBRANCH  14  15
ENDBRANCH   7   9
ENDBRANCH   4   5
ENDBRANCH   3   4
ENDBRANCH   2   3
ENDBRANCH   1   2
BRANCH   1  59
ATOM     59  C   UNL A   1      36.857  22.847  25.753  1.00  0.00     0.021 C 
BRANCH  59  60
ATOM     60  C   UNL A   1      36.026  24.093  25.469  1.00  0.00     0.116 C 
BRANCH  60  61
ATOM     61  N   UNL A   1      35.232  23.972  24.270  1.00  0.00    -0.356 N 
ATOM     62  C   UNL A   1      34.198  24.676  23.756  1.00  0.00     0.224 C 
ATOM     63  H   UNL A   1      35.503  23.213  23.703  1.00  0.00     0.163 HD
ATOM     64  O   UNL A   1      33.777  24.259  22.667  1.00  0.00    -0.275 OA
BRANCH  62  65
ATOM     65  C   UNL A   1      33.463  25.839  24.434  1.00  0.00     0.094 C 
ATOM     66  C   UNL A   1      33.768  27.189  23.724  1.00  0.00     0.002 C 
ATOM     67  C   UNL A   1      31.945  25.716  24.766  1.00  0.00     0.094 C 
ATOM     68  C   UNL A   1      32.948  27.329  22.437  1.00  0.00     0.005 C 
ATOM     69  C   UNL A   1      33.354  28.332  24.676  1.00  0.00     0.005 C 
ATOM     70  C   UNL A   1      31.247  27.028  24.268  1.00  0.00     0.002 C 
ATOM     71  C   UNL A   1      31.457  27.232  22.756  1.00  0.00     0.005 C 
ATOM     72  C   UNL A   1      31.855  28.245  24.984  1.00  0.00     0.005 C 
BRANCH  67  73
ATOM     73  C   UNL A   1      31.721  25.440  26.273  1.00  0.00     0.228 C 
ATOM     74  O   UNL A   1      31.452  26.338  27.074  1.00  0.00    -0.274 OA
ATOM     75  N   UNL A   1      31.787  24.172  26.785  1.00  0.00    -0.326 N 
ATOM     76  H   UNL A   1      31.590  24.095  27.746  1.00  0.00     0.169 HD
BRANCH  75  77
ATOM     77  C   UNL A   1      32.092  22.972  26.140  1.00  0.00     0.041 A 
ATOM     78  C   UNL A   1      31.370  22.677  24.987  1.00  0.00     0.026 A 
ATOM     79  C   UNL A   1      33.121  22.128  26.559  1.00  0.00     0.026 A 
ATOM     80  C   UNL A   1      31.775  21.622  24.174  1.00  0.00     0.006 A 
ATOM     81  C   UNL A   1      33.487  21.032  25.771  1.00  0.00     0.006 A 
ATOM     82  C   UNL A   1      32.844  20.793  24.547  1.00  0.00    -0.043 A 
BRANCH  82  83
ATOM     83  C   UNL A   1      33.304  19.682  23.628  1.00  0.00     0.071 C 
BRANCH  83  84
ATOM     84  C   UNL A   1      33.442  18.338  24.302  1.00  0.00    -0.041 A 
ATOM     85  C   UNL A   1      32.382  17.783  25.027  1.00  0.00     0.024 A 
ATOM     86  C   UNL A   1      34.633  17.614  24.218  1.00  0.00     0.024 A 
ATOM     87  C   UNL A   1      32.565  16.560  25.652  1.00  0.00     0.111 A 
ATOM     88  C   UNL A   1      34.712  16.388  24.863  1.00  0.00     0.111 A 
ATOM     89  N   UNL A   1      33.708  15.850  25.586  1.00  0.00    -0.265 NA
ENDBRANCH  83  84
ENDBRANCH  82  83
ENDBRANCH  75  77
ENDBRANCH  67  73
ENDBRANCH  62  65
ENDBRANCH  60  61
ENDBRANCH  59  60
ENDBRANCH   1  59
TORSDOF 17
ENDMDL
