MODEL 1
REMARK VINA RESULT:     -13.2      0.000      0.000
REMARK SMILES Cc1ccc([C@@H]2[C@H](C(=O)NCCCCCCNC(=O)c3ccc(-c4c5nc(c(-c6ccccc6)c6ccc([nH]6)c(-c6ccccc6)c6nc(c(-c7ccccc7)c7ccc4[nH]7)C=C6)C=C5)cc3)c3ccccc3C(=O)N2c2ccccc2)cc1
REMARK SMILES IDX 14 1 13 2 12 3 11 4 10 5 8 6 9 7 7 9 6 10 76 11 68 12 74 13
REMARK SMILES IDX 69 14 73 15 75 16 70 17 72 18 71 19 5 20 1 21 2 22 3 23
REMARK SMILES IDX 84 24 4 25 83 26 77 27 78 28 82 29 79 30 81 31 80 32 15 33
REMARK SMILES IDX 16 34 17 35 18 36 19 38 20 39 21 40 67 41 22 42 66 43 23 44
REMARK SMILES IDX 24 45 25 46 60 47 26 48 65 49 59 50 61 51 27 52 64 53 58 54
REMARK SMILES IDX 57 55 28 57 50 58 35 59 49 60 36 61 39 62 48 63 62 64 37 65
REMARK SMILES IDX 38 66 47 68 63 69 40 70 29 71 30 72 34 73 31 74 33 75 32 76
REMARK SMILES IDX 51 77 52 78 56 79 53 80 55 81 54 82 41 83 42 84 46 85 43 86
REMARK SMILES IDX 45 87 44 88
REMARK H PARENT 10 8 17 37 61 56 39 67
REMARK Flexibility Score: inf
ROOT
ATOM      1  C   UNL A   1      33.942  28.200  24.612  1.00  0.00     0.002 C 
ENDROOT
BRANCH   1   2
ATOM      2  C   UNL A   1      33.239  27.056  23.859  1.00  0.00     0.002 C 
BRANCH   2   3
ATOM      3  C   UNL A   1      33.678  26.813  22.409  1.00  0.00     0.021 C 
BRANCH   3   4
ATOM      4  C   UNL A   1      33.270  25.460  21.823  1.00  0.00     0.116 C 
BRANCH   4   5
ATOM      5  N   UNL A   1      33.401  24.405  22.800  1.00  0.00    -0.355 N 
ATOM      6  C   UNL A   1      32.817  23.178  22.577  1.00  0.00     0.230 C 
ATOM      7  O   UNL A   1      33.166  22.483  21.625  1.00  0.00    -0.274 OA
ATOM      8  H   UNL A   1      33.910  24.562  23.628  1.00  0.00     0.163 HD
BRANCH   6   9
ATOM      9  C   UNL A   1      31.722  22.737  23.558  1.00  0.00     0.137 C 
ATOM     10  C   UNL A   1      32.217  21.688  24.601  1.00  0.00     0.138 C 
ATOM     11  N   UNL A   1      32.892  22.387  25.709  1.00  0.00    -0.300 N 
ATOM     12  C   UNL A   1      31.012  23.886  24.291  1.00  0.00    -0.020 A 
ATOM     13  C   UNL A   1      31.948  23.068  26.500  1.00  0.00     0.259 C 
ATOM     14  C   UNL A   1      30.285  24.850  23.576  1.00  0.00     0.005 A 
ATOM     15  C   UNL A   1      31.080  23.997  25.699  1.00  0.00     0.044 A 
ATOM     16  O   UNL A   1      31.898  23.035  27.723  1.00  0.00    -0.269 OA
ATOM     17  C   UNL A   1      29.688  25.923  24.240  1.00  0.00     0.000 A 
ATOM     18  C   UNL A   1      30.439  25.048  26.362  1.00  0.00     0.014 A 
ATOM     19  C   UNL A   1      29.758  26.019  25.630  1.00  0.00     0.001 A 
BRANCH  10  20
ATOM     20  C   UNL A   1      32.671  20.318  24.108  1.00  0.00    -0.024 A 
ATOM     21  C   UNL A   1      33.851  16.240  23.255  1.00  0.00     0.044 C 
ATOM     22  C   UNL A   1      33.527  17.690  23.453  1.00  0.00    -0.051 A 
ATOM     23  C   UNL A   1      32.489  18.304  22.748  1.00  0.00     0.004 A 
ATOM     24  C   UNL A   1      34.216  18.434  24.409  1.00  0.00     0.004 A 
ATOM     25  C   UNL A   1      32.108  19.623  23.034  1.00  0.00     0.006 A 
ATOM     26  C   UNL A   1      33.789  19.725  24.732  1.00  0.00     0.006 A 
ENDBRANCH  10  20
BRANCH  11  27
ATOM     27  C   UNL A   1      34.195  23.014  25.594  1.00  0.00     0.045 A 
ATOM     28  C   UNL A   1      35.339  22.209  25.402  1.00  0.00     0.026 A 
ATOM     29  C   UNL A   1      34.419  24.382  25.788  1.00  0.00     0.026 A 
ATOM     30  C   UNL A   1      36.635  22.729  25.486  1.00  0.00     0.002 A 
ATOM     31  C   UNL A   1      35.716  24.916  25.822  1.00  0.00     0.002 A 
ATOM     32  C   UNL A   1      36.824  24.086  25.698  1.00  0.00     0.000 A 
ENDBRANCH  11  27
ENDBRANCH   6   9
ENDBRANCH   4   5
ENDBRANCH   3   4
ENDBRANCH   2   3
ENDBRANCH   1   2
BRANCH   1  33
ATOM     33  C   UNL A   1      33.947  28.104  26.139  1.00  0.00     0.021 C 
BRANCH  33  34
ATOM     34  C   UNL A   1      34.559  29.308  26.845  1.00  0.00     0.116 C 
BRANCH  34  35
ATOM     35  N   UNL A   1      33.725  30.502  26.804  1.00  0.00    -0.352 N 
ATOM     36  C   UNL A   1      33.757  31.658  27.571  1.00  0.00     0.251 C 
ATOM     37  H   UNL A   1      33.021  30.485  26.116  1.00  0.00     0.163 HD
ATOM     38  O   UNL A   1      32.900  32.500  27.419  1.00  0.00    -0.269 OA
BRANCH  36  39
ATOM     39  C   UNL A   1      34.924  31.939  28.455  1.00  0.00     0.039 A 
ATOM     40  C   UNL A   1      35.945  32.744  27.927  1.00  0.00     0.014 A 
ATOM     41  C   UNL A   1      35.130  31.266  29.652  1.00  0.00     0.014 A 
ATOM     42  C   UNL A   1      37.236  32.637  28.436  1.00  0.00     0.010 A 
ATOM     43  C   UNL A   1      36.421  31.070  30.091  1.00  0.00     0.010 A 
ATOM     44  C   UNL A   1      37.479  31.692  29.428  1.00  0.00    -0.014 A 
BRANCH  44  45
ATOM     45  C   UNL A   1      38.803  31.195  29.761  1.00  0.00     0.031 A 
ATOM     46  C   UNL A   1      39.312  29.968  29.121  1.00  0.00     0.074 A 
ATOM     47  C   UNL A   1      39.594  31.928  30.578  1.00  0.00     0.049 A 
ATOM     48  N   UNL A   1      40.215  29.203  29.635  1.00  0.00    -0.248 NA
ATOM     49  C   UNL A   1      38.801  29.479  27.844  1.00  0.00     0.031 C 
ATOM     50  C   UNL A   1      41.022  31.738  30.823  1.00  0.00     0.029 A 
ATOM     51  N   UNL A   1      39.224  32.888  31.526  1.00  0.00    -0.354 N 
ATOM     52  C   UNL A   1      40.624  28.336  28.648  1.00  0.00     0.074 A 
ATOM     53  C   UNL A   1      39.650  28.478  27.591  1.00  0.00     0.031 C 
ATOM     54  C   UNL A   1      41.330  32.284  32.012  1.00  0.00     0.029 A 
ATOM     55  C   UNL A   1      40.075  32.692  32.624  1.00  0.00     0.049 A 
ATOM     56  H   UNL A   1      38.511  33.561  31.440  1.00  0.00     0.167 HD
ATOM     57  C   UNL A   1      41.830  27.712  28.762  1.00  0.00     0.031 A 
ATOM     58  C   UNL A   1      39.644  32.292  33.857  1.00  0.00     0.031 A 
ATOM     59  C   UNL A   1      42.489  28.042  30.023  1.00  0.00     0.049 A 
ATOM     60  C   UNL A   1      40.308  31.011  34.325  1.00  0.00     0.074 A 
ATOM     61  C   UNL A   1      43.496  28.937  30.346  1.00  0.00     0.029 A 
ATOM     62  N   UNL A   1      41.910  27.649  31.223  1.00  0.00    -0.354 N 
ATOM     63  N   UNL A   1      40.877  30.154  33.522  1.00  0.00    -0.248 NA
ATOM     64  C   UNL A   1      40.353  30.577  35.720  1.00  0.00     0.031 C 
ATOM     65  C   UNL A   1      43.478  29.127  31.751  1.00  0.00     0.029 A 
ATOM     66  C   UNL A   1      42.482  28.326  32.281  1.00  0.00     0.049 A 
ATOM     67  H   UNL A   1      41.191  26.981  31.306  1.00  0.00     0.167 HD
ATOM     68  C   UNL A   1      41.378  29.103  34.247  1.00  0.00     0.074 A 
ATOM     69  C   UNL A   1      41.019  29.412  35.619  1.00  0.00     0.031 C 
ATOM     70  C   UNL A   1      42.044  28.072  33.647  1.00  0.00     0.031 A 
BRANCH  57  71
ATOM     71  C   UNL A   1      42.542  27.053  27.604  1.00  0.00    -0.014 A 
ATOM     72  C   UNL A   1      42.873  27.816  26.468  1.00  0.00     0.009 A 
ATOM     73  C   UNL A   1      42.874  25.689  27.543  1.00  0.00     0.009 A 
ATOM     74  C   UNL A   1      43.404  27.236  25.307  1.00  0.00     0.001 A 
ATOM     75  C   UNL A   1      43.371  25.094  26.374  1.00  0.00     0.001 A 
ATOM     76  C   UNL A   1      43.624  25.867  25.250  1.00  0.00     0.000 A 
ENDBRANCH  57  71
BRANCH  58  77
ATOM     77  C   UNL A   1      38.240  32.668  34.176  1.00  0.00    -0.014 A 
ATOM     78  C   UNL A   1      37.990  33.961  34.672  1.00  0.00     0.009 A 
ATOM     79  C   UNL A   1      37.166  31.932  33.654  1.00  0.00     0.009 A 
ATOM     80  C   UNL A   1      36.727  34.547  34.540  1.00  0.00     0.001 A 
ATOM     81  C   UNL A   1      35.901  32.520  33.533  1.00  0.00     0.001 A 
ATOM     82  C   UNL A   1      35.692  33.837  33.939  1.00  0.00     0.000 A 
ENDBRANCH  58  77
BRANCH  70  83
ATOM     83  C   UNL A   1      42.428  26.752  34.275  1.00  0.00    -0.014 A 
ATOM     84  C   UNL A   1      41.586  25.974  35.078  1.00  0.00     0.009 A 
ATOM     85  C   UNL A   1      43.677  26.175  33.938  1.00  0.00     0.009 A 
ATOM     86  C   UNL A   1      41.982  24.711  35.547  1.00  0.00     0.001 A 
ATOM     87  C   UNL A   1      44.057  24.900  34.362  1.00  0.00     0.001 A 
ATOM     88  C   UNL A   1      43.210  24.170  35.180  1.00  0.00     0.000 A 
ENDBRANCH  70  83
ENDBRANCH  44  45
ENDBRANCH  36  39
ENDBRANCH  34  35
ENDBRANCH  33  34
ENDBRANCH   1  33
TORSDOF 15
ENDMDL
MODEL 2
REMARK VINA RESULT:     -11.3      1.990      4.037
REMARK SMILES Cc1ccc([C@@H]2[C@H](C(=O)NCCCCCCNC(=O)c3ccc(-c4c5nc(c(-c6ccccc6)c6ccc([nH]6)c(-c6ccccc6)c6nc(c(-c7ccccc7)c7ccc4[nH]7)C=C6)C=C5)cc3)c3ccccc3C(=O)N2c2ccccc2)cc1
REMARK SMILES IDX 14 1 13 2 12 3 11 4 10 5 8 6 9 7 7 9 6 10 76 11 68 12 74 13
REMARK SMILES IDX 69 14 73 15 75 16 70 17 72 18 71 19 5 20 1 21 2 22 3 23
REMARK SMILES IDX 84 24 4 25 83 26 77 27 78 28 82 29 79 30 81 31 80 32 15 33
REMARK SMILES IDX 16 34 17 35 18 36 19 38 20 39 21 40 67 41 22 42 66 43 23 44
REMARK SMILES IDX 24 45 25 46 60 47 26 48 65 49 59 50 61 51 27 52 64 53 58 54
REMARK SMILES IDX 57 55 28 57 50 58 35 59 49 60 36 61 39 62 48 63 62 64 37 65
REMARK SMILES IDX 38 66 47 68 63 69 40 70 29 71 30 72 34 73 31 74 33 75 32 76
REMARK SMILES IDX 51 77 52 78 56 79 53 80 55 81 54 82 41 83 42 84 46 85 43 86
REMARK SMILES IDX 45 87 44 88
REMARK H PARENT 10 8 17 37 61 56 39 67
REMARK Flexibility Score: inf
ROOT
ATOM      1  C   UNL A   1      31.658  30.211  26.650  1.00  0.00     0.002 C 
ENDROOT
BRANCH   1   2
ATOM      2  C   UNL A   1      32.014  28.887  27.350  1.00  0.00     0.002 C 
BRANCH   2   3
ATOM      3  C   UNL A   1      31.635  27.594  26.615  1.00  0.00     0.021 C 
BRANCH   3   4
ATOM      4  C   UNL A   1      32.303  26.324  27.146  1.00  0.00     0.116 C 
BRANCH   4   5
ATOM      5  N   UNL A   1      32.518  25.364  26.088  1.00  0.00    -0.355 N 
ATOM      6  C   UNL A   1      33.774  24.842  25.872  1.00  0.00     0.230 C 
ATOM      7  O   UNL A   1      34.329  24.169  26.738  1.00  0.00    -0.274 OA
ATOM      8  H   UNL A   1      31.765  25.081  25.520  1.00  0.00     0.163 HD
BRANCH   6   9
ATOM      9  C   UNL A   1      34.433  25.146  24.519  1.00  0.00     0.137 C 
ATOM     10  C   UNL A   1      35.178  23.919  23.909  1.00  0.00     0.138 C 
ATOM     11  N   UNL A   1      34.206  23.059  23.212  1.00  0.00    -0.300 N 
ATOM     12  C   UNL A   1      33.490  25.745  23.463  1.00  0.00    -0.020 A 
ATOM     13  C   UNL A   1      33.773  23.678  22.025  1.00  0.00     0.259 C 
ATOM     14  C   UNL A   1      32.866  26.983  23.681  1.00  0.00     0.005 A 
ATOM     15  C   UNL A   1      33.232  25.061  22.253  1.00  0.00     0.044 A 
ATOM     16  O   UNL A   1      33.705  23.133  20.930  1.00  0.00    -0.269 OA
ATOM     17  C   UNL A   1      31.968  27.497  22.744  1.00  0.00     0.000 A 
ATOM     18  C   UNL A   1      32.369  25.606  21.297  1.00  0.00     0.014 A 
ATOM     19  C   UNL A   1      31.725  26.815  21.552  1.00  0.00     0.001 A 
BRANCH  10  20
ATOM     20  C   UNL A   1      36.385  23.350  24.647  1.00  0.00    -0.024 A 
ATOM     21  C   UNL A   1      40.043  21.640  26.211  1.00  0.00     0.044 C 
ATOM     22  C   UNL A   1      38.715  22.188  25.782  1.00  0.00    -0.051 A 
ATOM     23  C   UNL A   1      38.325  23.487  26.115  1.00  0.00     0.004 A 
ATOM     24  C   UNL A   1      37.876  21.427  24.970  1.00  0.00     0.004 A 
ATOM     25  C   UNL A   1      37.143  24.037  25.600  1.00  0.00     0.006 A 
ATOM     26  C   UNL A   1      36.733  22.003  24.410  1.00  0.00     0.006 A 
ENDBRANCH  10  20
BRANCH  11  27
ATOM     27  C   UNL A   1      33.225  22.233  23.892  1.00  0.00     0.045 A 
ATOM     28  C   UNL A   1      31.927  22.739  24.117  1.00  0.00     0.026 A 
ATOM     29  C   UNL A   1      33.519  20.990  24.463  1.00  0.00     0.026 A 
ATOM     30  C   UNL A   1      31.006  22.080  24.938  1.00  0.00     0.002 A 
ATOM     31  C   UNL A   1      32.580  20.301  25.246  1.00  0.00     0.002 A 
ATOM     32  C   UNL A   1      31.334  20.859  25.505  1.00  0.00     0.000 A 
ENDBRANCH  11  27
ENDBRANCH   6   9
ENDBRANCH   4   5
ENDBRANCH   3   4
ENDBRANCH   2   3
ENDBRANCH   1   2
BRANCH   1  33
ATOM     33  C   UNL A   1      32.580  31.397  26.933  1.00  0.00     0.021 C 
BRANCH  33  34
ATOM     34  C   UNL A   1      34.017  31.015  27.266  1.00  0.00     0.116 C 
BRANCH  34  35
ATOM     35  N   UNL A   1      34.593  31.782  28.362  1.00  0.00    -0.352 N 
ATOM     36  C   UNL A   1      35.641  31.489  29.223  1.00  0.00     0.251 C 
ATOM     37  H   UNL A   1      34.167  32.656  28.517  1.00  0.00     0.163 HD
ATOM     38  O   UNL A   1      35.899  32.248  30.132  1.00  0.00    -0.269 OA
BRANCH  36  39
ATOM     39  C   UNL A   1      36.546  30.339  28.938  1.00  0.00     0.039 A 
ATOM     40  C   UNL A   1      36.691  29.375  29.949  1.00  0.00     0.014 A 
ATOM     41  C   UNL A   1      37.395  30.313  27.839  1.00  0.00     0.014 A 
ATOM     42  C   UNL A   1      37.844  28.597  29.994  1.00  0.00     0.010 A 
ATOM     43  C   UNL A   1      38.586  29.628  27.934  1.00  0.00     0.010 A 
ATOM     44  C   UNL A   1      38.841  28.836  29.053  1.00  0.00    -0.014 A 
BRANCH  44  45
ATOM     45  C   UNL A   1      40.219  28.404  29.211  1.00  0.00     0.031 A 
ATOM     46  C   UNL A   1      40.655  27.112  28.649  1.00  0.00     0.074 A 
ATOM     47  C   UNL A   1      41.111  29.246  29.781  1.00  0.00     0.049 A 
ATOM     48  N   UNL A   1      41.658  26.432  29.089  1.00  0.00    -0.248 NA
ATOM     49  C   UNL A   1      39.951  26.456  27.550  1.00  0.00     0.031 C 
ATOM     50  C   UNL A   1      42.566  29.108  29.796  1.00  0.00     0.029 A 
ATOM     51  N   UNL A   1      40.875  30.314  30.652  1.00  0.00    -0.354 N 
ATOM     52  C   UNL A   1      41.923  25.451  28.161  1.00  0.00     0.074 A 
ATOM     53  C   UNL A   1      40.780  25.443  27.280  1.00  0.00     0.031 C 
ATOM     54  C   UNL A   1      43.052  29.806  30.836  1.00  0.00     0.029 A 
ATOM     55  C   UNL A   1      41.907  30.272  31.601  1.00  0.00     0.049 A 
ATOM     56  H   UNL A   1      40.134  30.962  30.609  1.00  0.00     0.167 HD
ATOM     57  C   UNL A   1      43.152  24.863  28.140  1.00  0.00     0.031 A 
ATOM     58  C   UNL A   1      41.706  30.028  32.930  1.00  0.00     0.031 A 
ATOM     59  C   UNL A   1      44.005  25.360  29.217  1.00  0.00     0.049 A 
ATOM     60  C   UNL A   1      42.486  28.827  33.431  1.00  0.00     0.074 A 
ATOM     61  C   UNL A   1      45.020  26.302  29.247  1.00  0.00     0.029 A 
ATOM     62  N   UNL A   1      43.653  25.116  30.538  1.00  0.00    -0.354 N 
ATOM     63  N   UNL A   1      42.939  27.882  32.654  1.00  0.00    -0.248 NA
ATOM     64  C   UNL A   1      42.783  28.576  34.840  1.00  0.00     0.031 C 
ATOM     65  C   UNL A   1      45.235  26.671  30.599  1.00  0.00     0.029 A 
ATOM     66  C   UNL A   1      44.373  25.931  31.389  1.00  0.00     0.049 A 
ATOM     67  H   UNL A   1      42.983  24.455  30.827  1.00  0.00     0.167 HD
ATOM     68  C   UNL A   1      43.593  26.939  33.405  1.00  0.00     0.074 A 
ATOM     69  C   UNL A   1      43.463  27.416  34.769  1.00  0.00     0.031 C 
ATOM     70  C   UNL A   1      44.183  25.849  32.831  1.00  0.00     0.031 A 
BRANCH  57  71
ATOM     71  C   UNL A   1      43.680  24.071  26.967  1.00  0.00    -0.014 A 
ATOM     72  C   UNL A   1      43.575  24.602  25.667  1.00  0.00     0.009 A 
ATOM     73  C   UNL A   1      44.244  22.787  27.059  1.00  0.00     0.009 A 
ATOM     74  C   UNL A   1      43.914  23.861  24.527  1.00  0.00     0.001 A 
ATOM     75  C   UNL A   1      44.551  22.024  25.923  1.00  0.00     0.001 A 
ATOM     76  C   UNL A   1      44.374  22.557  24.654  1.00  0.00     0.000 A 
ENDBRANCH  57  71
BRANCH  58  77
ATOM     77  C   UNL A   1      40.365  30.423  33.439  1.00  0.00    -0.014 A 
ATOM     78  C   UNL A   1      40.107  31.790  33.655  1.00  0.00     0.009 A 
ATOM     79  C   UNL A   1      39.277  29.542  33.345  1.00  0.00     0.009 A 
ATOM     80  C   UNL A   1      38.798  32.279  33.657  1.00  0.00     0.001 A 
ATOM     81  C   UNL A   1      37.967  30.037  33.357  1.00  0.00     0.001 A 
ATOM     82  C   UNL A   1      37.730  31.406  33.474  1.00  0.00     0.000 A 
ENDBRANCH  58  77
BRANCH  70  83
ATOM     83  C   UNL A   1      44.716  24.625  33.542  1.00  0.00    -0.014 A 
ATOM     84  C   UNL A   1      46.072  24.357  33.765  1.00  0.00     0.009 A 
ATOM     85  C   UNL A   1      43.796  23.735  34.148  1.00  0.00     0.009 A 
ATOM     86  C   UNL A   1      46.485  23.247  34.517  1.00  0.00     0.001 A 
ATOM     87  C   UNL A   1      44.200  22.657  34.938  1.00  0.00     0.001 A 
ATOM     88  C   UNL A   1      45.551  22.406  35.114  1.00  0.00     0.000 A 
ENDBRANCH  70  83
ENDBRANCH  44  45
ENDBRANCH  36  39
ENDBRANCH  34  35
ENDBRANCH  33  34
ENDBRANCH   1  33
TORSDOF 15
ENDMDL
MODEL 3
REMARK VINA RESULT:     -11.3      1.765      4.267
REMARK SMILES Cc1ccc([C@@H]2[C@H](C(=O)NCCCCCCNC(=O)c3ccc(-c4c5nc(c(-c6ccccc6)c6ccc([nH]6)c(-c6ccccc6)c6nc(c(-c7ccccc7)c7ccc4[nH]7)C=C6)C=C5)cc3)c3ccccc3C(=O)N2c2ccccc2)cc1
REMARK SMILES IDX 14 1 13 2 12 3 11 4 10 5 8 6 9 7 7 9 6 10 76 11 68 12 74 13
REMARK SMILES IDX 69 14 73 15 75 16 70 17 72 18 71 19 5 20 1 21 2 22 3 23
REMARK SMILES IDX 84 24 4 25 83 26 77 27 78 28 82 29 79 30 81 31 80 32 15 33
REMARK SMILES IDX 16 34 17 35 18 36 19 38 20 39 21 40 67 41 22 42 66 43 23 44
REMARK SMILES IDX 24 45 25 46 60 47 26 48 65 49 59 50 61 51 27 52 64 53 58 54
REMARK SMILES IDX 57 55 28 57 50 58 35 59 49 60 36 61 39 62 48 63 62 64 37 65
REMARK SMILES IDX 38 66 47 68 63 69 40 70 29 71 30 72 34 73 31 74 33 75 32 76
REMARK SMILES IDX 51 77 52 78 56 79 53 80 55 81 54 82 41 83 42 84 46 85 43 86
REMARK SMILES IDX 45 87 44 88
REMARK H PARENT 10 8 17 37 61 56 39 67
REMARK Flexibility Score: inf
ROOT
ATOM      1  C   UNL A   1      33.264  30.124  27.026  1.00  0.00     0.002 C 
ENDROOT
BRANCH   1   2
ATOM      2  C   UNL A   1      31.882  29.807  27.627  1.00  0.00     0.002 C 
BRANCH   2   3
ATOM      3  C   UNL A   1      31.417  28.346  27.553  1.00  0.00     0.021 C 
BRANCH   3   4
ATOM      4  C   UNL A   1      31.439  27.726  26.155  1.00  0.00     0.116 C 
BRANCH   4   5
ATOM      5  N   UNL A   1      30.476  26.655  26.041  1.00  0.00    -0.355 N 
ATOM      6  C   UNL A   1      30.900  25.347  25.969  1.00  0.00     0.230 C 
ATOM      7  O   UNL A   1      31.514  24.837  26.904  1.00  0.00    -0.274 OA
ATOM      8  H   UNL A   1      29.513  26.861  26.015  1.00  0.00     0.163 HD
BRANCH   6   9
ATOM      9  C   UNL A   1      30.577  24.578  24.681  1.00  0.00     0.137 C 
ATOM     10  C   UNL A   1      30.761  25.435  23.391  1.00  0.00     0.138 C 
ATOM     11  N   UNL A   1      32.182  25.433  23.005  1.00  0.00    -0.300 N 
ATOM     12  C   UNL A   1      31.330  23.248  24.518  1.00  0.00    -0.020 A 
ATOM     13  C   UNL A   1      32.546  24.172  22.496  1.00  0.00     0.259 C 
ATOM     14  C   UNL A   1      31.149  22.206  25.441  1.00  0.00     0.005 A 
ATOM     15  C   UNL A   1      32.220  23.048  23.438  1.00  0.00     0.044 A 
ATOM     16  O   UNL A   1      33.178  23.984  21.464  1.00  0.00    -0.269 OA
ATOM     17  C   UNL A   1      31.877  21.021  25.322  1.00  0.00     0.000 A 
ATOM     18  C   UNL A   1      32.908  21.839  23.297  1.00  0.00     0.014 A 
ATOM     19  C   UNL A   1      32.748  20.833  24.249  1.00  0.00     0.001 A 
BRANCH  10  20
ATOM     20  C   UNL A   1      29.864  26.652  23.182  1.00  0.00    -0.024 A 
ATOM     21  C   UNL A   1      27.274  30.121  23.174  1.00  0.00     0.044 C 
ATOM     22  C   UNL A   1      28.121  28.890  23.055  1.00  0.00    -0.051 A 
ATOM     23  C   UNL A   1      29.398  28.941  22.491  1.00  0.00     0.004 A 
ATOM     24  C   UNL A   1      27.672  27.681  23.581  1.00  0.00     0.004 A 
ATOM     25  C   UNL A   1      30.234  27.816  22.502  1.00  0.00     0.006 A 
ATOM     26  C   UNL A   1      28.534  26.582  23.646  1.00  0.00     0.006 A 
ENDBRANCH  10  20
BRANCH  11  27
ATOM     27  C   UNL A   1      33.217  26.147  23.730  1.00  0.00     0.045 A 
ATOM     28  C   UNL A   1      33.917  25.493  24.766  1.00  0.00     0.026 A 
ATOM     29  C   UNL A   1      33.491  27.508  23.553  1.00  0.00     0.026 A 
ATOM     30  C   UNL A   1      34.776  26.180  25.631  1.00  0.00     0.002 A 
ATOM     31  C   UNL A   1      34.391  28.190  24.386  1.00  0.00     0.002 A 
ATOM     32  C   UNL A   1      35.012  27.532  25.441  1.00  0.00     0.000 A 
ENDBRANCH  11  27
ENDBRANCH   6   9
ENDBRANCH   4   5
ENDBRANCH   3   4
ENDBRANCH   2   3
ENDBRANCH   1   2
BRANCH   1  33
ATOM     33  C   UNL A   1      34.296  30.727  27.980  1.00  0.00     0.021 C 
BRANCH  33  34
ATOM     34  C   UNL A   1      34.680  32.168  27.665  1.00  0.00     0.116 C 
BRANCH  34  35
ATOM     35  N   UNL A   1      33.883  33.159  28.375  1.00  0.00    -0.352 N 
ATOM     36  C   UNL A   1      34.094  33.789  29.594  1.00  0.00     0.251 C 
ATOM     37  H   UNL A   1      33.057  33.428  27.912  1.00  0.00     0.163 HD
ATOM     38  O   UNL A   1      33.243  34.528  30.040  1.00  0.00    -0.269 OA
BRANCH  36  39
ATOM     39  C   UNL A   1      35.418  33.689  30.271  1.00  0.00     0.039 A 
ATOM     40  C   UNL A   1      36.508  34.306  29.636  1.00  0.00     0.014 A 
ATOM     41  C   UNL A   1      35.642  32.843  31.349  1.00  0.00     0.014 A 
ATOM     42  C   UNL A   1      37.797  33.850  29.889  1.00  0.00     0.010 A 
ATOM     43  C   UNL A   1      36.900  32.310  31.527  1.00  0.00     0.010 A 
ATOM     44  C   UNL A   1      37.958  32.758  30.736  1.00  0.00    -0.014 A 
BRANCH  44  45
ATOM     45  C   UNL A   1      39.158  31.940  30.779  1.00  0.00     0.031 A 
ATOM     46  C   UNL A   1      39.200  30.654  30.058  1.00  0.00     0.074 A 
ATOM     47  C   UNL A   1      40.262  32.423  31.396  1.00  0.00     0.049 A 
ATOM     48  N   UNL A   1      39.974  29.672  30.371  1.00  0.00    -0.248 NA
ATOM     49  C   UNL A   1      38.323  30.359  28.928  1.00  0.00     0.031 C 
ATOM     50  C   UNL A   1      41.617  31.881  31.326  1.00  0.00     0.029 A 
ATOM     51  N   UNL A   1      40.351  33.402  32.390  1.00  0.00    -0.354 N 
ATOM     52  C   UNL A   1      39.935  28.775  29.329  1.00  0.00     0.074 A 
ATOM     53  C   UNL A   1      38.824  29.193  28.508  1.00  0.00     0.031 C 
ATOM     54  C   UNL A   1      42.296  32.284  32.413  1.00  0.00     0.029 A 
ATOM     55  C   UNL A   1      41.342  32.958  33.278  1.00  0.00     0.049 A 
ATOM     56  H   UNL A   1      39.825  34.232  32.454  1.00  0.00     0.167 HD
ATOM     57  C   UNL A   1      40.945  27.871  29.185  1.00  0.00     0.031 A 
ATOM     58  C   UNL A   1      41.100  32.623  34.580  1.00  0.00     0.031 A 
ATOM     59  C   UNL A   1      41.920  27.977  30.268  1.00  0.00     0.049 A 
ATOM     60  C   UNL A   1      41.512  31.200  34.908  1.00  0.00     0.074 A 
ATOM     61  C   UNL A   1      43.162  28.585  30.353  1.00  0.00     0.029 A 
ATOM     62  N   UNL A   1      41.532  27.685  31.570  1.00  0.00    -0.354 N 
ATOM     63  N   UNL A   1      41.666  30.266  34.010  1.00  0.00    -0.248 NA
ATOM     64  C   UNL A   1      41.745  30.709  36.264  1.00  0.00     0.031 C 
ATOM     65  C   UNL A   1      43.492  28.713  31.726  1.00  0.00     0.029 A 
ATOM     66  C   UNL A   1      42.466  28.156  32.470  1.00  0.00     0.049 A 
ATOM     67  H   UNL A   1      40.706  27.209  31.815  1.00  0.00     0.167 HD
ATOM     68  C   UNL A   1      42.035  29.094  34.620  1.00  0.00     0.074 A 
ATOM     69  C   UNL A   1      42.065  29.422  36.033  1.00  0.00     0.031 C 
ATOM     70  C   UNL A   1      42.282  27.959  33.901  1.00  0.00     0.031 A 
BRANCH  57  71
ATOM     71  C   UNL A   1      41.209  27.109  27.907  1.00  0.00    -0.014 A 
ATOM     72  C   UNL A   1      41.079  25.707  27.896  1.00  0.00     0.009 A 
ATOM     73  C   UNL A   1      41.632  27.694  26.702  1.00  0.00     0.009 A 
ATOM     74  C   UNL A   1      41.445  24.932  26.787  1.00  0.00     0.001 A 
ATOM     75  C   UNL A   1      42.035  26.924  25.600  1.00  0.00     0.001 A 
ATOM     76  C   UNL A   1      41.953  25.540  25.648  1.00  0.00     0.000 A 
ENDBRANCH  57  71
BRANCH  58  77
ATOM     77  C   UNL A   1      39.934  33.315  35.193  1.00  0.00    -0.014 A 
ATOM     78  C   UNL A   1      38.642  32.844  34.892  1.00  0.00     0.009 A 
ATOM     79  C   UNL A   1      40.101  34.142  36.313  1.00  0.00     0.009 A 
ATOM     80  C   UNL A   1      37.570  33.094  35.755  1.00  0.00     0.001 A 
ATOM     81  C   UNL A   1      39.022  34.398  37.169  1.00  0.00     0.001 A 
ATOM     82  C   UNL A   1      37.769  33.842  36.911  1.00  0.00     0.000 A 
ENDBRANCH  58  77
BRANCH  70  83
ATOM     83  C   UNL A   1      42.454  26.559  34.446  1.00  0.00    -0.014 A 
ATOM     84  C   UNL A   1      41.515  25.889  35.239  1.00  0.00     0.009 A 
ATOM     85  C   UNL A   1      43.577  25.801  34.033  1.00  0.00     0.009 A 
ATOM     86  C   UNL A   1      41.703  24.554  35.627  1.00  0.00     0.001 A 
ATOM     87  C   UNL A   1      43.746  24.458  34.376  1.00  0.00     0.001 A 
ATOM     88  C   UNL A   1      42.811  23.835  35.186  1.00  0.00     0.000 A 
ENDBRANCH  70  83
ENDBRANCH  44  45
ENDBRANCH  36  39
ENDBRANCH  34  35
ENDBRANCH  33  34
ENDBRANCH   1  33
TORSDOF 15
ENDMDL
