MODEL 1
REMARK VINA RESULT:      -8.7      0.000      0.000
REMARK SMILES O=C(C[C@@H]1C(=O)NC(=S)N1c1ccccc1)NCCCCCCNC(=O)c1ccc(-c2c3nc(c(-c4ccccc4)c4ccc([nH]4)c(-c4ccccc4)c4nc(c(-c5ccccc5)c5ccc2[nH]5)C=C4)C=C3)cc1
REMARK SMILES IDX 20 1 19 2 18 3 17 4 1 5 2 6 3 8 4 9 5 10 10 11 6 12 7 13
REMARK SMILES IDX 8 14 9 16 11 17 12 18 16 19 13 20 15 21 14 22 21 23 22 24
REMARK SMILES IDX 23 25 24 26 25 27 26 29 27 30 28 31 74 32 29 33 73 34 30 35
REMARK SMILES IDX 31 36 32 37 67 38 33 39 72 40 66 41 68 42 34 43 71 44 65 45
REMARK SMILES IDX 64 46 35 48 57 49 42 50 56 51 43 52 46 53 55 54 69 55 44 56
REMARK SMILES IDX 45 57 54 59 70 60 47 61 36 62 37 63 41 64 38 65 40 66 39 67
REMARK SMILES IDX 58 68 59 69 63 70 60 71 62 72 61 73 48 74 49 75 53 76 50 77
REMARK SMILES IDX 52 78 51 79
REMARK H PARENT 17 7 7 15 24 28 68 47 46 58
REMARK Flexibility Score: inf
ROOT
ATOM      1  C   UNL A   1      43.631  24.883  25.341  1.00  0.00     0.002 C 
ENDROOT
BRANCH   1   2
ATOM      2  C   UNL A   1      44.286  26.155  25.894  1.00  0.00     0.021 C 
BRANCH   2   3
ATOM      3  C   UNL A   1      43.675  27.456  25.381  1.00  0.00     0.116 C 
BRANCH   3   4
ATOM      4  N   UNL A   1      44.136  28.598  26.147  1.00  0.00    -0.356 N 
ATOM      5  O   UNL A   1      42.083  29.606  26.269  1.00  0.00    -0.275 OA
ATOM      6  C   UNL A   1      43.277  29.586  26.557  1.00  0.00     0.222 C 
ATOM      7  H   UNL A   1      45.090  28.667  26.378  1.00  0.00     0.163 HD
BRANCH   6   8
ATOM      8  C   UNL A   1      43.905  30.742  27.300  1.00  0.00     0.135 C 
BRANCH   8   9
ATOM      9  C   UNL A   1      44.730  31.747  26.509  1.00  0.00     0.188 C 
ATOM     10  C   UNL A   1      46.181  31.316  26.278  1.00  0.00     0.249 C 
ATOM     11  N   UNL A   1      44.952  33.035  27.182  1.00  0.00    -0.306 N 
ATOM     12  O   UNL A   1      46.553  30.352  25.629  1.00  0.00    -0.272 OA
ATOM     13  N   UNL A   1      47.011  32.207  26.877  1.00  0.00    -0.301 N 
ATOM     14  C   UNL A   1      46.321  33.255  27.402  1.00  0.00     0.180 C 
ATOM     15  H   UNL A   1      47.989  32.108  26.924  1.00  0.00     0.172 HD
ATOM     16  S   UNL A   1      47.106  34.487  28.192  1.00  0.00    -0.040 S 
BRANCH  11  17
ATOM     17  C   UNL A   1      43.912  33.982  27.377  1.00  0.00     0.044 A 
ATOM     18  C   UNL A   1      43.511  34.822  26.330  1.00  0.00     0.026 A 
ATOM     19  C   UNL A   1      43.285  34.124  28.619  1.00  0.00     0.026 A 
ATOM     20  C   UNL A   1      42.530  35.797  26.528  1.00  0.00     0.002 A 
ATOM     21  C   UNL A   1      42.316  35.112  28.824  1.00  0.00     0.002 A 
ATOM     22  C   UNL A   1      41.939  35.950  27.779  1.00  0.00     0.000 A 
ENDBRANCH  11  17
ENDBRANCH   8   9
ENDBRANCH   6   8
ENDBRANCH   3   4
ENDBRANCH   2   3
ENDBRANCH   1   2
BRANCH   1  23
ATOM     23  C   UNL A   1      43.538  23.713  26.326  1.00  0.00     0.002 C 
BRANCH  23  24
ATOM     24  C   UNL A   1      42.740  22.506  25.829  1.00  0.00     0.021 C 
BRANCH  24  25
ATOM     25  C   UNL A   1      41.670  22.003  26.793  1.00  0.00     0.116 C 
BRANCH  25  26
ATOM     26  N   UNL A   1      40.359  21.899  26.169  1.00  0.00    -0.352 N 
ATOM     27  C   UNL A   1      39.309  22.784  26.190  1.00  0.00     0.251 C 
ATOM     28  H   UNL A   1      40.203  21.073  25.657  1.00  0.00     0.163 HD
ATOM     29  O   UNL A   1      38.213  22.455  25.748  1.00  0.00    -0.269 OA
BRANCH  27  30
ATOM     30  C   UNL A   1      39.493  24.128  26.778  1.00  0.00     0.039 A 
ATOM     31  C   UNL A   1      39.051  24.359  28.084  1.00  0.00     0.014 A 
ATOM     32  C   UNL A   1      40.111  25.150  26.053  1.00  0.00     0.014 A 
ATOM     33  C   UNL A   1      39.304  25.591  28.691  1.00  0.00     0.010 A 
ATOM     34  C   UNL A   1      40.428  26.350  26.684  1.00  0.00     0.010 A 
ATOM     35  C   UNL A   1      40.037  26.578  28.013  1.00  0.00    -0.014 A 
BRANCH  35  36
ATOM     36  C   UNL A   1      40.445  27.834  28.692  1.00  0.00     0.031 A 
ATOM     37  C   UNL A   1      41.801  27.957  29.325  1.00  0.00     0.074 A 
ATOM     38  C   UNL A   1      39.557  28.841  28.805  1.00  0.00     0.049 A 
ATOM     39  N   UNL A   1      42.303  28.950  30.015  1.00  0.00    -0.248 NA
ATOM     40  C   UNL A   1      42.703  26.804  29.186  1.00  0.00     0.031 C 
ATOM     41  C   UNL A   1      38.192  28.830  28.275  1.00  0.00     0.029 A 
ATOM     42  N   UNL A   1      39.666  30.065  29.418  1.00  0.00    -0.354 N 
ATOM     43  C   UNL A   1      43.573  28.540  30.398  1.00  0.00     0.074 A 
ATOM     44  C   UNL A   1      43.742  27.187  29.913  1.00  0.00     0.031 C 
ATOM     45  C   UNL A   1      37.598  29.996  28.570  1.00  0.00     0.029 A 
ATOM     46  C   UNL A   1      38.519  30.818  29.349  1.00  0.00     0.049 A 
ATOM     47  H   UNL A   1      40.488  30.374  29.864  1.00  0.00     0.167 HD
ATOM     48  C   UNL A   1      44.520  29.231  31.077  1.00  0.00     0.031 A 
ATOM     49  C   UNL A   1      38.229  32.025  29.870  1.00  0.00     0.031 A 
ATOM     50  C   UNL A   1      44.344  30.571  31.575  1.00  0.00     0.049 A 
ATOM     51  C   UNL A   1      39.279  32.759  30.653  1.00  0.00     0.074 A 
ATOM     52  C   UNL A   1      45.259  31.374  32.233  1.00  0.00     0.029 A 
ATOM     53  N   UNL A   1      43.166  31.299  31.484  1.00  0.00    -0.354 N 
ATOM     54  N   UNL A   1      40.504  32.389  30.940  1.00  0.00    -0.248 NA
ATOM     55  C   UNL A   1      38.910  34.081  31.178  1.00  0.00     0.031 C 
ATOM     56  C   UNL A   1      44.616  32.562  32.598  1.00  0.00     0.029 A 
ATOM     57  C   UNL A   1      43.321  32.527  32.107  1.00  0.00     0.049 A 
ATOM     58  H   UNL A   1      42.343  30.989  31.043  1.00  0.00     0.167 HD
ATOM     59  C   UNL A   1      41.058  33.437  31.662  1.00  0.00     0.074 A 
ATOM     60  C   UNL A   1      40.042  34.468  31.750  1.00  0.00     0.031 C 
ATOM     61  C   UNL A   1      42.297  33.537  32.204  1.00  0.00     0.031 A 
BRANCH  48  62
ATOM     62  C   UNL A   1      45.828  28.532  31.336  1.00  0.00    -0.014 A 
ATOM     63  C   UNL A   1      46.898  28.628  30.429  1.00  0.00     0.009 A 
ATOM     64  C   UNL A   1      46.000  27.778  32.506  1.00  0.00     0.009 A 
ATOM     65  C   UNL A   1      48.091  27.942  30.665  1.00  0.00     0.001 A 
ATOM     66  C   UNL A   1      47.206  27.121  32.757  1.00  0.00     0.001 A 
ATOM     67  C   UNL A   1      48.246  27.191  31.830  1.00  0.00     0.000 A 
ENDBRANCH  48  62
BRANCH  49  68
ATOM     68  C   UNL A   1      36.875  32.605  29.670  1.00  0.00    -0.014 A 
ATOM     69  C   UNL A   1      36.590  33.389  28.542  1.00  0.00     0.009 A 
ATOM     70  C   UNL A   1      35.852  32.357  30.599  1.00  0.00     0.009 A 
ATOM     71  C   UNL A   1      35.314  33.928  28.360  1.00  0.00     0.001 A 
ATOM     72  C   UNL A   1      34.569  32.870  30.399  1.00  0.00     0.001 A 
ATOM     73  C   UNL A   1      34.304  33.662  29.284  1.00  0.00     0.000 A 
ENDBRANCH  49  68
BRANCH  61  74
ATOM     74  C   UNL A   1      42.630  34.813  32.928  1.00  0.00    -0.014 A 
ATOM     75  C   UNL A   1      43.259  35.882  32.270  1.00  0.00     0.009 A 
ATOM     76  C   UNL A   1      42.268  34.963  34.276  1.00  0.00     0.009 A 
ATOM     77  C   UNL A   1      43.545  37.064  32.958  1.00  0.00     0.001 A 
ATOM     78  C   UNL A   1      42.528  36.156  34.952  1.00  0.00     0.001 A 
ATOM     79  C   UNL A   1      43.174  37.203  34.296  1.00  0.00     0.000 A 
ENDBRANCH  61  74
ENDBRANCH  35  36
ENDBRANCH  27  30
ENDBRANCH  25  26
ENDBRANCH  24  25
ENDBRANCH  23  24
ENDBRANCH   1  23
TORSDOF 15
ENDMDL
MODEL 2
REMARK VINA RESULT:      -8.5      4.377     10.547
REMARK SMILES O=C(C[C@@H]1C(=O)NC(=S)N1c1ccccc1)NCCCCCCNC(=O)c1ccc(-c2c3nc(c(-c4ccccc4)c4ccc([nH]4)c(-c4ccccc4)c4nc(c(-c5ccccc5)c5ccc2[nH]5)C=C4)C=C3)cc1
REMARK SMILES IDX 20 1 19 2 18 3 17 4 1 5 2 6 3 8 4 9 5 10 10 11 6 12 7 13
REMARK SMILES IDX 8 14 9 16 11 17 12 18 16 19 13 20 15 21 14 22 21 23 22 24
REMARK SMILES IDX 23 25 24 26 25 27 26 29 27 30 28 31 74 32 29 33 73 34 30 35
REMARK SMILES IDX 31 36 32 37 67 38 33 39 72 40 66 41 68 42 34 43 71 44 65 45
REMARK SMILES IDX 64 46 35 48 57 49 42 50 56 51 43 52 46 53 55 54 69 55 44 56
REMARK SMILES IDX 45 57 54 59 70 60 47 61 36 62 37 63 41 64 38 65 40 66 39 67
REMARK SMILES IDX 58 68 59 69 63 70 60 71 62 72 61 73 48 74 49 75 53 76 50 77
REMARK SMILES IDX 52 78 51 79
REMARK H PARENT 17 7 7 15 24 28 68 47 46 58
REMARK Flexibility Score: inf
ROOT
ATOM      1  C   UNL A   1      30.983  28.309  24.464  1.00  0.00     0.002 C 
ENDROOT
BRANCH   1   2
ATOM      2  C   UNL A   1      31.752  28.077  23.158  1.00  0.00     0.021 C 
BRANCH   2   3
ATOM      3  C   UNL A   1      33.222  27.713  23.344  1.00  0.00     0.116 C 
BRANCH   3   4
ATOM      4  N   UNL A   1      33.498  26.365  22.886  1.00  0.00    -0.356 N 
ATOM      5  O   UNL A   1      34.415  25.660  24.864  1.00  0.00    -0.275 OA
ATOM      6  C   UNL A   1      34.060  25.424  23.711  1.00  0.00     0.222 C 
ATOM      7  H   UNL A   1      33.277  26.119  21.960  1.00  0.00     0.163 HD
BRANCH   6   8
ATOM      8  C   UNL A   1      34.342  24.078  23.084  1.00  0.00     0.135 C 
BRANCH   8   9
ATOM      9  C   UNL A   1      33.765  22.836  23.748  1.00  0.00     0.188 C 
ATOM     10  C   UNL A   1      32.287  22.961  24.124  1.00  0.00     0.249 C 
ATOM     11  N   UNL A   1      34.335  22.515  25.065  1.00  0.00    -0.306 N 
ATOM     12  O   UNL A   1      31.354  23.100  23.349  1.00  0.00    -0.272 OA
ATOM     13  N   UNL A   1      32.159  22.851  25.470  1.00  0.00    -0.301 N 
ATOM     14  C   UNL A   1      33.348  22.559  26.062  1.00  0.00     0.180 C 
ATOM     15  H   UNL A   1      31.310  22.965  25.957  1.00  0.00     0.172 HD
ATOM     16  S   UNL A   1      33.462  22.371  27.708  1.00  0.00    -0.040 S 
BRANCH  11  17
ATOM     17  C   UNL A   1      35.661  22.034  25.224  1.00  0.00     0.044 A 
ATOM     18  C   UNL A   1      36.673  22.883  25.692  1.00  0.00     0.026 A 
ATOM     19  C   UNL A   1      36.001  20.719  24.891  1.00  0.00     0.026 A 
ATOM     20  C   UNL A   1      37.993  22.437  25.797  1.00  0.00     0.002 A 
ATOM     21  C   UNL A   1      37.325  20.276  24.978  1.00  0.00     0.002 A 
ATOM     22  C   UNL A   1      38.322  21.135  25.429  1.00  0.00     0.000 A 
ENDBRANCH  11  17
ENDBRANCH   8   9
ENDBRANCH   6   8
ENDBRANCH   3   4
ENDBRANCH   2   3
ENDBRANCH   1   2
BRANCH   1  23
ATOM     23  C   UNL A   1      31.688  29.203  25.489  1.00  0.00     0.002 C 
BRANCH  23  24
ATOM     24  C   UNL A   1      32.079  28.511  26.796  1.00  0.00     0.021 C 
BRANCH  24  25
ATOM     25  C   UNL A   1      33.467  28.866  27.321  1.00  0.00     0.116 C 
BRANCH  25  26
ATOM     26  N   UNL A   1      33.575  30.263  27.714  1.00  0.00    -0.352 N 
ATOM     27  C   UNL A   1      34.617  30.922  28.317  1.00  0.00     0.251 C 
ATOM     28  H   UNL A   1      32.784  30.816  27.519  1.00  0.00     0.163 HD
ATOM     29  O   UNL A   1      34.470  32.067  28.732  1.00  0.00    -0.269 OA
BRANCH  27  30
ATOM     30  C   UNL A   1      35.915  30.237  28.496  1.00  0.00     0.039 A 
ATOM     31  C   UNL A   1      36.833  30.245  27.442  1.00  0.00     0.014 A 
ATOM     32  C   UNL A   1      36.232  29.603  29.701  1.00  0.00     0.014 A 
ATOM     33  C   UNL A   1      38.101  29.690  27.626  1.00  0.00     0.010 A 
ATOM     34  C   UNL A   1      37.520  29.117  29.906  1.00  0.00     0.010 A 
ATOM     35  C   UNL A   1      38.471  29.165  28.875  1.00  0.00    -0.014 A 
BRANCH  35  36
ATOM     36  C   UNL A   1      39.859  28.706  29.135  1.00  0.00     0.031 A 
ATOM     37  C   UNL A   1      40.878  29.641  29.722  1.00  0.00     0.074 A 
ATOM     38  C   UNL A   1      40.223  27.463  28.766  1.00  0.00     0.049 A 
ATOM     39  N   UNL A   1      42.149  29.436  29.956  1.00  0.00    -0.248 NA
ATOM     40  C   UNL A   1      40.412  30.992  30.070  1.00  0.00     0.031 C 
ATOM     41  C   UNL A   1      39.343  26.473  28.142  1.00  0.00     0.029 A 
ATOM     42  N   UNL A   1      41.436  26.824  28.847  1.00  0.00    -0.354 N 
ATOM     43  C   UNL A   1      42.636  30.629  30.471  1.00  0.00     0.074 A 
ATOM     44  C   UNL A   1      41.537  31.571  30.461  1.00  0.00     0.031 C 
ATOM     45  C   UNL A   1      40.039  25.349  27.914  1.00  0.00     0.029 A 
ATOM     46  C   UNL A   1      41.423  25.552  28.330  1.00  0.00     0.049 A 
ATOM     47  H   UNL A   1      42.238  27.239  29.240  1.00  0.00     0.167 HD
ATOM     48  C   UNL A   1      43.880  30.913  30.926  1.00  0.00     0.031 A 
ATOM     49  C   UNL A   1      42.415  24.654  28.185  1.00  0.00     0.031 A 
ATOM     50  C   UNL A   1      44.978  29.980  30.918  1.00  0.00     0.049 A 
ATOM     51  C   UNL A   1      43.797  25.000  28.660  1.00  0.00     0.074 A 
ATOM     52  C   UNL A   1      46.263  30.156  31.401  1.00  0.00     0.029 A 
ATOM     53  N   UNL A   1      44.923  28.700  30.386  1.00  0.00    -0.354 N 
ATOM     54  N   UNL A   1      44.223  26.108  29.217  1.00  0.00    -0.248 NA
ATOM     55  C   UNL A   1      44.832  23.971  28.494  1.00  0.00     0.031 C 
ATOM     56  C   UNL A   1      47.004  29.008  31.102  1.00  0.00     0.029 A 
ATOM     57  C   UNL A   1      46.163  28.090  30.494  1.00  0.00     0.049 A 
ATOM     58  H   UNL A   1      44.123  28.287  29.989  1.00  0.00     0.167 HD
ATOM     59  C   UNL A   1      45.570  25.904  29.486  1.00  0.00     0.074 A 
ATOM     60  C   UNL A   1      45.884  24.558  29.050  1.00  0.00     0.031 C 
ATOM     61  C   UNL A   1      46.467  26.756  30.042  1.00  0.00     0.031 A 
BRANCH  48  62
ATOM     62  C   UNL A   1      44.119  32.303  31.453  1.00  0.00    -0.014 A 
ATOM     63  C   UNL A   1      44.558  33.337  30.610  1.00  0.00     0.009 A 
ATOM     64  C   UNL A   1      43.892  32.586  32.808  1.00  0.00     0.009 A 
ATOM     65  C   UNL A   1      44.813  34.611  31.122  1.00  0.00     0.001 A 
ATOM     66  C   UNL A   1      44.115  33.869  33.312  1.00  0.00     0.001 A 
ATOM     67  C   UNL A   1      44.588  34.877  32.472  1.00  0.00     0.000 A 
ENDBRANCH  48  62
BRANCH  49  68
ATOM     68  C   UNL A   1      42.130  23.340  27.550  1.00  0.00    -0.014 A 
ATOM     69  C   UNL A   1      42.429  23.116  26.198  1.00  0.00     0.009 A 
ATOM     70  C   UNL A   1      41.575  22.293  28.304  1.00  0.00     0.009 A 
ATOM     71  C   UNL A   1      42.160  21.878  25.610  1.00  0.00     0.001 A 
ATOM     72  C   UNL A   1      41.337  21.047  27.722  1.00  0.00     0.001 A 
ATOM     73  C   UNL A   1      41.622  20.843  26.374  1.00  0.00     0.000 A 
ENDBRANCH  49  68
BRANCH  61  74
ATOM     74  C   UNL A   1      47.872  26.251  30.227  1.00  0.00    -0.014 A 
ATOM     75  C   UNL A   1      48.811  26.310  29.184  1.00  0.00     0.009 A 
ATOM     76  C   UNL A   1      48.274  25.754  31.476  1.00  0.00     0.009 A 
ATOM     77  C   UNL A   1      50.115  25.850  29.382  1.00  0.00     0.001 A 
ATOM     78  C   UNL A   1      49.587  25.323  31.680  1.00  0.00     0.001 A 
ATOM     79  C   UNL A   1      50.504  25.364  30.631  1.00  0.00     0.000 A 
ENDBRANCH  61  74
ENDBRANCH  35  36
ENDBRANCH  27  30
ENDBRANCH  25  26
ENDBRANCH  24  25
ENDBRANCH  23  24
ENDBRANCH   1  23
TORSDOF 15
ENDMDL
MODEL 3
REMARK VINA RESULT:      -8.5      4.165      7.649
REMARK SMILES O=C(C[C@@H]1C(=O)NC(=S)N1c1ccccc1)NCCCCCCNC(=O)c1ccc(-c2c3nc(c(-c4ccccc4)c4ccc([nH]4)c(-c4ccccc4)c4nc(c(-c5ccccc5)c5ccc2[nH]5)C=C4)C=C3)cc1
REMARK SMILES IDX 20 1 19 2 18 3 17 4 1 5 2 6 3 8 4 9 5 10 10 11 6 12 7 13
REMARK SMILES IDX 8 14 9 16 11 17 12 18 16 19 13 20 15 21 14 22 21 23 22 24
REMARK SMILES IDX 23 25 24 26 25 27 26 29 27 30 28 31 74 32 29 33 73 34 30 35
REMARK SMILES IDX 31 36 32 37 67 38 33 39 72 40 66 41 68 42 34 43 71 44 65 45
REMARK SMILES IDX 64 46 35 48 57 49 42 50 56 51 43 52 46 53 55 54 69 55 44 56
REMARK SMILES IDX 45 57 54 59 70 60 47 61 36 62 37 63 41 64 38 65 40 66 39 67
REMARK SMILES IDX 58 68 59 69 63 70 60 71 62 72 61 73 48 74 49 75 53 76 50 77
REMARK SMILES IDX 52 78 51 79
REMARK H PARENT 17 7 7 15 24 28 68 47 46 58
REMARK Flexibility Score: inf
ROOT
ATOM      1  C   UNL A   1      38.425  22.191  25.855  1.00  0.00     0.002 C 
ENDROOT
BRANCH   1   2
ATOM      2  C   UNL A   1      37.724  23.554  25.791  1.00  0.00     0.021 C 
BRANCH   2   3
ATOM      3  C   UNL A   1      36.677  23.677  24.688  1.00  0.00     0.116 C 
BRANCH   3   4
ATOM      4  N   UNL A   1      35.356  23.924  25.234  1.00  0.00    -0.356 N 
ATOM      5  O   UNL A   1      34.485  21.908  24.583  1.00  0.00    -0.275 OA
ATOM      6  C   UNL A   1      34.357  22.988  25.156  1.00  0.00     0.222 C 
ATOM      7  H   UNL A   1      35.172  24.786  25.671  1.00  0.00     0.163 HD
BRANCH   6   8
ATOM      8  C   UNL A   1      33.017  23.401  25.718  1.00  0.00     0.135 C 
BRANCH   8   9
ATOM      9  C   UNL A   1      32.072  24.192  24.825  1.00  0.00     0.188 C 
ATOM     10  C   UNL A   1      31.936  23.630  23.409  1.00  0.00     0.249 C 
ATOM     11  N   UNL A   1      32.511  25.561  24.514  1.00  0.00    -0.306 N 
ATOM     12  O   UNL A   1      31.471  22.543  23.104  1.00  0.00    -0.272 OA
ATOM     13  N   UNL A   1      32.380  24.553  22.518  1.00  0.00    -0.301 N 
ATOM     14  C   UNL A   1      32.705  25.722  23.133  1.00  0.00     0.180 C 
ATOM     15  H   UNL A   1      32.455  24.396  21.549  1.00  0.00     0.172 HD
ATOM     16  S   UNL A   1      33.276  27.016  22.263  1.00  0.00    -0.040 S 
BRANCH  11  17
ATOM     17  C   UNL A   1      32.526  26.596  25.485  1.00  0.00     0.044 A 
ATOM     18  C   UNL A   1      33.729  27.226  25.832  1.00  0.00     0.026 A 
ATOM     19  C   UNL A   1      31.357  26.992  26.141  1.00  0.00     0.026 A 
ATOM     20  C   UNL A   1      33.764  28.206  26.829  1.00  0.00     0.002 A 
ATOM     21  C   UNL A   1      31.393  27.959  27.152  1.00  0.00     0.002 A 
ATOM     22  C   UNL A   1      32.597  28.564  27.498  1.00  0.00     0.000 A 
ENDBRANCH  11  17
ENDBRANCH   8   9
ENDBRANCH   6   8
ENDBRANCH   3   4
ENDBRANCH   2   3
ENDBRANCH   1   2
BRANCH   1  23
ATOM     23  C   UNL A   1      37.797  21.091  24.992  1.00  0.00     0.002 C 
BRANCH  23  24
ATOM     24  C   UNL A   1      38.630  19.815  24.858  1.00  0.00     0.021 C 
BRANCH  24  25
ATOM     25  C   UNL A   1      39.328  19.366  26.139  1.00  0.00     0.116 C 
BRANCH  25  26
ATOM     26  N   UNL A   1      40.665  18.847  25.894  1.00  0.00    -0.352 N 
ATOM     27  C   UNL A   1      41.873  19.499  25.919  1.00  0.00     0.251 C 
ATOM     28  H   UNL A   1      40.709  17.888  25.678  1.00  0.00     0.163 HD
ATOM     29  O   UNL A   1      42.888  18.939  25.518  1.00  0.00    -0.269 OA
BRANCH  27  30
ATOM     30  C   UNL A   1      41.945  20.895  26.401  1.00  0.00     0.039 A 
ATOM     31  C   UNL A   1      41.719  21.152  27.756  1.00  0.00     0.014 A 
ATOM     32  C   UNL A   1      42.249  21.942  25.526  1.00  0.00     0.014 A 
ATOM     33  C   UNL A   1      41.879  22.450  28.248  1.00  0.00     0.010 A 
ATOM     34  C   UNL A   1      42.481  23.218  26.032  1.00  0.00     0.010 A 
ATOM     35  C   UNL A   1      42.309  23.482  27.400  1.00  0.00    -0.014 A 
BRANCH  35  36
ATOM     36  C   UNL A   1      42.628  24.831  27.932  1.00  0.00     0.031 A 
ATOM     37  C   UNL A   1      44.021  25.166  28.384  1.00  0.00     0.074 A 
ATOM     38  C   UNL A   1      41.639  25.733  28.081  1.00  0.00     0.049 A 
ATOM     39  N   UNL A   1      44.468  26.267  28.935  1.00  0.00    -0.248 NA
ATOM     40  C   UNL A   1      45.040  24.119  28.218  1.00  0.00     0.031 C 
ATOM     41  C   UNL A   1      40.235  25.517  27.726  1.00  0.00     0.029 A 
ATOM     42  N   UNL A   1      41.660  27.010  28.587  1.00  0.00    -0.354 N 
ATOM     43  C   UNL A   1      45.815  26.042  29.187  1.00  0.00     0.074 A 
ATOM     44  C   UNL A   1      46.098  24.682  28.783  1.00  0.00     0.031 C 
ATOM     45  C   UNL A   1      39.535  26.627  28.007  1.00  0.00     0.029 A 
ATOM     46  C   UNL A   1      40.428  27.614  28.607  1.00  0.00     0.049 A 
ATOM     47  H   UNL A   1      42.482  27.450  28.906  1.00  0.00     0.167 HD
ATOM     48  C   UNL A   1      46.738  26.895  29.693  1.00  0.00     0.031 A 
ATOM     49  C   UNL A   1      40.048  28.819  29.072  1.00  0.00     0.031 A 
ATOM     50  C   UNL A   1      46.450  28.243  30.113  1.00  0.00     0.049 A 
ATOM     51  C   UNL A   1      41.078  29.736  29.665  1.00  0.00     0.074 A 
ATOM     52  C   UNL A   1      47.325  29.201  30.594  1.00  0.00     0.029 A 
ATOM     53  N   UNL A   1      45.188  28.818  30.115  1.00  0.00    -0.354 N 
ATOM     54  N   UNL A   1      42.364  29.538  29.825  1.00  0.00    -0.248 NA
ATOM     55  C   UNL A   1      40.606  31.046  30.136  1.00  0.00     0.031 C 
ATOM     56  C   UNL A   1      46.583  30.333  30.950  1.00  0.00     0.029 A 
ATOM     57  C   UNL A   1      45.255  30.105  30.625  1.00  0.00     0.049 A 
ATOM     58  H   UNL A   1      44.365  28.377  29.802  1.00  0.00     0.167 HD
ATOM     59  C   UNL A   1      42.860  30.702  30.397  1.00  0.00     0.074 A 
ATOM     60  C   UNL A   1      41.738  31.610  30.536  1.00  0.00     0.031 C 
ATOM     61  C   UNL A   1      44.129  30.992  30.774  1.00  0.00     0.031 A 
BRANCH  48  62
ATOM     62  C   UNL A   1      48.145  26.380  29.839  1.00  0.00    -0.014 A 
ATOM     63  C   UNL A   1      48.576  25.762  31.025  1.00  0.00     0.009 A 
ATOM     64  C   UNL A   1      49.049  26.502  28.773  1.00  0.00     0.009 A 
ATOM     65  C   UNL A   1      49.896  25.324  31.158  1.00  0.00     0.001 A 
ATOM     66  C   UNL A   1      50.358  26.032  28.895  1.00  0.00     0.001 A 
ATOM     67  C   UNL A   1      50.785  25.457  30.092  1.00  0.00     0.000 A 
ENDBRANCH  48  62
BRANCH  49  68
ATOM     68  C   UNL A   1      38.617  29.217  28.998  1.00  0.00    -0.014 A 
ATOM     69  C   UNL A   1      37.766  29.040  30.099  1.00  0.00     0.009 A 
ATOM     70  C   UNL A   1      38.101  29.800  27.830  1.00  0.00     0.009 A 
ATOM     71  C   UNL A   1      36.424  29.420  30.024  1.00  0.00     0.001 A 
ATOM     72  C   UNL A   1      36.768  30.208  27.768  1.00  0.00     0.001 A 
ATOM     73  C   UNL A   1      35.928  30.010  28.861  1.00  0.00     0.000 A 
ENDBRANCH  49  68
BRANCH  61  74
ATOM     74  C   UNL A   1      44.378  32.356  31.360  1.00  0.00    -0.014 A 
ATOM     75  C   UNL A   1      44.678  33.457  30.541  1.00  0.00     0.009 A 
ATOM     76  C   UNL A   1      44.265  32.549  32.745  1.00  0.00     0.009 A 
ATOM     77  C   UNL A   1      44.890  34.718  31.104  1.00  0.00     0.001 A 
ATOM     78  C   UNL A   1      44.448  33.817  33.302  1.00  0.00     0.001 A 
ATOM     79  C   UNL A   1      44.769  34.898  32.482  1.00  0.00     0.000 A 
ENDBRANCH  61  74
ENDBRANCH  35  36
ENDBRANCH  27  30
ENDBRANCH  25  26
ENDBRANCH  24  25
ENDBRANCH  23  24
ENDBRANCH   1  23
TORSDOF 15
ENDMDL
