MODEL 1
REMARK VINA RESULT:     -10.8      0.000      0.000
REMARK SMILES Cc1cc(NC(=O)CC(C)(C)CC(=O)NCCCCCCNC(=O)c2ccc(-c3c4nc(c(-c5ccccc5)c5ccc([nH]5)c(-c5ccccc5)c5nc(c(-c6ccccc6)c6ccc3[nH]6)C=C5)C=C4)cc2)ncc1Br
REMARK SMILES IDX 17 1 16 2 15 3 13 4 14 5 12 7 9 8 10 9 11 10 8 11 6 12 5 13
REMARK SMILES IDX 7 15 4 16 1 17 2 18 3 19 75 20 74 21 76 22 73 23 18 24 19 25
REMARK SMILES IDX 20 26 21 27 22 28 23 29 24 31 25 32 26 33 72 34 27 35 71 36
REMARK SMILES IDX 28 37 29 38 30 39 65 40 31 41 70 42 64 43 66 44 32 45 69 46
REMARK SMILES IDX 63 47 62 48 33 50 55 51 40 52 54 53 41 54 44 55 53 56 67 57
REMARK SMILES IDX 42 58 43 59 52 61 68 62 45 63 34 64 35 65 39 66 36 67 38 68
REMARK SMILES IDX 37 69 56 70 57 71 61 72 58 73 60 74 59 75 46 76 47 77 51 78
REMARK SMILES IDX 48 79 50 80 49 81
REMARK H PARENT 15 6 5 14 22 30 66 49 44 60
REMARK Flexibility Score: inf
ROOT
ATOM      1  C   UNL A   1      33.864  29.372  27.074  1.00  0.00     0.021 C 
ENDROOT
BRANCH   1   2
ATOM      2  C   UNL A   1      34.119  28.219  26.104  1.00  0.00     0.116 C 
BRANCH   2   3
ATOM      3  N   UNL A   1      34.398  28.750  24.789  1.00  0.00    -0.356 N 
ATOM      4  C   UNL A   1      34.060  28.269  23.563  1.00  0.00     0.220 C 
ATOM      5  O   UNL A   1      34.563  28.810  22.578  1.00  0.00    -0.275 OA
ATOM      6  H   UNL A   1      34.912  29.589  24.779  1.00  0.00     0.163 HD
BRANCH   4   7
ATOM      7  C   UNL A   1      33.035  27.158  23.421  1.00  0.00     0.107 C 
BRANCH   7   8
ATOM      8  C   UNL A   1      31.537  27.510  23.192  1.00  0.00    -0.018 C 
ATOM      9  C   UNL A   1      31.119  26.653  21.971  1.00  0.00     0.012 C 
ATOM     10  C   UNL A   1      31.334  28.976  22.764  1.00  0.00     0.012 C 
BRANCH   8  11
ATOM     11  C   UNL A   1      30.676  27.294  24.473  1.00  0.00     0.107 C 
BRANCH  11  12
ATOM     12  C   UNL A   1      29.558  26.272  24.386  1.00  0.00     0.226 C 
ATOM     13  N   UNL A   1      29.723  24.985  24.801  1.00  0.00    -0.311 N 
ATOM     14  H   UNL A   1      28.927  24.414  24.707  1.00  0.00     0.171 HD
ATOM     15  O   UNL A   1      28.437  26.600  23.986  1.00  0.00    -0.275 OA
BRANCH  13  16
ATOM     16  C   UNL A   1      30.845  24.350  25.335  1.00  0.00     0.132 A 
ATOM     17  C   UNL A   1      33.548  22.114  23.920  1.00  0.00     0.046 C 
ATOM     18  C   UNL A   1      32.709  22.861  24.914  1.00  0.00    -0.032 A 
ATOM     19  C   UNL A   1      31.686  23.700  24.438  1.00  0.00     0.051 A 
ATOM     20  C   UNL A   1      32.900  22.781  26.295  1.00  0.00     0.039 A 
ATOM     21  C   UNL A   1      32.060  23.517  27.115  1.00  0.00     0.129 A 
ATOM     22  Br  UNL A   1      34.225  21.700  27.102  1.00  0.00    -0.049 Br
ATOM     23  N   UNL A   1      31.041  24.287  26.661  1.00  0.00    -0.238 NA
ENDBRANCH  13  16
ENDBRANCH  11  12
ENDBRANCH   8  11
ENDBRANCH   7   8
ENDBRANCH   4   7
ENDBRANCH   2   3
ENDBRANCH   1   2
BRANCH   1  24
ATOM     24  C   UNL A   1      32.379  29.699  27.254  1.00  0.00     0.002 C 
BRANCH  24  25
ATOM     25  C   UNL A   1      31.803  30.648  26.199  1.00  0.00     0.002 C 
BRANCH  25  26
ATOM     26  C   UNL A   1      31.445  32.042  26.717  1.00  0.00     0.021 C 
BRANCH  26  27
ATOM     27  C   UNL A   1      32.603  32.781  27.378  1.00  0.00     0.116 C 
BRANCH  27  28
ATOM     28  N   UNL A   1      32.296  34.186  27.612  1.00  0.00    -0.352 N 
ATOM     29  C   UNL A   1      32.878  35.059  28.497  1.00  0.00     0.251 C 
ATOM     30  H   UNL A   1      31.571  34.559  27.060  1.00  0.00     0.163 HD
ATOM     31  O   UNL A   1      32.384  36.161  28.716  1.00  0.00    -0.269 OA
BRANCH  29  32
ATOM     32  C   UNL A   1      34.099  34.637  29.208  1.00  0.00     0.039 A 
ATOM     33  C   UNL A   1      35.334  34.689  28.558  1.00  0.00     0.014 A 
ATOM     34  C   UNL A   1      33.995  34.121  30.501  1.00  0.00     0.014 A 
ATOM     35  C   UNL A   1      36.432  34.063  29.132  1.00  0.00     0.010 A 
ATOM     36  C   UNL A   1      35.123  33.571  31.114  1.00  0.00     0.010 A 
ATOM     37  C   UNL A   1      36.337  33.490  30.412  1.00  0.00    -0.014 A 
BRANCH  37  38
ATOM     38  C   UNL A   1      37.520  32.807  30.991  1.00  0.00     0.031 A 
ATOM     39  C   UNL A   1      38.095  33.247  32.310  1.00  0.00     0.074 A 
ATOM     40  C   UNL A   1      38.039  31.743  30.350  1.00  0.00     0.049 A 
ATOM     41  N   UNL A   1      39.107  32.743  32.973  1.00  0.00    -0.248 NA
ATOM     42  C   UNL A   1      37.462  34.398  32.973  1.00  0.00     0.031 C 
ATOM     43  C   UNL A   1      37.548  31.207  29.077  1.00  0.00     0.029 A 
ATOM     44  N   UNL A   1      39.069  30.903  30.690  1.00  0.00    -0.354 N 
ATOM     45  C   UNL A   1      39.241  33.524  34.113  1.00  0.00     0.074 A 
ATOM     46  C   UNL A   1      38.228  34.552  34.045  1.00  0.00     0.031 C 
ATOM     47  C   UNL A   1      38.236  30.097  28.775  1.00  0.00     0.029 A 
ATOM     48  C   UNL A   1      39.261  29.883  29.791  1.00  0.00     0.049 A 
ATOM     49  H   UNL A   1      39.616  31.020  31.499  1.00  0.00     0.167 HD
ATOM     50  C   UNL A   1      40.126  33.388  35.129  1.00  0.00     0.031 A 
ATOM     51  C   UNL A   1      40.169  28.888  29.771  1.00  0.00     0.031 A 
ATOM     52  C   UNL A   1      41.125  32.355  35.200  1.00  0.00     0.049 A 
ATOM     53  C   UNL A   1      41.170  28.791  30.885  1.00  0.00     0.074 A 
ATOM     54  C   UNL A   1      42.050  32.124  36.204  1.00  0.00     0.029 A 
ATOM     55  N   UNL A   1      41.332  31.384  34.233  1.00  0.00    -0.354 N 
ATOM     56  N   UNL A   1      41.278  29.533  31.960  1.00  0.00    -0.248 NA
ATOM     57  C   UNL A   1      42.176  27.724  30.784  1.00  0.00     0.031 C 
ATOM     58  C   UNL A   1      42.856  31.051  35.816  1.00  0.00     0.029 A 
ATOM     59  C   UNL A   1      42.389  30.569  34.603  1.00  0.00     0.049 A 
ATOM     60  H   UNL A   1      40.806  31.287  33.406  1.00  0.00     0.167 HD
ATOM     61  C   UNL A   1      42.355  29.020  32.668  1.00  0.00     0.074 A 
ATOM     62  C   UNL A   1      42.854  27.889  31.912  1.00  0.00     0.031 C 
ATOM     63  C   UNL A   1      42.882  29.451  33.839  1.00  0.00     0.031 A 
BRANCH  50  64
ATOM     64  C   UNL A   1      40.076  34.388  36.253  1.00  0.00    -0.014 A 
ATOM     65  C   UNL A   1      40.920  35.511  36.222  1.00  0.00     0.009 A 
ATOM     66  C   UNL A   1      39.274  34.174  37.384  1.00  0.00     0.009 A 
ATOM     67  C   UNL A   1      40.972  36.391  37.304  1.00  0.00     0.001 A 
ATOM     68  C   UNL A   1      39.306  35.073  38.454  1.00  0.00     0.001 A 
ATOM     69  C   UNL A   1      40.161  36.173  38.417  1.00  0.00     0.000 A 
ENDBRANCH  50  64
BRANCH  51  70
ATOM     70  C   UNL A   1      40.151  27.914  28.650  1.00  0.00    -0.014 A 
ATOM     71  C   UNL A   1      39.473  26.691  28.780  1.00  0.00     0.009 A 
ATOM     72  C   UNL A   1      40.873  28.167  27.475  1.00  0.00     0.009 A 
ATOM     73  C   UNL A   1      39.546  25.727  27.774  1.00  0.00     0.001 A 
ATOM     74  C   UNL A   1      40.919  27.214  26.456  1.00  0.00     0.001 A 
ATOM     75  C   UNL A   1      40.267  25.991  26.611  1.00  0.00     0.000 A 
ENDBRANCH  51  70
BRANCH  63  76
ATOM     76  C   UNL A   1      44.060  28.704  34.396  1.00  0.00    -0.014 A 
ATOM     77  C   UNL A   1      43.852  27.617  35.261  1.00  0.00     0.009 A 
ATOM     78  C   UNL A   1      45.371  29.138  34.153  1.00  0.00     0.009 A 
ATOM     79  C   UNL A   1      44.930  26.992  35.885  1.00  0.00     0.001 A 
ATOM     80  C   UNL A   1      46.452  28.492  34.757  1.00  0.00     0.001 A 
ATOM     81  C   UNL A   1      46.230  27.427  35.630  1.00  0.00     0.000 A 
ENDBRANCH  63  76
ENDBRANCH  37  38
ENDBRANCH  29  32
ENDBRANCH  27  28
ENDBRANCH  26  27
ENDBRANCH  25  26
ENDBRANCH  24  25
ENDBRANCH   1  24
TORSDOF 17
ENDMDL
MODEL 2
REMARK VINA RESULT:     -10.8      3.510      7.566
REMARK SMILES Cc1cc(NC(=O)CC(C)(C)CC(=O)NCCCCCCNC(=O)c2ccc(-c3c4nc(c(-c5ccccc5)c5ccc([nH]5)c(-c5ccccc5)c5nc(c(-c6ccccc6)c6ccc3[nH]6)C=C5)C=C4)cc2)ncc1Br
REMARK SMILES IDX 17 1 16 2 15 3 13 4 14 5 12 7 9 8 10 9 11 10 8 11 6 12 5 13
REMARK SMILES IDX 7 15 4 16 1 17 2 18 3 19 75 20 74 21 76 22 73 23 18 24 19 25
REMARK SMILES IDX 20 26 21 27 22 28 23 29 24 31 25 32 26 33 72 34 27 35 71 36
REMARK SMILES IDX 28 37 29 38 30 39 65 40 31 41 70 42 64 43 66 44 32 45 69 46
REMARK SMILES IDX 63 47 62 48 33 50 55 51 40 52 54 53 41 54 44 55 53 56 67 57
REMARK SMILES IDX 42 58 43 59 52 61 68 62 45 63 34 64 35 65 39 66 36 67 38 68
REMARK SMILES IDX 37 69 56 70 57 71 61 72 58 73 60 74 59 75 46 76 47 77 51 78
REMARK SMILES IDX 48 79 50 80 49 81
REMARK H PARENT 15 6 5 14 22 30 66 49 44 60
REMARK Flexibility Score: inf
ROOT
ATOM      1  C   UNL A   1      31.214  28.616  23.046  1.00  0.00     0.021 C 
ENDROOT
BRANCH   1   2
ATOM      2  C   UNL A   1      30.758  27.173  22.838  1.00  0.00     0.116 C 
BRANCH   2   3
ATOM      3  N   UNL A   1      31.507  26.583  21.750  1.00  0.00    -0.356 N 
ATOM      4  C   UNL A   1      32.793  26.145  21.713  1.00  0.00     0.220 C 
ATOM      5  O   UNL A   1      33.261  25.839  20.616  1.00  0.00    -0.275 OA
ATOM      6  H   UNL A   1      31.008  26.484  20.907  1.00  0.00     0.163 HD
BRANCH   4   7
ATOM      7  C   UNL A   1      33.589  25.964  22.993  1.00  0.00     0.107 C 
BRANCH   7   8
ATOM      8  C   UNL A   1      33.692  24.558  23.650  1.00  0.00    -0.018 C 
ATOM      9  C   UNL A   1      34.774  24.719  24.747  1.00  0.00     0.012 C 
ATOM     10  C   UNL A   1      34.234  23.491  22.679  1.00  0.00     0.012 C 
BRANCH   8  11
ATOM     11  C   UNL A   1      32.311  24.041  24.159  1.00  0.00     0.107 C 
BRANCH  11  12
ATOM     12  C   UNL A   1      32.129  23.933  25.661  1.00  0.00     0.226 C 
ATOM     13  N   UNL A   1      32.369  22.775  26.336  1.00  0.00    -0.311 N 
ATOM     14  H   UNL A   1      32.229  22.825  27.309  1.00  0.00     0.171 HD
ATOM     15  O   UNL A   1      31.811  24.923  26.327  1.00  0.00    -0.275 OA
BRANCH  13  16
ATOM     16  C   UNL A   1      32.781  21.528  25.864  1.00  0.00     0.132 A 
ATOM     17  C   UNL A   1      36.123  20.020  24.934  1.00  0.00     0.046 C 
ATOM     18  C   UNL A   1      34.640  20.178  25.095  1.00  0.00    -0.032 A 
ATOM     19  C   UNL A   1      34.152  21.317  25.760  1.00  0.00     0.051 A 
ATOM     20  C   UNL A   1      33.713  19.241  24.635  1.00  0.00     0.039 A 
ATOM     21  C   UNL A   1      32.367  19.497  24.843  1.00  0.00     0.129 A 
ATOM     22  Br  UNL A   1      34.197  17.658  23.721  1.00  0.00    -0.049 Br
ATOM     23  N   UNL A   1      31.891  20.618  25.438  1.00  0.00    -0.238 NA
ENDBRANCH  13  16
ENDBRANCH  11  12
ENDBRANCH   8  11
ENDBRANCH   7   8
ENDBRANCH   4   7
ENDBRANCH   2   3
ENDBRANCH   1   2
BRANCH   1  24
ATOM     24  C   UNL A   1      31.415  28.985  24.518  1.00  0.00     0.002 C 
BRANCH  24  25
ATOM     25  C   UNL A   1      32.843  29.399  24.883  1.00  0.00     0.002 C 
BRANCH  25  26
ATOM     26  C   UNL A   1      33.586  28.415  25.788  1.00  0.00     0.021 C 
BRANCH  26  27
ATOM     27  C   UNL A   1      33.366  28.646  27.279  1.00  0.00     0.116 C 
BRANCH  27  28
ATOM     28  N   UNL A   1      33.421  30.057  27.631  1.00  0.00    -0.352 N 
ATOM     29  C   UNL A   1      34.443  30.761  28.218  1.00  0.00     0.251 C 
ATOM     30  H   UNL A   1      32.612  30.579  27.419  1.00  0.00     0.163 HD
ATOM     31  O   UNL A   1      34.270  31.904  28.628  1.00  0.00    -0.269 OA
BRANCH  29  32
ATOM     32  C   UNL A   1      35.754  30.104  28.376  1.00  0.00     0.039 A 
ATOM     33  C   UNL A   1      36.110  29.553  29.609  1.00  0.00     0.014 A 
ATOM     34  C   UNL A   1      36.653  30.105  27.309  1.00  0.00     0.014 A 
ATOM     35  C   UNL A   1      37.424  29.164  29.826  1.00  0.00     0.010 A 
ATOM     36  C   UNL A   1      37.951  29.629  27.506  1.00  0.00     0.010 A 
ATOM     37  C   UNL A   1      38.362  29.205  28.780  1.00  0.00    -0.014 A 
BRANCH  37  38
ATOM     38  C   UNL A   1      39.766  28.806  29.046  1.00  0.00     0.031 A 
ATOM     39  C   UNL A   1      40.276  27.454  28.627  1.00  0.00     0.074 A 
ATOM     40  C   UNL A   1      40.601  29.695  29.617  1.00  0.00     0.049 A 
ATOM     41  N   UNL A   1      41.480  26.955  28.756  1.00  0.00    -0.248 NA
ATOM     42  C   UNL A   1      39.318  26.542  27.982  1.00  0.00     0.031 C 
ATOM     43  C   UNL A   1      40.227  31.046  30.042  1.00  0.00     0.029 A 
ATOM     44  N   UNL A   1      41.939  29.613  29.909  1.00  0.00    -0.354 N 
ATOM     45  C   UNL A   1      41.419  25.671  28.230  1.00  0.00     0.074 A 
ATOM     46  C   UNL A   1      40.056  25.453  27.802  1.00  0.00     0.031 C 
ATOM     47  C   UNL A   1      41.319  31.685  30.484  1.00  0.00     0.029 A 
ATOM     48  C   UNL A   1      42.454  30.769  30.442  1.00  0.00     0.049 A 
ATOM     49  H   UNL A   1      42.476  28.804  29.752  1.00  0.00     0.167 HD
ATOM     50  C   UNL A   1      42.414  24.761  28.108  1.00  0.00     0.031 A 
ATOM     51  C   UNL A   1      43.698  31.063  30.865  1.00  0.00     0.031 A 
ATOM     52  C   UNL A   1      43.773  24.987  28.524  1.00  0.00     0.049 A 
ATOM     53  C   UNL A   1      44.770  30.018  30.763  1.00  0.00     0.074 A 
ATOM     54  C   UNL A   1      44.856  24.131  28.417  1.00  0.00     0.029 A 
ATOM     55  N   UNL A   1      44.237  26.147  29.124  1.00  0.00    -0.354 N 
ATOM     56  N   UNL A   1      44.696  28.812  30.256  1.00  0.00    -0.248 NA
ATOM     57  C   UNL A   1      46.094  30.370  31.295  1.00  0.00     0.031 C 
ATOM     58  C   UNL A   1      45.960  24.749  29.007  1.00  0.00     0.029 A 
ATOM     59  C   UNL A   1      45.584  26.017  29.419  1.00  0.00     0.049 A 
ATOM     60  H   UNL A   1      43.691  26.945  29.312  1.00  0.00     0.167 HD
ATOM     61  C   UNL A   1      45.964  28.263  30.397  1.00  0.00     0.074 A 
ATOM     62  C   UNL A   1      46.793  29.276  31.019  1.00  0.00     0.031 C 
ATOM     63  C   UNL A   1      46.396  27.029  30.045  1.00  0.00     0.031 A 
BRANCH  50  64
ATOM     64  C   UNL A   1      42.080  23.419  27.514  1.00  0.00    -0.014 A 
ATOM     65  C   UNL A   1      41.572  22.401  28.339  1.00  0.00     0.009 A 
ATOM     66  C   UNL A   1      42.356  23.128  26.170  1.00  0.00     0.009 A 
ATOM     67  C   UNL A   1      41.361  21.117  27.834  1.00  0.00     0.001 A 
ATOM     68  C   UNL A   1      42.117  21.849  25.660  1.00  0.00     0.001 A 
ATOM     69  C   UNL A   1      41.630  20.844  26.494  1.00  0.00     0.000 A 
ENDBRANCH  50  64
BRANCH  51  70
ATOM     70  C   UNL A   1      43.974  32.414  31.416  1.00  0.00    -0.014 A 
ATOM     71  C   UNL A   1      43.782  32.678  32.783  1.00  0.00     0.009 A 
ATOM     72  C   UNL A   1      44.356  33.465  30.571  1.00  0.00     0.009 A 
ATOM     73  C   UNL A   1      43.932  33.971  33.285  1.00  0.00     0.001 A 
ATOM     74  C   UNL A   1      44.536  34.752  31.081  1.00  0.00     0.001 A 
ATOM     75  C   UNL A   1      44.312  35.007  32.434  1.00  0.00     0.000 A 
ENDBRANCH  51  70
BRANCH  63  76
ATOM     76  C   UNL A   1      47.836  26.689  30.310  1.00  0.00    -0.014 A 
ATOM     77  C   UNL A   1      48.192  26.046  31.506  1.00  0.00     0.009 A 
ATOM     78  C   UNL A   1      48.848  27.097  29.428  1.00  0.00     0.009 A 
ATOM     79  C   UNL A   1      49.533  25.835  31.825  1.00  0.00     0.001 A 
ATOM     80  C   UNL A   1      50.189  26.858  29.737  1.00  0.00     0.001 A 
ATOM     81  C   UNL A   1      50.530  26.238  30.938  1.00  0.00     0.000 A 
ENDBRANCH  63  76
ENDBRANCH  37  38
ENDBRANCH  29  32
ENDBRANCH  27  28
ENDBRANCH  26  27
ENDBRANCH  25  26
ENDBRANCH  24  25
ENDBRANCH   1  24
TORSDOF 17
ENDMDL
MODEL 3
REMARK VINA RESULT:     -10.7      2.258      3.384
REMARK SMILES Cc1cc(NC(=O)CC(C)(C)CC(=O)NCCCCCCNC(=O)c2ccc(-c3c4nc(c(-c5ccccc5)c5ccc([nH]5)c(-c5ccccc5)c5nc(c(-c6ccccc6)c6ccc3[nH]6)C=C5)C=C4)cc2)ncc1Br
REMARK SMILES IDX 17 1 16 2 15 3 13 4 14 5 12 7 9 8 10 9 11 10 8 11 6 12 5 13
REMARK SMILES IDX 7 15 4 16 1 17 2 18 3 19 75 20 74 21 76 22 73 23 18 24 19 25
REMARK SMILES IDX 20 26 21 27 22 28 23 29 24 31 25 32 26 33 72 34 27 35 71 36
REMARK SMILES IDX 28 37 29 38 30 39 65 40 31 41 70 42 64 43 66 44 32 45 69 46
REMARK SMILES IDX 63 47 62 48 33 50 55 51 40 52 54 53 41 54 44 55 53 56 67 57
REMARK SMILES IDX 42 58 43 59 52 61 68 62 45 63 34 64 35 65 39 66 36 67 38 68
REMARK SMILES IDX 37 69 56 70 57 71 61 72 58 73 60 74 59 75 46 76 47 77 51 78
REMARK SMILES IDX 48 79 50 80 49 81
REMARK H PARENT 15 6 5 14 22 30 66 49 44 60
REMARK Flexibility Score: inf
ROOT
ATOM      1  C   UNL A   1      33.783  27.693  26.242  1.00  0.00     0.021 C 
ENDROOT
BRANCH   1   2
ATOM      2  C   UNL A   1      33.403  26.217  26.123  1.00  0.00     0.116 C 
BRANCH   2   3
ATOM      3  N   UNL A   1      34.412  25.520  25.357  1.00  0.00    -0.356 N 
ATOM      4  C   UNL A   1      34.822  24.226  25.427  1.00  0.00     0.220 C 
ATOM      5  O   UNL A   1      35.823  23.908  24.785  1.00  0.00    -0.275 OA
ATOM      6  H   UNL A   1      34.873  26.067  24.681  1.00  0.00     0.163 HD
BRANCH   4   7
ATOM      7  C   UNL A   1      34.019  23.199  26.205  1.00  0.00     0.107 C 
BRANCH   7   8
ATOM      8  C   UNL A   1      33.207  22.111  25.444  1.00  0.00    -0.018 C 
ATOM      9  C   UNL A   1      31.725  22.474  25.712  1.00  0.00     0.012 C 
ATOM     10  C   UNL A   1      33.407  20.703  26.034  1.00  0.00     0.012 C 
BRANCH   8  11
ATOM     11  C   UNL A   1      33.601  22.026  23.937  1.00  0.00     0.107 C 
BRANCH  11  12
ATOM     12  C   UNL A   1      32.466  21.950  22.934  1.00  0.00     0.226 C 
ATOM     13  N   UNL A   1      31.922  23.065  22.374  1.00  0.00    -0.311 N 
ATOM     14  H   UNL A   1      31.200  22.894  21.727  1.00  0.00     0.171 HD
ATOM     15  O   UNL A   1      32.041  20.856  22.549  1.00  0.00    -0.275 OA
BRANCH  13  16
ATOM     16  C   UNL A   1      32.227  24.412  22.574  1.00  0.00     0.132 A 
ATOM     17  C   UNL A   1      30.292  27.405  23.841  1.00  0.00     0.046 C 
ATOM     18  C   UNL A   1      31.396  26.589  23.235  1.00  0.00    -0.032 A 
ATOM     19  C   UNL A   1      31.255  25.191  23.193  1.00  0.00     0.051 A 
ATOM     20  C   UNL A   1      32.570  27.145  22.723  1.00  0.00     0.039 A 
ATOM     21  C   UNL A   1      33.518  26.288  22.187  1.00  0.00     0.129 A 
ATOM     22  Br  UNL A   1      32.919  29.003  22.699  1.00  0.00    -0.049 Br
ATOM     23  N   UNL A   1      33.364  24.945  22.100  1.00  0.00    -0.238 NA
ENDBRANCH  13  16
ENDBRANCH  11  12
ENDBRANCH   8  11
ENDBRANCH   7   8
ENDBRANCH   4   7
ENDBRANCH   2   3
ENDBRANCH   1   2
BRANCH   1  24
ATOM     24  C   UNL A   1      32.954  28.453  27.280  1.00  0.00     0.002 C 
BRANCH  24  25
ATOM     25  C   UNL A   1      31.665  29.075  26.736  1.00  0.00     0.002 C 
BRANCH  25  26
ATOM     26  C   UNL A   1      31.782  30.544  26.330  1.00  0.00     0.021 C 
BRANCH  26  27
ATOM     27  C   UNL A   1      32.835  31.328  27.106  1.00  0.00     0.116 C 
BRANCH  27  28
ATOM     28  N   UNL A   1      32.437  32.710  27.331  1.00  0.00    -0.352 N 
ATOM     29  C   UNL A   1      33.042  33.666  28.110  1.00  0.00     0.251 C 
ATOM     30  H   UNL A   1      31.621  32.999  26.860  1.00  0.00     0.163 HD
ATOM     31  O   UNL A   1      32.484  34.731  28.352  1.00  0.00    -0.269 OA
BRANCH  29  32
ATOM     32  C   UNL A   1      34.371  33.376  28.678  1.00  0.00     0.039 A 
ATOM     33  C   UNL A   1      35.521  33.704  27.957  1.00  0.00     0.014 A 
ATOM     34  C   UNL A   1      34.463  32.711  29.902  1.00  0.00     0.014 A 
ATOM     35  C   UNL A   1      36.750  33.210  28.374  1.00  0.00     0.010 A 
ATOM     36  C   UNL A   1      35.713  32.293  30.364  1.00  0.00     0.010 A 
ATOM     37  C   UNL A   1      36.858  32.492  29.577  1.00  0.00    -0.014 A 
BRANCH  37  38
ATOM     38  C   UNL A   1      38.180  31.955  29.986  1.00  0.00     0.031 A 
ATOM     39  C   UNL A   1      39.021  32.672  31.007  1.00  0.00     0.074 A 
ATOM     40  C   UNL A   1      38.594  30.780  29.475  1.00  0.00     0.049 A 
ATOM     41  N   UNL A   1      40.185  32.328  31.499  1.00  0.00    -0.248 NA
ATOM     42  C   UNL A   1      38.495  33.936  31.547  1.00  0.00     0.031 C 
ATOM     43  C   UNL A   1      37.851  29.980  28.498  1.00  0.00     0.029 A 
ATOM     44  N   UNL A   1      39.719  30.038  29.727  1.00  0.00    -0.354 N 
ATOM     45  C   UNL A   1      40.537  33.337  32.385  1.00  0.00     0.074 A 
ATOM     46  C   UNL A   1      39.480  34.322  32.348  1.00  0.00     0.031 C 
ATOM     47  C   UNL A   1      38.510  28.834  28.278  1.00  0.00     0.029 A 
ATOM     48  C   UNL A   1      39.754  28.849  29.041  1.00  0.00     0.049 A 
ATOM     49  H   UNL A   1      40.432  30.329  30.339  1.00  0.00     0.167 HD
ATOM     50  C   UNL A   1      41.641  33.428  33.165  1.00  0.00     0.031 A 
ATOM     51  C   UNL A   1      40.686  27.877  29.013  1.00  0.00     0.031 A 
ATOM     52  C   UNL A   1      42.685  32.438  33.208  1.00  0.00     0.049 A 
ATOM     53  C   UNL A   1      41.923  28.027  29.850  1.00  0.00     0.074 A 
ATOM     54  C   UNL A   1      43.829  32.434  33.987  1.00  0.00     0.029 A 
ATOM     55  N   UNL A   1      42.714  31.283  32.445  1.00  0.00    -0.354 N 
ATOM     56  N   UNL A   1      42.236  28.985  30.688  1.00  0.00    -0.248 NA
ATOM     57  C   UNL A   1      42.935  26.968  29.736  1.00  0.00     0.031 C 
ATOM     58  C   UNL A   1      44.581  31.306  33.651  1.00  0.00     0.029 A 
ATOM     59  C   UNL A   1      43.872  30.572  32.713  1.00  0.00     0.049 A 
ATOM     60  H   UNL A   1      42.017  31.007  31.807  1.00  0.00     0.167 HD
ATOM     61  C   UNL A   1      43.476  28.641  31.210  1.00  0.00     0.074 A 
ATOM     62  C   UNL A   1      43.848  27.376  30.609  1.00  0.00     0.031 C 
ATOM     63  C   UNL A   1      44.236  29.317  32.104  1.00  0.00     0.031 A 
BRANCH  50  64
ATOM     64  C   UNL A   1      41.798  34.647  34.034  1.00  0.00    -0.014 A 
ATOM     65  C   UNL A   1      42.477  35.771  33.537  1.00  0.00     0.009 A 
ATOM     66  C   UNL A   1      41.365  34.651  35.368  1.00  0.00     0.009 A 
ATOM     67  C   UNL A   1      42.733  36.869  34.361  1.00  0.00     0.001 A 
ATOM     68  C   UNL A   1      41.597  35.763  36.183  1.00  0.00     0.001 A 
ATOM     69  C   UNL A   1      42.288  36.865  35.682  1.00  0.00     0.000 A 
ENDBRANCH  50  64
BRANCH  51  70
ATOM     70  C   UNL A   1      40.463  26.684  28.157  1.00  0.00    -0.014 A 
ATOM     71  C   UNL A   1      40.985  26.635  26.854  1.00  0.00     0.009 A 
ATOM     72  C   UNL A   1      39.666  25.623  28.608  1.00  0.00     0.009 A 
ATOM     73  C   UNL A   1      40.684  25.567  26.007  1.00  0.00     0.001 A 
ATOM     74  C   UNL A   1      39.392  24.540  27.770  1.00  0.00     0.001 A 
ATOM     75  C   UNL A   1      39.890  24.519  26.468  1.00  0.00     0.000 A 
ENDBRANCH  51  70
BRANCH  63  76
ATOM     76  C   UNL A   1      45.551  28.713  32.506  1.00  0.00    -0.014 A 
ATOM     77  C   UNL A   1      45.634  27.939  33.674  1.00  0.00     0.009 A 
ATOM     78  C   UNL A   1      46.724  28.997  31.792  1.00  0.00     0.009 A 
ATOM     79  C   UNL A   1      46.868  27.476  34.131  1.00  0.00     0.001 A 
ATOM     80  C   UNL A   1      47.955  28.507  32.235  1.00  0.00     0.001 A 
ATOM     81  C   UNL A   1      48.027  27.757  33.408  1.00  0.00     0.000 A 
ENDBRANCH  63  76
ENDBRANCH  37  38
ENDBRANCH  29  32
ENDBRANCH  27  28
ENDBRANCH  26  27
ENDBRANCH  25  26
ENDBRANCH  24  25
ENDBRANCH   1  24
TORSDOF 17
ENDMDL
