MODEL 1
REMARK VINA RESULT:     -11.0      0.000      0.000
REMARK SMILES O=C(NCCCCCCNC(=O)[C@@H]1[C@@H](C(=O)NCCn2cc(Cl)cn2)[C@H]2CC[C@@H]1O2)c1ccc(-c2c3nc(c(-c4ccccc4)c4ccc([nH]4)c(-c4ccccc4)c4nc(c(-c5ccccc5)c5ccc2[nH]5)C=C4)C=C3)cc1
REMARK SMILES IDX 7 1 6 2 5 3 4 4 3 5 1 6 2 7 31 9 32 10 78 11 33 12 77 13
REMARK SMILES IDX 34 14 35 15 36 16 71 17 37 18 76 19 70 20 72 21 38 22 75 23
REMARK SMILES IDX 69 24 68 25 39 27 61 28 46 29 60 30 47 31 50 32 59 33 73 34
REMARK SMILES IDX 48 35 49 36 58 38 74 39 51 40 40 41 41 42 45 43 42 44 44 45
REMARK SMILES IDX 43 46 62 47 63 48 67 49 64 50 66 51 65 52 52 53 53 54 57 55
REMARK SMILES IDX 54 56 56 57 55 58 8 59 9 60 10 61 11 62 12 64 13 65 14 66
REMARK SMILES IDX 29 67 26 68 28 69 30 70 27 71 15 72 16 73 17 74 18 76 19 77
REMARK SMILES IDX 20 78 21 79 25 80 22 81 24 82 23 83
REMARK H PARENT 3 8 72 26 50 37 10 63 17 75
REMARK Flexibility Score: inf
ROOT
ATOM      1  C   UNL A   1      40.240  21.555  26.313  1.00  0.00     0.002 C 
ENDROOT
BRANCH   1   2
ATOM      2  C   UNL A   1      41.075  21.091  27.511  1.00  0.00     0.002 C 
BRANCH   2   3
ATOM      3  C   UNL A   1      42.201  20.103  27.181  1.00  0.00     0.021 C 
BRANCH   3   4
ATOM      4  C   UNL A   1      42.155  19.555  25.753  1.00  0.00     0.116 C 
BRANCH   4   5
ATOM      5  N   UNL A   1      43.374  19.784  25.008  1.00  0.00    -0.352 N 
ATOM      6  O   UNL A   1      45.302  20.570  24.276  1.00  0.00    -0.269 OA
ATOM      7  C   UNL A   1      44.308  20.779  24.975  1.00  0.00     0.251 C 
ATOM      8  H   UNL A   1      43.577  19.053  24.380  1.00  0.00     0.163 HD
BRANCH   7   9
ATOM      9  C   UNL A   1      44.181  22.099  25.655  1.00  0.00     0.039 A 
ATOM     10  C   UNL A   1      44.803  22.476  26.846  1.00  0.00     0.014 A 
ATOM     11  C   UNL A   1      43.310  23.016  25.035  1.00  0.00     0.014 A 
ATOM     12  C   UNL A   1      44.495  23.692  27.450  1.00  0.00     0.010 A 
ATOM     13  C   UNL A   1      43.007  24.236  25.625  1.00  0.00     0.010 A 
ATOM     14  C   UNL A   1      43.572  24.553  26.855  1.00  0.00    -0.014 A 
BRANCH  14  15
ATOM     15  C   UNL A   1      43.325  25.845  27.486  1.00  0.00     0.031 A 
ATOM     16  C   UNL A   1      44.309  26.910  27.139  1.00  0.00     0.074 A 
ATOM     17  C   UNL A   1      42.215  26.113  28.204  1.00  0.00     0.049 A 
ATOM     18  N   UNL A   1      45.059  27.601  27.936  1.00  0.00    -0.248 NA
ATOM     19  C   UNL A   1      44.549  27.177  25.711  1.00  0.00     0.031 C 
ATOM     20  C   UNL A   1      41.030  25.270  28.381  1.00  0.00     0.029 A 
ATOM     21  N   UNL A   1      41.865  27.269  28.836  1.00  0.00    -0.354 N 
ATOM     22  C   UNL A   1      45.754  28.502  27.129  1.00  0.00     0.074 A 
ATOM     23  C   UNL A   1      45.493  28.116  25.766  1.00  0.00     0.031 C 
ATOM     24  C   UNL A   1      40.013  26.025  28.856  1.00  0.00     0.029 A 
ATOM     25  C   UNL A   1      40.514  27.358  29.146  1.00  0.00     0.049 A 
ATOM     26  H   UNL A   1      42.513  27.977  29.053  1.00  0.00     0.167 HD
ATOM     27  C   UNL A   1      46.328  29.631  27.632  1.00  0.00     0.031 A 
ATOM     28  C   UNL A   1      39.843  28.468  29.545  1.00  0.00     0.031 A 
ATOM     29  C   UNL A   1      46.513  29.553  29.055  1.00  0.00     0.049 A 
ATOM     30  C   UNL A   1      40.838  29.446  30.035  1.00  0.00     0.074 A 
ATOM     31  C   UNL A   1      47.232  28.737  29.905  1.00  0.00     0.029 A 
ATOM     32  N   UNL A   1      45.604  30.212  29.847  1.00  0.00    -0.354 N 
ATOM     33  N   UNL A   1      41.539  29.278  31.119  1.00  0.00    -0.248 NA
ATOM     34  C   UNL A   1      41.371  30.412  29.087  1.00  0.00     0.031 C 
ATOM     35  C   UNL A   1      46.394  28.576  31.048  1.00  0.00     0.029 A 
ATOM     36  C   UNL A   1      45.249  29.350  30.849  1.00  0.00     0.049 A 
ATOM     37  H   UNL A   1      45.271  31.129  29.718  1.00  0.00     0.167 HD
ATOM     38  C   UNL A   1      42.797  29.765  30.802  1.00  0.00     0.074 A 
ATOM     39  C   UNL A   1      42.609  30.538  29.575  1.00  0.00     0.031 C 
ATOM     40  C   UNL A   1      43.918  29.266  31.402  1.00  0.00     0.031 A 
BRANCH  27  41
ATOM     41  C   UNL A   1      46.340  30.954  26.902  1.00  0.00    -0.014 A 
ATOM     42  C   UNL A   1      47.529  31.707  26.891  1.00  0.00     0.009 A 
ATOM     43  C   UNL A   1      45.169  31.620  26.500  1.00  0.00     0.009 A 
ATOM     44  C   UNL A   1      47.524  33.076  26.593  1.00  0.00     0.001 A 
ATOM     45  C   UNL A   1      45.167  32.977  26.161  1.00  0.00     0.001 A 
ATOM     46  C   UNL A   1      46.339  33.712  26.241  1.00  0.00     0.000 A 
ENDBRANCH  27  41
BRANCH  28  47
ATOM     47  C   UNL A   1      38.446  28.855  29.248  1.00  0.00    -0.014 A 
ATOM     48  C   UNL A   1      37.506  29.025  30.279  1.00  0.00     0.009 A 
ATOM     49  C   UNL A   1      38.105  29.329  27.969  1.00  0.00     0.009 A 
ATOM     50  C   UNL A   1      36.286  29.673  30.041  1.00  0.00     0.001 A 
ATOM     51  C   UNL A   1      36.887  29.974  27.731  1.00  0.00     0.001 A 
ATOM     52  C   UNL A   1      35.983  30.159  28.771  1.00  0.00     0.000 A 
ENDBRANCH  28  47
BRANCH  40  53
ATOM     53  C   UNL A   1      43.741  28.328  32.569  1.00  0.00    -0.014 A 
ATOM     54  C   UNL A   1      43.601  26.937  32.417  1.00  0.00     0.009 A 
ATOM     55  C   UNL A   1      43.895  28.844  33.863  1.00  0.00     0.009 A 
ATOM     56  C   UNL A   1      43.594  26.092  33.532  1.00  0.00     0.001 A 
ATOM     57  C   UNL A   1      43.908  27.999  34.974  1.00  0.00     0.001 A 
ATOM     58  C   UNL A   1      43.754  26.625  34.810  1.00  0.00     0.000 A 
ENDBRANCH  40  53
ENDBRANCH  14  15
ENDBRANCH   7   9
ENDBRANCH   4   5
ENDBRANCH   3   4
ENDBRANCH   2   3
ENDBRANCH   1   2
BRANCH   1  59
ATOM     59  C   UNL A   1      39.532  22.903  26.499  1.00  0.00     0.021 C 
BRANCH  59  60
ATOM     60  C   UNL A   1      38.029  22.854  26.233  1.00  0.00     0.116 C 
BRANCH  60  61
ATOM     61  N   UNL A   1      37.742  23.087  24.828  1.00  0.00    -0.356 N 
ATOM     62  C   UNL A   1      36.543  23.342  24.222  1.00  0.00     0.226 C 
ATOM     63  H   UNL A   1      38.520  23.056  24.227  1.00  0.00     0.163 HD
ATOM     64  O   UNL A   1      36.496  23.337  22.995  1.00  0.00    -0.275 OA
BRANCH  62  65
ATOM     65  C   UNL A   1      35.342  23.624  25.105  1.00  0.00     0.122 C 
ATOM     66  C   UNL A   1      34.171  22.636  24.901  1.00  0.00     0.122 C 
ATOM     67  C   UNL A   1      34.710  24.958  24.691  1.00  0.00     0.132 C 
ATOM     68  C   UNL A   1      33.057  23.583  24.431  1.00  0.00     0.132 C 
ATOM     69  C   UNL A   1      33.723  25.435  25.756  1.00  0.00     0.035 C 
ATOM     70  O   UNL A   1      33.802  24.544  23.644  1.00  0.00    -0.373 OA
ATOM     71  C   UNL A   1      32.537  24.495  25.540  1.00  0.00     0.035 C 
BRANCH  66  72
ATOM     72  C   UNL A   1      33.842  21.880  26.177  1.00  0.00     0.226 C 
ATOM     73  O   UNL A   1      34.377  22.136  27.248  1.00  0.00    -0.275 OA
ATOM     74  N   UNL A   1      32.933  20.869  26.136  1.00  0.00    -0.354 N 
ATOM     75  H   UNL A   1      32.763  20.442  27.007  1.00  0.00     0.163 HD
BRANCH  74  76
ATOM     76  C   UNL A   1      32.172  20.308  25.033  1.00  0.00     0.139 C 
BRANCH  76  77
ATOM     77  C   UNL A   1      33.062  19.593  24.017  1.00  0.00     0.165 C 
BRANCH  77  78
ATOM     78  N   UNL A   1      33.263  18.175  24.263  1.00  0.00    -0.269 N 
ATOM     79  C   UNL A   1      32.486  17.386  25.065  1.00  0.00     0.129 A 
ATOM     80  N   UNL A   1      34.232  17.488  23.619  1.00  0.00    -0.180 NA
ATOM     81  C   UNL A   1      32.983  16.113  24.935  1.00  0.00     0.079 A 
ATOM     82  C   UNL A   1      34.058  16.230  24.038  1.00  0.00     0.155 A 
ATOM     83  Cl  UNL A   1      32.431  14.696  25.671  1.00  0.00    -0.081 Cl
ENDBRANCH  77  78
ENDBRANCH  76  77
ENDBRANCH  74  76
ENDBRANCH  66  72
ENDBRANCH  62  65
ENDBRANCH  60  61
ENDBRANCH  59  60
ENDBRANCH   1  59
TORSDOF 17
ENDMDL
MODEL 2
REMARK VINA RESULT:     -10.9      2.931      8.009
REMARK SMILES O=C(NCCCCCCNC(=O)[C@@H]1[C@@H](C(=O)NCCn2cc(Cl)cn2)[C@H]2CC[C@@H]1O2)c1ccc(-c2c3nc(c(-c4ccccc4)c4ccc([nH]4)c(-c4ccccc4)c4nc(c(-c5ccccc5)c5ccc2[nH]5)C=C4)C=C3)cc1
REMARK SMILES IDX 7 1 6 2 5 3 4 4 3 5 1 6 2 7 31 9 32 10 78 11 33 12 77 13
REMARK SMILES IDX 34 14 35 15 36 16 71 17 37 18 76 19 70 20 72 21 38 22 75 23
REMARK SMILES IDX 69 24 68 25 39 27 61 28 46 29 60 30 47 31 50 32 59 33 73 34
REMARK SMILES IDX 48 35 49 36 58 38 74 39 51 40 40 41 41 42 45 43 42 44 44 45
REMARK SMILES IDX 43 46 62 47 63 48 67 49 64 50 66 51 65 52 52 53 53 54 57 55
REMARK SMILES IDX 54 56 56 57 55 58 8 59 9 60 10 61 11 62 12 64 13 65 14 66
REMARK SMILES IDX 29 67 26 68 28 69 30 70 27 71 15 72 16 73 17 74 18 76 19 77
REMARK SMILES IDX 20 78 21 79 25 80 22 81 24 82 23 83
REMARK H PARENT 3 8 72 26 50 37 10 63 17 75
REMARK Flexibility Score: inf
ROOT
ATOM      1  C   UNL A   1      33.738  29.003  26.903  1.00  0.00     0.002 C 
ENDROOT
BRANCH   1   2
ATOM      2  C   UNL A   1      34.596  30.104  27.537  1.00  0.00     0.002 C 
BRANCH   2   3
ATOM      3  C   UNL A   1      33.898  31.458  27.715  1.00  0.00     0.021 C 
BRANCH   3   4
ATOM      4  C   UNL A   1      34.761  32.523  28.393  1.00  0.00     0.116 C 
BRANCH   4   5
ATOM      5  N   UNL A   1      34.677  32.499  29.838  1.00  0.00    -0.352 N 
ATOM      6  O   UNL A   1      35.108  32.253  31.988  1.00  0.00    -0.269 OA
ATOM      7  C   UNL A   1      35.439  31.963  30.836  1.00  0.00     0.251 C 
ATOM      8  H   UNL A   1      33.888  32.979  30.179  1.00  0.00     0.163 HD
BRANCH   7   9
ATOM      9  C   UNL A   1      36.576  31.022  30.637  1.00  0.00     0.039 A 
ATOM     10  C   UNL A   1      36.494  29.630  30.580  1.00  0.00     0.014 A 
ATOM     11  C   UNL A   1      37.847  31.622  30.545  1.00  0.00     0.014 A 
ATOM     12  C   UNL A   1      37.650  28.855  30.526  1.00  0.00     0.010 A 
ATOM     13  C   UNL A   1      39.004  30.856  30.479  1.00  0.00     0.010 A 
ATOM     14  C   UNL A   1      38.902  29.470  30.512  1.00  0.00    -0.014 A 
BRANCH  14  15
ATOM     15  C   UNL A   1      40.086  28.626  30.391  1.00  0.00     0.031 A 
ATOM     16  C   UNL A   1      40.842  28.421  31.660  1.00  0.00     0.074 A 
ATOM     17  C   UNL A   1      40.397  27.952  29.264  1.00  0.00     0.049 A 
ATOM     18  N   UNL A   1      42.082  28.691  31.908  1.00  0.00    -0.248 NA
ATOM     19  C   UNL A   1      40.091  27.931  32.829  1.00  0.00     0.031 C 
ATOM     20  C   UNL A   1      39.597  27.818  28.044  1.00  0.00     0.029 A 
ATOM     21  N   UNL A   1      41.460  27.134  29.025  1.00  0.00    -0.354 N 
ATOM     22  C   UNL A   1      42.319  28.262  33.214  1.00  0.00     0.074 A 
ATOM     23  C   UNL A   1      41.035  27.917  33.769  1.00  0.00     0.031 C 
ATOM     24  C   UNL A   1      40.079  26.792  27.306  1.00  0.00     0.029 A 
ATOM     25  C   UNL A   1      41.294  26.295  27.931  1.00  0.00     0.049 A 
ATOM     26  H   UNL A   1      42.274  27.138  29.579  1.00  0.00     0.167 HD
ATOM     27  C   UNL A   1      43.576  28.022  33.681  1.00  0.00     0.031 A 
ATOM     28  C   UNL A   1      42.060  25.224  27.603  1.00  0.00     0.031 A 
ATOM     29  C   UNL A   1      44.582  28.655  32.873  1.00  0.00     0.049 A 
ATOM     30  C   UNL A   1      43.350  25.357  28.315  1.00  0.00     0.074 A 
ATOM     31  C   UNL A   1      44.889  29.959  32.540  1.00  0.00     0.029 A 
ATOM     32  N   UNL A   1      45.258  27.868  31.975  1.00  0.00    -0.354 N 
ATOM     33  N   UNL A   1      44.229  26.279  28.046  1.00  0.00    -0.248 NA
ATOM     34  C   UNL A   1      43.476  24.733  29.623  1.00  0.00     0.031 C 
ATOM     35  C   UNL A   1      45.313  29.895  31.179  1.00  0.00     0.029 A 
ATOM     36  C   UNL A   1      45.294  28.554  30.791  1.00  0.00     0.049 A 
ATOM     37  H   UNL A   1      45.644  26.980  32.148  1.00  0.00     0.167 HD
ATOM     38  C   UNL A   1      44.727  26.660  29.282  1.00  0.00     0.074 A 
ATOM     39  C   UNL A   1      44.301  25.609  30.205  1.00  0.00     0.031 C 
ATOM     40  C   UNL A   1      45.194  27.925  29.495  1.00  0.00     0.031 A 
BRANCH  27  41
ATOM     41  C   UNL A   1      43.911  26.884  34.617  1.00  0.00    -0.014 A 
ATOM     42  C   UNL A   1      43.745  25.563  34.158  1.00  0.00     0.009 A 
ATOM     43  C   UNL A   1      44.082  27.052  36.003  1.00  0.00     0.009 A 
ATOM     44  C   UNL A   1      43.652  24.487  35.050  1.00  0.00     0.001 A 
ATOM     45  C   UNL A   1      44.032  25.975  36.892  1.00  0.00     0.001 A 
ATOM     46  C   UNL A   1      43.782  24.696  36.418  1.00  0.00     0.000 A 
ENDBRANCH  27  41
BRANCH  28  47
ATOM     47  C   UNL A   1      41.645  23.954  26.968  1.00  0.00    -0.014 A 
ATOM     48  C   UNL A   1      42.545  23.202  26.194  1.00  0.00     0.009 A 
ATOM     49  C   UNL A   1      40.441  23.338  27.352  1.00  0.00     0.009 A 
ATOM     50  C   UNL A   1      42.260  21.874  25.847  1.00  0.00     0.001 A 
ATOM     51  C   UNL A   1      40.155  22.013  27.004  1.00  0.00     0.001 A 
ATOM     52  C   UNL A   1      41.072  21.276  26.262  1.00  0.00     0.000 A 
ENDBRANCH  28  47
BRANCH  40  53
ATOM     53  C   UNL A   1      45.355  28.833  28.301  1.00  0.00    -0.014 A 
ATOM     54  C   UNL A   1      44.324  29.667  27.831  1.00  0.00     0.009 A 
ATOM     55  C   UNL A   1      46.634  28.977  27.747  1.00  0.00     0.009 A 
ATOM     56  C   UNL A   1      44.567  30.601  26.819  1.00  0.00     0.001 A 
ATOM     57  C   UNL A   1      46.880  29.925  26.751  1.00  0.00     0.001 A 
ATOM     58  C   UNL A   1      45.847  30.734  26.285  1.00  0.00     0.000 A 
ENDBRANCH  40  53
ENDBRANCH  14  15
ENDBRANCH   7   9
ENDBRANCH   4   5
ENDBRANCH   3   4
ENDBRANCH   2   3
ENDBRANCH   1   2
BRANCH   1  59
ATOM     59  C   UNL A   1      32.253  29.351  26.743  1.00  0.00     0.021 C 
BRANCH  59  60
ATOM     60  C   UNL A   1      31.823  29.572  25.295  1.00  0.00     0.116 C 
BRANCH  60  61
ATOM     61  N   UNL A   1      32.976  29.637  24.414  1.00  0.00    -0.356 N 
ATOM     62  C   UNL A   1      33.476  28.682  23.572  1.00  0.00     0.226 C 
ATOM     63  H   UNL A   1      33.468  30.489  24.425  1.00  0.00     0.163 HD
ATOM     64  O   UNL A   1      34.566  28.883  23.042  1.00  0.00    -0.275 OA
BRANCH  62  65
ATOM     65  C   UNL A   1      32.647  27.434  23.336  1.00  0.00     0.122 C 
ATOM     66  C   UNL A   1      33.156  26.193  24.105  1.00  0.00     0.122 C 
ATOM     67  C   UNL A   1      32.801  26.990  21.877  1.00  0.00     0.132 C 
ATOM     68  C   UNL A   1      33.488  25.238  22.949  1.00  0.00     0.132 C 
ATOM     69  C   UNL A   1      31.736  25.955  21.518  1.00  0.00     0.035 C 
ATOM     70  O   UNL A   1      33.981  26.156  21.944  1.00  0.00    -0.373 OA
ATOM     71  C   UNL A   1      32.246  24.706  22.236  1.00  0.00     0.035 C 
BRANCH  66  72
ATOM     72  C   UNL A   1      32.109  25.658  25.068  1.00  0.00     0.226 C 
ATOM     73  O   UNL A   1      30.967  26.099  25.108  1.00  0.00    -0.275 OA
ATOM     74  N   UNL A   1      32.446  24.664  25.932  1.00  0.00    -0.354 N 
ATOM     75  H   UNL A   1      31.708  24.361  26.509  1.00  0.00     0.163 HD
BRANCH  74  76
ATOM     76  C   UNL A   1      33.704  23.972  26.154  1.00  0.00     0.139 C 
BRANCH  76  77
ATOM     77  C   UNL A   1      33.766  22.629  25.428  1.00  0.00     0.165 C 
BRANCH  77  78
ATOM     78  N   UNL A   1      35.103  22.170  25.093  1.00  0.00    -0.269 N 
ATOM     79  C   UNL A   1      35.644  20.965  25.442  1.00  0.00     0.129 A 
ATOM     80  N   UNL A   1      35.914  22.908  24.303  1.00  0.00    -0.180 NA
ATOM     81  C   UNL A   1      36.880  20.919  24.846  1.00  0.00     0.079 A 
ATOM     82  C   UNL A   1      37.000  22.140  24.162  1.00  0.00     0.155 A 
ATOM     83  Cl  UNL A   1      38.020  19.673  24.899  1.00  0.00    -0.081 Cl
ENDBRANCH  77  78
ENDBRANCH  76  77
ENDBRANCH  74  76
ENDBRANCH  66  72
ENDBRANCH  62  65
ENDBRANCH  60  61
ENDBRANCH  59  60
ENDBRANCH   1  59
TORSDOF 17
ENDMDL
MODEL 3
REMARK VINA RESULT:     -10.7      1.928      2.570
REMARK SMILES O=C(NCCCCCCNC(=O)[C@@H]1[C@@H](C(=O)NCCn2cc(Cl)cn2)[C@H]2CC[C@@H]1O2)c1ccc(-c2c3nc(c(-c4ccccc4)c4ccc([nH]4)c(-c4ccccc4)c4nc(c(-c5ccccc5)c5ccc2[nH]5)C=C4)C=C3)cc1
REMARK SMILES IDX 7 1 6 2 5 3 4 4 3 5 1 6 2 7 31 9 32 10 78 11 33 12 77 13
REMARK SMILES IDX 34 14 35 15 36 16 71 17 37 18 76 19 70 20 72 21 38 22 75 23
REMARK SMILES IDX 69 24 68 25 39 27 61 28 46 29 60 30 47 31 50 32 59 33 73 34
REMARK SMILES IDX 48 35 49 36 58 38 74 39 51 40 40 41 41 42 45 43 42 44 44 45
REMARK SMILES IDX 43 46 62 47 63 48 67 49 64 50 66 51 65 52 52 53 53 54 57 55
REMARK SMILES IDX 54 56 56 57 55 58 8 59 9 60 10 61 11 62 12 64 13 65 14 66
REMARK SMILES IDX 29 67 26 68 28 69 30 70 27 71 15 72 16 73 17 74 18 76 19 77
REMARK SMILES IDX 20 78 21 79 25 80 22 81 24 82 23 83
REMARK H PARENT 3 8 72 26 50 37 10 63 17 75
REMARK Flexibility Score: inf
ROOT
ATOM      1  C   UNL A   1      39.547  22.942  26.860  1.00  0.00     0.002 C 
ENDROOT
BRANCH   1   2
ATOM      2  C   UNL A   1      40.816  23.208  27.676  1.00  0.00     0.002 C 
BRANCH   2   3
ATOM      3  C   UNL A   1      42.075  22.483  27.185  1.00  0.00     0.021 C 
BRANCH   3   4
ATOM      4  C   UNL A   1      42.023  22.064  25.714  1.00  0.00     0.116 C 
BRANCH   4   5
ATOM      5  N   UNL A   1      43.113  22.597  24.925  1.00  0.00    -0.352 N 
ATOM      6  O   UNL A   1      44.784  23.819  24.159  1.00  0.00    -0.269 OA
ATOM      7  C   UNL A   1      43.823  23.763  24.930  1.00  0.00     0.251 C 
ATOM      8  H   UNL A   1      43.411  21.975  24.222  1.00  0.00     0.163 HD
BRANCH   7   9
ATOM      9  C   UNL A   1      43.485  24.971  25.734  1.00  0.00     0.039 A 
ATOM     10  C   UNL A   1      44.140  25.405  26.887  1.00  0.00     0.014 A 
ATOM     11  C   UNL A   1      42.366  25.700  25.286  1.00  0.00     0.014 A 
ATOM     12  C   UNL A   1      43.641  26.475  27.624  1.00  0.00     0.010 A 
ATOM     13  C   UNL A   1      41.869  26.776  26.009  1.00  0.00     0.010 A 
ATOM     14  C   UNL A   1      42.487  27.135  27.202  1.00  0.00    -0.014 A 
BRANCH  14  15
ATOM     15  C   UNL A   1      42.033  28.292  27.967  1.00  0.00     0.031 A 
ATOM     16  C   UNL A   1      42.936  29.478  27.905  1.00  0.00     0.074 A 
ATOM     17  C   UNL A   1      40.823  28.353  28.559  1.00  0.00     0.049 A 
ATOM     18  N   UNL A   1      43.509  30.102  28.882  1.00  0.00    -0.248 NA
ATOM     19  C   UNL A   1      43.317  29.976  26.572  1.00  0.00     0.031 C 
ATOM     20  C   UNL A   1      39.719  27.395  28.458  1.00  0.00     0.029 A 
ATOM     21  N   UNL A   1      40.282  29.367  29.292  1.00  0.00    -0.354 N 
ATOM     22  C   UNL A   1      44.198  31.170  28.309  1.00  0.00     0.074 A 
ATOM     23  C   UNL A   1      44.144  30.973  26.882  1.00  0.00     0.031 C 
ATOM     24  C   UNL A   1      38.580  27.981  28.892  1.00  0.00     0.029 A 
ATOM     25  C   UNL A   1      38.902  29.293  29.428  1.00  0.00     0.049 A 
ATOM     26  H   UNL A   1      40.822  30.087  29.689  1.00  0.00     0.167 HD
ATOM     27  C   UNL A   1      44.588  32.255  29.035  1.00  0.00     0.031 A 
ATOM     28  C   UNL A   1      38.076  30.269  29.883  1.00  0.00     0.031 A 
ATOM     29  C   UNL A   1      44.607  31.981  30.446  1.00  0.00     0.049 A 
ATOM     30  C   UNL A   1      38.898  31.243  30.632  1.00  0.00     0.074 A 
ATOM     31  C   UNL A   1      45.300  31.110  31.263  1.00  0.00     0.029 A 
ATOM     32  N   UNL A   1      43.547  32.433  31.191  1.00  0.00    -0.354 N 
ATOM     33  N   UNL A   1      39.477  30.975  31.767  1.00  0.00    -0.248 NA
ATOM     34  C   UNL A   1      39.438  32.383  29.907  1.00  0.00     0.031 C 
ATOM     35  C   UNL A   1      44.352  30.708  32.250  1.00  0.00     0.029 A 
ATOM     36  C   UNL A   1      43.165  31.403  32.008  1.00  0.00     0.049 A 
ATOM     37  H   UNL A   1      43.138  33.327  31.148  1.00  0.00     0.167 HD
ATOM     38  C   UNL A   1      40.707  31.609  31.691  1.00  0.00     0.074 A 
ATOM     39  C   UNL A   1      40.588  32.540  30.569  1.00  0.00     0.031 C 
ATOM     40  C   UNL A   1      41.793  31.123  32.361  1.00  0.00     0.031 A 
BRANCH  27  41
ATOM     41  C   UNL A   1      44.549  33.669  28.503  1.00  0.00    -0.014 A 
ATOM     42  C   UNL A   1      43.304  34.320  28.408  1.00  0.00     0.009 A 
ATOM     43  C   UNL A   1      45.623  34.261  27.814  1.00  0.00     0.009 A 
ATOM     44  C   UNL A   1      43.127  35.440  27.586  1.00  0.00     0.001 A 
ATOM     45  C   UNL A   1      45.459  35.404  27.026  1.00  0.00     0.001 A 
ATOM     46  C   UNL A   1      44.202  35.973  26.885  1.00  0.00     0.000 A 
ENDBRANCH  27  41
BRANCH  28  47
ATOM     47  C   UNL A   1      36.692  30.575  29.458  1.00  0.00    -0.014 A 
ATOM     48  C   UNL A   1      35.940  31.572  30.103  1.00  0.00     0.009 A 
ATOM     49  C   UNL A   1      36.206  30.078  28.236  1.00  0.00     0.009 A 
ATOM     50  C   UNL A   1      34.763  32.071  29.527  1.00  0.00     0.001 A 
ATOM     51  C   UNL A   1      35.030  30.574  27.662  1.00  0.00     0.001 A 
ATOM     52  C   UNL A   1      34.316  31.582  28.301  1.00  0.00     0.000 A 
ENDBRANCH  28  47
BRANCH  40  53
ATOM     53  C   UNL A   1      41.575  30.009  33.353  1.00  0.00    -0.014 A 
ATOM     54  C   UNL A   1      41.538  28.652  32.983  1.00  0.00     0.009 A 
ATOM     55  C   UNL A   1      41.584  30.326  34.719  1.00  0.00     0.009 A 
ATOM     56  C   UNL A   1      41.488  27.647  33.954  1.00  0.00     0.001 A 
ATOM     57  C   UNL A   1      41.555  29.322  35.687  1.00  0.00     0.001 A 
ATOM     58  C   UNL A   1      41.503  27.983  35.306  1.00  0.00     0.000 A 
ENDBRANCH  40  53
ENDBRANCH  14  15
ENDBRANCH   7   9
ENDBRANCH   4   5
ENDBRANCH   3   4
ENDBRANCH   2   3
ENDBRANCH   1   2
BRANCH   1  59
ATOM     59  C   UNL A   1      38.612  24.147  26.701  1.00  0.00     0.021 C 
BRANCH  59  60
ATOM     60  C   UNL A   1      37.245  23.798  26.119  1.00  0.00     0.116 C 
BRANCH  60  61
ATOM     61  N   UNL A   1      37.339  23.533  24.693  1.00  0.00    -0.356 N 
ATOM     62  C   UNL A   1      36.343  23.468  23.758  1.00  0.00     0.226 C 
ATOM     63  H   UNL A   1      38.249  23.378  24.352  1.00  0.00     0.163 HD
ATOM     64  O   UNL A   1      36.623  23.060  22.634  1.00  0.00    -0.275 OA
BRANCH  62  65
ATOM     65  C   UNL A   1      34.952  23.914  24.166  1.00  0.00     0.122 C 
ATOM     66  C   UNL A   1      33.919  22.765  24.219  1.00  0.00     0.122 C 
ATOM     67  C   UNL A   1      34.368  24.816  23.073  1.00  0.00     0.132 C 
ATOM     68  C   UNL A   1      32.903  23.223  23.164  1.00  0.00     0.132 C 
ATOM     69  C   UNL A   1      33.128  25.547  23.589  1.00  0.00     0.035 C 
ATOM     70  O   UNL A   1      33.763  23.850  22.182  1.00  0.00    -0.373 OA
ATOM     71  C   UNL A   1      32.082  24.433  23.608  1.00  0.00     0.035 C 
BRANCH  66  72
ATOM     72  C   UNL A   1      33.333  22.598  25.612  1.00  0.00     0.226 C 
ATOM     73  O   UNL A   1      33.454  23.452  26.481  1.00  0.00    -0.275 OA
ATOM     74  N   UNL A   1      32.661  21.457  25.919  1.00  0.00    -0.354 N 
ATOM     75  H   UNL A   1      32.297  21.434  26.833  1.00  0.00     0.163 HD
BRANCH  74  76
ATOM     76  C   UNL A   1      32.388  20.265  25.134  1.00  0.00     0.139 C 
BRANCH  76  77
ATOM     77  C   UNL A   1      33.662  19.622  24.589  1.00  0.00     0.165 C 
BRANCH  77  78
ATOM     78  N   UNL A   1      33.756  18.184  24.772  1.00  0.00    -0.269 N 
ATOM     79  C   UNL A   1      32.791  17.385  25.320  1.00  0.00     0.129 A 
ATOM     80  N   UNL A   1      34.823  17.493  24.315  1.00  0.00    -0.180 NA
ATOM     81  C   UNL A   1      33.262  16.100  25.215  1.00  0.00     0.079 A 
ATOM     82  C   UNL A   1      34.516  16.221  24.594  1.00  0.00     0.155 A 
ATOM     83  Cl  UNL A   1      32.510  14.668  25.704  1.00  0.00    -0.081 Cl
ENDBRANCH  77  78
ENDBRANCH  76  77
ENDBRANCH  74  76
ENDBRANCH  66  72
ENDBRANCH  62  65
ENDBRANCH  60  61
ENDBRANCH  59  60
ENDBRANCH   1  59
TORSDOF 17
ENDMDL
