MODEL 1
REMARK VINA RESULT:     -10.6      0.000      0.000
REMARK SMILES O=C(NCCCCCCNC(=O)c1ccc(-c2c3nc(c(-c4ccccc4)c4ccc([nH]4)c(-c4ccccc4)c4nc(c(-c5ccccc5)c5ccc2[nH]5)C=C4)C=C3)cc1)c1ccc(CNC(=O)c2ccccc2I)cc1
REMARK SMILES IDX 6 1 5 2 4 3 3 4 1 5 2 6 61 8 62 9 77 10 63 11 76 12 64 13
REMARK SMILES IDX 65 14 66 15 67 16 68 18 69 19 70 20 74 21 71 22 73 23 75 24
REMARK SMILES IDX 72 25 7 26 8 27 9 28 10 29 11 30 12 32 13 33 14 34 60 35
REMARK SMILES IDX 15 36 59 37 16 38 17 39 18 40 53 41 19 42 58 43 52 44 54 45
REMARK SMILES IDX 20 46 57 47 51 48 50 49 21 51 43 52 28 53 42 54 29 55 32 56
REMARK SMILES IDX 41 57 55 58 30 59 31 60 40 62 56 63 33 64 22 65 23 66 27 67
REMARK SMILES IDX 24 68 26 69 25 70 44 71 45 72 49 73 46 74 48 75 47 76 34 77
REMARK SMILES IDX 35 78 39 79 36 80 38 81 37 82
REMARK H PARENT 3 7 66 17 10 31 54 50 32 61
REMARK Flexibility Score: inf
ROOT
ATOM      1  C   UNL A   1      32.264  28.936  23.708  1.00  0.00     0.002 C 
ENDROOT
BRANCH   1   2
ATOM      2  C   UNL A   1      30.819  29.440  23.718  1.00  0.00     0.021 C 
BRANCH   2   3
ATOM      3  C   UNL A   1      29.921  28.864  22.625  1.00  0.00     0.116 C 
BRANCH   3   4
ATOM      4  N   UNL A   1      28.720  28.251  23.164  1.00  0.00    -0.352 N 
ATOM      5  O   UNL A   1      27.473  26.594  24.064  1.00  0.00    -0.269 OA
ATOM      6  C   UNL A   1      28.584  27.041  23.793  1.00  0.00     0.251 C 
ATOM      7  H   UNL A   1      27.892  28.776  23.065  1.00  0.00     0.163 HD
BRANCH   6   8
ATOM      8  C   UNL A   1      29.792  26.262  24.122  1.00  0.00     0.039 A 
ATOM      9  C   UNL A   1      30.331  26.295  25.411  1.00  0.00     0.014 A 
ATOM     10  C   UNL A   1      30.389  25.493  23.121  1.00  0.00     0.014 A 
ATOM     11  C   UNL A   1      31.514  25.607  25.682  1.00  0.00     0.006 A 
ATOM     12  C   UNL A   1      31.566  24.798  23.399  1.00  0.00     0.006 A 
ATOM     13  C   UNL A   1      32.144  24.859  24.676  1.00  0.00    -0.029 A 
BRANCH  13  14
ATOM     14  C   UNL A   1      33.400  24.090  24.988  1.00  0.00     0.152 C 
BRANCH  14  15
ATOM     15  N   UNL A   1      33.376  23.535  26.327  1.00  0.00    -0.348 N 
ATOM     16  C   UNL A   1      34.320  22.777  26.970  1.00  0.00     0.252 C 
ATOM     17  H   UNL A   1      32.566  23.731  26.850  1.00  0.00     0.164 HD
ATOM     18  O   UNL A   1      34.123  22.373  28.113  1.00  0.00    -0.269 OA
BRANCH  16  19
ATOM     19  C   UNL A   1      35.533  22.342  26.252  1.00  0.00     0.053 A 
ATOM     20  C   UNL A   1      36.649  23.185  26.377  1.00  0.00     0.015 A 
ATOM     21  C   UNL A   1      35.617  21.190  25.460  1.00  0.00     0.026 A 
ATOM     22  C   UNL A   1      37.860  22.846  25.776  1.00  0.00     0.001 A 
ATOM     23  C   UNL A   1      36.846  20.839  24.886  1.00  0.00     0.015 A 
ATOM     24  I   UNL A   1      33.972  19.975  24.997  1.00  0.00    -0.043 I 
ATOM     25  C   UNL A   1      37.964  21.662  25.050  1.00  0.00     0.001 A 
ENDBRANCH  16  19
ENDBRANCH  14  15
ENDBRANCH  13  14
ENDBRANCH   6   8
ENDBRANCH   3   4
ENDBRANCH   2   3
ENDBRANCH   1   2
BRANCH   1  26
ATOM     26  C   UNL A   1      33.154  29.447  24.844  1.00  0.00     0.002 C 
BRANCH  26  27
ATOM     27  C   UNL A   1      33.682  28.383  25.808  1.00  0.00     0.021 C 
BRANCH  27  28
ATOM     28  C   UNL A   1      33.418  28.648  27.286  1.00  0.00     0.116 C 
BRANCH  28  29
ATOM     29  N   UNL A   1      33.432  30.063  27.614  1.00  0.00    -0.352 N 
ATOM     30  C   UNL A   1      34.430  30.819  28.176  1.00  0.00     0.251 C 
ATOM     31  H   UNL A   1      32.604  30.552  27.400  1.00  0.00     0.163 HD
ATOM     32  O   UNL A   1      34.209  31.979  28.511  1.00  0.00    -0.269 OA
BRANCH  30  33
ATOM     33  C   UNL A   1      35.769  30.233  28.407  1.00  0.00     0.039 A 
ATOM     34  C   UNL A   1      36.706  30.274  27.371  1.00  0.00     0.014 A 
ATOM     35  C   UNL A   1      36.099  29.634  29.626  1.00  0.00     0.014 A 
ATOM     36  C   UNL A   1      37.993  29.768  27.576  1.00  0.00     0.010 A 
ATOM     37  C   UNL A   1      37.399  29.189  29.851  1.00  0.00     0.010 A 
ATOM     38  C   UNL A   1      38.358  29.249  28.828  1.00  0.00    -0.014 A 
BRANCH  38  39
ATOM     39  C   UNL A   1      39.739  28.770  29.087  1.00  0.00     0.031 A 
ATOM     40  C   UNL A   1      40.749  29.679  29.730  1.00  0.00     0.074 A 
ATOM     41  C   UNL A   1      40.104  27.538  28.684  1.00  0.00     0.049 A 
ATOM     42  N   UNL A   1      42.014  29.457  29.987  1.00  0.00    -0.248 NA
ATOM     43  C   UNL A   1      40.284  31.020  30.115  1.00  0.00     0.031 C 
ATOM     44  C   UNL A   1      39.231  26.570  28.018  1.00  0.00     0.029 A 
ATOM     45  N   UNL A   1      41.311  26.890  28.773  1.00  0.00    -0.354 N 
ATOM     46  C   UNL A   1      42.501  30.635  30.538  1.00  0.00     0.074 A 
ATOM     47  C   UNL A   1      41.406  31.581  30.545  1.00  0.00     0.031 C 
ATOM     48  C   UNL A   1      39.923  25.442  27.785  1.00  0.00     0.029 A 
ATOM     49  C   UNL A   1      41.294  25.622  28.250  1.00  0.00     0.049 A 
ATOM     50  H   UNL A   1      42.113  27.299  29.174  1.00  0.00     0.167 HD
ATOM     51  C   UNL A   1      43.742  30.903  31.009  1.00  0.00     0.031 A 
ATOM     52  C   UNL A   1      42.275  24.704  28.151  1.00  0.00     0.031 A 
ATOM     53  C   UNL A   1      44.827  29.959  31.023  1.00  0.00     0.049 A 
ATOM     54  C   UNL A   1      43.646  25.030  28.673  1.00  0.00     0.074 A 
ATOM     55  C   UNL A   1      46.098  30.113  31.549  1.00  0.00     0.029 A 
ATOM     56  N   UNL A   1      44.769  28.684  30.482  1.00  0.00    -0.354 N 
ATOM     57  N   UNL A   1      44.069  26.123  29.257  1.00  0.00    -0.248 NA
ATOM     58  C   UNL A   1      44.672  23.986  28.528  1.00  0.00     0.031 C 
ATOM     59  C   UNL A   1      46.824  28.948  31.283  1.00  0.00     0.029 A 
ATOM     60  C   UNL A   1      45.990  28.050  30.637  1.00  0.00     0.049 A 
ATOM     61  H   UNL A   1      43.976  28.287  30.052  1.00  0.00     0.167 HD
ATOM     62  C   UNL A   1      45.401  25.891  29.575  1.00  0.00     0.074 A 
ATOM     63  C   UNL A   1      45.712  24.548  29.128  1.00  0.00     0.031 C 
ATOM     64  C   UNL A   1      46.286  26.716  30.186  1.00  0.00     0.031 A 
BRANCH  51  65
ATOM     65  C   UNL A   1      43.996  32.287  31.539  1.00  0.00    -0.014 A 
ATOM     66  C   UNL A   1      44.452  33.316  30.699  1.00  0.00     0.009 A 
ATOM     67  C   UNL A   1      43.748  32.571  32.890  1.00  0.00     0.009 A 
ATOM     68  C   UNL A   1      44.690  34.593  31.213  1.00  0.00     0.001 A 
ATOM     69  C   UNL A   1      43.961  33.855  33.395  1.00  0.00     0.001 A 
ATOM     70  C   UNL A   1      44.441  34.862  32.558  1.00  0.00     0.000 A 
ENDBRANCH  51  65
BRANCH  52  71
ATOM     71  C   UNL A   1      41.990  23.374  27.555  1.00  0.00    -0.014 A 
ATOM     72  C   UNL A   1      41.386  22.369  28.325  1.00  0.00     0.009 A 
ATOM     73  C   UNL A   1      42.323  23.101  26.219  1.00  0.00     0.009 A 
ATOM     74  C   UNL A   1      41.139  21.109  27.777  1.00  0.00     0.001 A 
ATOM     75  C   UNL A   1      42.052  21.847  25.666  1.00  0.00     0.001 A 
ATOM     76  C   UNL A   1      41.468  20.850  26.448  1.00  0.00     0.000 A 
ENDBRANCH  52  71
BRANCH  64  77
ATOM     77  C   UNL A   1      47.664  26.177  30.437  1.00  0.00    -0.014 A 
ATOM     78  C   UNL A   1      48.628  26.139  29.418  1.00  0.00     0.009 A 
ATOM     79  C   UNL A   1      48.013  25.734  31.723  1.00  0.00     0.009 A 
ATOM     80  C   UNL A   1      49.907  25.640  29.676  1.00  0.00     0.001 A 
ATOM     81  C   UNL A   1      49.300  25.261  31.984  1.00  0.00     0.001 A 
ATOM     82  C   UNL A   1      50.242  25.206  30.958  1.00  0.00     0.000 A 
ENDBRANCH  64  77
ENDBRANCH  38  39
ENDBRANCH  30  33
ENDBRANCH  28  29
ENDBRANCH  27  28
ENDBRANCH  26  27
ENDBRANCH   1  26
TORSDOF 16
ENDMDL
MODEL 2
REMARK VINA RESULT:     -10.5      2.990      7.857
REMARK SMILES O=C(NCCCCCCNC(=O)c1ccc(-c2c3nc(c(-c4ccccc4)c4ccc([nH]4)c(-c4ccccc4)c4nc(c(-c5ccccc5)c5ccc2[nH]5)C=C4)C=C3)cc1)c1ccc(CNC(=O)c2ccccc2I)cc1
REMARK SMILES IDX 6 1 5 2 4 3 3 4 1 5 2 6 61 8 62 9 77 10 63 11 76 12 64 13
REMARK SMILES IDX 65 14 66 15 67 16 68 18 69 19 70 20 74 21 71 22 73 23 75 24
REMARK SMILES IDX 72 25 7 26 8 27 9 28 10 29 11 30 12 32 13 33 14 34 60 35
REMARK SMILES IDX 15 36 59 37 16 38 17 39 18 40 53 41 19 42 58 43 52 44 54 45
REMARK SMILES IDX 20 46 57 47 51 48 50 49 21 51 43 52 28 53 42 54 29 55 32 56
REMARK SMILES IDX 41 57 55 58 30 59 31 60 40 62 56 63 33 64 22 65 23 66 27 67
REMARK SMILES IDX 24 68 26 69 25 70 44 71 45 72 49 73 46 74 48 75 47 76 34 77
REMARK SMILES IDX 35 78 39 79 36 80 38 81 37 82
REMARK H PARENT 3 7 66 17 10 31 54 50 32 61
REMARK Flexibility Score: inf
ROOT
ATOM      1  C   UNL A   1      35.931  21.117  24.817  1.00  0.00     0.002 C 
ENDROOT
BRANCH   1   2
ATOM      2  C   UNL A   1      35.647  21.899  26.101  1.00  0.00     0.021 C 
BRANCH   2   3
ATOM      3  C   UNL A   1      34.367  21.506  26.833  1.00  0.00     0.116 C 
BRANCH   3   4
ATOM      4  N   UNL A   1      33.718  20.355  26.232  1.00  0.00    -0.352 N 
ATOM      5  O   UNL A   1      32.159  19.272  25.003  1.00  0.00    -0.269 OA
ATOM      6  C   UNL A   1      32.704  20.329  25.309  1.00  0.00     0.251 C 
ATOM      7  H   UNL A   1      34.050  19.476  26.526  1.00  0.00     0.163 HD
BRANCH   6   8
ATOM      8  C   UNL A   1      32.253  21.594  24.700  1.00  0.00     0.039 A 
ATOM      9  C   UNL A   1      31.292  22.387  25.334  1.00  0.00     0.014 A 
ATOM     10  C   UNL A   1      32.801  21.983  23.476  1.00  0.00     0.014 A 
ATOM     11  C   UNL A   1      30.829  23.542  24.707  1.00  0.00     0.006 A 
ATOM     12  C   UNL A   1      32.342  23.146  22.857  1.00  0.00     0.006 A 
ATOM     13  C   UNL A   1      31.345  23.927  23.460  1.00  0.00    -0.029 A 
BRANCH  13  14
ATOM     14  C   UNL A   1      30.865  25.196  22.808  1.00  0.00     0.152 C 
BRANCH  14  15
ATOM     15  N   UNL A   1      31.919  25.849  22.056  1.00  0.00    -0.348 N 
ATOM     16  C   UNL A   1      32.831  26.784  22.472  1.00  0.00     0.252 C 
ATOM     17  H   UNL A   1      31.989  25.583  21.112  1.00  0.00     0.164 HD
ATOM     18  O   UNL A   1      33.652  27.247  21.685  1.00  0.00    -0.269 OA
BRANCH  16  19
ATOM     19  C   UNL A   1      32.761  27.328  23.842  1.00  0.00     0.053 A 
ATOM     20  C   UNL A   1      33.609  26.719  24.781  1.00  0.00     0.015 A 
ATOM     21  C   UNL A   1      31.905  28.361  24.242  1.00  0.00     0.026 A 
ATOM     22  C   UNL A   1      33.655  27.185  26.094  1.00  0.00     0.001 A 
ATOM     23  C   UNL A   1      31.981  28.845  25.556  1.00  0.00     0.015 A 
ATOM     24  I   UNL A   1      30.429  29.194  23.007  1.00  0.00    -0.043 I 
ATOM     25  C   UNL A   1      32.857  28.262  26.475  1.00  0.00     0.001 A 
ENDBRANCH  16  19
ENDBRANCH  14  15
ENDBRANCH  13  14
ENDBRANCH   6   8
ENDBRANCH   3   4
ENDBRANCH   2   3
ENDBRANCH   1   2
BRANCH   1  26
ATOM     26  C   UNL A   1      36.693  19.800  24.995  1.00  0.00     0.002 C 
BRANCH  26  27
ATOM     27  C   UNL A   1      38.180  19.838  24.637  1.00  0.00     0.021 C 
BRANCH  27  28
ATOM     28  C   UNL A   1      39.130  20.066  25.808  1.00  0.00     0.116 C 
BRANCH  28  29
ATOM     29  N   UNL A   1      40.163  19.050  25.899  1.00  0.00    -0.352 N 
ATOM     30  C   UNL A   1      41.511  19.192  26.115  1.00  0.00     0.251 C 
ATOM     31  H   UNL A   1      39.851  18.122  25.789  1.00  0.00     0.163 HD
ATOM     32  O   UNL A   1      42.256  18.221  26.017  1.00  0.00    -0.269 OA
BRANCH  30  33
ATOM     33  C   UNL A   1      42.078  20.520  26.438  1.00  0.00     0.039 A 
ATOM     34  C   UNL A   1      42.485  21.348  25.388  1.00  0.00     0.014 A 
ATOM     35  C   UNL A   1      42.223  20.945  27.761  1.00  0.00     0.014 A 
ATOM     36  C   UNL A   1      42.982  22.625  25.662  1.00  0.00     0.010 A 
ATOM     37  C   UNL A   1      42.657  22.240  28.030  1.00  0.00     0.010 A 
ATOM     38  C   UNL A   1      43.043  23.092  26.984  1.00  0.00    -0.014 A 
BRANCH  38  39
ATOM     39  C   UNL A   1      43.503  24.470  27.290  1.00  0.00     0.031 A 
ATOM     40  C   UNL A   1      42.520  25.518  27.733  1.00  0.00     0.074 A 
ATOM     41  C   UNL A   1      44.798  24.797  27.108  1.00  0.00     0.049 A 
ATOM     42  N   UNL A   1      42.725  26.785  27.994  1.00  0.00    -0.248 NA
ATOM     43  C   UNL A   1      41.120  25.093  27.880  1.00  0.00     0.031 C 
ATOM     44  C   UNL A   1      45.847  23.884  26.651  1.00  0.00     0.029 A 
ATOM     45  N   UNL A   1      45.449  25.993  27.283  1.00  0.00    -0.354 N 
ATOM     46  C   UNL A   1      41.480  27.312  28.309  1.00  0.00     0.074 A 
ATOM     47  C   UNL A   1      40.520  26.238  28.173  1.00  0.00     0.031 C 
ATOM     48  C   UNL A   1      47.015  24.545  26.609  1.00  0.00     0.029 A 
ATOM     49  C   UNL A   1      46.791  25.933  26.998  1.00  0.00     0.049 A 
ATOM     50  H   UNL A   1      44.997  26.814  27.583  1.00  0.00     0.167 HD
ATOM     51  C   UNL A   1      41.163  28.572  28.693  1.00  0.00     0.031 A 
ATOM     52  C   UNL A   1      47.736  26.891  27.043  1.00  0.00     0.031 A 
ATOM     53  C   UNL A   1      42.118  29.636  28.850  1.00  0.00     0.049 A 
ATOM     54  C   UNL A   1      47.358  28.283  27.463  1.00  0.00     0.074 A 
ATOM     55  C   UNL A   1      41.904  30.925  29.307  1.00  0.00     0.029 A 
ATOM     56  N   UNL A   1      43.467  29.536  28.551  1.00  0.00    -0.354 N 
ATOM     57  N   UNL A   1      46.188  28.746  27.828  1.00  0.00    -0.248 NA
ATOM     58  C   UNL A   1      48.436  29.282  27.483  1.00  0.00     0.031 C 
ATOM     59  C   UNL A   1      43.117  31.619  29.239  1.00  0.00     0.029 A 
ATOM     60  C   UNL A   1      44.095  30.748  28.787  1.00  0.00     0.049 A 
ATOM     61  H   UNL A   1      43.914  28.723  28.220  1.00  0.00     0.167 HD
ATOM     62  C   UNL A   1      46.394  30.082  28.149  1.00  0.00     0.074 A 
ATOM     63  C   UNL A   1      47.803  30.351  27.945  1.00  0.00     0.031 C 
ATOM     64  C   UNL A   1      45.495  31.002  28.579  1.00  0.00     0.031 A 
BRANCH  51  65
ATOM     65  C   UNL A   1      39.714  28.870  28.956  1.00  0.00    -0.014 A 
ATOM     66  C   UNL A   1      38.867  29.328  27.934  1.00  0.00     0.009 A 
ATOM     67  C   UNL A   1      39.183  28.663  30.239  1.00  0.00     0.009 A 
ATOM     68  C   UNL A   1      37.525  29.608  28.203  1.00  0.00     0.001 A 
ATOM     69  C   UNL A   1      37.834  28.918  30.496  1.00  0.00     0.001 A 
ATOM     70  C   UNL A   1      37.010  29.399  29.481  1.00  0.00     0.000 A 
ENDBRANCH  51  65
BRANCH  52  71
ATOM     71  C   UNL A   1      49.144  26.561  26.705  1.00  0.00    -0.014 A 
ATOM     72  C   UNL A   1      49.593  26.657  25.379  1.00  0.00     0.009 A 
ATOM     73  C   UNL A   1      50.043  26.146  27.699  1.00  0.00     0.009 A 
ATOM     74  C   UNL A   1      50.908  26.324  25.051  1.00  0.00     0.001 A 
ATOM     75  C   UNL A   1      51.366  25.836  27.372  1.00  0.00     0.001 A 
ATOM     76  C   UNL A   1      51.794  25.918  26.048  1.00  0.00     0.000 A 
ENDBRANCH  52  71
BRANCH  64  77
ATOM     77  C   UNL A   1      46.016  32.375  28.888  1.00  0.00    -0.014 A 
ATOM     78  C   UNL A   1      46.550  32.684  30.148  1.00  0.00     0.009 A 
ATOM     79  C   UNL A   1      46.005  33.363  27.891  1.00  0.00     0.009 A 
ATOM     80  C   UNL A   1      47.036  33.967  30.413  1.00  0.00     0.001 A 
ATOM     81  C   UNL A   1      46.516  34.636  28.150  1.00  0.00     0.001 A 
ATOM     82  C   UNL A   1      47.022  34.939  29.413  1.00  0.00     0.000 A 
ENDBRANCH  64  77
ENDBRANCH  38  39
ENDBRANCH  30  33
ENDBRANCH  28  29
ENDBRANCH  27  28
ENDBRANCH  26  27
ENDBRANCH   1  26
TORSDOF 16
ENDMDL
MODEL 3
REMARK VINA RESULT:     -10.4      2.140      6.325
REMARK SMILES O=C(NCCCCCCNC(=O)c1ccc(-c2c3nc(c(-c4ccccc4)c4ccc([nH]4)c(-c4ccccc4)c4nc(c(-c5ccccc5)c5ccc2[nH]5)C=C4)C=C3)cc1)c1ccc(CNC(=O)c2ccccc2I)cc1
REMARK SMILES IDX 6 1 5 2 4 3 3 4 1 5 2 6 61 8 62 9 77 10 63 11 76 12 64 13
REMARK SMILES IDX 65 14 66 15 67 16 68 18 69 19 70 20 74 21 71 22 73 23 75 24
REMARK SMILES IDX 72 25 7 26 8 27 9 28 10 29 11 30 12 32 13 33 14 34 60 35
REMARK SMILES IDX 15 36 59 37 16 38 17 39 18 40 53 41 19 42 58 43 52 44 54 45
REMARK SMILES IDX 20 46 57 47 51 48 50 49 21 51 43 52 28 53 42 54 29 55 32 56
REMARK SMILES IDX 41 57 55 58 30 59 31 60 40 62 56 63 33 64 22 65 23 66 27 67
REMARK SMILES IDX 24 68 26 69 25 70 44 71 45 72 49 73 46 74 48 75 47 76 34 77
REMARK SMILES IDX 35 78 39 79 36 80 38 81 37 82
REMARK H PARENT 3 7 66 17 10 31 54 50 32 61
REMARK Flexibility Score: inf
ROOT
ATOM      1  C   UNL A   1      33.016  28.447  25.752  1.00  0.00     0.002 C 
ENDROOT
BRANCH   1   2
ATOM      2  C   UNL A   1      32.560  29.527  24.768  1.00  0.00     0.021 C 
BRANCH   2   3
ATOM      3  C   UNL A   1      31.076  29.881  24.831  1.00  0.00     0.116 C 
BRANCH   3   4
ATOM      4  N   UNL A   1      30.514  30.141  23.518  1.00  0.00    -0.352 N 
ATOM      5  O   UNL A   1      29.870  29.635  21.411  1.00  0.00    -0.269 OA
ATOM      6  C   UNL A   1      30.203  29.247  22.527  1.00  0.00     0.251 C 
ATOM      7  H   UNL A   1      30.332  31.087  23.312  1.00  0.00     0.163 HD
BRANCH   6   8
ATOM      8  C   UNL A   1      30.298  27.802  22.806  1.00  0.00     0.039 A 
ATOM      9  C   UNL A   1      29.378  27.179  23.654  1.00  0.00     0.014 A 
ATOM     10  C   UNL A   1      31.325  27.068  22.210  1.00  0.00     0.014 A 
ATOM     11  C   UNL A   1      29.527  25.828  23.960  1.00  0.00     0.006 A 
ATOM     12  C   UNL A   1      31.466  25.713  22.511  1.00  0.00     0.006 A 
ATOM     13  C   UNL A   1      30.576  25.086  23.397  1.00  0.00    -0.029 A 
BRANCH  13  14
ATOM     14  C   UNL A   1      30.708  23.618  23.704  1.00  0.00     0.152 C 
BRANCH  14  15
ATOM     15  N   UNL A   1      30.545  23.345  25.119  1.00  0.00    -0.348 N 
ATOM     16  C   UNL A   1      31.492  23.296  26.109  1.00  0.00     0.252 C 
ATOM     17  H   UNL A   1      29.622  23.171  25.410  1.00  0.00     0.164 HD
ATOM     18  O   UNL A   1      31.173  23.031  27.265  1.00  0.00    -0.269 OA
BRANCH  16  19
ATOM     19  C   UNL A   1      32.921  23.449  25.773  1.00  0.00     0.053 A 
ATOM     20  C   UNL A   1      33.412  24.764  25.788  1.00  0.00     0.015 A 
ATOM     21  C   UNL A   1      33.772  22.391  25.428  1.00  0.00     0.026 A 
ATOM     22  C   UNL A   1      34.758  25.017  25.530  1.00  0.00     0.001 A 
ATOM     23  C   UNL A   1      35.131  22.650  25.201  1.00  0.00     0.015 A 
ATOM     24  I   UNL A   1      33.119  20.420  25.138  1.00  0.00    -0.043 I 
ATOM     25  C   UNL A   1      35.621  23.957  25.259  1.00  0.00     0.001 A 
ENDBRANCH  16  19
ENDBRANCH  14  15
ENDBRANCH  13  14
ENDBRANCH   6   8
ENDBRANCH   3   4
ENDBRANCH   2   3
ENDBRANCH   1   2
BRANCH   1  26
ATOM     26  C   UNL A   1      33.294  28.924  27.181  1.00  0.00     0.002 C 
BRANCH  26  27
ATOM     27  C   UNL A   1      33.724  30.385  27.323  1.00  0.00     0.021 C 
BRANCH  27  28
ATOM     28  C   UNL A   1      35.129  30.605  27.874  1.00  0.00     0.116 C 
BRANCH  28  29
ATOM     29  N   UNL A   1      35.129  30.990  29.275  1.00  0.00    -0.352 N 
ATOM     30  C   UNL A   1      36.094  30.801  30.232  1.00  0.00     0.251 C 
ATOM     31  H   UNL A   1      34.317  31.455  29.582  1.00  0.00     0.163 HD
ATOM     32  O   UNL A   1      35.857  31.070  31.406  1.00  0.00    -0.269 OA
BRANCH  30  33
ATOM     33  C   UNL A   1      37.414  30.246  29.860  1.00  0.00     0.039 A 
ATOM     34  C   UNL A   1      37.839  30.360  28.533  1.00  0.00     0.014 A 
ATOM     35  C   UNL A   1      38.224  29.606  30.802  1.00  0.00     0.014 A 
ATOM     36  C   UNL A   1      39.100  29.886  28.164  1.00  0.00     0.010 A 
ATOM     37  C   UNL A   1      39.505  29.191  30.448  1.00  0.00     0.010 A 
ATOM     38  C   UNL A   1      39.956  29.325  29.125  1.00  0.00    -0.014 A 
BRANCH  38  39
ATOM     39  C   UNL A   1      41.325  28.877  28.767  1.00  0.00     0.031 A 
ATOM     40  C   UNL A   1      41.574  27.453  28.356  1.00  0.00     0.074 A 
ATOM     41  C   UNL A   1      42.357  29.737  28.873  1.00  0.00     0.049 A 
ATOM     42  N   UNL A   1      42.707  26.866  28.059  1.00  0.00    -0.248 NA
ATOM     43  C   UNL A   1      40.402  26.566  28.293  1.00  0.00     0.031 C 
ATOM     44  C   UNL A   1      42.256  31.136  29.292  1.00  0.00     0.029 A 
ATOM     45  N   UNL A   1      43.697  29.555  28.639  1.00  0.00    -0.354 N 
ATOM     46  C   UNL A   1      42.387  25.539  27.799  1.00  0.00     0.074 A 
ATOM     47  C   UNL A   1      40.962  25.399  28.009  1.00  0.00     0.031 C 
ATOM     48  C   UNL A   1      43.478  31.693  29.258  1.00  0.00     0.029 A 
ATOM     49  C   UNL A   1      44.450  30.683  28.853  1.00  0.00     0.049 A 
ATOM     50  H   UNL A   1      44.081  28.697  28.347  1.00  0.00     0.167 HD
ATOM     51  C   UNL A   1      43.202  24.530  27.407  1.00  0.00     0.031 A 
ATOM     52  C   UNL A   1      45.777  30.883  28.737  1.00  0.00     0.031 A 
ATOM     53  C   UNL A   1      44.615  24.671  27.178  1.00  0.00     0.049 A 
ATOM     54  C   UNL A   1      46.660  29.745  28.310  1.00  0.00     0.074 A 
ATOM     55  C   UNL A   1      45.510  23.726  26.706  1.00  0.00     0.029 A 
ATOM     56  N   UNL A   1      45.339  25.830  27.406  1.00  0.00    -0.354 N 
ATOM     57  N   UNL A   1      46.331  28.516  27.998  1.00  0.00    -0.248 NA
ATOM     58  C   UNL A   1      48.099  30.029  28.212  1.00  0.00     0.031 C 
ATOM     59  C   UNL A   1      46.786  24.301  26.695  1.00  0.00     0.029 A 
ATOM     60  C   UNL A   1      46.676  25.618  27.112  1.00  0.00     0.049 A 
ATOM     61  H   UNL A   1      44.960  26.680  27.729  1.00  0.00     0.167 HD
ATOM     62  C   UNL A   1      47.517  27.887  27.640  1.00  0.00     0.074 A 
ATOM     63  C   UNL A   1      48.570  28.874  27.763  1.00  0.00     0.031 C 
ATOM     64  C   UNL A   1      47.713  26.607  27.240  1.00  0.00     0.031 A 
BRANCH  51  65
ATOM     65  C   UNL A   1      42.581  23.176  27.216  1.00  0.00    -0.014 A 
ATOM     66  C   UNL A   1      42.118  22.757  25.957  1.00  0.00     0.009 A 
ATOM     67  C   UNL A   1      42.484  22.294  28.303  1.00  0.00     0.009 A 
ATOM     68  C   UNL A   1      41.535  21.497  25.803  1.00  0.00     0.001 A 
ATOM     69  C   UNL A   1      41.925  21.025  28.139  1.00  0.00     0.001 A 
ATOM     70  C   UNL A   1      41.443  20.632  26.892  1.00  0.00     0.000 A 
ENDBRANCH  51  65
BRANCH  52  71
ATOM     71  C   UNL A   1      46.352  32.225  29.007  1.00  0.00    -0.014 A 
ATOM     72  C   UNL A   1      46.736  32.580  30.309  1.00  0.00     0.009 A 
ATOM     73  C   UNL A   1      46.515  33.157  27.971  1.00  0.00     0.009 A 
ATOM     74  C   UNL A   1      47.254  33.850  30.572  1.00  0.00     0.001 A 
ATOM     75  C   UNL A   1      47.056  34.419  28.233  1.00  0.00     0.001 A 
ATOM     76  C   UNL A   1      47.417  34.766  29.534  1.00  0.00     0.000 A 
ENDBRANCH  52  71
BRANCH  64  77
ATOM     77  C   UNL A   1      49.114  26.210  26.875  1.00  0.00    -0.014 A 
ATOM     78  C   UNL A   1      49.619  26.428  25.584  1.00  0.00     0.009 A 
ATOM     79  C   UNL A   1      49.951  25.644  27.849  1.00  0.00     0.009 A 
ATOM     80  C   UNL A   1      50.928  26.058  25.268  1.00  0.00     0.001 A 
ATOM     81  C   UNL A   1      51.267  25.300  27.537  1.00  0.00     0.001 A 
ATOM     82  C   UNL A   1      51.751  25.500  26.245  1.00  0.00     0.000 A 
ENDBRANCH  64  77
ENDBRANCH  38  39
ENDBRANCH  30  33
ENDBRANCH  28  29
ENDBRANCH  27  28
ENDBRANCH  26  27
ENDBRANCH   1  26
TORSDOF 16
ENDMDL
