MODEL 1
REMARK VINA RESULT:     -12.3      0.000      0.000
REMARK SMILES Cc1c(NC(=O)c2ccc(Br)cc2N)cccc1C(=O)NCCCCCCNC(=O)c1ccc(-c2c3nc(c(-c4ccccc4)c4ccc([nH]4)c(-c4ccccc4)c4nc(c(-c5ccccc5)c5ccc2[nH]5)C=C4)C=C3)cc1
REMARK SMILES IDX 24 1 23 2 22 3 21 4 19 5 20 6 18 8 1 9 2 10 3 11 15 12 17 13
REMARK SMILES IDX 16 14 4 15 5 16 6 18 7 19 8 20 13 21 9 22 12 23 10 24 11 25
REMARK SMILES IDX 14 26 25 29 26 30 27 31 28 32 29 33 30 35 31 36 32 37 78 38
REMARK SMILES IDX 33 39 77 40 34 41 35 42 36 43 71 44 37 45 76 46 70 47 72 48
REMARK SMILES IDX 38 49 75 50 69 51 68 52 39 54 61 55 46 56 60 57 47 58 50 59
REMARK SMILES IDX 59 60 73 61 48 62 49 63 58 65 74 66 51 67 40 68 41 69 45 70
REMARK SMILES IDX 42 71 44 72 43 73 62 74 63 75 67 76 64 77 66 78 65 79 52 80
REMARK SMILES IDX 53 81 57 82 54 83 56 84 55 85
REMARK H PARENT 21 7 4 17 14 27 14 28 28 34 72 53 50 64
REMARK Flexibility Score: inf
ROOT
ATOM      1  C   UNL A   1      30.894  29.516  25.042  1.00  0.00     0.002 C 
ENDROOT
BRANCH   1   2
ATOM      2  C   UNL A   1      30.363  29.857  23.646  1.00  0.00     0.021 C 
BRANCH   2   3
ATOM      3  C   UNL A   1      30.823  28.921  22.514  1.00  0.00     0.116 C 
BRANCH   3   4
ATOM      4  N   UNL A   1      32.256  29.036  22.331  1.00  0.00    -0.352 N 
ATOM      5  C   UNL A   1      33.344  28.362  22.816  1.00  0.00     0.251 C 
ATOM      6  O   UNL A   1      34.447  28.788  22.462  1.00  0.00    -0.269 OA
ATOM      7  H   UNL A   1      32.504  29.766  21.718  1.00  0.00     0.163 HD
BRANCH   5   8
ATOM      8  C   UNL A   1      33.314  27.127  23.665  1.00  0.00     0.044 A 
ATOM      9  C   UNL A   1      32.346  25.507  21.936  1.00  0.00     0.047 C 
ATOM     10  C   UNL A   1      32.888  25.831  23.301  1.00  0.00    -0.015 A 
ATOM     11  C   UNL A   1      32.827  24.817  24.298  1.00  0.00     0.045 A 
ATOM     12  C   UNL A   1      33.101  25.106  25.636  1.00  0.00     0.026 A 
ATOM     13  C   UNL A   1      33.590  27.382  25.027  1.00  0.00     0.014 A 
ATOM     14  C   UNL A   1      33.474  26.393  26.002  1.00  0.00     0.003 A 
BRANCH  11  15
ATOM     15  N   UNL A   1      32.488  23.510  23.902  1.00  0.00    -0.322 N 
ATOM     16  C   UNL A   1      33.266  22.394  23.695  1.00  0.00     0.257 C 
ATOM     17  H   UNL A   1      31.526  23.368  23.748  1.00  0.00     0.170 HD
ATOM     18  O   UNL A   1      32.798  21.463  23.037  1.00  0.00    -0.269 OA
BRANCH  16  19
ATOM     19  C   UNL A   1      34.609  22.230  24.318  1.00  0.00     0.063 A 
ATOM     20  C   UNL A   1      35.613  23.090  23.836  1.00  0.00     0.017 A 
ATOM     21  C   UNL A   1      34.933  21.228  25.259  1.00  0.00     0.045 A 
ATOM     22  C   UNL A   1      36.924  22.985  24.300  1.00  0.00     0.016 A 
ATOM     23  C   UNL A   1      36.257  21.145  25.719  1.00  0.00     0.042 A 
ATOM     24  C   UNL A   1      37.236  22.018  25.248  1.00  0.00     0.020 A 
ATOM     25  Br  UNL A   1      39.013  21.850  25.870  1.00  0.00    -0.051 Br
BRANCH  21  26
ATOM     26  N   UNL A   1      34.073  20.192  25.620  1.00  0.00    -0.398 N 
ATOM     27  H   UNL A   1      33.375  19.892  24.995  1.00  0.00     0.156 HD
ATOM     28  H   UNL A   1      34.166  19.761  26.501  1.00  0.00     0.156 HD
ENDBRANCH  21  26
ENDBRANCH  16  19
ENDBRANCH  11  15
ENDBRANCH   5   8
ENDBRANCH   3   4
ENDBRANCH   2   3
ENDBRANCH   1   2
BRANCH   1  29
ATOM     29  C   UNL A   1      31.732  30.601  25.733  1.00  0.00     0.002 C 
BRANCH  29  30
ATOM     30  C   UNL A   1      32.253  30.256  27.131  1.00  0.00     0.021 C 
BRANCH  30  31
ATOM     31  C   UNL A   1      33.771  30.320  27.261  1.00  0.00     0.116 C 
BRANCH  31  32
ATOM     32  N   UNL A   1      34.230  31.244  28.292  1.00  0.00    -0.352 N 
ATOM     33  C   UNL A   1      35.350  31.185  29.094  1.00  0.00     0.251 C 
ATOM     34  H   UNL A   1      33.654  32.029  28.436  1.00  0.00     0.163 HD
ATOM     35  O   UNL A   1      35.546  32.058  29.938  1.00  0.00    -0.269 OA
BRANCH  33  36
ATOM     36  C   UNL A   1      36.377  30.144  28.858  1.00  0.00     0.039 A 
ATOM     37  C   UNL A   1      36.705  29.295  29.922  1.00  0.00     0.014 A 
ATOM     38  C   UNL A   1      37.122  30.108  27.681  1.00  0.00     0.014 A 
ATOM     39  C   UNL A   1      37.907  28.592  29.893  1.00  0.00     0.010 A 
ATOM     40  C   UNL A   1      38.352  29.477  27.682  1.00  0.00     0.010 A 
ATOM     41  C   UNL A   1      38.772  28.777  28.816  1.00  0.00    -0.014 A 
BRANCH  41  42
ATOM     42  C   UNL A   1      40.174  28.380  28.849  1.00  0.00     0.031 A 
ATOM     43  C   UNL A   1      40.613  27.096  28.276  1.00  0.00     0.074 A 
ATOM     44  C   UNL A   1      41.087  29.208  29.400  1.00  0.00     0.049 A 
ATOM     45  N   UNL A   1      41.681  26.472  28.643  1.00  0.00    -0.248 NA
ATOM     46  C   UNL A   1      39.840  26.382  27.267  1.00  0.00     0.031 C 
ATOM     47  C   UNL A   1      42.541  29.113  29.334  1.00  0.00     0.029 A 
ATOM     48  N   UNL A   1      40.846  30.190  30.359  1.00  0.00    -0.354 N 
ATOM     49  C   UNL A   1      41.883  25.442  27.759  1.00  0.00     0.074 A 
ATOM     50  C   UNL A   1      40.675  25.382  26.966  1.00  0.00     0.031 C 
ATOM     51  C   UNL A   1      43.064  29.790  30.369  1.00  0.00     0.029 A 
ATOM     52  C   UNL A   1      41.960  30.213  31.215  1.00  0.00     0.049 A 
ATOM     53  H   UNL A   1      40.046  30.761  30.423  1.00  0.00     0.167 HD
ATOM     54  C   UNL A   1      43.095  24.825  27.707  1.00  0.00     0.031 A 
ATOM     55  C   UNL A   1      41.820  29.903  32.538  1.00  0.00     0.031 A 
ATOM     56  C   UNL A   1      44.024  25.324  28.719  1.00  0.00     0.049 A 
ATOM     57  C   UNL A   1      42.595  28.679  32.986  1.00  0.00     0.074 A 
ATOM     58  C   UNL A   1      45.113  26.180  28.699  1.00  0.00     0.029 A 
ATOM     59  N   UNL A   1      43.708  25.141  30.055  1.00  0.00    -0.354 N 
ATOM     60  N   UNL A   1      43.275  27.898  32.193  1.00  0.00    -0.248 NA
ATOM     61  C   UNL A   1      42.565  28.179  34.363  1.00  0.00     0.031 C 
ATOM     62  C   UNL A   1      45.449  26.505  30.045  1.00  0.00     0.029 A 
ATOM     63  C   UNL A   1      44.570  25.837  30.877  1.00  0.00     0.049 A 
ATOM     64  H   UNL A   1      42.962  24.584  30.378  1.00  0.00     0.167 HD
ATOM     65  C   UNL A   1      43.709  26.807  32.896  1.00  0.00     0.074 A 
ATOM     66  C   UNL A   1      43.247  27.027  34.253  1.00  0.00     0.031 C 
ATOM     67  C   UNL A   1      44.374  25.770  32.313  1.00  0.00     0.031 A 
BRANCH  54  68
ATOM     68  C   UNL A   1      43.508  23.920  26.575  1.00  0.00    -0.014 A 
ATOM     69  C   UNL A   1      43.188  22.551  26.626  1.00  0.00     0.009 A 
ATOM     70  C   UNL A   1      44.243  24.342  25.454  1.00  0.00     0.009 A 
ATOM     71  C   UNL A   1      43.662  21.642  25.672  1.00  0.00     0.001 A 
ATOM     72  C   UNL A   1      44.759  23.433  24.521  1.00  0.00     0.001 A 
ATOM     73  C   UNL A   1      44.477  22.080  24.636  1.00  0.00     0.000 A 
ENDBRANCH  54  68
BRANCH  55  74
ATOM     74  C   UNL A   1      40.500  30.308  33.102  1.00  0.00    -0.014 A 
ATOM     75  C   UNL A   1      40.214  31.684  33.224  1.00  0.00     0.009 A 
ATOM     76  C   UNL A   1      39.441  29.395  33.185  1.00  0.00     0.009 A 
ATOM     77  C   UNL A   1      38.894  32.135  33.307  1.00  0.00     0.001 A 
ATOM     78  C   UNL A   1      38.122  29.850  33.288  1.00  0.00     0.001 A 
ATOM     79  C   UNL A   1      37.847  31.218  33.312  1.00  0.00     0.000 A 
ENDBRANCH  55  74
BRANCH  67  80
ATOM     80  C   UNL A   1      44.869  24.573  33.069  1.00  0.00    -0.014 A 
ATOM     81  C   UNL A   1      44.057  23.459  33.324  1.00  0.00     0.009 A 
ATOM     82  C   UNL A   1      46.148  24.592  33.661  1.00  0.00     0.009 A 
ATOM     83  C   UNL A   1      44.526  22.387  34.093  1.00  0.00     0.001 A 
ATOM     84  C   UNL A   1      46.608  23.534  34.447  1.00  0.00     0.001 A 
ATOM     85  C   UNL A   1      45.799  22.426  34.655  1.00  0.00     0.000 A 
ENDBRANCH  67  80
ENDBRANCH  41  42
ENDBRANCH  33  36
ENDBRANCH  31  32
ENDBRANCH  30  31
ENDBRANCH  29  30
ENDBRANCH   1  29
TORSDOF 16
ENDMDL
MODEL 2
REMARK VINA RESULT:     -12.2      1.482      1.985
REMARK SMILES Cc1c(NC(=O)c2ccc(Br)cc2N)cccc1C(=O)NCCCCCCNC(=O)c1ccc(-c2c3nc(c(-c4ccccc4)c4ccc([nH]4)c(-c4ccccc4)c4nc(c(-c5ccccc5)c5ccc2[nH]5)C=C4)C=C3)cc1
REMARK SMILES IDX 24 1 23 2 22 3 21 4 19 5 20 6 18 8 1 9 2 10 3 11 15 12 17 13
REMARK SMILES IDX 16 14 4 15 5 16 6 18 7 19 8 20 13 21 9 22 12 23 10 24 11 25
REMARK SMILES IDX 14 26 25 29 26 30 27 31 28 32 29 33 30 35 31 36 32 37 78 38
REMARK SMILES IDX 33 39 77 40 34 41 35 42 36 43 71 44 37 45 76 46 70 47 72 48
REMARK SMILES IDX 38 49 75 50 69 51 68 52 39 54 61 55 46 56 60 57 47 58 50 59
REMARK SMILES IDX 59 60 73 61 48 62 49 63 58 65 74 66 51 67 40 68 41 69 45 70
REMARK SMILES IDX 42 71 44 72 43 73 62 74 63 75 67 76 64 77 66 78 65 79 52 80
REMARK SMILES IDX 53 81 57 82 54 83 56 84 55 85
REMARK H PARENT 21 7 4 17 14 27 14 28 28 34 72 53 50 64
REMARK Flexibility Score: inf
ROOT
ATOM      1  C   UNL A   1      33.652  28.732  25.107  1.00  0.00     0.002 C 
ENDROOT
BRANCH   1   2
ATOM      2  C   UNL A   1      34.116  28.547  23.659  1.00  0.00     0.021 C 
BRANCH   2   3
ATOM      3  C   UNL A   1      32.995  28.471  22.607  1.00  0.00     0.116 C 
BRANCH   3   4
ATOM      4  N   UNL A   1      33.230  27.353  21.716  1.00  0.00    -0.352 N 
ATOM      5  C   UNL A   1      33.074  25.997  21.814  1.00  0.00     0.251 C 
ATOM      6  O   UNL A   1      33.435  25.338  20.834  1.00  0.00    -0.269 OA
ATOM      7  H   UNL A   1      33.583  27.633  20.840  1.00  0.00     0.163 HD
BRANCH   5   8
ATOM      8  C   UNL A   1      32.445  25.259  22.956  1.00  0.00     0.044 A 
ATOM      9  C   UNL A   1      34.520  25.019  24.435  1.00  0.00     0.047 C 
ATOM     10  C   UNL A   1      33.057  24.819  24.150  1.00  0.00    -0.015 A 
ATOM     11  C   UNL A   1      32.305  24.026  25.062  1.00  0.00     0.045 A 
ATOM     12  C   UNL A   1      31.007  23.612  24.755  1.00  0.00     0.026 A 
ATOM     13  C   UNL A   1      31.128  24.827  22.682  1.00  0.00     0.014 A 
ATOM     14  C   UNL A   1      30.422  24.005  23.558  1.00  0.00     0.003 A 
BRANCH  11  15
ATOM     15  N   UNL A   1      32.898  23.672  26.288  1.00  0.00    -0.322 N 
ATOM     16  C   UNL A   1      33.257  22.448  26.803  1.00  0.00     0.257 C 
ATOM     17  H   UNL A   1      33.092  24.435  26.881  1.00  0.00     0.170 HD
ATOM     18  O   UNL A   1      33.451  22.353  28.016  1.00  0.00    -0.269 OA
BRANCH  16  19
ATOM     19  C   UNL A   1      33.517  21.263  25.938  1.00  0.00     0.063 A 
ATOM     20  C   UNL A   1      32.378  20.541  25.538  1.00  0.00     0.017 A 
ATOM     21  C   UNL A   1      34.804  20.793  25.597  1.00  0.00     0.045 A 
ATOM     22  C   UNL A   1      32.503  19.377  24.780  1.00  0.00     0.016 A 
ATOM     23  C   UNL A   1      34.906  19.625  24.826  1.00  0.00     0.042 A 
ATOM     24  C   UNL A   1      33.768  18.931  24.419  1.00  0.00     0.020 A 
ATOM     25  Br  UNL A   1      33.954  17.343  23.410  1.00  0.00    -0.051 Br
BRANCH  21  26
ATOM     26  N   UNL A   1      35.986  21.302  26.133  1.00  0.00    -0.398 N 
ATOM     27  H   UNL A   1      35.965  21.815  26.973  1.00  0.00     0.156 HD
ATOM     28  H   UNL A   1      36.842  21.148  25.670  1.00  0.00     0.156 HD
ENDBRANCH  21  26
ENDBRANCH  16  19
ENDBRANCH  11  15
ENDBRANCH   5   8
ENDBRANCH   3   4
ENDBRANCH   2   3
ENDBRANCH   1   2
BRANCH   1  29
ATOM     29  C   UNL A   1      32.490  29.710  25.328  1.00  0.00     0.002 C 
BRANCH  29  30
ATOM     30  C   UNL A   1      32.472  30.436  26.676  1.00  0.00     0.021 C 
BRANCH  30  31
ATOM     31  C   UNL A   1      33.597  30.025  27.619  1.00  0.00     0.116 C 
BRANCH  31  32
ATOM     32  N   UNL A   1      34.177  31.140  28.358  1.00  0.00    -0.352 N 
ATOM     33  C   UNL A   1      35.416  31.254  28.954  1.00  0.00     0.251 C 
ATOM     34  H   UNL A   1      33.598  31.931  28.443  1.00  0.00     0.163 HD
ATOM     35  O   UNL A   1      35.708  32.279  29.568  1.00  0.00    -0.269 OA
BRANCH  33  36
ATOM     36  C   UNL A   1      36.436  30.199  28.752  1.00  0.00     0.039 A 
ATOM     37  C   UNL A   1      36.741  29.367  29.836  1.00  0.00     0.014 A 
ATOM     38  C   UNL A   1      37.197  30.134  27.587  1.00  0.00     0.014 A 
ATOM     39  C   UNL A   1      37.936  28.652  29.838  1.00  0.00     0.010 A 
ATOM     40  C   UNL A   1      38.421  29.492  27.617  1.00  0.00     0.010 A 
ATOM     41  C   UNL A   1      38.818  28.809  28.770  1.00  0.00    -0.014 A 
BRANCH  41  42
ATOM     42  C   UNL A   1      40.215  28.399  28.830  1.00  0.00     0.031 A 
ATOM     43  C   UNL A   1      40.655  27.114  28.261  1.00  0.00     0.074 A 
ATOM     44  C   UNL A   1      41.124  29.217  29.404  1.00  0.00     0.049 A 
ATOM     45  N   UNL A   1      41.710  26.480  28.647  1.00  0.00    -0.248 NA
ATOM     46  C   UNL A   1      39.897  26.411  27.232  1.00  0.00     0.031 C 
ATOM     47  C   UNL A   1      42.578  29.110  29.368  1.00  0.00     0.029 A 
ATOM     48  N   UNL A   1      40.871  30.197  30.362  1.00  0.00    -0.354 N 
ATOM     49  C   UNL A   1      41.921  25.452  27.762  1.00  0.00     0.074 A 
ATOM     50  C   UNL A   1      40.729  25.406  26.944  1.00  0.00     0.031 C 
ATOM     51  C   UNL A   1      43.085  29.777  30.417  1.00  0.00     0.029 A 
ATOM     52  C   UNL A   1      41.967  30.206  31.242  1.00  0.00     0.049 A 
ATOM     53  H   UNL A   1      40.075  30.774  30.413  1.00  0.00     0.167 HD
ATOM     54  C   UNL A   1      43.128  24.824  27.733  1.00  0.00     0.031 A 
ATOM     55  C   UNL A   1      41.797  29.892  32.560  1.00  0.00     0.031 A 
ATOM     56  C   UNL A   1      44.040  25.310  28.767  1.00  0.00     0.049 A 
ATOM     57  C   UNL A   1      42.552  28.659  33.019  1.00  0.00     0.074 A 
ATOM     58  C   UNL A   1      45.137  26.157  28.773  1.00  0.00     0.029 A 
ATOM     59  N   UNL A   1      43.694  25.124  30.095  1.00  0.00    -0.354 N 
ATOM     60  N   UNL A   1      43.241  27.875  32.236  1.00  0.00    -0.248 NA
ATOM     61  C   UNL A   1      42.488  28.153  34.393  1.00  0.00     0.031 C 
ATOM     62  C   UNL A   1      45.447  26.473  30.128  1.00  0.00     0.029 A 
ATOM     63  C   UNL A   1      44.545  25.808  30.938  1.00  0.00     0.049 A 
ATOM     64  H   UNL A   1      42.937  24.572  30.399  1.00  0.00     0.167 HD
ATOM     65  C   UNL A   1      43.651  26.777  32.943  1.00  0.00     0.074 A 
ATOM     66  C   UNL A   1      43.163  26.996  34.291  1.00  0.00     0.031 C 
ATOM     67  C   UNL A   1      44.318  25.737  32.369  1.00  0.00     0.031 A 
BRANCH  54  68
ATOM     68  C   UNL A   1      43.557  23.920  26.606  1.00  0.00    -0.014 A 
ATOM     69  C   UNL A   1      43.332  22.535  26.701  1.00  0.00     0.009 A 
ATOM     70  C   UNL A   1      44.217  24.362  25.447  1.00  0.00     0.009 A 
ATOM     71  C   UNL A   1      43.830  21.636  25.748  1.00  0.00     0.001 A 
ATOM     72  C   UNL A   1      44.756  23.467  24.513  1.00  0.00     0.001 A 
ATOM     73  C   UNL A   1      44.571  22.101  24.671  1.00  0.00     0.000 A 
ENDBRANCH  54  68
BRANCH  55  74
ATOM     74  C   UNL A   1      40.469  30.306  33.098  1.00  0.00    -0.014 A 
ATOM     75  C   UNL A   1      40.185  31.683  33.203  1.00  0.00     0.009 A 
ATOM     76  C   UNL A   1      39.406  29.396  33.172  1.00  0.00     0.009 A 
ATOM     77  C   UNL A   1      38.865  32.140  33.259  1.00  0.00     0.001 A 
ATOM     78  C   UNL A   1      38.086  29.857  33.249  1.00  0.00     0.001 A 
ATOM     79  C   UNL A   1      37.816  31.225  33.256  1.00  0.00     0.000 A 
ENDBRANCH  55  74
BRANCH  67  80
ATOM     80  C   UNL A   1      44.787  24.533  33.130  1.00  0.00    -0.014 A 
ATOM     81  C   UNL A   1      43.933  23.468  33.448  1.00  0.00     0.009 A 
ATOM     82  C   UNL A   1      46.092  24.498  33.662  1.00  0.00     0.009 A 
ATOM     83  C   UNL A   1      44.382  22.389  34.219  1.00  0.00     0.001 A 
ATOM     84  C   UNL A   1      46.534  23.434  34.451  1.00  0.00     0.001 A 
ATOM     85  C   UNL A   1      45.681  22.374  34.721  1.00  0.00     0.000 A 
ENDBRANCH  67  80
ENDBRANCH  41  42
ENDBRANCH  33  36
ENDBRANCH  31  32
ENDBRANCH  30  31
ENDBRANCH  29  30
ENDBRANCH   1  29
TORSDOF 16
ENDMDL
MODEL 3
REMARK VINA RESULT:     -12.2      3.714      9.061
REMARK SMILES Cc1c(NC(=O)c2ccc(Br)cc2N)cccc1C(=O)NCCCCCCNC(=O)c1ccc(-c2c3nc(c(-c4ccccc4)c4ccc([nH]4)c(-c4ccccc4)c4nc(c(-c5ccccc5)c5ccc2[nH]5)C=C4)C=C3)cc1
REMARK SMILES IDX 24 1 23 2 22 3 21 4 19 5 20 6 18 8 1 9 2 10 3 11 15 12 17 13
REMARK SMILES IDX 16 14 4 15 5 16 6 18 7 19 8 20 13 21 9 22 12 23 10 24 11 25
REMARK SMILES IDX 14 26 25 29 26 30 27 31 28 32 29 33 30 35 31 36 32 37 78 38
REMARK SMILES IDX 33 39 77 40 34 41 35 42 36 43 71 44 37 45 76 46 70 47 72 48
REMARK SMILES IDX 38 49 75 50 69 51 68 52 39 54 61 55 46 56 60 57 47 58 50 59
REMARK SMILES IDX 59 60 73 61 48 62 49 63 58 65 74 66 51 67 40 68 41 69 45 70
REMARK SMILES IDX 42 71 44 72 43 73 62 74 63 75 67 76 64 77 66 78 65 79 52 80
REMARK SMILES IDX 53 81 57 82 54 83 56 84 55 85
REMARK H PARENT 21 7 4 17 14 27 14 28 28 34 72 53 50 64
REMARK Flexibility Score: inf
ROOT
ATOM      1  C   UNL A   1      35.613  21.225  25.376  1.00  0.00     0.002 C 
ENDROOT
BRANCH   1   2
ATOM      2  C   UNL A   1      35.058  19.892  24.861  1.00  0.00     0.021 C 
BRANCH   2   3
ATOM      3  C   UNL A   1      33.537  19.708  25.000  1.00  0.00     0.116 C 
BRANCH   3   4
ATOM      4  N   UNL A   1      32.880  20.088  23.765  1.00  0.00    -0.352 N 
ATOM      5  C   UNL A   1      32.508  21.279  23.202  1.00  0.00     0.251 C 
ATOM      6  O   UNL A   1      31.909  21.204  22.126  1.00  0.00    -0.269 OA
ATOM      7  H   UNL A   1      32.649  19.313  23.204  1.00  0.00     0.163 HD
BRANCH   5   8
ATOM      8  C   UNL A   1      32.824  22.645  23.731  1.00  0.00     0.044 A 
ATOM      9  C   UNL A   1      31.025  22.769  25.547  1.00  0.00     0.047 C 
ATOM     10  C   UNL A   1      32.192  23.336  24.787  1.00  0.00    -0.015 A 
ATOM     11  C   UNL A   1      32.569  24.683  25.056  1.00  0.00     0.045 A 
ATOM     12  C   UNL A   1      33.489  25.348  24.244  1.00  0.00     0.026 A 
ATOM     13  C   UNL A   1      33.755  23.348  22.934  1.00  0.00     0.014 A 
ATOM     14  C   UNL A   1      34.075  24.683  23.175  1.00  0.00     0.003 A 
BRANCH  11  15
ATOM     15  N   UNL A   1      31.997  25.328  26.168  1.00  0.00    -0.322 N 
ATOM     16  C   UNL A   1      31.433  26.576  26.303  1.00  0.00     0.257 C 
ATOM     17  H   UNL A   1      31.998  24.792  26.995  1.00  0.00     0.170 HD
ATOM     18  O   UNL A   1      31.303  27.044  27.435  1.00  0.00    -0.269 OA
BRANCH  16  19
ATOM     19  C   UNL A   1      30.886  27.333  25.143  1.00  0.00     0.063 A 
ATOM     20  C   UNL A   1      31.415  28.623  24.955  1.00  0.00     0.017 A 
ATOM     21  C   UNL A   1      29.833  26.877  24.319  1.00  0.00     0.045 A 
ATOM     22  C   UNL A   1      30.933  29.450  23.940  1.00  0.00     0.016 A 
ATOM     23  C   UNL A   1      29.369  27.721  23.299  1.00  0.00     0.042 A 
ATOM     24  C   UNL A   1      29.918  28.989  23.110  1.00  0.00     0.020 A 
ATOM     25  Br  UNL A   1      29.239  30.106  21.744  1.00  0.00    -0.051 Br
BRANCH  21  26
ATOM     26  N   UNL A   1      29.094  25.722  24.569  1.00  0.00    -0.398 N 
ATOM     27  H   UNL A   1      28.409  25.428  23.926  1.00  0.00     0.156 HD
ATOM     28  H   UNL A   1      29.259  25.199  25.387  1.00  0.00     0.156 HD
ENDBRANCH  21  26
ENDBRANCH  16  19
ENDBRANCH  11  15
ENDBRANCH   5   8
ENDBRANCH   3   4
ENDBRANCH   2   3
ENDBRANCH   1   2
BRANCH   1  29
ATOM     29  C   UNL A   1      36.853  21.769  24.654  1.00  0.00     0.002 C 
BRANCH  29  30
ATOM     30  C   UNL A   1      38.174  21.663  25.419  1.00  0.00     0.021 C 
BRANCH  30  31
ATOM     31  C   UNL A   1      38.593  22.952  26.118  1.00  0.00     0.116 C 
BRANCH  31  32
ATOM     32  N   UNL A   1      40.013  23.004  26.447  1.00  0.00    -0.352 N 
ATOM     33  C   UNL A   1      40.779  24.064  26.884  1.00  0.00     0.251 C 
ATOM     34  H   UNL A   1      40.497  22.153  26.341  1.00  0.00     0.163 HD
ATOM     35  O   UNL A   1      41.984  23.910  27.078  1.00  0.00    -0.269 OA
BRANCH  33  36
ATOM     36  C   UNL A   1      40.133  25.348  27.241  1.00  0.00     0.039 A 
ATOM     37  C   UNL A   1      40.489  26.486  26.505  1.00  0.00     0.014 A 
ATOM     38  C   UNL A   1      39.329  25.472  28.372  1.00  0.00     0.014 A 
ATOM     39  C   UNL A   1      40.240  27.750  27.034  1.00  0.00     0.010 A 
ATOM     40  C   UNL A   1      39.152  26.720  28.939  1.00  0.00     0.010 A 
ATOM     41  C   UNL A   1      39.669  27.851  28.301  1.00  0.00    -0.014 A 
BRANCH  41  42
ATOM     42  C   UNL A   1      39.689  29.082  29.083  1.00  0.00     0.031 A 
ATOM     43  C   UNL A   1      38.681  30.134  28.867  1.00  0.00     0.074 A 
ATOM     44  C   UNL A   1      40.637  29.253  30.029  1.00  0.00     0.049 A 
ATOM     45  N   UNL A   1      38.869  31.378  29.152  1.00  0.00    -0.248 NA
ATOM     46  C   UNL A   1      37.385  29.866  28.256  1.00  0.00     0.031 C 
ATOM     47  C   UNL A   1      40.701  30.284  31.059  1.00  0.00     0.029 A 
ATOM     48  N   UNL A   1      41.886  28.638  30.073  1.00  0.00    -0.354 N 
ATOM     49  C   UNL A   1      37.661  32.018  29.024  1.00  0.00     0.074 A 
ATOM     50  C   UNL A   1      36.786  31.053  28.395  1.00  0.00     0.031 C 
ATOM     51  C   UNL A   1      41.977  30.416  31.457  1.00  0.00     0.029 A 
ATOM     52  C   UNL A   1      42.792  29.582  30.589  1.00  0.00     0.049 A 
ATOM     53  H   UNL A   1      42.096  27.717  29.797  1.00  0.00     0.167 HD
ATOM     54  C   UNL A   1      37.490  33.253  29.570  1.00  0.00     0.031 A 
ATOM     55  C   UNL A   1      43.836  30.025  29.828  1.00  0.00     0.031 A 
ATOM     56  C   UNL A   1      38.716  33.777  30.169  1.00  0.00     0.049 A 
ATOM     57  C   UNL A   1      43.810  31.509  29.521  1.00  0.00     0.074 A 
ATOM     58  C   UNL A   1      39.182  33.909  31.467  1.00  0.00     0.029 A 
ATOM     59  N   UNL A   1      39.805  34.016  29.347  1.00  0.00    -0.354 N 
ATOM     60  N   UNL A   1      42.843  32.320  29.853  1.00  0.00    -0.248 NA
ATOM     61  C   UNL A   1      44.834  32.172  28.709  1.00  0.00     0.031 C 
ATOM     62  C   UNL A   1      40.568  34.236  31.412  1.00  0.00     0.029 A 
ATOM     63  C   UNL A   1      40.935  34.312  30.081  1.00  0.00     0.049 A 
ATOM     64  H   UNL A   1      39.776  33.980  28.363  1.00  0.00     0.167 HD
ATOM     65  C   UNL A   1      43.064  33.544  29.282  1.00  0.00     0.074 A 
ATOM     66  C   UNL A   1      44.325  33.409  28.580  1.00  0.00     0.031 C 
ATOM     67  C   UNL A   1      42.176  34.574  29.378  1.00  0.00     0.031 A 
BRANCH  54  68
ATOM     68  C   UNL A   1      36.137  33.888  29.757  1.00  0.00    -0.014 A 
ATOM     69  C   UNL A   1      35.591  33.993  31.049  1.00  0.00     0.009 A 
ATOM     70  C   UNL A   1      35.336  34.367  28.707  1.00  0.00     0.009 A 
ATOM     71  C   UNL A   1      34.284  34.449  31.268  1.00  0.00     0.001 A 
ATOM     72  C   UNL A   1      34.014  34.782  28.911  1.00  0.00     0.001 A 
ATOM     73  C   UNL A   1      33.483  34.812  30.193  1.00  0.00     0.000 A 
ENDBRANCH  54  68
BRANCH  55  74
ATOM     74  C   UNL A   1      44.366  28.988  28.894  1.00  0.00    -0.014 A 
ATOM     75  C   UNL A   1      45.142  27.938  29.425  1.00  0.00     0.009 A 
ATOM     76  C   UNL A   1      43.840  28.846  27.603  1.00  0.00     0.009 A 
ATOM     77  C   UNL A   1      45.286  26.734  28.731  1.00  0.00     0.001 A 
ATOM     78  C   UNL A   1      44.004  27.646  26.902  1.00  0.00     0.001 A 
ATOM     79  C   UNL A   1      44.694  26.580  27.480  1.00  0.00     0.000 A 
ENDBRANCH  55  74
BRANCH  67  80
ATOM     80  C   UNL A   1      42.408  35.926  28.772  1.00  0.00    -0.014 A 
ATOM     81  C   UNL A   1      41.856  36.299  27.538  1.00  0.00     0.009 A 
ATOM     82  C   UNL A   1      43.304  36.828  29.379  1.00  0.00     0.009 A 
ATOM     83  C   UNL A   1      42.146  37.543  26.965  1.00  0.00     0.001 A 
ATOM     84  C   UNL A   1      43.613  38.060  28.797  1.00  0.00     0.001 A 
ATOM     85  C   UNL A   1      43.025  38.421  27.593  1.00  0.00     0.000 A 
ENDBRANCH  67  80
ENDBRANCH  41  42
ENDBRANCH  33  36
ENDBRANCH  31  32
ENDBRANCH  30  31
ENDBRANCH  29  30
ENDBRANCH   1  29
TORSDOF 16
ENDMDL
