MODEL 1
REMARK VINA RESULT:     -11.1      0.000      0.000
REMARK SMILES O=C(NCCCCCCNC(=O)c1ccc(S(=O)(=O)NCC[NH+]2CCCC2)c(F)c1)c1ccc(-c2c3nc(c(-c4ccccc4)c4ccc([nH]4)c(-c4ccccc4)c4nc(c(-c5ccccc5)c5ccc2[nH]5)C=C4)C=C3)cc1
REMARK SMILES IDX 8 1 7 2 6 3 5 4 4 5 3 6 1 7 2 8 31 10 32 11 78 12 33 13
REMARK SMILES IDX 77 14 34 15 35 16 36 17 71 18 37 19 76 20 70 21 72 22 38 23
REMARK SMILES IDX 75 24 69 25 68 26 39 28 61 29 46 30 60 31 47 32 50 33 59 34
REMARK SMILES IDX 73 35 48 36 49 37 58 39 74 40 51 41 40 42 41 43 45 44 42 45
REMARK SMILES IDX 44 46 43 47 62 48 63 49 67 50 64 51 66 52 65 53 52 54 53 55
REMARK SMILES IDX 57 56 54 57 56 58 55 59 9 60 10 61 11 62 12 64 13 65 14 66
REMARK SMILES IDX 30 67 15 68 28 69 16 70 29 71 17 72 18 73 19 74 20 75 21 77
REMARK SMILES IDX 22 78 23 79 24 80 27 81 25 83 26 84
REMARK H PARENT 3 9 72 27 50 38 10 63 20 76 23 82
REMARK Flexibility Score: inf
ROOT
ATOM      1  C   UNL A   1      30.668  28.952  23.176  1.00  0.00     0.021 C 
ENDROOT
BRANCH   1   2
ATOM      2  C   UNL A   1      31.895  29.232  24.050  1.00  0.00     0.002 C 
BRANCH   2   3
ATOM      3  C   UNL A   1      32.124  28.256  25.206  1.00  0.00     0.002 C 
BRANCH   3   4
ATOM      4  C   UNL A   1      33.556  28.183  25.740  1.00  0.00     0.021 C 
BRANCH   4   5
ATOM      5  C   UNL A   1      33.709  28.429  27.239  1.00  0.00     0.116 C 
BRANCH   5   6
ATOM      6  N   UNL A   1      33.609  29.835  27.584  1.00  0.00    -0.352 N 
ATOM      7  O   UNL A   1      34.209  31.784  28.539  1.00  0.00    -0.269 OA
ATOM      8  C   UNL A   1      34.531  30.656  28.180  1.00  0.00     0.251 C 
ATOM      9  H   UNL A   1      32.753  30.263  27.354  1.00  0.00     0.163 HD
BRANCH   8  10
ATOM     10  C   UNL A   1      35.911  30.179  28.414  1.00  0.00     0.039 A 
ATOM     11  C   UNL A   1      36.883  30.252  27.412  1.00  0.00     0.014 A 
ATOM     12  C   UNL A   1      36.243  29.692  29.681  1.00  0.00     0.014 A 
ATOM     13  C   UNL A   1      38.162  29.751  27.647  1.00  0.00     0.010 A 
ATOM     14  C   UNL A   1      37.540  29.240  29.932  1.00  0.00     0.010 A 
ATOM     15  C   UNL A   1      38.503  29.249  28.912  1.00  0.00    -0.014 A 
BRANCH  15  16
ATOM     16  C   UNL A   1      39.883  28.788  29.190  1.00  0.00     0.031 A 
ATOM     17  C   UNL A   1      40.897  29.717  29.791  1.00  0.00     0.074 A 
ATOM     18  C   UNL A   1      40.234  27.534  28.852  1.00  0.00     0.049 A 
ATOM     19  N   UNL A   1      42.168  29.510  30.022  1.00  0.00    -0.248 NA
ATOM     20  C   UNL A   1      40.425  31.057  30.170  1.00  0.00     0.031 C 
ATOM     21  C   UNL A   1      39.340  26.541  28.254  1.00  0.00     0.029 A 
ATOM     22  N   UNL A   1      41.439  26.887  28.949  1.00  0.00    -0.354 N 
ATOM     23  C   UNL A   1      42.655  30.698  30.552  1.00  0.00     0.074 A 
ATOM     24  C   UNL A   1      41.545  31.627  30.594  1.00  0.00     0.031 C 
ATOM     25  C   UNL A   1      40.026  25.409  28.038  1.00  0.00     0.029 A 
ATOM     26  C   UNL A   1      41.416  25.613  28.437  1.00  0.00     0.049 A 
ATOM     27  H   UNL A   1      42.242  27.295  29.346  1.00  0.00     0.167 HD
ATOM     28  C   UNL A   1      43.913  30.987  30.963  1.00  0.00     0.031 A 
ATOM     29  C   UNL A   1      42.405  24.718  28.273  1.00  0.00     0.031 A 
ATOM     30  C   UNL A   1      45.014  30.063  30.919  1.00  0.00     0.049 A 
ATOM     31  C   UNL A   1      43.797  25.070  28.707  1.00  0.00     0.074 A 
ATOM     32  C   UNL A   1      46.314  30.248  31.360  1.00  0.00     0.029 A 
ATOM     33  N   UNL A   1      44.949  28.782  30.393  1.00  0.00    -0.354 N 
ATOM     34  N   UNL A   1      44.232  26.182  29.248  1.00  0.00    -0.248 NA
ATOM     35  C   UNL A   1      44.832  24.045  28.511  1.00  0.00     0.031 C 
ATOM     36  C   UNL A   1      47.046  29.095  31.058  1.00  0.00     0.029 A 
ATOM     37  C   UNL A   1      46.191  28.176  30.471  1.00  0.00     0.049 A 
ATOM     38  H   UNL A   1      44.139  28.366  30.018  1.00  0.00     0.167 HD
ATOM     39  C   UNL A   1      45.588  25.988  29.471  1.00  0.00     0.074 A 
ATOM     40  C   UNL A   1      45.901  24.648  29.016  1.00  0.00     0.031 C 
ATOM     41  C   UNL A   1      46.489  26.844  30.009  1.00  0.00     0.031 A 
BRANCH  28  42
ATOM     42  C   UNL A   1      44.169  32.380  31.466  1.00  0.00    -0.014 A 
ATOM     43  C   UNL A   1      44.386  33.448  30.581  1.00  0.00     0.009 A 
ATOM     44  C   UNL A   1      44.171  32.629  32.847  1.00  0.00     0.009 A 
ATOM     45  C   UNL A   1      44.636  34.731  31.073  1.00  0.00     0.001 A 
ATOM     46  C   UNL A   1      44.397  33.917  33.334  1.00  0.00     0.001 A 
ATOM     47  C   UNL A   1      44.639  34.965  32.448  1.00  0.00     0.000 A 
ENDBRANCH  28  42
BRANCH  29  48
ATOM     48  C   UNL A   1      42.099  23.409  27.645  1.00  0.00    -0.014 A 
ATOM     49  C   UNL A   1      41.576  22.356  28.409  1.00  0.00     0.009 A 
ATOM     50  C   UNL A   1      42.272  23.231  26.263  1.00  0.00     0.009 A 
ATOM     51  C   UNL A   1      41.235  21.147  27.799  1.00  0.00     0.001 A 
ATOM     52  C   UNL A   1      41.909  22.029  25.654  1.00  0.00     0.001 A 
ATOM     53  C   UNL A   1      41.394  20.987  26.423  1.00  0.00     0.000 A 
ENDBRANCH  29  48
BRANCH  41  54
ATOM     54  C   UNL A   1      47.898  26.351  30.160  1.00  0.00    -0.014 A 
ATOM     55  C   UNL A   1      48.836  26.517  29.130  1.00  0.00     0.009 A 
ATOM     56  C   UNL A   1      48.303  25.767  31.369  1.00  0.00     0.009 A 
ATOM     57  C   UNL A   1      50.153  26.087  29.304  1.00  0.00     0.001 A 
ATOM     58  C   UNL A   1      49.625  25.357  31.546  1.00  0.00     0.001 A 
ATOM     59  C   UNL A   1      50.547  25.514  30.513  1.00  0.00     0.000 A 
ENDBRANCH  41  54
ENDBRANCH  15  16
ENDBRANCH   8  10
ENDBRANCH   5   6
ENDBRANCH   4   5
ENDBRANCH   3   4
ENDBRANCH   2   3
ENDBRANCH   1   2
BRANCH   1  60
ATOM     60  C   UNL A   1      30.481  27.499  22.748  1.00  0.00     0.116 C 
BRANCH  60  61
ATOM     61  N   UNL A   1      31.445  27.081  21.744  1.00  0.00    -0.352 N 
ATOM     62  C   UNL A   1      32.417  26.116  21.813  1.00  0.00     0.251 C 
ATOM     63  H   UNL A   1      31.393  27.563  20.887  1.00  0.00     0.163 HD
ATOM     64  O   UNL A   1      33.236  25.991  20.910  1.00  0.00    -0.269 OA
BRANCH  62  65
ATOM     65  C   UNL A   1      32.505  25.240  22.999  1.00  0.00     0.042 A 
ATOM     66  C   UNL A   1      31.408  24.483  23.424  1.00  0.00     0.015 A 
ATOM     67  C   UNL A   1      33.722  25.164  23.682  1.00  0.00     0.054 A 
ATOM     68  C   UNL A   1      31.500  23.734  24.597  1.00  0.00     0.026 A 
ATOM     69  C   UNL A   1      33.817  24.392  24.837  1.00  0.00     0.144 A 
ATOM     70  C   UNL A   1      32.706  23.709  25.313  1.00  0.00     0.118 A 
ATOM     71  F   UNL A   1      34.993  24.353  25.474  1.00  0.00    -0.205 F 
BRANCH  70  72
ATOM     72  S   UNL A   1      32.740  22.836  26.842  1.00  0.00     0.243 S 
ATOM     73  O   UNL A   1      33.957  23.236  27.514  1.00  0.00    -0.207 OA
ATOM     74  O   UNL A   1      31.443  23.019  27.455  1.00  0.00    -0.207 OA
BRANCH  72  75
ATOM     75  N   UNL A   1      32.874  21.217  26.486  1.00  0.00    -0.205 NA
ATOM     76  H   UNL A   1      31.972  20.804  26.724  1.00  0.00     0.141 HD
BRANCH  75  77
ATOM     77  C   UNL A   1      33.209  20.707  25.159  1.00  0.00     0.160 C 
BRANCH  77  78
ATOM     78  C   UNL A   1      32.779  19.247  24.914  1.00  0.00     0.278 C 
BRANCH  78  79
ATOM     79  N   UNL A   1      33.649  18.129  25.299  1.00  0.00    -0.334 N 
ATOM     80  C   UNL A   1      34.623  17.708  24.298  1.00  0.00     0.262 C 
ATOM     81  C   UNL A   1      32.951  16.930  25.758  1.00  0.00     0.262 C 
ATOM     82  H   UNL A   1      34.144  18.558  26.082  1.00  0.00     0.348 HD
ATOM     83  C   UNL A   1      34.026  16.489  23.626  1.00  0.00     0.067 C 
ATOM     84  C   UNL A   1      33.123  15.869  24.678  1.00  0.00     0.067 C 
ENDBRANCH  78  79
ENDBRANCH  77  78
ENDBRANCH  75  77
ENDBRANCH  72  75
ENDBRANCH  70  72
ENDBRANCH  62  65
ENDBRANCH  60  61
ENDBRANCH   1  60
TORSDOF 18
ENDMDL
MODEL 2
REMARK VINA RESULT:     -10.5      2.918      6.997
REMARK SMILES O=C(NCCCCCCNC(=O)c1ccc(S(=O)(=O)NCC[NH+]2CCCC2)c(F)c1)c1ccc(-c2c3nc(c(-c4ccccc4)c4ccc([nH]4)c(-c4ccccc4)c4nc(c(-c5ccccc5)c5ccc2[nH]5)C=C4)C=C3)cc1
REMARK SMILES IDX 8 1 7 2 6 3 5 4 4 5 3 6 1 7 2 8 31 10 32 11 78 12 33 13
REMARK SMILES IDX 77 14 34 15 35 16 36 17 71 18 37 19 76 20 70 21 72 22 38 23
REMARK SMILES IDX 75 24 69 25 68 26 39 28 61 29 46 30 60 31 47 32 50 33 59 34
REMARK SMILES IDX 73 35 48 36 49 37 58 39 74 40 51 41 40 42 41 43 45 44 42 45
REMARK SMILES IDX 44 46 43 47 62 48 63 49 67 50 64 51 66 52 65 53 52 54 53 55
REMARK SMILES IDX 57 56 54 57 56 58 55 59 9 60 10 61 11 62 12 64 13 65 14 66
REMARK SMILES IDX 30 67 15 68 28 69 16 70 29 71 17 72 18 73 19 74 20 75 21 77
REMARK SMILES IDX 22 78 23 79 24 80 27 81 25 83 26 84
REMARK H PARENT 3 9 72 27 50 38 10 63 20 76 23 82
REMARK Flexibility Score: inf
ROOT
ATOM      1  C   UNL A   1      33.197  29.444  26.647  1.00  0.00     0.021 C 
ENDROOT
BRANCH   1   2
ATOM      2  C   UNL A   1      32.170  30.108  25.724  1.00  0.00     0.002 C 
BRANCH   2   3
ATOM      3  C   UNL A   1      31.118  30.978  26.415  1.00  0.00     0.002 C 
BRANCH   3   4
ATOM      4  C   UNL A   1      31.404  32.481  26.431  1.00  0.00     0.021 C 
BRANCH   4   5
ATOM      5  C   UNL A   1      32.624  32.907  27.243  1.00  0.00     0.116 C 
BRANCH   5   6
ATOM      6  N   UNL A   1      32.431  34.183  27.906  1.00  0.00    -0.352 N 
ATOM      7  O   UNL A   1      32.761  35.789  29.449  1.00  0.00    -0.269 OA
ATOM      8  C   UNL A   1      33.170  34.772  28.899  1.00  0.00     0.251 C 
ATOM      9  H   UNL A   1      31.655  34.704  27.596  1.00  0.00     0.163 HD
BRANCH   8  10
ATOM     10  C   UNL A   1      34.453  34.174  29.327  1.00  0.00     0.039 A 
ATOM     11  C   UNL A   1      35.649  34.476  28.670  1.00  0.00     0.014 A 
ATOM     12  C   UNL A   1      34.456  33.328  30.440  1.00  0.00     0.014 A 
ATOM     13  C   UNL A   1      36.834  33.859  29.066  1.00  0.00     0.010 A 
ATOM     14  C   UNL A   1      35.653  32.753  30.869  1.00  0.00     0.010 A 
ATOM     15  C   UNL A   1      36.847  33.000  30.175  1.00  0.00    -0.014 A 
BRANCH  15  16
ATOM     16  C   UNL A   1      38.118  32.404  30.648  1.00  0.00     0.031 A 
ATOM     17  C   UNL A   1      38.648  31.139  30.038  1.00  0.00     0.074 A 
ATOM     18  C   UNL A   1      38.772  32.986  31.671  1.00  0.00     0.049 A 
ATOM     19  N   UNL A   1      39.695  30.434  30.383  1.00  0.00    -0.248 NA
ATOM     20  C   UNL A   1      37.899  30.589  28.899  1.00  0.00     0.031 C 
ATOM     21  C   UNL A   1      38.352  34.212  32.351  1.00  0.00     0.029 A 
ATOM     22  N   UNL A   1      39.919  32.614  32.324  1.00  0.00    -0.354 N 
ATOM     23  C   UNL A   1      39.719  29.345  29.522  1.00  0.00     0.074 A 
ATOM     24  C   UNL A   1      38.572  29.475  28.647  1.00  0.00     0.031 C 
ATOM     25  C   UNL A   1      39.229  34.493  33.326  1.00  0.00     0.029 A 
ATOM     26  C   UNL A   1      40.243  33.443  33.369  1.00  0.00     0.049 A 
ATOM     27  H   UNL A   1      40.457  31.830  32.069  1.00  0.00     0.167 HD
ATOM     28  C   UNL A   1      40.613  28.329  29.469  1.00  0.00     0.031 A 
ATOM     29  C   UNL A   1      41.225  33.355  34.284  1.00  0.00     0.031 A 
ATOM     30  C   UNL A   1      41.751  28.202  30.340  1.00  0.00     0.049 A 
ATOM     31  C   UNL A   1      42.186  32.206  34.225  1.00  0.00     0.074 A 
ATOM     32  C   UNL A   1      42.742  27.235  30.330  1.00  0.00     0.029 A 
ATOM     33  N   UNL A   1      42.043  29.063  31.386  1.00  0.00    -0.354 N 
ATOM     34  N   UNL A   1      42.221  31.208  33.376  1.00  0.00    -0.248 NA
ATOM     35  C   UNL A   1      43.242  32.172  35.246  1.00  0.00     0.031 C 
ATOM     36  C   UNL A   1      43.608  27.486  31.399  1.00  0.00     0.029 A 
ATOM     37  C   UNL A   1      43.183  28.635  32.046  1.00  0.00     0.049 A 
ATOM     38  H   UNL A   1      41.518  29.861  31.625  1.00  0.00     0.167 HD
ATOM     39  C   UNL A   1      43.311  30.433  33.749  1.00  0.00     0.074 A 
ATOM     40  C   UNL A   1      43.915  31.083  34.896  1.00  0.00     0.031 C 
ATOM     41  C   UNL A   1      43.769  29.288  33.188  1.00  0.00     0.031 A 
BRANCH  28  42
ATOM     42  C   UNL A   1      40.372  27.253  28.448  1.00  0.00    -0.014 A 
ATOM     43  C   UNL A   1      39.559  26.145  28.733  1.00  0.00     0.009 A 
ATOM     44  C   UNL A   1      40.950  27.364  27.174  1.00  0.00     0.009 A 
ATOM     45  C   UNL A   1      39.361  25.151  27.773  1.00  0.00     0.001 A 
ATOM     46  C   UNL A   1      40.730  26.380  26.209  1.00  0.00     0.001 A 
ATOM     47  C   UNL A   1      39.944  25.269  26.512  1.00  0.00     0.000 A 
ENDBRANCH  28  42
BRANCH  29  48
ATOM     48  C   UNL A   1      41.318  34.388  35.345  1.00  0.00    -0.014 A 
ATOM     49  C   UNL A   1      42.039  35.571  35.127  1.00  0.00     0.009 A 
ATOM     50  C   UNL A   1      40.633  34.219  36.558  1.00  0.00     0.009 A 
ATOM     51  C   UNL A   1      42.073  36.564  36.108  1.00  0.00     0.001 A 
ATOM     52  C   UNL A   1      40.651  35.223  37.527  1.00  0.00     0.001 A 
ATOM     53  C   UNL A   1      41.374  36.393  37.303  1.00  0.00     0.000 A 
ENDBRANCH  29  48
BRANCH  41  54
ATOM     54  C   UNL A   1      44.999  28.675  33.789  1.00  0.00    -0.014 A 
ATOM     55  C   UNL A   1      46.280  29.078  33.383  1.00  0.00     0.009 A 
ATOM     56  C   UNL A   1      44.871  27.725  34.813  1.00  0.00     0.009 A 
ATOM     57  C   UNL A   1      47.413  28.524  33.982  1.00  0.00     0.001 A 
ATOM     58  C   UNL A   1      46.006  27.189  35.424  1.00  0.00     0.001 A 
ATOM     59  C   UNL A   1      47.275  27.586  35.005  1.00  0.00     0.000 A 
ENDBRANCH  41  54
ENDBRANCH  15  16
ENDBRANCH   8  10
ENDBRANCH   5   6
ENDBRANCH   4   5
ENDBRANCH   3   4
ENDBRANCH   2   3
ENDBRANCH   1   2
BRANCH   1  60
ATOM     60  C   UNL A   1      34.324  28.690  25.945  1.00  0.00     0.116 C 
BRANCH  60  61
ATOM     61  N   UNL A   1      34.001  28.354  24.568  1.00  0.00    -0.352 N 
ATOM     62  C   UNL A   1      33.775  27.128  23.997  1.00  0.00     0.251 C 
ATOM     63  H   UNL A   1      33.935  29.122  23.954  1.00  0.00     0.163 HD
ATOM     64  O   UNL A   1      33.648  27.021  22.783  1.00  0.00    -0.269 OA
BRANCH  62  65
ATOM     65  C   UNL A   1      33.718  25.918  24.843  1.00  0.00     0.042 A 
ATOM     66  C   UNL A   1      34.864  25.161  25.104  1.00  0.00     0.015 A 
ATOM     67  C   UNL A   1      32.489  25.555  25.401  1.00  0.00     0.054 A 
ATOM     68  C   UNL A   1      34.758  23.978  25.835  1.00  0.00     0.026 A 
ATOM     69  C   UNL A   1      32.394  24.387  26.154  1.00  0.00     0.144 A 
ATOM     70  C   UNL A   1      33.511  23.584  26.342  1.00  0.00     0.118 A 
ATOM     71  F   UNL A   1      31.200  24.060  26.662  1.00  0.00    -0.205 F 
BRANCH  70  72
ATOM     72  S   UNL A   1      33.409  22.031  27.166  1.00  0.00     0.243 S 
ATOM     73  O   UNL A   1      34.730  21.447  27.100  1.00  0.00    -0.207 OA
ATOM     74  O   UNL A   1      32.752  22.273  28.431  1.00  0.00    -0.207 OA
BRANCH  72  75
ATOM     75  N   UNL A   1      32.389  21.064  26.277  1.00  0.00    -0.205 NA
ATOM     76  H   UNL A   1      31.486  21.539  26.274  1.00  0.00     0.141 HD
BRANCH  75  77
ATOM     77  C   UNL A   1      32.643  20.683  24.890  1.00  0.00     0.160 C 
BRANCH  77  78
ATOM     78  C   UNL A   1      33.646  19.524  24.725  1.00  0.00     0.278 C 
BRANCH  78  79
ATOM     79  N   UNL A   1      33.223  18.233  24.168  1.00  0.00    -0.334 N 
ATOM     80  C   UNL A   1      32.359  17.425  25.021  1.00  0.00     0.262 C 
ATOM     81  C   UNL A   1      34.309  17.370  23.707  1.00  0.00     0.262 C 
ATOM     82  H   UNL A   1      32.682  18.561  23.367  1.00  0.00     0.348 HD
ATOM     83  C   UNL A   1      33.262  16.395  25.669  1.00  0.00     0.067 C 
ATOM     84  C   UNL A   1      34.402  16.204  24.684  1.00  0.00     0.067 C 
ENDBRANCH  78  79
ENDBRANCH  77  78
ENDBRANCH  75  77
ENDBRANCH  72  75
ENDBRANCH  70  72
ENDBRANCH  62  65
ENDBRANCH  60  61
ENDBRANCH   1  60
TORSDOF 18
ENDMDL
MODEL 3
REMARK VINA RESULT:     -10.5      2.950      4.059
REMARK SMILES O=C(NCCCCCCNC(=O)c1ccc(S(=O)(=O)NCC[NH+]2CCCC2)c(F)c1)c1ccc(-c2c3nc(c(-c4ccccc4)c4ccc([nH]4)c(-c4ccccc4)c4nc(c(-c5ccccc5)c5ccc2[nH]5)C=C4)C=C3)cc1
REMARK SMILES IDX 8 1 7 2 6 3 5 4 4 5 3 6 1 7 2 8 31 10 32 11 78 12 33 13
REMARK SMILES IDX 77 14 34 15 35 16 36 17 71 18 37 19 76 20 70 21 72 22 38 23
REMARK SMILES IDX 75 24 69 25 68 26 39 28 61 29 46 30 60 31 47 32 50 33 59 34
REMARK SMILES IDX 73 35 48 36 49 37 58 39 74 40 51 41 40 42 41 43 45 44 42 45
REMARK SMILES IDX 44 46 43 47 62 48 63 49 67 50 64 51 66 52 65 53 52 54 53 55
REMARK SMILES IDX 57 56 54 57 56 58 55 59 9 60 10 61 11 62 12 64 13 65 14 66
REMARK SMILES IDX 30 67 15 68 28 69 16 70 29 71 17 72 18 73 19 74 20 75 21 77
REMARK SMILES IDX 22 78 23 79 24 80 27 81 25 83 26 84
REMARK H PARENT 3 9 72 27 50 38 10 63 20 76 23 82
REMARK Flexibility Score: inf
ROOT
ATOM      1  C   UNL A   1      33.049  29.814  26.439  1.00  0.00     0.021 C 
ENDROOT
BRANCH   1   2
ATOM      2  C   UNL A   1      34.396  29.894  27.166  1.00  0.00     0.002 C 
BRANCH   2   3
ATOM      3  C   UNL A   1      34.691  31.216  27.877  1.00  0.00     0.002 C 
BRANCH   3   4
ATOM      4  C   UNL A   1      33.531  32.211  27.940  1.00  0.00     0.021 C 
BRANCH   4   5
ATOM      5  C   UNL A   1      33.926  33.684  27.874  1.00  0.00     0.116 C 
BRANCH   5   6
ATOM      6  N   UNL A   1      33.435  34.441  29.010  1.00  0.00    -0.352 N 
ATOM      7  O   UNL A   1      33.189  35.006  31.176  1.00  0.00    -0.269 OA
ATOM      8  C   UNL A   1      33.831  34.403  30.322  1.00  0.00     0.251 C 
ATOM      9  H   UNL A   1      32.711  35.077  28.809  1.00  0.00     0.163 HD
BRANCH   8  10
ATOM     10  C   UNL A   1      35.021  33.620  30.718  1.00  0.00     0.039 A 
ATOM     11  C   UNL A   1      34.904  32.473  31.510  1.00  0.00     0.014 A 
ATOM     12  C   UNL A   1      36.273  34.022  30.245  1.00  0.00     0.014 A 
ATOM     13  C   UNL A   1      36.047  31.783  31.907  1.00  0.00     0.010 A 
ATOM     14  C   UNL A   1      37.413  33.298  30.599  1.00  0.00     0.010 A 
ATOM     15  C   UNL A   1      37.310  32.185  31.447  1.00  0.00    -0.014 A 
BRANCH  15  16
ATOM     16  C   UNL A   1      38.521  31.408  31.802  1.00  0.00     0.031 A 
ATOM     17  C   UNL A   1      39.344  31.774  33.002  1.00  0.00     0.074 A 
ATOM     18  C   UNL A   1      38.904  30.394  31.003  1.00  0.00     0.049 A 
ATOM     19  N   UNL A   1      40.476  31.260  33.412  1.00  0.00    -0.248 NA
ATOM     20  C   UNL A   1      38.836  32.866  33.845  1.00  0.00     0.031 C 
ATOM     21  C   UNL A   1      38.191  29.950  29.805  1.00  0.00     0.029 A 
ATOM     22  N   UNL A   1      39.995  29.566  31.073  1.00  0.00    -0.354 N 
ATOM     23  C   UNL A   1      40.829  31.979  34.545  1.00  0.00     0.074 A 
ATOM     24  C   UNL A   1      39.799  32.976  34.751  1.00  0.00     0.031 C 
ATOM     25  C   UNL A   1      38.862  28.929  29.251  1.00  0.00     0.029 A 
ATOM     26  C   UNL A   1      40.073  28.681  30.028  1.00  0.00     0.049 A 
ATOM     27  H   UNL A   1      40.656  29.603  31.801  1.00  0.00     0.167 HD
ATOM     28  C   UNL A   1      41.915  31.824  35.340  1.00  0.00     0.031 A 
ATOM     29  C   UNL A   1      41.027  27.789  29.706  1.00  0.00     0.031 A 
ATOM     30  C   UNL A   1      42.938  30.834  35.133  1.00  0.00     0.049 A 
ATOM     31  C   UNL A   1      42.236  27.655  30.583  1.00  0.00     0.074 A 
ATOM     32  C   UNL A   1      44.051  30.566  35.914  1.00  0.00     0.029 A 
ATOM     33  N   UNL A   1      42.981  29.956  34.062  1.00  0.00    -0.354 N 
ATOM     34  N   UNL A   1      42.533  28.311  31.677  1.00  0.00    -0.248 NA
ATOM     35  C   UNL A   1      43.237  26.656  30.183  1.00  0.00     0.031 C 
ATOM     36  C   UNL A   1      44.790  29.557  35.289  1.00  0.00     0.029 A 
ATOM     37  C   UNL A   1      44.114  29.164  34.144  1.00  0.00     0.049 A 
ATOM     38  H   UNL A   1      42.305  29.903  33.347  1.00  0.00     0.167 HD
ATOM     39  C   UNL A   1      43.749  27.798  32.107  1.00  0.00     0.074 A 
ATOM     40  C   UNL A   1      44.129  26.768  31.161  1.00  0.00     0.031 C 
ATOM     41  C   UNL A   1      44.481  28.148  33.192  1.00  0.00     0.031 A 
BRANCH  28  42
ATOM     42  C   UNL A   1      42.067  32.777  36.492  1.00  0.00    -0.014 A 
ATOM     43  C   UNL A   1      41.524  32.489  37.754  1.00  0.00     0.009 A 
ATOM     44  C   UNL A   1      42.785  33.970  36.316  1.00  0.00     0.009 A 
ATOM     45  C   UNL A   1      41.665  33.396  38.806  1.00  0.00     0.001 A 
ATOM     46  C   UNL A   1      42.945  34.863  37.377  1.00  0.00     0.001 A 
ATOM     47  C   UNL A   1      42.377  34.581  38.618  1.00  0.00     0.000 A 
ENDBRANCH  28  42
BRANCH  29  48
ATOM     48  C   UNL A   1      40.870  26.975  28.476  1.00  0.00    -0.014 A 
ATOM     49  C   UNL A   1      40.133  25.783  28.499  1.00  0.00     0.009 A 
ATOM     50  C   UNL A   1      41.407  27.423  27.258  1.00  0.00     0.009 A 
ATOM     51  C   UNL A   1      39.939  25.053  27.324  1.00  0.00     0.001 A 
ATOM     52  C   UNL A   1      41.192  26.703  26.082  1.00  0.00     0.001 A 
ATOM     53  C   UNL A   1      40.462  25.516  26.117  1.00  0.00     0.000 A 
ENDBRANCH  29  48
BRANCH  41  54
ATOM     54  C   UNL A   1      45.756  27.395  33.431  1.00  0.00    -0.014 A 
ATOM     55  C   UNL A   1      46.981  27.875  32.947  1.00  0.00     0.009 A 
ATOM     56  C   UNL A   1      45.735  26.221  34.199  1.00  0.00     0.009 A 
ATOM     57  C   UNL A   1      48.163  27.181  33.213  1.00  0.00     0.001 A 
ATOM     58  C   UNL A   1      46.921  25.541  34.481  1.00  0.00     0.001 A 
ATOM     59  C   UNL A   1      48.133  26.019  33.984  1.00  0.00     0.000 A 
ENDBRANCH  41  54
ENDBRANCH  15  16
ENDBRANCH   8  10
ENDBRANCH   5   6
ENDBRANCH   4   5
ENDBRANCH   3   4
ENDBRANCH   2   3
ENDBRANCH   1   2
BRANCH   1  60
ATOM     60  C   UNL A   1      33.107  29.310  24.999  1.00  0.00     0.116 C 
BRANCH  60  61
ATOM     61  N   UNL A   1      31.804  29.303  24.355  1.00  0.00    -0.352 N 
ATOM     62  C   UNL A   1      30.945  28.258  24.128  1.00  0.00     0.251 C 
ATOM     63  H   UNL A   1      31.491  30.180  24.035  1.00  0.00     0.163 HD
ATOM     64  O   UNL A   1      29.940  28.415  23.445  1.00  0.00    -0.269 OA
BRANCH  62  65
ATOM     65  C   UNL A   1      31.247  26.921  24.680  1.00  0.00     0.042 A 
ATOM     66  C   UNL A   1      30.953  26.602  26.010  1.00  0.00     0.015 A 
ATOM     67  C   UNL A   1      31.819  25.967  23.834  1.00  0.00     0.054 A 
ATOM     68  C   UNL A   1      31.330  25.361  26.520  1.00  0.00     0.026 A 
ATOM     69  C   UNL A   1      32.167  24.718  24.343  1.00  0.00     0.144 A 
ATOM     70  C   UNL A   1      31.958  24.426  25.684  1.00  0.00     0.118 A 
ATOM     71  F   UNL A   1      32.725  23.832  23.509  1.00  0.00    -0.205 F 
BRANCH  70  72
ATOM     72  S   UNL A   1      32.511  22.916  26.402  1.00  0.00     0.243 S 
ATOM     73  O   UNL A   1      33.907  22.783  26.048  1.00  0.00    -0.207 OA
ATOM     74  O   UNL A   1      32.079  22.928  27.782  1.00  0.00    -0.207 OA
BRANCH  72  75
ATOM     75  N   UNL A   1      31.686  21.681  25.655  1.00  0.00    -0.205 NA
ATOM     76  H   UNL A   1      30.908  22.122  25.164  1.00  0.00     0.141 HD
BRANCH  75  77
ATOM     77  C   UNL A   1      32.297  20.767  24.693  1.00  0.00     0.160 C 
BRANCH  77  78
ATOM     78  C   UNL A   1      32.773  19.432  25.301  1.00  0.00     0.278 C 
BRANCH  78  79
ATOM     79  N   UNL A   1      32.419  18.151  24.677  1.00  0.00    -0.334 N 
ATOM     80  C   UNL A   1      32.923  16.957  25.347  1.00  0.00     0.262 C 
ATOM     81  C   UNL A   1      32.764  18.034  23.261  1.00  0.00     0.262 C 
ATOM     82  H   UNL A   1      31.404  18.184  24.781  1.00  0.00     0.348 HD
ATOM     83  C   UNL A   1      34.156  16.537  24.573  1.00  0.00     0.067 C 
ATOM     84  C   UNL A   1      33.919  17.045  23.161  1.00  0.00     0.067 C 
ENDBRANCH  78  79
ENDBRANCH  77  78
ENDBRANCH  75  77
ENDBRANCH  72  75
ENDBRANCH  70  72
ENDBRANCH  62  65
ENDBRANCH  60  61
ENDBRANCH   1  60
TORSDOF 18
ENDMDL
