MODEL 1
REMARK VINA RESULT:     -12.7      0.000      0.000
REMARK SMILES O=C(NCCCCCCNC(=O)c1ccc([C@@H]2CC(O)=Nc3c2ncn3-c2cccc(Cl)c2)cc1)c1ccc(-c2c3nc(c(-c4ccccc4)c4ccc([nH]4)c(-c4ccccc4)c4nc(c(-c5ccccc5)c5ccc2[nH]5)C=C4)C=C3)cc1
REMARK SMILES IDX 6 1 5 2 4 3 3 4 1 5 2 6 36 8 37 9 83 10 38 11 82 12 39 13
REMARK SMILES IDX 40 14 41 15 76 16 42 17 81 18 75 19 77 20 43 21 80 22 74 23
REMARK SMILES IDX 73 24 44 26 66 27 51 28 65 29 52 30 55 31 64 32 78 33 53 34
REMARK SMILES IDX 54 35 63 37 79 38 56 39 45 40 46 41 50 42 47 43 49 44 48 45
REMARK SMILES IDX 67 46 68 47 72 48 69 49 71 50 70 51 57 52 58 53 62 54 59 55
REMARK SMILES IDX 61 56 60 57 7 58 8 59 9 60 10 61 11 62 12 64 13 65 14 66
REMARK SMILES IDX 35 67 15 68 34 69 16 70 17 71 18 72 23 73 19 74 22 75 24 76
REMARK SMILES IDX 21 77 26 78 25 79 20 80 27 82 28 83 33 84 29 85 31 86 30 87
REMARK SMILES IDX 32 88
REMARK H PARENT 3 7 77 25 55 36 10 63 20 81
REMARK Flexibility Score: inf
ROOT
ATOM      1  C   UNL A   1      38.132  31.399  28.776  1.00  0.00     0.002 C 
ENDROOT
BRANCH   1   2
ATOM      2  C   UNL A   1      37.363  32.695  29.056  1.00  0.00     0.021 C 
BRANCH   2   3
ATOM      3  C   UNL A   1      38.221  33.830  29.615  1.00  0.00     0.116 C 
BRANCH   3   4
ATOM      4  N   UNL A   1      38.281  33.864  31.060  1.00  0.00    -0.352 N 
ATOM      5  O   UNL A   1      38.898  33.592  33.164  1.00  0.00    -0.269 OA
ATOM      6  C   UNL A   1      39.019  33.206  32.000  1.00  0.00     0.251 C 
ATOM      7  H   UNL A   1      37.646  34.506  31.454  1.00  0.00     0.163 HD
BRANCH   6   8
ATOM      8  C   UNL A   1      39.869  32.019  31.725  1.00  0.00     0.039 A 
ATOM      9  C   UNL A   1      41.114  32.029  31.091  1.00  0.00     0.014 A 
ATOM     10  C   UNL A   1      39.305  30.782  32.088  1.00  0.00     0.014 A 
ATOM     11  C   UNL A   1      41.716  30.839  30.703  1.00  0.00     0.010 A 
ATOM     12  C   UNL A   1      39.910  29.592  31.725  1.00  0.00     0.010 A 
ATOM     13  C   UNL A   1      41.084  29.629  30.981  1.00  0.00    -0.014 A 
BRANCH  13  14
ATOM     14  C   UNL A   1      41.742  28.397  30.576  1.00  0.00     0.031 A 
ATOM     15  C   UNL A   1      42.618  27.787  31.616  1.00  0.00     0.074 A 
ATOM     16  C   UNL A   1      41.437  27.782  29.416  1.00  0.00     0.049 A 
ATOM     17  N   UNL A   1      43.869  27.472  31.531  1.00  0.00    -0.248 NA
ATOM     18  C   UNL A   1      42.043  27.595  32.959  1.00  0.00     0.031 C 
ATOM     19  C   UNL A   1      40.388  28.141  28.456  1.00  0.00     0.029 A 
ATOM     20  N   UNL A   1      41.917  26.611  28.918  1.00  0.00    -0.354 N 
ATOM     21  C   UNL A   1      44.201  26.887  32.752  1.00  0.00     0.074 A 
ATOM     22  C   UNL A   1      43.086  27.113  33.634  1.00  0.00     0.031 C 
ATOM     23  C   UNL A   1      40.142  27.081  27.653  1.00  0.00     0.029 A 
ATOM     24  C   UNL A   1      41.102  26.033  27.954  1.00  0.00     0.049 A 
ATOM     25  H   UNL A   1      42.766  26.208  29.215  1.00  0.00     0.167 HD
ATOM     26  C   UNL A   1      45.273  26.058  32.893  1.00  0.00     0.031 A 
ATOM     27  C   UNL A   1      41.159  24.754  27.504  1.00  0.00     0.031 A 
ATOM     28  C   UNL A   1      46.219  26.208  31.824  1.00  0.00     0.049 A 
ATOM     29  C   UNL A   1      42.488  24.210  27.867  1.00  0.00     0.074 A 
ATOM     30  C   UNL A   1      47.013  27.236  31.359  1.00  0.00     0.029 A 
ATOM     31  N   UNL A   1      46.186  25.276  30.815  1.00  0.00    -0.354 N 
ATOM     32  N   UNL A   1      43.603  24.640  27.350  1.00  0.00    -0.248 NA
ATOM     33  C   UNL A   1      42.616  23.518  29.141  1.00  0.00     0.031 C 
ATOM     34  C   UNL A   1      46.988  27.101  29.939  1.00  0.00     0.029 A 
ATOM     35  C   UNL A   1      46.235  25.966  29.632  1.00  0.00     0.049 A 
ATOM     36  H   UNL A   1      46.135  24.298  30.921  1.00  0.00     0.167 HD
ATOM     37  C   UNL A   1      44.495  24.673  28.411  1.00  0.00     0.074 A 
ATOM     38  C   UNL A   1      43.860  23.884  29.466  1.00  0.00     0.031 C 
ATOM     39  C   UNL A   1      45.525  25.569  28.440  1.00  0.00     0.031 A 
BRANCH  26  40
ATOM     40  C   UNL A   1      45.247  24.830  33.770  1.00  0.00    -0.014 A 
ATOM     41  C   UNL A   1      44.552  23.691  33.324  1.00  0.00     0.009 A 
ATOM     42  C   UNL A   1      45.614  24.855  35.129  1.00  0.00     0.009 A 
ATOM     43  C   UNL A   1      44.178  22.673  34.210  1.00  0.00     0.001 A 
ATOM     44  C   UNL A   1      45.277  23.823  36.008  1.00  0.00     0.001 A 
ATOM     45  C   UNL A   1      44.531  22.746  35.554  1.00  0.00     0.000 A 
ENDBRANCH  26  40
BRANCH  27  46
ATOM     46  C   UNL A   1      40.034  23.883  27.097  1.00  0.00    -0.014 A 
ATOM     47  C   UNL A   1      38.810  24.423  26.674  1.00  0.00     0.009 A 
ATOM     48  C   UNL A   1      40.253  22.510  26.871  1.00  0.00     0.009 A 
ATOM     49  C   UNL A   1      37.855  23.625  26.027  1.00  0.00     0.001 A 
ATOM     50  C   UNL A   1      39.301  21.713  26.228  1.00  0.00     0.001 A 
ATOM     51  C   UNL A   1      38.106  22.274  25.793  1.00  0.00     0.000 A 
ENDBRANCH  27  46
BRANCH  39  52
ATOM     52  C   UNL A   1      45.766  26.403  27.204  1.00  0.00    -0.014 A 
ATOM     53  C   UNL A   1      45.158  27.656  27.000  1.00  0.00     0.009 A 
ATOM     54  C   UNL A   1      46.753  25.989  26.300  1.00  0.00     0.009 A 
ATOM     55  C   UNL A   1      45.509  28.455  25.907  1.00  0.00     0.001 A 
ATOM     56  C   UNL A   1      47.117  26.795  25.219  1.00  0.00     0.001 A 
ATOM     57  C   UNL A   1      46.491  28.024  25.020  1.00  0.00     0.000 A 
ENDBRANCH  39  52
ENDBRANCH  13  14
ENDBRANCH   6   8
ENDBRANCH   3   4
ENDBRANCH   2   3
ENDBRANCH   1   2
BRANCH   1  58
ATOM     58  C   UNL A   1      37.291  30.120  28.814  1.00  0.00     0.002 C 
BRANCH  58  59
ATOM     59  C   UNL A   1      36.557  29.788  27.513  1.00  0.00     0.021 C 
BRANCH  59  60
ATOM     60  C   UNL A   1      35.107  29.357  27.698  1.00  0.00     0.116 C 
BRANCH  60  61
ATOM     61  N   UNL A   1      34.207  30.499  27.739  1.00  0.00    -0.352 N 
ATOM     62  C   UNL A   1      32.949  30.613  27.211  1.00  0.00     0.251 C 
ATOM     63  H   UNL A   1      34.547  31.295  28.210  1.00  0.00     0.163 HD
ATOM     64  O   UNL A   1      32.393  31.712  27.148  1.00  0.00    -0.269 OA
BRANCH  62  65
ATOM     65  C   UNL A   1      32.265  29.412  26.698  1.00  0.00     0.039 A 
ATOM     66  C   UNL A   1      31.893  29.369  25.355  1.00  0.00     0.014 A 
ATOM     67  C   UNL A   1      31.998  28.331  27.543  1.00  0.00     0.014 A 
ATOM     68  C   UNL A   1      31.307  28.212  24.842  1.00  0.00     0.005 A 
ATOM     69  C   UNL A   1      31.430  27.169  27.025  1.00  0.00     0.005 A 
ATOM     70  C   UNL A   1      31.081  27.092  25.666  1.00  0.00    -0.038 A 
BRANCH  70  71
ATOM     71  C   UNL A   1      30.422  25.859  25.075  1.00  0.00     0.081 C 
ATOM     72  C   UNL A   1      29.547  25.118  26.110  1.00  0.00     0.111 C 
ATOM     73  C   UNL A   1      31.511  24.990  24.556  1.00  0.00     0.093 A 
ATOM     74  C   UNL A   1      30.068  23.758  26.545  1.00  0.00     0.188 C 
ATOM     75  C   UNL A   1      31.673  23.700  25.007  1.00  0.00     0.164 A 
ATOM     76  N   UNL A   1      32.467  25.327  23.636  1.00  0.00    -0.238 NA
ATOM     77  N   UNL A   1      31.018  23.064  26.007  1.00  0.00    -0.198 NA
ATOM     78  N   UNL A   1      32.763  23.206  24.317  1.00  0.00    -0.283 N 
ATOM     79  C   UNL A   1      33.231  24.254  23.549  1.00  0.00     0.206 A 
BRANCH  74  80
ATOM     80  O   UNL A   1      29.414  23.229  27.596  1.00  0.00    -0.496 OA
ATOM     81  H   UNL A   1      28.478  23.267  27.632  1.00  0.00     0.294 HD
ENDBRANCH  74  80
BRANCH  78  82
ATOM     82  C   UNL A   1      33.289  21.896  24.378  1.00  0.00     0.050 A 
ATOM     83  C   UNL A   1      34.542  21.663  24.958  1.00  0.00     0.027 A 
ATOM     84  C   UNL A   1      32.537  20.832  23.861  1.00  0.00     0.047 A 
ATOM     85  C   UNL A   1      35.016  20.352  25.061  1.00  0.00     0.004 A 
ATOM     86  C   UNL A   1      33.046  19.538  23.922  1.00  0.00     0.043 A 
ATOM     87  C   UNL A   1      34.273  19.291  24.537  1.00  0.00     0.020 A 
ATOM     88  Cl  UNL A   1      32.163  18.238  23.223  1.00  0.00    -0.084 Cl
ENDBRANCH  78  82
ENDBRANCH  70  71
ENDBRANCH  62  65
ENDBRANCH  60  61
ENDBRANCH  59  60
ENDBRANCH  58  59
ENDBRANCH   1  58
TORSDOF 16
ENDMDL
MODEL 2
REMARK VINA RESULT:     -12.6      3.592      8.678
REMARK SMILES O=C(NCCCCCCNC(=O)c1ccc([C@@H]2CC(O)=Nc3c2ncn3-c2cccc(Cl)c2)cc1)c1ccc(-c2c3nc(c(-c4ccccc4)c4ccc([nH]4)c(-c4ccccc4)c4nc(c(-c5ccccc5)c5ccc2[nH]5)C=C4)C=C3)cc1
REMARK SMILES IDX 6 1 5 2 4 3 3 4 1 5 2 6 36 8 37 9 83 10 38 11 82 12 39 13
REMARK SMILES IDX 40 14 41 15 76 16 42 17 81 18 75 19 77 20 43 21 80 22 74 23
REMARK SMILES IDX 73 24 44 26 66 27 51 28 65 29 52 30 55 31 64 32 78 33 53 34
REMARK SMILES IDX 54 35 63 37 79 38 56 39 45 40 46 41 50 42 47 43 49 44 48 45
REMARK SMILES IDX 67 46 68 47 72 48 69 49 71 50 70 51 57 52 58 53 62 54 59 55
REMARK SMILES IDX 61 56 60 57 7 58 8 59 9 60 10 61 11 62 12 64 13 65 14 66
REMARK SMILES IDX 35 67 15 68 34 69 16 70 17 71 18 72 23 73 19 74 22 75 24 76
REMARK SMILES IDX 21 77 26 78 25 79 20 80 27 82 28 83 33 84 29 85 31 86 30 87
REMARK SMILES IDX 32 88
REMARK H PARENT 3 7 77 25 55 36 10 63 20 81
REMARK Flexibility Score: inf
ROOT
ATOM      1  C   UNL A   1      35.767  23.309  24.945  1.00  0.00     0.002 C 
ENDROOT
BRANCH   1   2
ATOM      2  C   UNL A   1      37.282  23.540  24.925  1.00  0.00     0.021 C 
BRANCH   2   3
ATOM      3  C   UNL A   1      38.020  22.996  26.149  1.00  0.00     0.116 C 
BRANCH   3   4
ATOM      4  N   UNL A   1      39.356  22.519  25.865  1.00  0.00    -0.352 N 
ATOM      5  O   UNL A   1      41.539  22.181  25.899  1.00  0.00    -0.269 OA
ATOM      6  C   UNL A   1      40.609  22.921  26.225  1.00  0.00     0.251 C 
ATOM      7  H   UNL A   1      39.362  21.726  25.281  1.00  0.00     0.163 HD
BRANCH   6   8
ATOM      8  C   UNL A   1      40.922  24.213  26.888  1.00  0.00     0.039 A 
ATOM      9  C   UNL A   1      41.640  24.374  28.076  1.00  0.00     0.014 A 
ATOM     10  C   UNL A   1      40.371  25.351  26.271  1.00  0.00     0.014 A 
ATOM     11  C   UNL A   1      41.689  25.609  28.707  1.00  0.00     0.010 A 
ATOM     12  C   UNL A   1      40.436  26.591  26.883  1.00  0.00     0.010 A 
ATOM     13  C   UNL A   1      41.043  26.700  28.128  1.00  0.00    -0.014 A 
BRANCH  13  14
ATOM     14  C   UNL A   1      41.121  27.987  28.802  1.00  0.00     0.031 A 
ATOM     15  C   UNL A   1      42.290  28.826  28.412  1.00  0.00     0.074 A 
ATOM     16  C   UNL A   1      40.118  28.437  29.582  1.00  0.00     0.049 A 
ATOM     17  N   UNL A   1      43.201  29.341  29.172  1.00  0.00    -0.248 NA
ATOM     18  C   UNL A   1      42.525  29.032  26.972  1.00  0.00     0.031 C 
ATOM     19  C   UNL A   1      38.805  27.823  29.803  1.00  0.00     0.029 A 
ATOM     20  N   UNL A   1      40.012  29.625  30.235  1.00  0.00    -0.354 N 
ATOM     21  C   UNL A   1      44.031  30.077  28.330  1.00  0.00     0.074 A 
ATOM     22  C   UNL A   1      43.653  29.742  26.982  1.00  0.00     0.031 C 
ATOM     23  C   UNL A   1      37.962  28.751  30.309  1.00  0.00     0.029 A 
ATOM     24  C   UNL A   1      38.708  29.970  30.569  1.00  0.00     0.049 A 
ATOM     25  H   UNL A   1      40.789  30.191  30.452  1.00  0.00     0.167 HD
ATOM     26  C   UNL A   1      44.823  31.086  28.790  1.00  0.00     0.031 A 
ATOM     27  C   UNL A   1      38.264  31.195  30.945  1.00  0.00     0.031 A 
ATOM     28  C   UNL A   1      45.032  31.007  30.209  1.00  0.00     0.049 A 
ATOM     29  C   UNL A   1      39.441  31.988  31.370  1.00  0.00     0.074 A 
ATOM     30  C   UNL A   1      45.617  30.093  31.060  1.00  0.00     0.029 A 
ATOM     31  N   UNL A   1      44.272  31.828  31.006  1.00  0.00    -0.354 N 
ATOM     32  N   UNL A   1      40.144  31.711  32.430  1.00  0.00    -0.248 NA
ATOM     33  C   UNL A   1      40.115  32.799  30.368  1.00  0.00     0.031 C 
ATOM     34  C   UNL A   1      44.789  30.098  32.222  1.00  0.00     0.029 A 
ATOM     35  C   UNL A   1      43.793  31.056  32.032  1.00  0.00     0.049 A 
ATOM     36  H   UNL A   1      44.104  32.789  30.867  1.00  0.00     0.167 HD
ATOM     37  C   UNL A   1      41.460  31.923  32.047  1.00  0.00     0.074 A 
ATOM     38  C   UNL A   1      41.374  32.680  30.798  1.00  0.00     0.031 C 
ATOM     39  C   UNL A   1      42.483  31.222  32.617  1.00  0.00     0.031 A 
BRANCH  26  40
ATOM     40  C   UNL A   1      45.050  32.364  28.019  1.00  0.00    -0.014 A 
ATOM     41  C   UNL A   1      43.940  33.151  27.665  1.00  0.00     0.009 A 
ATOM     42  C   UNL A   1      46.267  32.658  27.374  1.00  0.00     0.009 A 
ATOM     43  C   UNL A   1      44.029  34.125  26.662  1.00  0.00     0.001 A 
ATOM     44  C   UNL A   1      46.369  33.656  26.402  1.00  0.00     0.001 A 
ATOM     45  C   UNL A   1      45.241  34.368  26.023  1.00  0.00     0.000 A 
ENDBRANCH  26  40
BRANCH  27  46
ATOM     46  C   UNL A   1      36.959  31.823  30.636  1.00  0.00    -0.014 A 
ATOM     47  C   UNL A   1      35.877  31.727  31.523  1.00  0.00     0.009 A 
ATOM     48  C   UNL A   1      36.858  32.749  29.580  1.00  0.00     0.009 A 
ATOM     49  C   UNL A   1      34.747  32.545  31.372  1.00  0.00     0.001 A 
ATOM     50  C   UNL A   1      35.732  33.564  29.428  1.00  0.00     0.001 A 
ATOM     51  C   UNL A   1      34.681  33.471  30.333  1.00  0.00     0.000 A 
ENDBRANCH  27  46
BRANCH  39  52
ATOM     52  C   UNL A   1      42.158  30.336  33.796  1.00  0.00    -0.014 A 
ATOM     53  C   UNL A   1      41.716  29.008  33.653  1.00  0.00     0.009 A 
ATOM     54  C   UNL A   1      42.458  30.801  35.084  1.00  0.00     0.009 A 
ATOM     55  C   UNL A   1      41.553  28.180  34.770  1.00  0.00     0.001 A 
ATOM     56  C   UNL A   1      42.312  29.970  36.197  1.00  0.00     0.001 A 
ATOM     57  C   UNL A   1      41.855  28.663  36.040  1.00  0.00     0.000 A 
ENDBRANCH  39  52
ENDBRANCH  13  14
ENDBRANCH   6   8
ENDBRANCH   3   4
ENDBRANCH   2   3
ENDBRANCH   1   2
BRANCH   1  58
ATOM     58  C   UNL A   1      35.185  22.911  26.304  1.00  0.00     0.002 C 
BRANCH  58  59
ATOM     59  C   UNL A   1      34.900  21.417  26.476  1.00  0.00     0.021 C 
BRANCH  59  60
ATOM     60  C   UNL A   1      35.191  20.573  25.242  1.00  0.00     0.116 C 
BRANCH  60  61
ATOM     61  N   UNL A   1      34.153  19.581  25.011  1.00  0.00    -0.352 N 
ATOM     62  C   UNL A   1      32.836  19.784  24.694  1.00  0.00     0.251 C 
ATOM     63  H   UNL A   1      34.434  18.641  25.092  1.00  0.00     0.163 HD
ATOM     64  O   UNL A   1      32.032  18.849  24.732  1.00  0.00    -0.269 OA
BRANCH  62  65
ATOM     65  C   UNL A   1      32.377  21.134  24.321  1.00  0.00     0.039 A 
ATOM     66  C   UNL A   1      31.551  21.833  25.201  1.00  0.00     0.014 A 
ATOM     67  C   UNL A   1      32.769  21.708  23.108  1.00  0.00     0.014 A 
ATOM     68  C   UNL A   1      31.166  23.137  24.891  1.00  0.00     0.005 A 
ATOM     69  C   UNL A   1      32.399  23.017  22.810  1.00  0.00     0.005 A 
ATOM     70  C   UNL A   1      31.596  23.752  23.700  1.00  0.00    -0.038 A 
BRANCH  70  71
ATOM     71  C   UNL A   1      31.140  25.165  23.389  1.00  0.00     0.081 C 
ATOM     72  C   UNL A   1      31.889  25.762  22.177  1.00  0.00     0.111 C 
ATOM     73  C   UNL A   1      31.355  25.972  24.618  1.00  0.00     0.093 A 
ATOM     74  C   UNL A   1      32.840  26.903  22.502  1.00  0.00     0.188 C 
ATOM     75  C   UNL A   1      32.157  27.091  24.609  1.00  0.00     0.164 A 
ATOM     76  N   UNL A   1      30.845  25.727  25.866  1.00  0.00    -0.238 NA
ATOM     77  N   UNL A   1      32.936  27.565  23.608  1.00  0.00    -0.198 NA
ATOM     78  N   UNL A   1      32.123  27.576  25.902  1.00  0.00    -0.283 N 
ATOM     79  C   UNL A   1      31.362  26.678  26.622  1.00  0.00     0.206 A 
BRANCH  74  80
ATOM     80  O   UNL A   1      33.637  27.262  21.476  1.00  0.00    -0.496 OA
ATOM     81  H   UNL A   1      34.390  27.795  21.634  1.00  0.00     0.294 HD
ENDBRANCH  74  80
BRANCH  78  82
ATOM     82  C   UNL A   1      32.735  28.753  26.387  1.00  0.00     0.050 A 
ATOM     83  C   UNL A   1      31.980  29.917  26.577  1.00  0.00     0.027 A 
ATOM     84  C   UNL A   1      34.104  28.740  26.687  1.00  0.00     0.047 A 
ATOM     85  C   UNL A   1      32.593  31.052  27.114  1.00  0.00     0.004 A 
ATOM     86  C   UNL A   1      34.713  29.894  27.170  1.00  0.00     0.043 A 
ATOM     87  C   UNL A   1      33.960  31.044  27.403  1.00  0.00     0.020 A 
ATOM     88  Cl  UNL A   1      36.407  29.905  27.470  1.00  0.00    -0.084 Cl
ENDBRANCH  78  82
ENDBRANCH  70  71
ENDBRANCH  62  65
ENDBRANCH  60  61
ENDBRANCH  59  60
ENDBRANCH  58  59
ENDBRANCH   1  58
TORSDOF 16
ENDMDL
MODEL 3
REMARK VINA RESULT:     -12.5      3.406      9.049
REMARK SMILES O=C(NCCCCCCNC(=O)c1ccc([C@@H]2CC(O)=Nc3c2ncn3-c2cccc(Cl)c2)cc1)c1ccc(-c2c3nc(c(-c4ccccc4)c4ccc([nH]4)c(-c4ccccc4)c4nc(c(-c5ccccc5)c5ccc2[nH]5)C=C4)C=C3)cc1
REMARK SMILES IDX 6 1 5 2 4 3 3 4 1 5 2 6 36 8 37 9 83 10 38 11 82 12 39 13
REMARK SMILES IDX 40 14 41 15 76 16 42 17 81 18 75 19 77 20 43 21 80 22 74 23
REMARK SMILES IDX 73 24 44 26 66 27 51 28 65 29 52 30 55 31 64 32 78 33 53 34
REMARK SMILES IDX 54 35 63 37 79 38 56 39 45 40 46 41 50 42 47 43 49 44 48 45
REMARK SMILES IDX 67 46 68 47 72 48 69 49 71 50 70 51 57 52 58 53 62 54 59 55
REMARK SMILES IDX 61 56 60 57 7 58 8 59 9 60 10 61 11 62 12 64 13 65 14 66
REMARK SMILES IDX 35 67 15 68 34 69 16 70 17 71 18 72 23 73 19 74 22 75 24 76
REMARK SMILES IDX 21 77 26 78 25 79 20 80 27 82 28 83 33 84 29 85 31 86 30 87
REMARK SMILES IDX 32 88
REMARK H PARENT 3 7 77 25 55 36 10 63 20 81
REMARK Flexibility Score: inf
ROOT
ATOM      1  C   UNL A   1      41.829  23.573  27.172  1.00  0.00     0.002 C 
ENDROOT
BRANCH   1   2
ATOM      2  C   UNL A   1      42.605  22.431  27.837  1.00  0.00     0.021 C 
BRANCH   2   3
ATOM      3  C   UNL A   1      43.236  22.794  29.182  1.00  0.00     0.116 C 
BRANCH   3   4
ATOM      4  N   UNL A   1      44.462  23.553  29.070  1.00  0.00    -0.352 N 
ATOM      5  O   UNL A   1      45.984  25.150  29.179  1.00  0.00    -0.269 OA
ATOM      6  C   UNL A   1      44.785  24.870  29.220  1.00  0.00     0.251 C 
ATOM      7  H   UNL A   1      45.237  22.994  28.832  1.00  0.00     0.163 HD
BRANCH   6   8
ATOM      8  C   UNL A   1      43.797  25.974  29.332  1.00  0.00     0.039 A 
ATOM      9  C   UNL A   1      43.056  26.523  28.282  1.00  0.00     0.014 A 
ATOM     10  C   UNL A   1      43.674  26.539  30.614  1.00  0.00     0.014 A 
ATOM     11  C   UNL A   1      42.322  27.686  28.472  1.00  0.00     0.010 A 
ATOM     12  C   UNL A   1      42.925  27.686  30.816  1.00  0.00     0.010 A 
ATOM     13  C   UNL A   1      42.302  28.286  29.728  1.00  0.00    -0.014 A 
BRANCH  13  14
ATOM     14  C   UNL A   1      41.515  29.497  29.904  1.00  0.00     0.031 A 
ATOM     15  C   UNL A   1      42.276  30.767  29.733  1.00  0.00     0.074 A 
ATOM     16  C   UNL A   1      40.175  29.454  30.040  1.00  0.00     0.049 A 
ATOM     17  N   UNL A   1      42.394  31.753  30.561  1.00  0.00    -0.248 NA
ATOM     18  C   UNL A   1      43.092  30.909  28.514  1.00  0.00     0.031 C 
ATOM     19  C   UNL A   1      39.297  28.283  29.935  1.00  0.00     0.029 A 
ATOM     20  N   UNL A   1      39.294  30.484  30.161  1.00  0.00    -0.354 N 
ATOM     21  C   UNL A   1      43.161  32.715  29.905  1.00  0.00     0.074 A 
ATOM     22  C   UNL A   1      43.674  32.090  28.714  1.00  0.00     0.031 C 
ATOM     23  C   UNL A   1      38.026  28.699  29.735  1.00  0.00     0.029 A 
ATOM     24  C   UNL A   1      37.987  30.148  29.833  1.00  0.00     0.049 A 
ATOM     25  H   UNL A   1      39.560  31.385  30.453  1.00  0.00     0.167 HD
ATOM     26  C   UNL A   1      43.140  34.028  30.264  1.00  0.00     0.031 A 
ATOM     27  C   UNL A   1      36.970  31.008  29.574  1.00  0.00     0.031 A 
ATOM     28  C   UNL A   1      42.626  34.221  31.591  1.00  0.00     0.049 A 
ATOM     29  C   UNL A   1      37.350  32.331  30.123  1.00  0.00     0.074 A 
ATOM     30  C   UNL A   1      43.016  33.831  32.856  1.00  0.00     0.029 A 
ATOM     31  N   UNL A   1      41.317  34.620  31.710  1.00  0.00    -0.354 N 
ATOM     32  N   UNL A   1      37.473  32.567  31.397  1.00  0.00    -0.248 NA
ATOM     33  C   UNL A   1      38.045  33.259  29.244  1.00  0.00     0.031 C 
ATOM     34  C   UNL A   1      41.798  33.537  33.537  1.00  0.00     0.029 A 
ATOM     35  C   UNL A   1      40.743  33.827  32.669  1.00  0.00     0.049 A 
ATOM     36  H   UNL A   1      40.874  35.338  31.202  1.00  0.00     0.167 HD
ATOM     37  C   UNL A   1      38.594  33.378  31.499  1.00  0.00     0.074 A 
ATOM     38  C   UNL A   1      38.848  33.846  30.136  1.00  0.00     0.031 C 
ATOM     39  C   UNL A   1      39.377  33.363  32.617  1.00  0.00     0.031 A 
BRANCH  26  40
ATOM     40  C   UNL A   1      43.191  35.152  29.257  1.00  0.00    -0.014 A 
ATOM     41  C   UNL A   1      42.065  35.394  28.451  1.00  0.00     0.009 A 
ATOM     42  C   UNL A   1      44.394  35.772  28.867  1.00  0.00     0.009 A 
ATOM     43  C   UNL A   1      42.160  36.150  27.275  1.00  0.00     0.001 A 
ATOM     44  C   UNL A   1      44.484  36.559  27.716  1.00  0.00     0.001 A 
ATOM     45  C   UNL A   1      43.373  36.722  26.904  1.00  0.00     0.000 A 
ENDBRANCH  26  40
BRANCH  27  46
ATOM     46  C   UNL A   1      35.869  30.845  28.598  1.00  0.00    -0.014 A 
ATOM     47  C   UNL A   1      35.567  29.593  28.043  1.00  0.00     0.009 A 
ATOM     48  C   UNL A   1      34.937  31.884  28.410  1.00  0.00     0.009 A 
ATOM     49  C   UNL A   1      34.365  29.383  27.349  1.00  0.00     0.001 A 
ATOM     50  C   UNL A   1      33.740  31.676  27.717  1.00  0.00     0.001 A 
ATOM     51  C   UNL A   1      33.448  30.420  27.198  1.00  0.00     0.000 A 
ENDBRANCH  27  46
BRANCH  39  52
ATOM     52  C   UNL A   1      38.891  32.568  33.806  1.00  0.00    -0.014 A 
ATOM     53  C   UNL A   1      39.177  31.201  33.977  1.00  0.00     0.009 A 
ATOM     54  C   UNL A   1      38.267  33.253  34.857  1.00  0.00     0.009 A 
ATOM     55  C   UNL A   1      38.821  30.534  35.155  1.00  0.00     0.001 A 
ATOM     56  C   UNL A   1      37.929  32.592  36.040  1.00  0.00     0.001 A 
ATOM     57  C   UNL A   1      38.200  31.233  36.186  1.00  0.00     0.000 A 
ENDBRANCH  39  52
ENDBRANCH  13  14
ENDBRANCH   6   8
ENDBRANCH   3   4
ENDBRANCH   2   3
ENDBRANCH   1   2
BRANCH   1  58
ATOM     58  C   UNL A   1      40.483  23.911  27.819  1.00  0.00     0.002 C 
BRANCH  58  59
ATOM     59  C   UNL A   1      39.522  24.712  26.938  1.00  0.00     0.021 C 
BRANCH  59  60
ATOM     60  C   UNL A   1      38.397  23.891  26.321  1.00  0.00     0.116 C 
BRANCH  60  61
ATOM     61  N   UNL A   1      38.832  22.544  25.988  1.00  0.00    -0.352 N 
ATOM     62  C   UNL A   1      38.128  21.551  25.359  1.00  0.00     0.251 C 
ATOM     63  H   UNL A   1      39.755  22.317  26.247  1.00  0.00     0.163 HD
ATOM     64  O   UNL A   1      38.562  20.397  25.332  1.00  0.00    -0.269 OA
BRANCH  62  65
ATOM     65  C   UNL A   1      36.834  21.866  24.728  1.00  0.00     0.039 A 
ATOM     66  C   UNL A   1      35.688  21.207  25.173  1.00  0.00     0.014 A 
ATOM     67  C   UNL A   1      36.755  22.813  23.703  1.00  0.00     0.014 A 
ATOM     68  C   UNL A   1      34.449  21.546  24.631  1.00  0.00     0.005 A 
ATOM     69  C   UNL A   1      35.514  23.163  23.176  1.00  0.00     0.005 A 
ATOM     70  C   UNL A   1      34.343  22.537  23.637  1.00  0.00    -0.038 A 
BRANCH  70  71
ATOM     71  C   UNL A   1      32.978  22.862  23.058  1.00  0.00     0.081 C 
ATOM     72  C   UNL A   1      33.054  23.202  21.552  1.00  0.00     0.111 C 
ATOM     73  C   UNL A   1      32.428  23.994  23.848  1.00  0.00     0.093 A 
ATOM     74  C   UNL A   1      32.760  24.651  21.201  1.00  0.00     0.188 C 
ATOM     75  C   UNL A   1      32.073  25.181  23.248  1.00  0.00     0.164 A 
ATOM     76  N   UNL A   1      32.231  24.035  25.203  1.00  0.00    -0.238 NA
ATOM     77  N   UNL A   1      32.252  25.565  21.962  1.00  0.00    -0.198 NA
ATOM     78  N   UNL A   1      31.611  25.984  24.272  1.00  0.00    -0.283 N 
ATOM     79  C   UNL A   1      31.785  25.257  25.432  1.00  0.00     0.206 A 
BRANCH  74  80
ATOM     80  O   UNL A   1      33.040  24.974  19.923  1.00  0.00    -0.496 OA
ATOM     81  H   UNL A   1      33.794  25.493  19.726  1.00  0.00     0.294 HD
ENDBRANCH  74  80
BRANCH  78  82
ATOM     82  C   UNL A   1      31.065  27.283  24.157  1.00  0.00     0.050 A 
ATOM     83  C   UNL A   1      31.731  28.382  24.714  1.00  0.00     0.027 A 
ATOM     84  C   UNL A   1      29.857  27.460  23.470  1.00  0.00     0.047 A 
ATOM     85  C   UNL A   1      31.203  29.664  24.537  1.00  0.00     0.004 A 
ATOM     86  C   UNL A   1      29.316  28.736  23.348  1.00  0.00     0.043 A 
ATOM     87  C   UNL A   1      29.994  29.841  23.862  1.00  0.00     0.020 A 
ATOM     88  Cl  UNL A   1      27.796  28.949  22.571  1.00  0.00    -0.084 Cl
ENDBRANCH  78  82
ENDBRANCH  70  71
ENDBRANCH  62  65
ENDBRANCH  60  61
ENDBRANCH  59  60
ENDBRANCH  58  59
ENDBRANCH   1  58
TORSDOF 16
ENDMDL
