MODEL 1
REMARK VINA RESULT:     -11.2      0.000      0.000
REMARK SMILES COc1c(N)cc(-c2ccccc2)cc1C(=O)NCCCCCCNC(=O)c1ccc(-c2c3nc(c(-c4ccccc4)c4ccc([nH]4)c(-c4ccccc4)c4nc(c(-c5ccccc5)c5ccc2[nH]5)C=C4)C=C3)cc1
REMARK SMILES IDX 22 1 21 2 20 3 19 4 18 5 16 6 17 7 15 9 3 10 4 11 6 12 14 13
REMARK SMILES IDX 7 14 2 15 1 16 5 17 8 20 9 21 13 22 10 23 12 24 11 25 23 26
REMARK SMILES IDX 24 27 25 28 26 29 27 31 28 32 29 33 75 34 30 35 74 36 31 37
REMARK SMILES IDX 32 38 33 39 68 40 34 41 73 42 67 43 69 44 35 45 72 46 66 47
REMARK SMILES IDX 65 48 36 50 58 51 43 52 57 53 44 54 47 55 56 56 70 57 45 58
REMARK SMILES IDX 46 59 55 61 71 62 48 63 37 64 38 65 42 66 39 67 41 68 40 69
REMARK SMILES IDX 59 70 60 71 64 72 61 73 63 74 62 75 49 76 50 77 54 78 51 79
REMARK SMILES IDX 53 80 52 81
REMARK H PARENT 18 8 5 18 5 19 25 30 69 49 47 60
REMARK Flexibility Score: inf
ROOT
ATOM      1  C   UNL A   1      36.585  20.489  24.970  1.00  0.00     0.002 C 
ENDROOT
BRANCH   1   2
ATOM      2  C   UNL A   1      36.699  21.952  24.521  1.00  0.00     0.002 C 
BRANCH   2   3
ATOM      3  C   UNL A   1      36.433  22.986  25.623  1.00  0.00     0.021 C 
BRANCH   3   4
ATOM      4  C   UNL A   1      35.278  23.939  25.298  1.00  0.00     0.116 C 
BRANCH   4   5
ATOM      5  N   UNL A   1      34.099  23.563  26.038  1.00  0.00    -0.352 N 
ATOM      6  C   UNL A   1      33.034  22.729  25.876  1.00  0.00     0.255 C 
ATOM      7  O   UNL A   1      32.223  22.813  26.810  1.00  0.00    -0.269 OA
ATOM      8  H   UNL A   1      34.050  24.040  26.898  1.00  0.00     0.163 HD
BRANCH   6   9
ATOM      9  C   UNL A   1      32.738  21.745  24.777  1.00  0.00     0.084 A 
ATOM     10  C   UNL A   1      32.164  21.921  23.508  1.00  0.00     0.154 A 
ATOM     11  C   UNL A   1      32.087  20.838  22.590  1.00  0.00     0.076 A 
ATOM     12  C   UNL A   1      32.415  19.548  23.009  1.00  0.00     0.038 A 
ATOM     13  C   UNL A   1      33.111  20.419  25.126  1.00  0.00     0.026 A 
ATOM     14  C   UNL A   1      32.942  19.315  24.278  1.00  0.00    -0.015 A 
BRANCH  10  15
ATOM     15  O   UNL A   1      31.726  23.137  23.052  1.00  0.00    -0.494 OA
ATOM     16  C   UNL A   1      32.804  23.942  22.568  1.00  0.00     0.278 C 
ENDBRANCH  10  15
BRANCH  11  17
ATOM     17  N   UNL A   1      31.574  21.007  21.300  1.00  0.00    -0.396 N 
ATOM     18  H   UNL A   1      30.624  21.234  21.173  1.00  0.00     0.156 HD
ATOM     19  H   UNL A   1      32.163  20.897  20.518  1.00  0.00     0.156 HD
ENDBRANCH  11  17
BRANCH  14  20
ATOM     20  C   UNL A   1      33.331  17.960  24.696  1.00  0.00    -0.018 A 
ATOM     21  C   UNL A   1      34.616  17.467  24.419  1.00  0.00     0.009 A 
ATOM     22  C   UNL A   1      32.430  17.120  25.370  1.00  0.00     0.009 A 
ATOM     23  C   UNL A   1      34.985  16.171  24.786  1.00  0.00     0.001 A 
ATOM     24  C   UNL A   1      32.797  15.821  25.736  1.00  0.00     0.001 A 
ATOM     25  C   UNL A   1      34.073  15.347  25.440  1.00  0.00     0.000 A 
ENDBRANCH  14  20
ENDBRANCH   6   9
ENDBRANCH   4   5
ENDBRANCH   3   4
ENDBRANCH   2   3
ENDBRANCH   1   2
BRANCH   1  26
ATOM     26  C   UNL A   1      37.885  19.683  24.887  1.00  0.00     0.021 C 
BRANCH  26  27
ATOM     27  C   UNL A   1      39.031  20.252  25.717  1.00  0.00     0.116 C 
BRANCH  27  28
ATOM     28  N   UNL A   1      40.133  19.311  25.823  1.00  0.00    -0.352 N 
ATOM     29  C   UNL A   1      41.462  19.544  26.064  1.00  0.00     0.251 C 
ATOM     30  H   UNL A   1      39.888  18.365  25.706  1.00  0.00     0.163 HD
ATOM     31  O   UNL A   1      42.289  18.659  25.867  1.00  0.00    -0.269 OA
BRANCH  29  32
ATOM     32  C   UNL A   1      41.903  20.864  26.559  1.00  0.00     0.039 A 
ATOM     33  C   UNL A   1      42.338  21.821  25.637  1.00  0.00     0.014 A 
ATOM     34  C   UNL A   1      41.926  21.142  27.928  1.00  0.00     0.014 A 
ATOM     35  C   UNL A   1      42.753  23.075  26.088  1.00  0.00     0.010 A 
ATOM     36  C   UNL A   1      42.275  22.414  28.371  1.00  0.00     0.010 A 
ATOM     37  C   UNL A   1      42.702  23.388  27.456  1.00  0.00    -0.014 A 
BRANCH  37  38
ATOM     38  C   UNL A   1      43.096  24.730  27.949  1.00  0.00     0.031 A 
ATOM     39  C   UNL A   1      42.051  25.778  28.213  1.00  0.00     0.074 A 
ATOM     40  C   UNL A   1      44.401  25.024  28.098  1.00  0.00     0.049 A 
ATOM     41  N   UNL A   1      42.206  27.019  28.599  1.00  0.00    -0.248 NA
ATOM     42  C   UNL A   1      40.650  25.388  27.987  1.00  0.00     0.031 C 
ATOM     43  C   UNL A   1      45.511  24.107  27.835  1.00  0.00     0.029 A 
ATOM     44  N   UNL A   1      45.014  26.182  28.503  1.00  0.00    -0.354 N 
ATOM     45  C   UNL A   1      40.928  27.561  28.645  1.00  0.00     0.074 A 
ATOM     46  C   UNL A   1      40.015  26.530  28.201  1.00  0.00     0.031 C 
ATOM     47  C   UNL A   1      46.669  24.730  28.108  1.00  0.00     0.029 A 
ATOM     48  C   UNL A   1      46.384  26.098  28.530  1.00  0.00     0.049 A 
ATOM     49  H   UNL A   1      44.519  26.997  28.749  1.00  0.00     0.167 HD
ATOM     50  C   UNL A   1      40.546  28.800  29.038  1.00  0.00     0.031 A 
ATOM     51  C   UNL A   1      47.309  27.020  28.854  1.00  0.00     0.031 A 
ATOM     52  C   UNL A   1      41.454  29.820  29.488  1.00  0.00     0.049 A 
ATOM     53  C   UNL A   1      46.863  28.389  29.283  1.00  0.00     0.074 A 
ATOM     54  C   UNL A   1      41.162  31.085  29.967  1.00  0.00     0.029 A 
ATOM     55  N   UNL A   1      42.835  29.693  29.508  1.00  0.00    -0.354 N 
ATOM     56  N   UNL A   1      45.645  28.864  29.389  1.00  0.00    -0.248 NA
ATOM     57  C   UNL A   1      47.919  29.344  29.645  1.00  0.00     0.031 C 
ATOM     58  C   UNL A   1      42.370  31.742  30.229  1.00  0.00     0.029 A 
ATOM     59  C   UNL A   1      43.411  30.866  29.966  1.00  0.00     0.049 A 
ATOM     60  H   UNL A   1      43.332  28.887  29.238  1.00  0.00     0.167 HD
ATOM     61  C   UNL A   1      45.787  30.165  29.853  1.00  0.00     0.074 A 
ATOM     62  C   UNL A   1      47.207  30.397  30.023  1.00  0.00     0.031 C 
ATOM     63  C   UNL A   1      44.826  31.084  30.119  1.00  0.00     0.031 A 
BRANCH  50  64
ATOM     64  C   UNL A   1      39.077  29.118  28.982  1.00  0.00    -0.014 A 
ATOM     65  C   UNL A   1      38.486  29.637  27.819  1.00  0.00     0.009 A 
ATOM     66  C   UNL A   1      38.268  28.879  30.104  1.00  0.00     0.009 A 
ATOM     67  C   UNL A   1      37.126  29.951  27.794  1.00  0.00     0.001 A 
ATOM     68  C   UNL A   1      36.901  29.165  30.066  1.00  0.00     0.001 A 
ATOM     69  C   UNL A   1      36.334  29.711  28.916  1.00  0.00     0.000 A 
ENDBRANCH  50  64
BRANCH  51  70
ATOM     70  C   UNL A   1      48.750  26.666  28.806  1.00  0.00    -0.014 A 
ATOM     71  C   UNL A   1      49.486  26.842  27.625  1.00  0.00     0.009 A 
ATOM     72  C   UNL A   1      49.402  26.169  29.946  1.00  0.00     0.009 A 
ATOM     73  C   UNL A   1      50.842  26.509  27.581  1.00  0.00     0.001 A 
ATOM     74  C   UNL A   1      50.763  25.862  29.906  1.00  0.00     0.001 A 
ATOM     75  C   UNL A   1      51.480  26.024  28.722  1.00  0.00     0.000 A 
ENDBRANCH  51  70
BRANCH  63  76
ATOM     76  C   UNL A   1      45.280  32.416  30.643  1.00  0.00    -0.014 A 
ATOM     77  C   UNL A   1      45.459  32.635  32.019  1.00  0.00     0.009 A 
ATOM     78  C   UNL A   1      45.572  33.454  29.745  1.00  0.00     0.009 A 
ATOM     79  C   UNL A   1      45.887  33.880  32.484  1.00  0.00     0.001 A 
ATOM     80  C   UNL A   1      46.028  34.687  30.211  1.00  0.00     0.001 A 
ATOM     81  C   UNL A   1      46.176  34.902  31.580  1.00  0.00     0.000 A 
ENDBRANCH  63  76
ENDBRANCH  37  38
ENDBRANCH  29  32
ENDBRANCH  27  28
ENDBRANCH  26  27
ENDBRANCH   1  26
TORSDOF 16
ENDMDL
MODEL 2
REMARK VINA RESULT:     -11.2      0.675      5.955
REMARK SMILES COc1c(N)cc(-c2ccccc2)cc1C(=O)NCCCCCCNC(=O)c1ccc(-c2c3nc(c(-c4ccccc4)c4ccc([nH]4)c(-c4ccccc4)c4nc(c(-c5ccccc5)c5ccc2[nH]5)C=C4)C=C3)cc1
REMARK SMILES IDX 22 1 21 2 20 3 19 4 18 5 16 6 17 7 15 9 3 10 4 11 6 12 14 13
REMARK SMILES IDX 7 14 2 15 1 16 5 17 8 20 9 21 13 22 10 23 12 24 11 25 23 26
REMARK SMILES IDX 24 27 25 28 26 29 27 31 28 32 29 33 75 34 30 35 74 36 31 37
REMARK SMILES IDX 32 38 33 39 68 40 34 41 73 42 67 43 69 44 35 45 72 46 66 47
REMARK SMILES IDX 65 48 36 50 58 51 43 52 57 53 44 54 47 55 56 56 70 57 45 58
REMARK SMILES IDX 46 59 55 61 71 62 48 63 37 64 38 65 42 66 39 67 41 68 40 69
REMARK SMILES IDX 59 70 60 71 64 72 61 73 63 74 62 75 49 76 50 77 54 78 51 79
REMARK SMILES IDX 53 80 52 81
REMARK H PARENT 18 8 5 18 5 19 25 30 69 49 47 60
REMARK Flexibility Score: inf
ROOT
ATOM      1  C   UNL A   1      36.530  20.277  24.963  1.00  0.00     0.002 C 
ENDROOT
BRANCH   1   2
ATOM      2  C   UNL A   1      36.593  21.742  24.511  1.00  0.00     0.002 C 
BRANCH   2   3
ATOM      3  C   UNL A   1      36.479  22.771  25.643  1.00  0.00     0.021 C 
BRANCH   3   4
ATOM      4  C   UNL A   1      35.418  23.846  25.384  1.00  0.00     0.116 C 
BRANCH   4   5
ATOM      5  N   UNL A   1      34.200  23.523  26.087  1.00  0.00    -0.352 N 
ATOM      6  C   UNL A   1      33.106  22.737  25.892  1.00  0.00     0.255 C 
ATOM      7  O   UNL A   1      32.271  22.858  26.801  1.00  0.00    -0.269 OA
ATOM      8  H   UNL A   1      34.146  24.004  26.945  1.00  0.00     0.163 HD
BRANCH   6   9
ATOM      9  C   UNL A   1      32.801  21.764  24.786  1.00  0.00     0.084 A 
ATOM     10  C   UNL A   1      32.279  21.963  23.498  1.00  0.00     0.154 A 
ATOM     11  C   UNL A   1      32.182  20.882  22.579  1.00  0.00     0.076 A 
ATOM     12  C   UNL A   1      32.436  19.580  23.010  1.00  0.00     0.038 A 
ATOM     13  C   UNL A   1      33.100  20.423  25.149  1.00  0.00     0.026 A 
ATOM     14  C   UNL A   1      32.909  19.325  24.296  1.00  0.00    -0.015 A 
BRANCH  10  15
ATOM     15  O   UNL A   1      31.914  23.197  23.025  1.00  0.00    -0.494 OA
ATOM     16  C   UNL A   1      30.669  23.630  23.578  1.00  0.00     0.278 C 
ENDBRANCH  10  15
BRANCH  11  17
ATOM     17  N   UNL A   1      31.721  21.071  21.272  1.00  0.00    -0.396 N 
ATOM     18  H   UNL A   1      31.906  21.916  20.802  1.00  0.00     0.156 HD
ATOM     19  H   UNL A   1      31.212  20.359  20.822  1.00  0.00     0.156 HD
ENDBRANCH  11  17
BRANCH  14  20
ATOM     20  C   UNL A   1      33.219  17.955  24.730  1.00  0.00    -0.018 A 
ATOM     21  C   UNL A   1      34.480  17.393  24.474  1.00  0.00     0.009 A 
ATOM     22  C   UNL A   1      32.267  17.169  25.396  1.00  0.00     0.009 A 
ATOM     23  C   UNL A   1      34.775  16.082  24.854  1.00  0.00     0.001 A 
ATOM     24  C   UNL A   1      32.559  15.856  25.776  1.00  0.00     0.001 A 
ATOM     25  C   UNL A   1      33.812  15.313  25.501  1.00  0.00     0.000 A 
ENDBRANCH  14  20
ENDBRANCH   6   9
ENDBRANCH   4   5
ENDBRANCH   3   4
ENDBRANCH   2   3
ENDBRANCH   1   2
BRANCH   1  26
ATOM     26  C   UNL A   1      37.862  19.524  24.908  1.00  0.00     0.021 C 
BRANCH  26  27
ATOM     27  C   UNL A   1      38.987  20.179  25.704  1.00  0.00     0.116 C 
BRANCH  27  28
ATOM     28  N   UNL A   1      40.150  19.314  25.797  1.00  0.00    -0.352 N 
ATOM     29  C   UNL A   1      41.458  19.631  26.056  1.00  0.00     0.251 C 
ATOM     30  H   UNL A   1      39.972  18.356  25.653  1.00  0.00     0.163 HD
ATOM     31  O   UNL A   1      42.346  18.810  25.845  1.00  0.00    -0.269 OA
BRANCH  29  32
ATOM     32  C   UNL A   1      41.803  20.965  26.588  1.00  0.00     0.039 A 
ATOM     33  C   UNL A   1      42.260  21.948  25.705  1.00  0.00     0.014 A 
ATOM     34  C   UNL A   1      41.715  21.233  27.957  1.00  0.00     0.014 A 
ATOM     35  C   UNL A   1      42.586  23.214  26.191  1.00  0.00     0.010 A 
ATOM     36  C   UNL A   1      41.975  22.514  28.431  1.00  0.00     0.010 A 
ATOM     37  C   UNL A   1      42.422  23.514  27.554  1.00  0.00    -0.014 A 
BRANCH  37  38
ATOM     38  C   UNL A   1      42.720  24.868  28.081  1.00  0.00     0.031 A 
ATOM     39  C   UNL A   1      44.119  25.230  28.493  1.00  0.00     0.074 A 
ATOM     40  C   UNL A   1      41.716  25.750  28.246  1.00  0.00     0.049 A 
ATOM     41  N   UNL A   1      44.562  26.344  29.019  1.00  0.00    -0.248 NA
ATOM     42  C   UNL A   1      45.151  24.195  28.317  1.00  0.00     0.031 C 
ATOM     43  C   UNL A   1      40.310  25.503  27.923  1.00  0.00     0.029 A 
ATOM     44  N   UNL A   1      41.726  27.031  28.735  1.00  0.00    -0.354 N 
ATOM     45  C   UNL A   1      45.916  26.138  29.251  1.00  0.00     0.074 A 
ATOM     46  C   UNL A   1      46.211  24.778  28.856  1.00  0.00     0.031 C 
ATOM     47  C   UNL A   1      39.596  26.606  28.199  1.00  0.00     0.029 A 
ATOM     48  C   UNL A   1      40.487  27.623  28.751  1.00  0.00     0.049 A 
ATOM     49  H   UNL A   1      42.544  27.483  29.046  1.00  0.00     0.167 HD
ATOM     50  C   UNL A   1      46.835  27.007  29.735  1.00  0.00     0.031 A 
ATOM     51  C   UNL A   1      40.108  28.845  29.168  1.00  0.00     0.031 A 
ATOM     52  C   UNL A   1      46.542  28.362  30.119  1.00  0.00     0.049 A 
ATOM     53  C   UNL A   1      41.145  29.791  29.704  1.00  0.00     0.074 A 
ATOM     54  C   UNL A   1      47.413  29.342  30.561  1.00  0.00     0.029 A 
ATOM     55  N   UNL A   1      45.275  28.926  30.113  1.00  0.00    -0.354 N 
ATOM     56  N   UNL A   1      42.434  29.605  29.852  1.00  0.00    -0.248 NA
ATOM     57  C   UNL A   1      40.672  31.118  30.122  1.00  0.00     0.031 C 
ATOM     58  C   UNL A   1      46.666  30.484  30.870  1.00  0.00     0.029 A 
ATOM     59  C   UNL A   1      45.337  30.232  30.569  1.00  0.00     0.049 A 
ATOM     60  H   UNL A   1      44.453  28.466  29.826  1.00  0.00     0.167 HD
ATOM     61  C   UNL A   1      42.932  30.799  30.357  1.00  0.00     0.074 A 
ATOM     62  C   UNL A   1      41.808  31.706  30.475  1.00  0.00     0.031 C 
ATOM     63  C   UNL A   1      44.208  31.117  30.689  1.00  0.00     0.031 A 
BRANCH  50  64
ATOM     64  C   UNL A   1      48.245  26.506  29.886  1.00  0.00    -0.014 A 
ATOM     65  C   UNL A   1      48.664  25.846  31.052  1.00  0.00     0.009 A 
ATOM     66  C   UNL A   1      49.163  26.681  28.839  1.00  0.00     0.009 A 
ATOM     67  C   UNL A   1      49.984  25.410  31.185  1.00  0.00     0.001 A 
ATOM     68  C   UNL A   1      50.475  26.217  28.962  1.00  0.00     0.001 A 
ATOM     69  C   UNL A   1      50.887  25.593  30.139  1.00  0.00     0.000 A 
ENDBRANCH  50  64
BRANCH  51  70
ATOM     70  C   UNL A   1      38.683  29.248  29.070  1.00  0.00    -0.014 A 
ATOM     71  C   UNL A   1      37.828  29.108  30.173  1.00  0.00     0.009 A 
ATOM     72  C   UNL A   1      38.174  29.791  27.880  1.00  0.00     0.009 A 
ATOM     73  C   UNL A   1      36.487  29.487  30.080  1.00  0.00     0.001 A 
ATOM     74  C   UNL A   1      36.840  30.194  27.799  1.00  0.00     0.001 A 
ATOM     75  C   UNL A   1      35.996  30.035  28.896  1.00  0.00     0.000 A 
ENDBRANCH  51  70
BRANCH  63  76
ATOM     76  C   UNL A   1      44.456  32.511  31.190  1.00  0.00    -0.014 A 
ATOM     77  C   UNL A   1      44.418  32.810  32.562  1.00  0.00     0.009 A 
ATOM     78  C   UNL A   1      44.772  33.532  30.280  1.00  0.00     0.009 A 
ATOM     79  C   UNL A   1      44.658  34.111  33.007  1.00  0.00     0.001 A 
ATOM     80  C   UNL A   1      45.040  34.824  30.730  1.00  0.00     0.001 A 
ATOM     81  C   UNL A   1      44.974  35.115  32.091  1.00  0.00     0.000 A 
ENDBRANCH  63  76
ENDBRANCH  37  38
ENDBRANCH  29  32
ENDBRANCH  27  28
ENDBRANCH  26  27
ENDBRANCH   1  26
TORSDOF 16
ENDMDL
MODEL 3
REMARK VINA RESULT:     -11.2      5.127     10.223
REMARK SMILES COc1c(N)cc(-c2ccccc2)cc1C(=O)NCCCCCCNC(=O)c1ccc(-c2c3nc(c(-c4ccccc4)c4ccc([nH]4)c(-c4ccccc4)c4nc(c(-c5ccccc5)c5ccc2[nH]5)C=C4)C=C3)cc1
REMARK SMILES IDX 22 1 21 2 20 3 19 4 18 5 16 6 17 7 15 9 3 10 4 11 6 12 14 13
REMARK SMILES IDX 7 14 2 15 1 16 5 17 8 20 9 21 13 22 10 23 12 24 11 25 23 26
REMARK SMILES IDX 24 27 25 28 26 29 27 31 28 32 29 33 75 34 30 35 74 36 31 37
REMARK SMILES IDX 32 38 33 39 68 40 34 41 73 42 67 43 69 44 35 45 72 46 66 47
REMARK SMILES IDX 65 48 36 50 58 51 43 52 57 53 44 54 47 55 56 56 70 57 45 58
REMARK SMILES IDX 46 59 55 61 71 62 48 63 37 64 38 65 42 66 39 67 41 68 40 69
REMARK SMILES IDX 59 70 60 71 64 72 61 73 63 74 62 75 49 76 50 77 54 78 51 79
REMARK SMILES IDX 53 80 52 81
REMARK H PARENT 18 8 5 18 5 19 25 30 69 49 47 60
REMARK Flexibility Score: inf
ROOT
ATOM      1  C   UNL A   1      31.447  30.555  25.788  1.00  0.00     0.002 C 
ENDROOT
BRANCH   1   2
ATOM      2  C   UNL A   1      32.113  29.431  26.594  1.00  0.00     0.002 C 
BRANCH   2   3
ATOM      3  C   UNL A   1      33.451  28.939  26.027  1.00  0.00     0.021 C 
BRANCH   3   4
ATOM      4  C   UNL A   1      33.447  27.449  25.664  1.00  0.00     0.116 C 
BRANCH   4   5
ATOM      5  N   UNL A   1      33.421  27.286  24.231  1.00  0.00    -0.352 N 
ATOM      6  C   UNL A   1      32.484  27.217  23.245  1.00  0.00     0.255 C 
ATOM      7  O   UNL A   1      32.987  26.999  22.132  1.00  0.00    -0.269 OA
ATOM      8  H   UNL A   1      34.331  27.202  23.866  1.00  0.00     0.163 HD
BRANCH   6   9
ATOM      9  C   UNL A   1      30.992  27.389  23.318  1.00  0.00     0.084 A 
ATOM     10  C   UNL A   1      29.979  26.511  23.736  1.00  0.00     0.154 A 
ATOM     11  C   UNL A   1      28.629  26.947  23.819  1.00  0.00     0.076 A 
ATOM     12  C   UNL A   1      28.271  28.196  23.311  1.00  0.00     0.038 A 
ATOM     13  C   UNL A   1      30.574  28.671  22.870  1.00  0.00     0.026 A 
ATOM     14  C   UNL A   1      29.234  29.085  22.838  1.00  0.00    -0.015 A 
BRANCH  10  15
ATOM     15  O   UNL A   1      30.232  25.232  24.162  1.00  0.00    -0.494 OA
ATOM     16  C   UNL A   1      30.564  24.367  23.074  1.00  0.00     0.278 C 
ENDBRANCH  10  15
BRANCH  11  17
ATOM     17  N   UNL A   1      27.615  26.107  24.291  1.00  0.00    -0.396 N 
ATOM     18  H   UNL A   1      27.261  25.390  23.716  1.00  0.00     0.156 HD
ATOM     19  H   UNL A   1      27.254  26.233  25.198  1.00  0.00     0.156 HD
ENDBRANCH  11  17
BRANCH  14  20
ATOM     20  C   UNL A   1      28.856  30.419  22.348  1.00  0.00    -0.018 A 
ATOM     21  C   UNL A   1      28.939  31.540  23.190  1.00  0.00     0.009 A 
ATOM     22  C   UNL A   1      28.391  30.608  21.037  1.00  0.00     0.009 A 
ATOM     23  C   UNL A   1      28.554  32.806  22.744  1.00  0.00     0.001 A 
ATOM     24  C   UNL A   1      28.002  31.874  20.589  1.00  0.00     0.001 A 
ATOM     25  C   UNL A   1      28.081  32.971  21.445  1.00  0.00     0.000 A 
ENDBRANCH  14  20
ENDBRANCH   6   9
ENDBRANCH   4   5
ENDBRANCH   3   4
ENDBRANCH   2   3
ENDBRANCH   1   2
BRANCH   1  26
ATOM     26  C   UNL A   1      31.281  31.879  26.538  1.00  0.00     0.021 C 
BRANCH  26  27
ATOM     27  C   UNL A   1      32.568  32.416  27.156  1.00  0.00     0.116 C 
BRANCH  27  28
ATOM     28  N   UNL A   1      32.425  33.802  27.570  1.00  0.00    -0.352 N 
ATOM     29  C   UNL A   1      33.124  34.511  28.512  1.00  0.00     0.251 C 
ATOM     30  H   UNL A   1      31.721  34.308  27.103  1.00  0.00     0.163 HD
ATOM     31  O   UNL A   1      32.703  35.592  28.909  1.00  0.00    -0.269 OA
BRANCH  29  32
ATOM     32  C   UNL A   1      34.389  33.972  29.053  1.00  0.00     0.039 A 
ATOM     33  C   UNL A   1      34.347  33.174  30.200  1.00  0.00     0.014 A 
ATOM     34  C   UNL A   1      35.613  34.285  28.456  1.00  0.00     0.014 A 
ATOM     35  C   UNL A   1      35.532  32.654  30.722  1.00  0.00     0.010 A 
ATOM     36  C   UNL A   1      36.785  33.711  28.936  1.00  0.00     0.010 A 
ATOM     37  C   UNL A   1      36.757  32.898  30.079  1.00  0.00    -0.014 A 
BRANCH  37  38
ATOM     38  C   UNL A   1      38.021  32.316  30.593  1.00  0.00     0.031 A 
ATOM     39  C   UNL A   1      38.561  31.042  30.007  1.00  0.00     0.074 A 
ATOM     40  C   UNL A   1      38.646  32.903  31.630  1.00  0.00     0.049 A 
ATOM     41  N   UNL A   1      39.621  30.358  30.356  1.00  0.00    -0.248 NA
ATOM     42  C   UNL A   1      37.794  30.443  28.902  1.00  0.00     0.031 C 
ATOM     43  C   UNL A   1      38.199  34.119  32.311  1.00  0.00     0.029 A 
ATOM     44  N   UNL A   1      39.792  32.549  32.296  1.00  0.00    -0.354 N 
ATOM     45  C   UNL A   1      39.639  29.243  29.528  1.00  0.00     0.074 A 
ATOM     46  C   UNL A   1      38.458  29.316  28.694  1.00  0.00     0.031 C 
ATOM     47  C   UNL A   1      39.074  34.424  33.283  1.00  0.00     0.029 A 
ATOM     48  C   UNL A   1      40.122  33.407  33.316  1.00  0.00     0.049 A 
ATOM     49  H   UNL A   1      40.327  31.755  32.065  1.00  0.00     0.167 HD
ATOM     50  C   UNL A   1      40.563  28.255  29.455  1.00  0.00     0.031 A 
ATOM     51  C   UNL A   1      41.149  33.377  34.185  1.00  0.00     0.031 A 
ATOM     52  C   UNL A   1      41.740  28.189  30.279  1.00  0.00     0.049 A 
ATOM     53  C   UNL A   1      42.159  32.270  34.089  1.00  0.00     0.074 A 
ATOM     54  C   UNL A   1      42.769  27.264  30.241  1.00  0.00     0.029 A 
ATOM     55  N   UNL A   1      42.041  29.082  31.296  1.00  0.00    -0.354 N 
ATOM     56  N   UNL A   1      42.200  31.260  33.253  1.00  0.00    -0.248 NA
ATOM     57  C   UNL A   1      43.270  32.305  35.050  1.00  0.00     0.031 C 
ATOM     58  C   UNL A   1      43.669  27.569  31.269  1.00  0.00     0.029 A 
ATOM     59  C   UNL A   1      43.227  28.715  31.911  1.00  0.00     0.049 A 
ATOM     60  H   UNL A   1      41.494  29.862  31.544  1.00  0.00     0.167 HD
ATOM     61  C   UNL A   1      43.352  30.553  33.571  1.00  0.00     0.074 A 
ATOM     62  C   UNL A   1      43.988  31.258  34.665  1.00  0.00     0.031 C 
ATOM     63  C   UNL A   1      43.841  29.422  33.005  1.00  0.00     0.031 A 
BRANCH  50  64
ATOM     64  C   UNL A   1      40.322  27.158  28.455  1.00  0.00    -0.014 A 
ATOM     65  C   UNL A   1      39.569  26.020  28.787  1.00  0.00     0.009 A 
ATOM     66  C   UNL A   1      40.840  27.273  27.156  1.00  0.00     0.009 A 
ATOM     67  C   UNL A   1      39.378  25.000  27.853  1.00  0.00     0.001 A 
ATOM     68  C   UNL A   1      40.622  26.265  26.214  1.00  0.00     0.001 A 
ATOM     69  C   UNL A   1      39.902  25.125  26.567  1.00  0.00     0.000 A 
ENDBRANCH  50  64
BRANCH  51  70
ATOM     70  C   UNL A   1      41.282  34.447  35.206  1.00  0.00    -0.014 A 
ATOM     71  C   UNL A   1      42.020  35.607  34.927  1.00  0.00     0.009 A 
ATOM     72  C   UNL A   1      40.658  34.321  36.458  1.00  0.00     0.009 A 
ATOM     73  C   UNL A   1      42.145  36.612  35.889  1.00  0.00     0.001 A 
ATOM     74  C   UNL A   1      40.764  35.340  37.406  1.00  0.00     0.001 A 
ATOM     75  C   UNL A   1      41.513  36.481  37.124  1.00  0.00     0.000 A 
ENDBRANCH  51  70
BRANCH  63  76
ATOM     76  C   UNL A   1      45.139  28.893  33.546  1.00  0.00    -0.014 A 
ATOM     77  C   UNL A   1      46.372  29.335  33.041  1.00  0.00     0.009 A 
ATOM     78  C   UNL A   1      45.127  27.968  34.601  1.00  0.00     0.009 A 
ATOM     79  C   UNL A   1      47.567  28.835  33.562  1.00  0.00     0.001 A 
ATOM     80  C   UNL A   1      46.323  27.491  35.138  1.00  0.00     0.001 A 
ATOM     81  C   UNL A   1      47.540  27.918  34.613  1.00  0.00     0.000 A 
ENDBRANCH  63  76
ENDBRANCH  37  38
ENDBRANCH  29  32
ENDBRANCH  27  28
ENDBRANCH  26  27
ENDBRANCH   1  26
TORSDOF 16
ENDMDL
