MODEL 1
REMARK VINA RESULT:     -11.0      0.000      0.000
REMARK SMILES Cc1ccc(C)c(S(=O)(=O)[C@H](C)C(=O)NCCCCCCNC(=O)c2ccc(-c3c4nc(c(-c5ccccc5)c5ccc([nH]5)c(-c5ccccc5)c5nc(c(-c6ccccc6)c6ccc3[nH]6)C=C5)C=C4)cc2)c1
REMARK SMILES IDX 18 1 17 2 16 3 15 4 13 5 14 6 11 8 12 9 8 10 9 11 10 12 7 13
REMARK SMILES IDX 1 14 2 15 3 16 73 17 4 18 5 19 6 20 19 21 20 22 21 23 22 24
REMARK SMILES IDX 23 25 24 27 25 28 26 29 72 30 27 31 71 32 28 33 29 34 30 35
REMARK SMILES IDX 65 36 31 37 70 38 64 39 66 40 32 41 69 42 63 43 62 44 33 46
REMARK SMILES IDX 55 47 40 48 54 49 41 50 44 51 53 52 67 53 42 54 43 55 52 57
REMARK SMILES IDX 68 58 45 59 34 60 35 61 39 62 36 63 38 64 37 65 56 66 57 67
REMARK SMILES IDX 61 68 58 69 60 70 59 71 46 72 47 73 51 74 48 75 50 76 49 77
REMARK H PARENT 15 7 22 26 66 45 44 56
REMARK Flexibility Score: inf
ROOT
ATOM      1  C   UNL A   1      39.704  21.752  26.294  1.00  0.00     0.002 C 
ENDROOT
BRANCH   1   2
ATOM      2  C   UNL A   1      38.656  21.118  25.377  1.00  0.00     0.021 C 
BRANCH   2   3
ATOM      3  C   UNL A   1      37.220  21.562  25.624  1.00  0.00     0.116 C 
BRANCH   3   4
ATOM      4  N   UNL A   1      36.227  20.541  25.328  1.00  0.00    -0.355 N 
ATOM      5  C   UNL A   1      34.876  20.674  25.176  1.00  0.00     0.238 C 
ATOM      6  O   UNL A   1      34.279  19.769  24.583  1.00  0.00    -0.274 OA
ATOM      7  H   UNL A   1      36.577  19.627  25.223  1.00  0.00     0.163 HD
BRANCH   5   8
ATOM      8  C   UNL A   1      34.085  21.816  25.766  1.00  0.00     0.199 C 
ATOM      9  C   UNL A   1      34.277  21.979  27.272  1.00  0.00     0.036 C 
BRANCH   8  10
ATOM     10  S   UNL A   1      34.295  23.311  24.840  1.00  0.00     0.190 S 
ATOM     11  O   UNL A   1      34.882  22.993  23.551  1.00  0.00    -0.223 OA
ATOM     12  O   UNL A   1      34.969  24.255  25.718  1.00  0.00    -0.223 OA
BRANCH  10  13
ATOM     13  C   UNL A   1      32.719  24.076  24.473  1.00  0.00     0.071 A 
ATOM     14  C   UNL A   1      30.874  27.358  25.114  1.00  0.00     0.044 C 
ATOM     15  C   UNL A   1      31.201  25.979  24.617  1.00  0.00    -0.050 A 
ATOM     16  C   UNL A   1      30.313  25.325  23.762  1.00  0.00     0.004 A 
ATOM     17  C   UNL A   1      32.397  25.344  24.982  1.00  0.00     0.024 A 
ATOM     18  C   UNL A   1      30.611  24.054  23.278  1.00  0.00     0.005 A 
ATOM     19  C   UNL A   1      31.816  23.412  23.612  1.00  0.00    -0.032 A 
ATOM     20  C   UNL A   1      32.023  22.036  23.033  1.00  0.00     0.046 C 
ENDBRANCH  10  13
ENDBRANCH   8  10
ENDBRANCH   5   8
ENDBRANCH   3   4
ENDBRANCH   2   3
ENDBRANCH   1   2
BRANCH   1  21
ATOM     21  C   UNL A   1      40.761  20.834  26.924  1.00  0.00     0.002 C 
BRANCH  21  22
ATOM     22  C   UNL A   1      41.214  19.558  26.197  1.00  0.00     0.021 C 
BRANCH  22  23
ATOM     23  C   UNL A   1      42.631  19.050  26.442  1.00  0.00     0.116 C 
BRANCH  23  24
ATOM     24  N   UNL A   1      43.451  18.961  25.231  1.00  0.00    -0.352 N 
ATOM     25  C   UNL A   1      44.140  19.889  24.462  1.00  0.00     0.251 C 
ATOM     26  H   UNL A   1      43.531  18.042  24.887  1.00  0.00     0.163 HD
ATOM     27  O   UNL A   1      44.546  19.570  23.359  1.00  0.00    -0.269 OA
BRANCH  25  28
ATOM     28  C   UNL A   1      44.421  21.254  24.966  1.00  0.00     0.039 A 
ATOM     29  C   UNL A   1      45.587  21.588  25.660  1.00  0.00     0.014 A 
ATOM     30  C   UNL A   1      43.407  22.188  24.932  1.00  0.00     0.014 A 
ATOM     31  C   UNL A   1      45.593  22.769  26.419  1.00  0.00     0.010 A 
ATOM     32  C   UNL A   1      43.632  23.482  25.259  1.00  0.00     0.010 A 
ATOM     33  C   UNL A   1      44.528  23.661  26.280  1.00  0.00    -0.014 A 
BRANCH  33  34
ATOM     34  C   UNL A   1      44.308  24.855  27.065  1.00  0.00     0.031 A 
ATOM     35  C   UNL A   1      45.286  25.919  26.804  1.00  0.00     0.074 A 
ATOM     36  C   UNL A   1      43.133  25.156  27.661  1.00  0.00     0.049 A 
ATOM     37  N   UNL A   1      46.332  26.197  27.502  1.00  0.00    -0.248 NA
ATOM     38  C   UNL A   1      45.195  26.633  25.519  1.00  0.00     0.031 C 
ATOM     39  C   UNL A   1      41.856  24.436  27.571  1.00  0.00     0.029 A 
ATOM     40  N   UNL A   1      42.814  26.255  28.404  1.00  0.00    -0.354 N 
ATOM     41  C   UNL A   1      46.892  27.290  26.861  1.00  0.00     0.074 A 
ATOM     42  C   UNL A   1      46.346  27.307  25.528  1.00  0.00     0.031 C 
ATOM     43  C   UNL A   1      40.866  25.210  28.080  1.00  0.00     0.029 A 
ATOM     44  C   UNL A   1      41.460  26.398  28.669  1.00  0.00     0.049 A 
ATOM     45  H   UNL A   1      43.490  26.895  28.726  1.00  0.00     0.167 HD
ATOM     46  C   UNL A   1      47.440  28.309  27.573  1.00  0.00     0.031 A 
ATOM     47  C   UNL A   1      40.871  27.430  29.319  1.00  0.00     0.031 A 
ATOM     48  C   UNL A   1      47.490  28.000  28.980  1.00  0.00     0.049 A 
ATOM     49  C   UNL A   1      41.907  28.126  30.115  1.00  0.00     0.074 A 
ATOM     50  C   UNL A   1      48.237  27.195  29.810  1.00  0.00     0.029 A 
ATOM     51  N   UNL A   1      46.344  28.335  29.658  1.00  0.00    -0.354 N 
ATOM     52  N   UNL A   1      42.534  27.573  31.114  1.00  0.00    -0.248 NA
ATOM     53  C   UNL A   1      42.502  29.361  29.617  1.00  0.00     0.031 C 
ATOM     54  C   UNL A   1      47.418  26.925  30.949  1.00  0.00     0.029 A 
ATOM     55  C   UNL A   1      46.199  27.581  30.795  1.00  0.00     0.049 A 
ATOM     56  H   UNL A   1      45.709  29.028  29.367  1.00  0.00     0.167 HD
ATOM     57  C   UNL A   1      43.798  28.129  31.078  1.00  0.00     0.074 A 
ATOM     58  C   UNL A   1      43.664  29.336  30.277  1.00  0.00     0.031 C 
ATOM     59  C   UNL A   1      44.898  27.396  31.410  1.00  0.00     0.031 A 
BRANCH  46  60
ATOM     60  C   UNL A   1      47.465  29.744  27.111  1.00  0.00    -0.014 A 
ATOM     61  C   UNL A   1      48.683  30.438  27.184  1.00  0.00     0.009 A 
ATOM     62  C   UNL A   1      46.313  30.512  26.853  1.00  0.00     0.009 A 
ATOM     63  C   UNL A   1      48.739  31.828  27.039  1.00  0.00     0.001 A 
ATOM     64  C   UNL A   1      46.370  31.895  26.665  1.00  0.00     0.001 A 
ATOM     65  C   UNL A   1      47.583  32.556  26.780  1.00  0.00     0.000 A 
ENDBRANCH  46  60
BRANCH  47  66
ATOM     66  C   UNL A   1      39.505  27.971  29.179  1.00  0.00    -0.014 A 
ATOM     67  C   UNL A   1      38.663  28.098  30.294  1.00  0.00     0.009 A 
ATOM     68  C   UNL A   1      39.126  28.618  27.989  1.00  0.00     0.009 A 
ATOM     69  C   UNL A   1      37.506  28.886  30.234  1.00  0.00     0.001 A 
ATOM     70  C   UNL A   1      37.970  29.404  27.929  1.00  0.00     0.001 A 
ATOM     71  C   UNL A   1      37.170  29.551  29.057  1.00  0.00     0.000 A 
ENDBRANCH  47  66
BRANCH  59  72
ATOM     72  C   UNL A   1      44.694  26.206  32.305  1.00  0.00    -0.014 A 
ATOM     73  C   UNL A   1      44.531  24.895  31.830  1.00  0.00     0.009 A 
ATOM     74  C   UNL A   1      44.719  26.416  33.692  1.00  0.00     0.009 A 
ATOM     75  C   UNL A   1      44.368  23.829  32.721  1.00  0.00     0.001 A 
ATOM     76  C   UNL A   1      44.577  25.349  34.581  1.00  0.00     0.001 A 
ATOM     77  C   UNL A   1      44.395  24.056  34.096  1.00  0.00     0.000 A 
ENDBRANCH  59  72
ENDBRANCH  33  34
ENDBRANCH  25  28
ENDBRANCH  23  24
ENDBRANCH  22  23
ENDBRANCH  21  22
ENDBRANCH   1  21
TORSDOF 15
ENDMDL
MODEL 2
REMARK VINA RESULT:     -10.8      5.017     10.903
REMARK SMILES Cc1ccc(C)c(S(=O)(=O)[C@H](C)C(=O)NCCCCCCNC(=O)c2ccc(-c3c4nc(c(-c5ccccc5)c5ccc([nH]5)c(-c5ccccc5)c5nc(c(-c6ccccc6)c6ccc3[nH]6)C=C5)C=C4)cc2)c1
REMARK SMILES IDX 18 1 17 2 16 3 15 4 13 5 14 6 11 8 12 9 8 10 9 11 10 12 7 13
REMARK SMILES IDX 1 14 2 15 3 16 73 17 4 18 5 19 6 20 19 21 20 22 21 23 22 24
REMARK SMILES IDX 23 25 24 27 25 28 26 29 72 30 27 31 71 32 28 33 29 34 30 35
REMARK SMILES IDX 65 36 31 37 70 38 64 39 66 40 32 41 69 42 63 43 62 44 33 46
REMARK SMILES IDX 55 47 40 48 54 49 41 50 44 51 53 52 67 53 42 54 43 55 52 57
REMARK SMILES IDX 68 58 45 59 34 60 35 61 39 62 36 63 38 64 37 65 56 66 57 67
REMARK SMILES IDX 61 68 58 69 60 70 59 71 46 72 47 73 51 74 48 75 50 76 49 77
REMARK H PARENT 15 7 22 26 66 45 44 56
REMARK Flexibility Score: inf
ROOT
ATOM      1  C   UNL A   1      35.605  31.988  32.028  1.00  0.00     0.002 C 
ENDROOT
BRANCH   1   2
ATOM      2  C   UNL A   1      36.486  31.894  33.276  1.00  0.00     0.021 C 
BRANCH   2   3
ATOM      3  C   UNL A   1      37.619  30.878  33.200  1.00  0.00     0.116 C 
BRANCH   3   4
ATOM      4  N   UNL A   1      37.980  30.297  34.484  1.00  0.00    -0.355 N 
ATOM      5  C   UNL A   1      38.285  30.927  35.657  1.00  0.00     0.238 C 
ATOM      6  O   UNL A   1      38.208  30.262  36.696  1.00  0.00    -0.274 OA
ATOM      7  H   UNL A   1      38.007  29.313  34.512  1.00  0.00     0.163 HD
BRANCH   5   8
ATOM      8  C   UNL A   1      38.787  32.349  35.726  1.00  0.00     0.199 C 
ATOM      9  C   UNL A   1      38.505  33.033  37.062  1.00  0.00     0.036 C 
BRANCH   8  10
ATOM     10  S   UNL A   1      40.466  32.484  35.180  1.00  0.00     0.190 S 
ATOM     11  O   UNL A   1      41.080  31.168  35.207  1.00  0.00    -0.223 OA
ATOM     12  O   UNL A   1      41.067  33.568  35.941  1.00  0.00    -0.223 OA
BRANCH  10  13
ATOM     13  C   UNL A   1      40.555  33.020  33.474  1.00  0.00     0.071 A 
ATOM     14  C   UNL A   1      42.400  32.128  30.252  1.00  0.00     0.044 C 
ATOM     15  C   UNL A   1      41.467  32.790  31.225  1.00  0.00    -0.050 A 
ATOM     16  C   UNL A   1      40.574  33.761  30.772  1.00  0.00     0.004 A 
ATOM     17  C   UNL A   1      41.464  32.433  32.581  1.00  0.00     0.024 A 
ATOM     18  C   UNL A   1      39.689  34.371  31.659  1.00  0.00     0.005 A 
ATOM     19  C   UNL A   1      39.654  34.008  33.016  1.00  0.00    -0.032 A 
ATOM     20  C   UNL A   1      38.660  34.742  33.879  1.00  0.00     0.046 C 
ENDBRANCH  10  13
ENDBRANCH   8  10
ENDBRANCH   5   8
ENDBRANCH   3   4
ENDBRANCH   2   3
ENDBRANCH   1   2
BRANCH   1  21
ATOM     21  C   UNL A   1      34.513  33.066  31.997  1.00  0.00     0.002 C 
BRANCH  21  22
ATOM     22  C   UNL A   1      34.337  33.959  30.758  1.00  0.00     0.021 C 
BRANCH  22  23
ATOM     23  C   UNL A   1      35.245  33.716  29.557  1.00  0.00     0.116 C 
BRANCH  23  24
ATOM     24  N   UNL A   1      34.806  32.622  28.687  1.00  0.00    -0.352 N 
ATOM     25  C   UNL A   1      35.389  31.437  28.257  1.00  0.00     0.251 C 
ATOM     26  H   UNL A   1      33.899  32.756  28.328  1.00  0.00     0.163 HD
ATOM     27  O   UNL A   1      34.885  30.823  27.334  1.00  0.00    -0.269 OA
BRANCH  25  28
ATOM     28  C   UNL A   1      36.595  30.886  28.918  1.00  0.00     0.039 A 
ATOM     29  C   UNL A   1      37.784  31.606  29.065  1.00  0.00     0.014 A 
ATOM     30  C   UNL A   1      36.621  29.540  29.219  1.00  0.00     0.014 A 
ATOM     31  C   UNL A   1      38.962  30.895  29.341  1.00  0.00     0.010 A 
ATOM     32  C   UNL A   1      37.637  29.001  29.933  1.00  0.00     0.010 A 
ATOM     33  C   UNL A   1      38.867  29.542  29.668  1.00  0.00    -0.014 A 
BRANCH  33  34
ATOM     34  C   UNL A   1      39.974  28.632  29.859  1.00  0.00     0.031 A 
ATOM     35  C   UNL A   1      40.353  28.454  31.266  1.00  0.00     0.074 A 
ATOM     36  C   UNL A   1      40.365  27.722  28.940  1.00  0.00     0.049 A 
ATOM     37  N   UNL A   1      41.316  29.041  31.889  1.00  0.00    -0.248 NA
ATOM     38  C   UNL A   1      39.444  27.679  32.129  1.00  0.00     0.031 C 
ATOM     39  C   UNL A   1      39.734  27.396  27.654  1.00  0.00     0.029 A 
ATOM     40  N   UNL A   1      41.377  26.810  29.024  1.00  0.00    -0.354 N 
ATOM     41  C   UNL A   1      41.271  28.511  33.168  1.00  0.00     0.074 A 
ATOM     42  C   UNL A   1      39.958  27.943  33.331  1.00  0.00     0.031 C 
ATOM     43  C   UNL A   1      40.264  26.247  27.169  1.00  0.00     0.029 A 
ATOM     44  C   UNL A   1      41.372  25.850  28.022  1.00  0.00     0.049 A 
ATOM     45  H   UNL A   1      42.055  26.831  29.737  1.00  0.00     0.167 HD
ATOM     46  C   UNL A   1      42.416  28.225  33.843  1.00  0.00     0.031 A 
ATOM     47  C   UNL A   1      42.215  24.795  27.913  1.00  0.00     0.031 A 
ATOM     48  C   UNL A   1      43.578  28.692  33.128  1.00  0.00     0.049 A 
ATOM     49  C   UNL A   1      43.421  25.082  28.722  1.00  0.00     0.074 A 
ATOM     50  C   UNL A   1      44.188  29.900  32.873  1.00  0.00     0.029 A 
ATOM     51  N   UNL A   1      44.063  27.789  32.216  1.00  0.00    -0.354 N 
ATOM     52  N   UNL A   1      44.251  26.050  28.453  1.00  0.00    -0.248 NA
ATOM     53  C   UNL A   1      43.567  24.492  30.048  1.00  0.00     0.031 C 
ATOM     54  C   UNL A   1      44.932  29.725  31.667  1.00  0.00     0.029 A 
ATOM     55  C   UNL A   1      44.771  28.414  31.222  1.00  0.00     0.049 A 
ATOM     56  H   UNL A   1      43.921  26.816  32.268  1.00  0.00     0.167 HD
ATOM     57  C   UNL A   1      44.705  26.468  29.688  1.00  0.00     0.074 A 
ATOM     58  C   UNL A   1      44.407  25.373  30.598  1.00  0.00     0.031 C 
ATOM     59  C   UNL A   1      44.970  27.783  29.932  1.00  0.00     0.031 A 
BRANCH  46  60
ATOM     60  C   UNL A   1      42.543  27.116  34.856  1.00  0.00    -0.014 A 
ATOM     61  C   UNL A   1      42.806  25.821  34.384  1.00  0.00     0.009 A 
ATOM     62  C   UNL A   1      42.168  27.234  36.208  1.00  0.00     0.009 A 
ATOM     63  C   UNL A   1      42.669  24.702  35.213  1.00  0.00     0.001 A 
ATOM     64  C   UNL A   1      42.072  26.124  37.051  1.00  0.00     0.001 A 
ATOM     65  C   UNL A   1      42.302  24.855  36.546  1.00  0.00     0.000 A 
ENDBRANCH  46  60
BRANCH  47  66
ATOM     66  C   UNL A   1      41.992  23.475  27.292  1.00  0.00    -0.014 A 
ATOM     67  C   UNL A   1      42.836  23.006  26.274  1.00  0.00     0.009 A 
ATOM     68  C   UNL A   1      41.111  22.558  27.893  1.00  0.00     0.009 A 
ATOM     69  C   UNL A   1      42.831  21.655  25.903  1.00  0.00     0.001 A 
ATOM     70  C   UNL A   1      41.105  21.210  27.521  1.00  0.00     0.001 A 
ATOM     71  C   UNL A   1      41.978  20.756  26.538  1.00  0.00     0.000 A 
ENDBRANCH  47  66
BRANCH  59  72
ATOM     72  C   UNL A   1      45.285  28.656  28.750  1.00  0.00    -0.014 A 
ATOM     73  C   UNL A   1      46.496  28.598  28.041  1.00  0.00     0.009 A 
ATOM     74  C   UNL A   1      44.292  29.541  28.303  1.00  0.00     0.009 A 
ATOM     75  C   UNL A   1      46.716  29.424  26.934  1.00  0.00     0.001 A 
ATOM     76  C   UNL A   1      44.503  30.351  27.186  1.00  0.00     0.001 A 
ATOM     77  C   UNL A   1      45.718  30.298  26.506  1.00  0.00     0.000 A 
ENDBRANCH  59  72
ENDBRANCH  33  34
ENDBRANCH  25  28
ENDBRANCH  23  24
ENDBRANCH  22  23
ENDBRANCH  21  22
ENDBRANCH   1  21
TORSDOF 15
ENDMDL
MODEL 3
REMARK VINA RESULT:     -10.7      3.244      4.886
REMARK SMILES Cc1ccc(C)c(S(=O)(=O)[C@H](C)C(=O)NCCCCCCNC(=O)c2ccc(-c3c4nc(c(-c5ccccc5)c5ccc([nH]5)c(-c5ccccc5)c5nc(c(-c6ccccc6)c6ccc3[nH]6)C=C5)C=C4)cc2)c1
REMARK SMILES IDX 18 1 17 2 16 3 15 4 13 5 14 6 11 8 12 9 8 10 9 11 10 12 7 13
REMARK SMILES IDX 1 14 2 15 3 16 73 17 4 18 5 19 6 20 19 21 20 22 21 23 22 24
REMARK SMILES IDX 23 25 24 27 25 28 26 29 72 30 27 31 71 32 28 33 29 34 30 35
REMARK SMILES IDX 65 36 31 37 70 38 64 39 66 40 32 41 69 42 63 43 62 44 33 46
REMARK SMILES IDX 55 47 40 48 54 49 41 50 44 51 53 52 67 53 42 54 43 55 52 57
REMARK SMILES IDX 68 58 45 59 34 60 35 61 39 62 36 63 38 64 37 65 56 66 57 67
REMARK SMILES IDX 61 68 58 69 60 70 59 71 46 72 47 73 51 74 48 75 50 76 49 77
REMARK H PARENT 15 7 22 26 66 45 44 56
REMARK Flexibility Score: inf
ROOT
ATOM      1  C   UNL A   1      35.830  23.946  24.379  1.00  0.00     0.002 C 
ENDROOT
BRANCH   1   2
ATOM      2  C   UNL A   1      34.666  23.144  23.794  1.00  0.00     0.021 C 
BRANCH   2   3
ATOM      3  C   UNL A   1      33.324  23.866  23.769  1.00  0.00     0.116 C 
BRANCH   3   4
ATOM      4  N   UNL A   1      32.976  24.422  22.470  1.00  0.00    -0.355 N 
ATOM      5  C   UNL A   1      33.217  25.674  21.978  1.00  0.00     0.238 C 
ATOM      6  O   UNL A   1      33.165  25.822  20.753  1.00  0.00    -0.274 OA
ATOM      7  H   UNL A   1      32.502  23.811  21.860  1.00  0.00     0.163 HD
BRANCH   5   8
ATOM      8  C   UNL A   1      33.453  26.877  22.859  1.00  0.00     0.199 C 
ATOM      9  C   UNL A   1      34.249  27.987  22.176  1.00  0.00     0.036 C 
BRANCH   8  10
ATOM     10  S   UNL A   1      31.961  27.426  23.639  1.00  0.00     0.190 S 
ATOM     11  O   UNL A   1      31.257  26.276  24.178  1.00  0.00    -0.223 OA
ATOM     12  O   UNL A   1      31.287  28.294  22.687  1.00  0.00    -0.223 OA
BRANCH  10  13
ATOM     13  C   UNL A   1      32.311  28.476  25.047  1.00  0.00     0.071 A 
ATOM     14  C   UNL A   1      31.245  31.852  26.475  1.00  0.00     0.044 C 
ATOM     15  C   UNL A   1      31.920  30.521  26.314  1.00  0.00    -0.050 A 
ATOM     16  C   UNL A   1      32.747  30.040  27.330  1.00  0.00     0.004 A 
ATOM     17  C   UNL A   1      31.716  29.740  25.167  1.00  0.00     0.024 A 
ATOM     18  C   UNL A   1      33.366  28.798  27.204  1.00  0.00     0.005 A 
ATOM     19  C   UNL A   1      33.153  27.991  26.073  1.00  0.00    -0.032 A 
ATOM     20  C   UNL A   1      33.882  26.673  26.047  1.00  0.00     0.046 C 
ENDBRANCH  10  13
ENDBRANCH   8  10
ENDBRANCH   5   8
ENDBRANCH   3   4
ENDBRANCH   2   3
ENDBRANCH   1   2
BRANCH   1  21
ATOM     21  C   UNL A   1      36.639  23.315  25.521  1.00  0.00     0.002 C 
BRANCH  21  22
ATOM     22  C   UNL A   1      38.131  23.641  25.689  1.00  0.00     0.021 C 
BRANCH  22  23
ATOM     23  C   UNL A   1      38.946  22.811  26.675  1.00  0.00     0.116 C 
BRANCH  23  24
ATOM     24  N   UNL A   1      40.234  22.350  26.148  1.00  0.00    -0.352 N 
ATOM     25  C   UNL A   1      41.476  22.945  25.980  1.00  0.00     0.251 C 
ATOM     26  H   UNL A   1      40.213  21.413  25.846  1.00  0.00     0.163 HD
ATOM     27  O   UNL A   1      42.314  22.397  25.287  1.00  0.00    -0.269 OA
BRANCH  25  28
ATOM     28  C   UNL A   1      41.818  24.222  26.650  1.00  0.00     0.039 A 
ATOM     29  C   UNL A   1      42.335  24.291  27.947  1.00  0.00     0.014 A 
ATOM     30  C   UNL A   1      41.424  25.402  26.055  1.00  0.00     0.014 A 
ATOM     31  C   UNL A   1      42.263  25.516  28.627  1.00  0.00     0.010 A 
ATOM     32  C   UNL A   1      41.813  26.601  26.549  1.00  0.00     0.010 A 
ATOM     33  C   UNL A   1      41.883  26.656  27.916  1.00  0.00    -0.014 A 
BRANCH  33  34
ATOM     34  C   UNL A   1      41.637  27.967  28.474  1.00  0.00     0.031 A 
ATOM     35  C   UNL A   1      42.636  28.969  28.083  1.00  0.00     0.074 A 
ATOM     36  C   UNL A   1      40.439  28.366  28.953  1.00  0.00     0.049 A 
ATOM     37  N   UNL A   1      43.650  29.362  28.772  1.00  0.00    -0.248 NA
ATOM     38  C   UNL A   1      42.613  29.454  26.691  1.00  0.00     0.031 C 
ATOM     39  C   UNL A   1      39.160  27.644  28.926  1.00  0.00     0.029 A 
ATOM     40  N   UNL A   1      40.095  29.577  29.481  1.00  0.00    -0.354 N 
ATOM     41  C   UNL A   1      44.250  30.328  27.981  1.00  0.00     0.074 A 
ATOM     42  C   UNL A   1      43.768  30.118  26.641  1.00  0.00     0.031 C 
ATOM     43  C   UNL A   1      38.154  28.493  29.247  1.00  0.00     0.029 A 
ATOM     44  C   UNL A   1      38.731  29.765  29.653  1.00  0.00     0.049 A 
ATOM     45  H   UNL A   1      40.760  30.261  29.721  1.00  0.00     0.167 HD
ATOM     46  C   UNL A   1      44.773  31.454  28.535  1.00  0.00     0.031 A 
ATOM     47  C   UNL A   1      38.122  30.893  30.087  1.00  0.00     0.031 A 
ATOM     48  C   UNL A   1      44.754  31.389  29.975  1.00  0.00     0.049 A 
ATOM     49  C   UNL A   1      39.125  31.714  30.803  1.00  0.00     0.074 A 
ATOM     50  C   UNL A   1      45.454  30.738  30.965  1.00  0.00     0.029 A 
ATOM     51  N   UNL A   1      43.581  31.837  30.530  1.00  0.00    -0.354 N 
ATOM     52  N   UNL A   1      39.700  31.339  31.910  1.00  0.00    -0.248 NA
ATOM     53  C   UNL A   1      39.755  32.845  30.130  1.00  0.00     0.031 C 
ATOM     54  C   UNL A   1      44.580  30.667  32.092  1.00  0.00     0.029 A 
ATOM     55  C   UNL A   1      43.375  31.289  31.770  1.00  0.00     0.049 A 
ATOM     56  H   UNL A   1      42.967  32.471  30.094  1.00  0.00     0.167 HD
ATOM     57  C   UNL A   1      40.969  31.880  31.840  1.00  0.00     0.074 A 
ATOM     58  C   UNL A   1      40.884  32.932  30.839  1.00  0.00     0.031 C 
ATOM     59  C   UNL A   1      42.046  31.213  32.344  1.00  0.00     0.031 A 
BRANCH  46  60
ATOM     60  C   UNL A   1      44.833  32.788  27.836  1.00  0.00    -0.014 A 
ATOM     61  C   UNL A   1      43.730  33.647  27.962  1.00  0.00     0.009 A 
ATOM     62  C   UNL A   1      45.794  33.130  26.864  1.00  0.00     0.009 A 
ATOM     63  C   UNL A   1      43.582  34.769  27.139  1.00  0.00     0.001 A 
ATOM     64  C   UNL A   1      45.673  34.272  26.069  1.00  0.00     0.001 A 
ATOM     65  C   UNL A   1      44.553  35.080  26.193  1.00  0.00     0.000 A 
ENDBRANCH  46  60
BRANCH  47  66
ATOM     66  C   UNL A   1      36.769  31.404  29.792  1.00  0.00    -0.014 A 
ATOM     67  C   UNL A   1      35.912  31.812  30.825  1.00  0.00     0.009 A 
ATOM     68  C   UNL A   1      36.422  31.746  28.473  1.00  0.00     0.009 A 
ATOM     69  C   UNL A   1      34.771  32.578  30.551  1.00  0.00     0.001 A 
ATOM     70  C   UNL A   1      35.283  32.510  28.199  1.00  0.00     0.001 A 
ATOM     71  C   UNL A   1      34.467  32.940  29.241  1.00  0.00     0.000 A 
ENDBRANCH  47  66
BRANCH  59  72
ATOM     72  C   UNL A   1      41.789  30.194  33.419  1.00  0.00    -0.014 A 
ATOM     73  C   UNL A   1      41.606  28.825  33.164  1.00  0.00     0.009 A 
ATOM     74  C   UNL A   1      41.783  30.632  34.752  1.00  0.00     0.009 A 
ATOM     75  C   UNL A   1      41.393  27.926  34.215  1.00  0.00     0.001 A 
ATOM     76  C   UNL A   1      41.591  29.732  35.801  1.00  0.00     0.001 A 
ATOM     77  C   UNL A   1      41.389  28.380  35.533  1.00  0.00     0.000 A 
ENDBRANCH  59  72
ENDBRANCH  33  34
ENDBRANCH  25  28
ENDBRANCH  23  24
ENDBRANCH  22  23
ENDBRANCH  21  22
ENDBRANCH   1  21
TORSDOF 15
ENDMDL
