MODEL 1
REMARK VINA RESULT:     -11.8      0.000      0.000
REMARK SMILES C[C@@H](Sc1nc(-c2ccc3c(c2)OCO3)ccc1C#N)C(=O)NCCCCCCNC(=O)c1ccc(-c2c3nc(c(-c4ccccc4)c4ccc([nH]4)c(-c4ccccc4)c4nc(c(-c5ccccc5)c5ccc2[nH]5)C=C4)C=C3)cc1
REMARK SMILES IDX 26 1 25 2 24 3 23 4 21 5 22 6 2 8 1 9 3 10 4 11 5 12 18 13
REMARK SMILES IDX 6 14 17 15 16 16 19 17 20 18 7 19 8 20 12 21 9 22 11 23
REMARK SMILES IDX 10 24 13 25 15 26 14 27 27 28 28 29 29 30 30 31 31 32 32 34
REMARK SMILES IDX 33 35 34 36 80 37 35 38 79 39 36 40 37 41 38 42 73 43 39 44
REMARK SMILES IDX 78 45 72 46 74 47 40 48 77 49 71 50 70 51 41 53 63 54 48 55
REMARK SMILES IDX 62 56 49 57 52 58 61 59 75 60 50 61 51 62 60 64 76 65 53 66
REMARK SMILES IDX 42 67 43 68 47 69 44 70 46 71 45 72 64 73 65 74 69 75 66 76
REMARK SMILES IDX 68 77 67 78 54 79 55 80 59 81 56 82 58 83 57 84
REMARK H PARENT 23 7 30 33 74 52 52 63
REMARK Flexibility Score: inf
ROOT
ATOM      1  C   UNL A   1      32.515  29.976  26.889  1.00  0.00     0.002 C 
ENDROOT
BRANCH   1   2
ATOM      2  C   UNL A   1      33.459  29.150  26.011  1.00  0.00     0.021 C 
BRANCH   2   3
ATOM      3  C   UNL A   1      32.749  28.447  24.860  1.00  0.00     0.116 C 
BRANCH   3   4
ATOM      4  N   UNL A   1      33.387  28.765  23.597  1.00  0.00    -0.355 N 
ATOM      5  C   UNL A   1      33.840  27.945  22.609  1.00  0.00     0.233 C 
ATOM      6  O   UNL A   1      34.400  28.472  21.644  1.00  0.00    -0.274 OA
ATOM      7  H   UNL A   1      33.514  29.728  23.428  1.00  0.00     0.163 HD
BRANCH   5   8
ATOM      8  C   UNL A   1      33.684  26.424  22.691  1.00  0.00     0.139 C 
ATOM      9  C   UNL A   1      33.670  25.928  24.133  1.00  0.00     0.030 C 
BRANCH   8  10
ATOM     10  S   UNL A   1      32.247  25.940  21.639  1.00  0.00    -0.092 SA
BRANCH  10  11
ATOM     11  C   UNL A   1      30.870  26.513  22.600  1.00  0.00     0.115 A 
ATOM     12  N   UNL A   1      30.493  27.787  22.307  1.00  0.00    -0.240 NA
ATOM     13  C   UNL A   1      30.176  25.710  23.502  1.00  0.00     0.084 A 
ATOM     14  C   UNL A   1      29.396  28.293  22.920  1.00  0.00     0.072 A 
ATOM     15  C   UNL A   1      29.043  26.243  24.118  1.00  0.00     0.024 A 
ATOM     16  C   UNL A   1      28.646  27.543  23.822  1.00  0.00     0.030 A 
BRANCH  13  17
ATOM     17  C   UNL A   1      30.573  24.371  23.812  1.00  0.00     0.102 C 
ATOM     18  N   UNL A   1      30.879  23.275  24.026  1.00  0.00    -0.192 NA
ENDBRANCH  13  17
BRANCH  14  19
ATOM     19  C   UNL A   1      29.034  29.680  22.592  1.00  0.00     0.004 A 
ATOM     20  C   UNL A   1      28.960  30.659  23.618  1.00  0.00     0.014 A 
ATOM     21  C   UNL A   1      28.713  30.057  21.275  1.00  0.00     0.061 A 
ATOM     22  C   UNL A   1      28.554  31.970  23.353  1.00  0.00     0.051 A 
ATOM     23  C   UNL A   1      28.298  31.356  21.044  1.00  0.00     0.166 A 
ATOM     24  C   UNL A   1      28.218  32.283  22.056  1.00  0.00     0.165 A 
ATOM     25  O   UNL A   1      27.911  31.870  19.846  1.00  0.00    -0.454 OA
ATOM     26  O   UNL A   1      27.773  33.492  21.625  1.00  0.00    -0.454 OA
ATOM     27  C   UNL A   1      27.546  33.214  20.227  1.00  0.00     0.468 C 
ENDBRANCH  14  19
ENDBRANCH  10  11
ENDBRANCH   8  10
ENDBRANCH   5   8
ENDBRANCH   3   4
ENDBRANCH   2   3
ENDBRANCH   1   2
BRANCH   1  28
ATOM     28  C   UNL A   1      31.444  30.753  26.114  1.00  0.00     0.002 C 
BRANCH  28  29
ATOM     29  C   UNL A   1      31.338  32.234  26.488  1.00  0.00     0.021 C 
BRANCH  29  30
ATOM     30  C   UNL A   1      32.551  32.768  27.238  1.00  0.00     0.116 C 
BRANCH  30  31
ATOM     31  N   UNL A   1      32.382  34.164  27.608  1.00  0.00    -0.352 N 
ATOM     32  C   UNL A   1      33.030  34.887  28.577  1.00  0.00     0.251 C 
ATOM     33  H   UNL A   1      31.708  34.660  27.091  1.00  0.00     0.163 HD
ATOM     34  O   UNL A   1      32.607  35.987  28.919  1.00  0.00    -0.269 OA
BRANCH  32  35
ATOM     35  C   UNL A   1      34.233  34.323  29.220  1.00  0.00     0.039 A 
ATOM     36  C   UNL A   1      34.084  33.540  30.365  1.00  0.00     0.014 A 
ATOM     37  C   UNL A   1      35.504  34.564  28.689  1.00  0.00     0.014 A 
ATOM     38  C   UNL A   1      35.207  32.953  30.948  1.00  0.00     0.010 A 
ATOM     39  C   UNL A   1      36.610  33.907  29.218  1.00  0.00     0.010 A 
ATOM     40  C   UNL A   1      36.475  33.101  30.358  1.00  0.00    -0.014 A 
BRANCH  40  41
ATOM     41  C   UNL A   1      37.668  32.424  30.925  1.00  0.00     0.031 A 
ATOM     42  C   UNL A   1      38.317  32.954  32.174  1.00  0.00     0.074 A 
ATOM     43  C   UNL A   1      38.194  31.357  30.290  1.00  0.00     0.049 A 
ATOM     44  N   UNL A   1      39.390  32.527  32.791  1.00  0.00    -0.248 NA
ATOM     45  C   UNL A   1      37.692  34.130  32.805  1.00  0.00     0.031 C 
ATOM     46  C   UNL A   1      37.678  30.765  29.054  1.00  0.00     0.029 A 
ATOM     47  N   UNL A   1      39.283  30.581  30.598  1.00  0.00    -0.354 N 
ATOM     48  C   UNL A   1      39.569  33.380  33.873  1.00  0.00     0.074 A 
ATOM     49  C   UNL A   1      38.533  34.387  33.796  1.00  0.00     0.031 C 
ATOM     50  C   UNL A   1      38.429  29.700  28.729  1.00  0.00     0.029 A 
ATOM     51  C   UNL A   1      39.510  29.567  29.698  1.00  0.00     0.049 A 
ATOM     52  H   UNL A   1      39.848  30.735  31.390  1.00  0.00     0.167 HD
ATOM     53  C   UNL A   1      40.495  33.318  34.858  1.00  0.00     0.031 A 
ATOM     54  C   UNL A   1      40.489  28.643  29.651  1.00  0.00     0.031 A 
ATOM     55  C   UNL A   1      41.527  32.319  34.933  1.00  0.00     0.049 A 
ATOM     56  C   UNL A   1      41.538  28.633  30.729  1.00  0.00     0.074 A 
ATOM     57  C   UNL A   1      42.493  32.153  35.911  1.00  0.00     0.029 A 
ATOM     58  N   UNL A   1      41.730  31.320  33.995  1.00  0.00    -0.354 N 
ATOM     59  N   UNL A   1      41.654  29.410  31.779  1.00  0.00    -0.248 NA
ATOM     60  C   UNL A   1      42.588  27.610  30.620  1.00  0.00     0.031 C 
ATOM     61  C   UNL A   1      43.322  31.096  35.529  1.00  0.00     0.029 A 
ATOM     62  C   UNL A   1      42.825  30.552  34.357  1.00  0.00     0.049 A 
ATOM     63  H   UNL A   1      41.180  31.177  33.192  1.00  0.00     0.167 HD
ATOM     64  C   UNL A   1      42.763  28.944  32.474  1.00  0.00     0.074 A 
ATOM     65  C   UNL A   1      43.271  27.806  31.738  1.00  0.00     0.031 C 
ATOM     66  C   UNL A   1      43.315  29.416  33.619  1.00  0.00     0.031 A 
BRANCH  53  67
ATOM     67  C   UNL A   1      40.439  34.362  35.940  1.00  0.00    -0.014 A 
ATOM     68  C   UNL A   1      41.123  35.581  35.809  1.00  0.00     0.009 A 
ATOM     69  C   UNL A   1      39.639  34.152  37.074  1.00  0.00     0.009 A 
ATOM     70  C   UNL A   1      41.028  36.556  36.803  1.00  0.00     0.001 A 
ATOM     71  C   UNL A   1      39.519  35.142  38.050  1.00  0.00     0.001 A 
ATOM     72  C   UNL A   1      40.219  36.341  37.918  1.00  0.00     0.000 A 
ENDBRANCH  53  67
BRANCH  54  73
ATOM     73  C   UNL A   1      40.543  27.655  28.537  1.00  0.00    -0.014 A 
ATOM     74  C   UNL A   1      41.218  27.954  27.342  1.00  0.00     0.009 A 
ATOM     75  C   UNL A   1      39.876  26.426  28.644  1.00  0.00     0.009 A 
ATOM     76  C   UNL A   1      41.178  27.068  26.263  1.00  0.00     0.001 A 
ATOM     77  C   UNL A   1      39.872  25.523  27.578  1.00  0.00     0.001 A 
ATOM     78  C   UNL A   1      40.508  25.852  26.383  1.00  0.00     0.000 A 
ENDBRANCH  54  73
BRANCH  66  79
ATOM     79  C   UNL A   1      44.496  28.670  34.178  1.00  0.00    -0.014 A 
ATOM     80  C   UNL A   1      44.334  27.573  35.038  1.00  0.00     0.009 A 
ATOM     81  C   UNL A   1      45.794  29.053  33.803  1.00  0.00     0.009 A 
ATOM     82  C   UNL A   1      45.450  26.901  35.542  1.00  0.00     0.001 A 
ATOM     83  C   UNL A   1      46.905  28.355  34.277  1.00  0.00     0.001 A 
ATOM     84  C   UNL A   1      46.733  27.288  35.156  1.00  0.00     0.000 A 
ENDBRANCH  66  79
ENDBRANCH  40  41
ENDBRANCH  32  35
ENDBRANCH  30  31
ENDBRANCH  29  30
ENDBRANCH  28  29
ENDBRANCH   1  28
TORSDOF 17
ENDMDL
MODEL 2
REMARK VINA RESULT:     -11.5      0.586      5.787
REMARK SMILES C[C@@H](Sc1nc(-c2ccc3c(c2)OCO3)ccc1C#N)C(=O)NCCCCCCNC(=O)c1ccc(-c2c3nc(c(-c4ccccc4)c4ccc([nH]4)c(-c4ccccc4)c4nc(c(-c5ccccc5)c5ccc2[nH]5)C=C4)C=C3)cc1
REMARK SMILES IDX 26 1 25 2 24 3 23 4 21 5 22 6 2 8 1 9 3 10 4 11 5 12 18 13
REMARK SMILES IDX 6 14 17 15 16 16 19 17 20 18 7 19 8 20 12 21 9 22 11 23
REMARK SMILES IDX 10 24 13 25 15 26 14 27 27 28 28 29 29 30 30 31 31 32 32 34
REMARK SMILES IDX 33 35 34 36 80 37 35 38 79 39 36 40 37 41 38 42 73 43 39 44
REMARK SMILES IDX 78 45 72 46 74 47 40 48 77 49 71 50 70 51 41 53 63 54 48 55
REMARK SMILES IDX 62 56 49 57 52 58 61 59 75 60 50 61 51 62 60 64 76 65 53 66
REMARK SMILES IDX 42 67 43 68 47 69 44 70 46 71 45 72 64 73 65 74 69 75 66 76
REMARK SMILES IDX 68 77 67 78 54 79 55 80 59 81 56 82 58 83 57 84
REMARK H PARENT 23 7 30 33 74 52 52 63
REMARK Flexibility Score: inf
ROOT
ATOM      1  C   UNL A   1      32.496  30.045  26.957  1.00  0.00     0.002 C 
ENDROOT
BRANCH   1   2
ATOM      2  C   UNL A   1      33.524  29.467  25.979  1.00  0.00     0.021 C 
BRANCH   2   3
ATOM      3  C   UNL A   1      32.903  28.570  24.915  1.00  0.00     0.116 C 
BRANCH   3   4
ATOM      4  N   UNL A   1      33.472  28.857  23.612  1.00  0.00    -0.355 N 
ATOM      5  C   UNL A   1      33.874  28.012  22.622  1.00  0.00     0.233 C 
ATOM      6  O   UNL A   1      34.379  28.516  21.615  1.00  0.00    -0.274 OA
ATOM      7  H   UNL A   1      33.585  29.815  23.411  1.00  0.00     0.163 HD
BRANCH   5   8
ATOM      8  C   UNL A   1      33.728  26.493  22.751  1.00  0.00     0.139 C 
ATOM      9  C   UNL A   1      33.690  26.046  24.209  1.00  0.00     0.030 C 
BRANCH   8  10
ATOM     10  S   UNL A   1      32.317  25.962  21.687  1.00  0.00    -0.092 SA
BRANCH  10  11
ATOM     11  C   UNL A   1      30.916  26.523  22.619  1.00  0.00     0.115 A 
ATOM     12  N   UNL A   1      30.542  27.799  22.328  1.00  0.00    -0.240 NA
ATOM     13  C   UNL A   1      30.201  25.710  23.496  1.00  0.00     0.084 A 
ATOM     14  C   UNL A   1      29.428  28.296  22.918  1.00  0.00     0.072 A 
ATOM     15  C   UNL A   1      29.051  26.234  24.088  1.00  0.00     0.024 A 
ATOM     16  C   UNL A   1      28.658  27.537  23.794  1.00  0.00     0.030 A 
BRANCH  13  17
ATOM     17  C   UNL A   1      30.593  24.370  23.804  1.00  0.00     0.102 C 
ATOM     18  N   UNL A   1      30.917  23.277  24.012  1.00  0.00    -0.192 NA
ENDBRANCH  13  17
BRANCH  14  19
ATOM     19  C   UNL A   1      29.071  29.685  22.594  1.00  0.00     0.004 A 
ATOM     20  C   UNL A   1      29.160  30.695  23.588  1.00  0.00     0.014 A 
ATOM     21  C   UNL A   1      28.595  30.036  21.317  1.00  0.00     0.061 A 
ATOM     22  C   UNL A   1      28.765  32.012  23.334  1.00  0.00     0.051 A 
ATOM     23  C   UNL A   1      28.195  31.341  21.098  1.00  0.00     0.166 A 
ATOM     24  C   UNL A   1      28.275  32.299  22.081  1.00  0.00     0.165 A 
ATOM     25  O   UNL A   1      27.673  31.834  19.943  1.00  0.00    -0.454 OA
ATOM     26  O   UNL A   1      27.816  33.511  21.671  1.00  0.00    -0.454 OA
ATOM     27  C   UNL A   1      27.402  33.201  20.324  1.00  0.00     0.468 C 
ENDBRANCH  14  19
ENDBRANCH  10  11
ENDBRANCH   8  10
ENDBRANCH   5   8
ENDBRANCH   3   4
ENDBRANCH   2   3
ENDBRANCH   1   2
BRANCH   1  28
ATOM     28  C   UNL A   1      31.351  30.817  26.291  1.00  0.00     0.002 C 
BRANCH  28  29
ATOM     29  C   UNL A   1      31.342  32.319  26.586  1.00  0.00     0.021 C 
BRANCH  29  30
ATOM     30  C   UNL A   1      32.682  32.861  27.066  1.00  0.00     0.116 C 
BRANCH  30  31
ATOM     31  N   UNL A   1      32.537  34.158  27.708  1.00  0.00    -0.352 N 
ATOM     32  C   UNL A   1      33.189  34.657  28.806  1.00  0.00     0.251 C 
ATOM     33  H   UNL A   1      31.880  34.763  27.295  1.00  0.00     0.163 HD
ATOM     34  O   UNL A   1      32.786  35.676  29.358  1.00  0.00    -0.269 OA
BRANCH  32  35
ATOM     35  C   UNL A   1      34.373  33.948  29.332  1.00  0.00     0.039 A 
ATOM     36  C   UNL A   1      35.644  34.395  28.968  1.00  0.00     0.014 A 
ATOM     37  C   UNL A   1      34.226  32.850  30.184  1.00  0.00     0.014 A 
ATOM     38  C   UNL A   1      36.771  33.771  29.505  1.00  0.00     0.010 A 
ATOM     39  C   UNL A   1      35.347  32.287  30.785  1.00  0.00     0.010 A 
ATOM     40  C   UNL A   1      36.632  32.736  30.446  1.00  0.00    -0.014 A 
BRANCH  40  41
ATOM     41  C   UNL A   1      37.820  32.111  31.080  1.00  0.00     0.031 A 
ATOM     42  C   UNL A   1      38.576  31.026  30.363  1.00  0.00     0.074 A 
ATOM     43  C   UNL A   1      38.191  32.490  32.319  1.00  0.00     0.049 A 
ATOM     44  N   UNL A   1      39.607  30.331  30.774  1.00  0.00    -0.248 NA
ATOM     45  C   UNL A   1      38.104  30.658  29.018  1.00  0.00     0.031 C 
ATOM     46  C   UNL A   1      37.522  33.508  33.132  1.00  0.00     0.029 A 
ATOM     47  N   UNL A   1      39.225  32.061  33.113  1.00  0.00    -0.354 N 
ATOM     48  C   UNL A   1      39.900  29.446  29.744  1.00  0.00     0.074 A 
ATOM     49  C   UNL A   1      38.904  29.646  28.715  1.00  0.00     0.031 C 
ATOM     50  C   UNL A   1      38.182  33.647  34.294  1.00  0.00     0.029 A 
ATOM     51  C   UNL A   1      39.284  32.693  34.332  1.00  0.00     0.049 A 
ATOM     52  H   UNL A   1      39.865  31.365  32.835  1.00  0.00     0.167 HD
ATOM     53  C   UNL A   1      40.923  28.564  29.649  1.00  0.00     0.031 A 
ATOM     54  C   UNL A   1      40.122  32.513  35.371  1.00  0.00     0.031 A 
ATOM     55  C   UNL A   1      41.912  28.362  30.673  1.00  0.00     0.049 A 
ATOM     56  C   UNL A   1      41.215  31.484  35.258  1.00  0.00     0.074 A 
ATOM     57  C   UNL A   1      43.006  27.513  30.657  1.00  0.00     0.029 A 
ATOM     58  N   UNL A   1      41.928  29.012  31.897  1.00  0.00    -0.354 N 
ATOM     59  N   UNL A   1      41.515  30.700  34.251  1.00  0.00    -0.248 NA
ATOM     60  C   UNL A   1      42.093  31.323  36.427  1.00  0.00     0.031 C 
ATOM     61  C   UNL A   1      43.644  27.600  31.897  1.00  0.00     0.029 A 
ATOM     62  C   UNL A   1      42.996  28.561  32.654  1.00  0.00     0.049 A 
ATOM     63  H   UNL A   1      41.277  29.692  32.185  1.00  0.00     0.167 HD
ATOM     64  C   UNL A   1      42.637  29.985  34.649  1.00  0.00     0.074 A 
ATOM     65  C   UNL A   1      42.976  30.442  35.980  1.00  0.00     0.031 C 
ATOM     66  C   UNL A   1      43.326  29.032  33.975  1.00  0.00     0.031 A 
BRANCH  53  67
ATOM     67  C   UNL A   1      41.026  27.743  28.392  1.00  0.00    -0.014 A 
ATOM     68  C   UNL A   1      40.470  26.456  28.318  1.00  0.00     0.009 A 
ATOM     69  C   UNL A   1      41.628  28.289  27.248  1.00  0.00     0.009 A 
ATOM     70  C   UNL A   1      40.538  25.723  27.131  1.00  0.00     0.001 A 
ATOM     71  C   UNL A   1      41.665  27.568  26.053  1.00  0.00     0.001 A 
ATOM     72  C   UNL A   1      41.127  26.282  25.998  1.00  0.00     0.000 A 
ENDBRANCH  53  67
BRANCH  54  73
ATOM     73  C   UNL A   1      39.960  33.307  36.620  1.00  0.00    -0.014 A 
ATOM     74  C   UNL A   1      39.122  32.859  37.654  1.00  0.00     0.009 A 
ATOM     75  C   UNL A   1      40.605  34.545  36.765  1.00  0.00     0.009 A 
ATOM     76  C   UNL A   1      38.892  33.657  38.777  1.00  0.00     0.001 A 
ATOM     77  C   UNL A   1      40.406  35.322  37.908  1.00  0.00     0.001 A 
ATOM     78  C   UNL A   1      39.536  34.886  38.905  1.00  0.00     0.000 A 
ENDBRANCH  54  73
BRANCH  66  79
ATOM     79  C   UNL A   1      44.549  28.459  34.640  1.00  0.00    -0.014 A 
ATOM     80  C   UNL A   1      45.812  29.052  34.494  1.00  0.00     0.009 A 
ATOM     81  C   UNL A   1      44.421  27.326  35.460  1.00  0.00     0.009 A 
ATOM     82  C   UNL A   1      46.929  28.496  35.123  1.00  0.00     0.001 A 
ATOM     83  C   UNL A   1      45.531  26.798  36.118  1.00  0.00     0.001 A 
ATOM     84  C   UNL A   1      46.786  27.375  35.940  1.00  0.00     0.000 A 
ENDBRANCH  66  79
ENDBRANCH  40  41
ENDBRANCH  32  35
ENDBRANCH  30  31
ENDBRANCH  29  30
ENDBRANCH  28  29
ENDBRANCH   1  28
TORSDOF 17
ENDMDL
MODEL 3
REMARK VINA RESULT:     -11.0      2.457      5.034
REMARK SMILES C[C@@H](Sc1nc(-c2ccc3c(c2)OCO3)ccc1C#N)C(=O)NCCCCCCNC(=O)c1ccc(-c2c3nc(c(-c4ccccc4)c4ccc([nH]4)c(-c4ccccc4)c4nc(c(-c5ccccc5)c5ccc2[nH]5)C=C4)C=C3)cc1
REMARK SMILES IDX 26 1 25 2 24 3 23 4 21 5 22 6 2 8 1 9 3 10 4 11 5 12 18 13
REMARK SMILES IDX 6 14 17 15 16 16 19 17 20 18 7 19 8 20 12 21 9 22 11 23
REMARK SMILES IDX 10 24 13 25 15 26 14 27 27 28 28 29 29 30 30 31 31 32 32 34
REMARK SMILES IDX 33 35 34 36 80 37 35 38 79 39 36 40 37 41 38 42 73 43 39 44
REMARK SMILES IDX 78 45 72 46 74 47 40 48 77 49 71 50 70 51 41 53 63 54 48 55
REMARK SMILES IDX 62 56 49 57 52 58 61 59 75 60 50 61 51 62 60 64 76 65 53 66
REMARK SMILES IDX 42 67 43 68 47 69 44 70 46 71 45 72 64 73 65 74 69 75 66 76
REMARK SMILES IDX 68 77 67 78 54 79 55 80 59 81 56 82 58 83 57 84
REMARK H PARENT 23 7 30 33 74 52 52 63
REMARK Flexibility Score: inf
ROOT
ATOM      1  C   UNL A   1      35.533  33.042  27.894  1.00  0.00     0.002 C 
ENDROOT
BRANCH   1   2
ATOM      2  C   UNL A   1      35.679  31.635  28.481  1.00  0.00     0.021 C 
BRANCH   2   3
ATOM      3  C   UNL A   1      34.889  30.580  27.717  1.00  0.00     0.116 C 
BRANCH   3   4
ATOM      4  N   UNL A   1      33.532  31.033  27.478  1.00  0.00    -0.355 N 
ATOM      5  C   UNL A   1      32.509  30.434  26.808  1.00  0.00     0.233 C 
ATOM      6  O   UNL A   1      31.452  31.062  26.703  1.00  0.00    -0.274 OA
ATOM      7  H   UNL A   1      33.316  31.915  27.861  1.00  0.00     0.163 HD
BRANCH   5   8
ATOM      8  C   UNL A   1      32.659  29.041  26.188  1.00  0.00     0.139 C 
ATOM      9  C   UNL A   1      31.548  28.096  26.634  1.00  0.00     0.030 C 
BRANCH   8  10
ATOM     10  S   UNL A   1      32.887  29.248  24.368  1.00  0.00    -0.092 SA
BRANCH  10  11
ATOM     11  C   UNL A   1      32.548  27.616  23.762  1.00  0.00     0.115 A 
ATOM     12  N   UNL A   1      33.382  26.663  24.262  1.00  0.00    -0.240 NA
ATOM     13  C   UNL A   1      31.473  27.314  22.929  1.00  0.00     0.084 A 
ATOM     14  C   UNL A   1      33.155  25.369  23.933  1.00  0.00     0.072 A 
ATOM     15  C   UNL A   1      31.247  25.975  22.607  1.00  0.00     0.024 A 
ATOM     16  C   UNL A   1      32.091  24.993  23.117  1.00  0.00     0.030 A 
BRANCH  13  17
ATOM     17  C   UNL A   1      30.597  28.314  22.401  1.00  0.00     0.102 C 
ATOM     18  N   UNL A   1      29.907  29.121  21.937  1.00  0.00    -0.192 NA
ENDBRANCH  13  17
BRANCH  14  19
ATOM     19  C   UNL A   1      34.090  24.374  24.476  1.00  0.00     0.004 A 
ATOM     20  C   UNL A   1      34.124  24.113  25.871  1.00  0.00     0.014 A 
ATOM     21  C   UNL A   1      34.997  23.694  23.641  1.00  0.00     0.061 A 
ATOM     22  C   UNL A   1      35.046  23.224  26.430  1.00  0.00     0.051 A 
ATOM     23  C   UNL A   1      35.910  22.834  24.222  1.00  0.00     0.166 A 
ATOM     24  C   UNL A   1      35.935  22.609  25.578  1.00  0.00     0.165 A 
ATOM     25  O   UNL A   1      36.878  22.136  23.569  1.00  0.00    -0.454 OA
ATOM     26  O   UNL A   1      36.916  21.745  25.948  1.00  0.00    -0.454 OA
ATOM     27  C   UNL A   1      37.534  21.475  24.673  1.00  0.00     0.468 C 
ENDBRANCH  14  19
ENDBRANCH  10  11
ENDBRANCH   8  10
ENDBRANCH   5   8
ENDBRANCH   3   4
ENDBRANCH   2   3
ENDBRANCH   1   2
BRANCH   1  28
ATOM     28  C   UNL A   1      35.611  34.173  28.927  1.00  0.00     0.002 C 
BRANCH  28  29
ATOM     29  C   UNL A   1      34.420  35.134  28.908  1.00  0.00     0.021 C 
BRANCH  29  30
ATOM     30  C   UNL A   1      33.178  34.588  29.600  1.00  0.00     0.116 C 
BRANCH  30  31
ATOM     31  N   UNL A   1      32.708  35.484  30.644  1.00  0.00    -0.352 N 
ATOM     32  C   UNL A   1      33.093  35.558  31.959  1.00  0.00     0.251 C 
ATOM     33  H   UNL A   1      32.016  36.128  30.370  1.00  0.00     0.163 HD
ATOM     34  O   UNL A   1      32.435  36.210  32.763  1.00  0.00    -0.269 OA
BRANCH  32  35
ATOM     35  C   UNL A   1      34.300  34.833  32.403  1.00  0.00     0.039 A 
ATOM     36  C   UNL A   1      34.171  33.518  32.851  1.00  0.00     0.014 A 
ATOM     37  C   UNL A   1      35.554  35.450  32.372  1.00  0.00     0.014 A 
ATOM     38  C   UNL A   1      35.311  32.802  33.217  1.00  0.00     0.010 A 
ATOM     39  C   UNL A   1      36.696  34.708  32.653  1.00  0.00     0.010 A 
ATOM     40  C   UNL A   1      36.587  33.379  33.086  1.00  0.00    -0.014 A 
BRANCH  40  41
ATOM     41  C   UNL A   1      37.814  32.605  33.404  1.00  0.00     0.031 A 
ATOM     42  C   UNL A   1      38.570  32.876  34.676  1.00  0.00     0.074 A 
ATOM     43  C   UNL A   1      38.271  31.691  32.526  1.00  0.00     0.049 A 
ATOM     44  N   UNL A   1      39.685  32.338  35.103  1.00  0.00    -0.248 NA
ATOM     45  C   UNL A   1      38.015  33.898  35.580  1.00  0.00     0.031 C 
ATOM     46  C   UNL A   1      37.647  31.358  31.243  1.00  0.00     0.029 A 
ATOM     47  N   UNL A   1      39.372  30.872  32.580  1.00  0.00    -0.354 N 
ATOM     48  C   UNL A   1      39.963  32.956  36.314  1.00  0.00     0.074 A 
ATOM     49  C   UNL A   1      38.938  33.953  36.529  1.00  0.00     0.031 C 
ATOM     50  C   UNL A   1      38.355  30.383  30.649  1.00  0.00     0.029 A 
ATOM     51  C   UNL A   1      39.511  30.061  31.478  1.00  0.00     0.049 A 
ATOM     52  H   UNL A   1      40.002  30.866  33.336  1.00  0.00     0.167 HD
ATOM     53  C   UNL A   1      40.967  32.700  37.186  1.00  0.00     0.031 A 
ATOM     54  C   UNL A   1      40.470  29.170  31.164  1.00  0.00     0.031 A 
ATOM     55  C   UNL A   1      41.989  31.710  36.973  1.00  0.00     0.049 A 
ATOM     56  C   UNL A   1      41.605  28.947  32.128  1.00  0.00     0.074 A 
ATOM     57  C   UNL A   1      43.030  31.355  37.813  1.00  0.00     0.029 A 
ATOM     58  N   UNL A   1      42.100  30.921  35.840  1.00  0.00    -0.354 N 
ATOM     59  N   UNL A   1      41.817  29.497  33.299  1.00  0.00    -0.248 NA
ATOM     60  C   UNL A   1      42.628  27.971  31.728  1.00  0.00     0.031 C 
ATOM     61  C   UNL A   1      43.811  30.399  37.158  1.00  0.00     0.029 A 
ATOM     62  C   UNL A   1      43.211  30.100  35.947  1.00  0.00     0.049 A 
ATOM     63  H   UNL A   1      41.484  30.941  35.073  1.00  0.00     0.167 HD
ATOM     64  C   UNL A   1      42.973  28.904  33.791  1.00  0.00     0.074 A 
ATOM     65  C   UNL A   1      43.404  27.940  32.801  1.00  0.00     0.031 C 
ATOM     66  C   UNL A   1      43.623  29.138  34.957  1.00  0.00     0.031 A 
BRANCH  53  67
ATOM     67  C   UNL A   1      41.014  33.505  38.457  1.00  0.00    -0.014 A 
ATOM     68  C   UNL A   1      41.703  34.726  38.518  1.00  0.00     0.009 A 
ATOM     69  C   UNL A   1      40.305  33.068  39.587  1.00  0.00     0.009 A 
ATOM     70  C   UNL A   1      41.703  35.481  39.692  1.00  0.00     0.001 A 
ATOM     71  C   UNL A   1      40.279  33.841  40.750  1.00  0.00     0.001 A 
ATOM     72  C   UNL A   1      40.984  35.043  40.804  1.00  0.00     0.000 A 
ENDBRANCH  53  67
BRANCH  54  73
ATOM     73  C   UNL A   1      40.420  28.427  29.874  1.00  0.00    -0.014 A 
ATOM     74  C   UNL A   1      41.046  28.937  28.725  1.00  0.00     0.009 A 
ATOM     75  C   UNL A   1      39.700  27.227  29.773  1.00  0.00     0.009 A 
ATOM     76  C   UNL A   1      40.908  28.290  27.495  1.00  0.00     0.001 A 
ATOM     77  C   UNL A   1      39.598  26.559  28.550  1.00  0.00     0.001 A 
ATOM     78  C   UNL A   1      40.186  27.100  27.409  1.00  0.00     0.000 A 
ENDBRANCH  54  73
BRANCH  66  79
ATOM     79  C   UNL A   1      44.837  28.299  35.255  1.00  0.00    -0.014 A 
ATOM     80  C   UNL A   1      46.127  28.717  34.896  1.00  0.00     0.009 A 
ATOM     81  C   UNL A   1      44.683  27.085  35.945  1.00  0.00     0.009 A 
ATOM     82  C   UNL A   1      47.234  27.915  35.184  1.00  0.00     0.001 A 
ATOM     83  C   UNL A   1      45.795  26.307  36.266  1.00  0.00     0.001 A 
ATOM     84  C   UNL A   1      47.068  26.715  35.875  1.00  0.00     0.000 A 
ENDBRANCH  66  79
ENDBRANCH  40  41
ENDBRANCH  32  35
ENDBRANCH  30  31
ENDBRANCH  29  30
ENDBRANCH  28  29
ENDBRANCH   1  28
TORSDOF 17
ENDMDL
