MODEL 1
REMARK VINA RESULT:     -11.4      0.000      0.000
REMARK SMILES O=C(NCCCCCCNC(=O)[C@@H]1CCCC[C@H]1C(=O)Nc1ccc(NC(=O)c2ccco2)cc1)c1ccc(-c2c3nc(c(-c4ccccc4)c4ccc([nH]4)c(-c4ccccc4)c4nc(c(-c5ccccc5)c5ccc2[nH]5)C=C4)C=C3)cc1
REMARK SMILES IDX 7 1 6 2 5 3 4 4 3 5 1 6 2 7 36 9 37 10 83 11 38 12 82 13
REMARK SMILES IDX 39 14 40 15 41 16 76 17 42 18 81 19 75 20 77 21 43 22 80 23
REMARK SMILES IDX 74 24 73 25 44 27 66 28 51 29 65 30 52 31 55 32 64 33 78 34
REMARK SMILES IDX 53 35 54 36 63 38 79 39 56 40 45 41 46 42 50 43 47 44 49 45
REMARK SMILES IDX 48 46 67 47 68 48 72 49 69 50 71 51 70 52 57 53 58 54 62 55
REMARK SMILES IDX 59 56 61 57 60 58 8 59 9 60 10 61 11 62 12 64 13 65 14 66
REMARK SMILES IDX 18 67 15 68 17 69 16 70 19 71 20 72 21 73 22 75 23 76 35 77
REMARK SMILES IDX 24 78 34 79 25 80 26 81 27 82 28 84 29 85 30 86 33 87 31 88
REMARK SMILES IDX 32 89
REMARK H PARENT 3 8 77 26 55 37 10 63 21 74 26 83
REMARK Flexibility Score: inf
ROOT
ATOM      1  C   UNL A   1      32.094  25.613  26.372  1.00  0.00     0.002 C 
ENDROOT
BRANCH   1   2
ATOM      2  C   UNL A   1      31.429  26.943  26.739  1.00  0.00     0.002 C 
BRANCH   2   3
ATOM      3  C   UNL A   1      32.161  27.844  27.741  1.00  0.00     0.021 C 
BRANCH   3   4
ATOM      4  C   UNL A   1      33.415  28.553  27.233  1.00  0.00     0.116 C 
BRANCH   4   5
ATOM      5  N   UNL A   1      33.454  29.957  27.592  1.00  0.00    -0.352 N 
ATOM      6  O   UNL A   1      34.193  31.872  28.493  1.00  0.00    -0.269 OA
ATOM      7  C   UNL A   1      34.449  30.723  28.143  1.00  0.00     0.251 C 
ATOM      8  H   UNL A   1      32.619  30.446  27.410  1.00  0.00     0.163 HD
BRANCH   7   9
ATOM      9  C   UNL A   1      35.821  30.198  28.341  1.00  0.00     0.039 A 
ATOM     10  C   UNL A   1      36.796  30.251  27.341  1.00  0.00     0.014 A 
ATOM     11  C   UNL A   1      36.164  29.729  29.616  1.00  0.00     0.014 A 
ATOM     12  C   UNL A   1      38.082  29.760  27.589  1.00  0.00     0.010 A 
ATOM     13  C   UNL A   1      37.460  29.280  29.876  1.00  0.00     0.010 A 
ATOM     14  C   UNL A   1      38.426  29.275  28.860  1.00  0.00    -0.014 A 
BRANCH  14  15
ATOM     15  C   UNL A   1      39.803  28.802  29.150  1.00  0.00     0.031 A 
ATOM     16  C   UNL A   1      40.808  29.718  29.787  1.00  0.00     0.074 A 
ATOM     17  C   UNL A   1      40.167  27.556  28.794  1.00  0.00     0.049 A 
ATOM     18  N   UNL A   1      42.072  29.499  30.051  1.00  0.00    -0.248 NA
ATOM     19  C   UNL A   1      40.335  31.057  30.169  1.00  0.00     0.031 C 
ATOM     20  C   UNL A   1      39.296  26.571  28.153  1.00  0.00     0.029 A 
ATOM     21  N   UNL A   1      41.374  26.913  28.908  1.00  0.00    -0.354 N 
ATOM     22  C   UNL A   1      42.551  30.678  30.609  1.00  0.00     0.074 A 
ATOM     23  C   UNL A   1      41.446  31.612  30.636  1.00  0.00     0.031 C 
ATOM     24  C   UNL A   1      39.996  25.446  27.934  1.00  0.00     0.029 A 
ATOM     25  C   UNL A   1      41.371  25.644  28.385  1.00  0.00     0.049 A 
ATOM     26  H   UNL A   1      42.166  27.322  29.327  1.00  0.00     0.167 HD
ATOM     27  C   UNL A   1      43.798  30.956  31.061  1.00  0.00     0.031 A 
ATOM     28  C   UNL A   1      42.364  24.745  28.257  1.00  0.00     0.031 A 
ATOM     29  C   UNL A   1      44.902  30.035  31.042  1.00  0.00     0.049 A 
ATOM     30  C   UNL A   1      43.742  25.084  28.743  1.00  0.00     0.074 A 
ATOM     31  C   UNL A   1      46.187  30.218  31.523  1.00  0.00     0.029 A 
ATOM     32  N   UNL A   1      44.853  28.759  30.502  1.00  0.00    -0.354 N 
ATOM     33  N   UNL A   1      44.166  26.186  29.311  1.00  0.00    -0.248 NA
ATOM     34  C   UNL A   1      44.778  24.054  28.573  1.00  0.00     0.031 C 
ATOM     35  C   UNL A   1      46.927  29.062  31.245  1.00  0.00     0.029 A 
ATOM     36  C   UNL A   1      46.091  28.151  30.620  1.00  0.00     0.049 A 
ATOM     37  H   UNL A   1      44.057  28.347  30.096  1.00  0.00     0.167 HD
ATOM     38  C   UNL A   1      45.512  25.980  29.577  1.00  0.00     0.074 A 
ATOM     39  C   UNL A   1      45.834  24.644  29.117  1.00  0.00     0.031 C 
ATOM     40  C   UNL A   1      46.401  26.824  30.155  1.00  0.00     0.031 A 
BRANCH  27  41
ATOM     41  C   UNL A   1      44.038  32.337  31.598  1.00  0.00    -0.014 A 
ATOM     42  C   UNL A   1      43.881  32.621  32.962  1.00  0.00     0.009 A 
ATOM     43  C   UNL A   1      44.450  33.359  30.730  1.00  0.00     0.009 A 
ATOM     44  C   UNL A   1      44.106  33.913  33.443  1.00  0.00     0.001 A 
ATOM     45  C   UNL A   1      44.691  34.645  31.217  1.00  0.00     0.001 A 
ATOM     46  C   UNL A   1      44.511  34.923  32.570  1.00  0.00     0.000 A 
ENDBRANCH  27  41
BRANCH  28  47
ATOM     47  C   UNL A   1      42.082  23.437  27.621  1.00  0.00    -0.014 A 
ATOM     48  C   UNL A   1      41.480  22.405  28.356  1.00  0.00     0.009 A 
ATOM     49  C   UNL A   1      42.375  23.228  26.264  1.00  0.00     0.009 A 
ATOM     50  C   UNL A   1      41.183  21.186  27.743  1.00  0.00     0.001 A 
ATOM     51  C   UNL A   1      42.060  22.015  25.651  1.00  0.00     0.001 A 
ATOM     52  C   UNL A   1      41.467  20.994  26.392  1.00  0.00     0.000 A 
ENDBRANCH  28  47
BRANCH  40  53
ATOM     53  C   UNL A   1      47.801  26.323  30.342  1.00  0.00    -0.014 A 
ATOM     54  C   UNL A   1      48.759  26.466  29.327  1.00  0.00     0.009 A 
ATOM     55  C   UNL A   1      48.178  25.745  31.564  1.00  0.00     0.009 A 
ATOM     56  C   UNL A   1      50.067  26.021  29.528  1.00  0.00     0.001 A 
ATOM     57  C   UNL A   1      49.489  25.315  31.766  1.00  0.00     0.001 A 
ATOM     58  C   UNL A   1      50.432  25.450  30.747  1.00  0.00     0.000 A 
ENDBRANCH  40  53
ENDBRANCH  14  15
ENDBRANCH   7   9
ENDBRANCH   4   5
ENDBRANCH   3   4
ENDBRANCH   2   3
ENDBRANCH   1   2
BRANCH   1  59
ATOM     59  C   UNL A   1      31.187  24.505  25.839  1.00  0.00     0.021 C 
BRANCH  59  60
ATOM     60  C   UNL A   1      31.611  23.074  26.142  1.00  0.00     0.116 C 
BRANCH  60  61
ATOM     61  N   UNL A   1      31.466  22.141  25.045  1.00  0.00    -0.356 N 
ATOM     62  C   UNL A   1      32.437  21.580  24.259  1.00  0.00     0.223 C 
ATOM     63  H   UNL A   1      30.542  21.873  24.835  1.00  0.00     0.163 HD
ATOM     64  O   UNL A   1      32.119  20.640  23.531  1.00  0.00    -0.275 OA
BRANCH  62  65
ATOM     65  C   UNL A   1      33.860  22.163  24.267  1.00  0.00     0.091 C 
ATOM     66  C   UNL A   1      34.493  21.913  25.654  1.00  0.00     0.014 C 
ATOM     67  C   UNL A   1      33.883  23.668  23.912  1.00  0.00     0.091 C 
ATOM     68  C   UNL A   1      35.845  22.594  25.821  1.00  0.00     0.001 C 
ATOM     69  C   UNL A   1      35.145  24.462  24.307  1.00  0.00     0.014 C 
ATOM     70  C   UNL A   1      35.699  24.100  25.673  1.00  0.00     0.001 C 
BRANCH  67  71
ATOM     71  C   UNL A   1      33.488  24.016  22.479  1.00  0.00     0.228 C 
ATOM     72  O   UNL A   1      33.717  23.185  21.586  1.00  0.00    -0.274 OA
ATOM     73  N   UNL A   1      32.853  25.145  22.064  1.00  0.00    -0.326 N 
ATOM     74  H   UNL A   1      32.580  25.077  21.120  1.00  0.00     0.169 HD
BRANCH  73  75
ATOM     75  C   UNL A   1      32.480  26.384  22.616  1.00  0.00     0.041 A 
ATOM     76  C   UNL A   1      31.112  26.593  22.814  1.00  0.00     0.028 A 
ATOM     77  C   UNL A   1      33.339  27.420  22.954  1.00  0.00     0.028 A 
ATOM     78  C   UNL A   1      30.638  27.760  23.433  1.00  0.00     0.028 A 
ATOM     79  C   UNL A   1      32.871  28.596  23.550  1.00  0.00     0.028 A 
ATOM     80  C   UNL A   1      31.524  28.745  23.860  1.00  0.00     0.041 A 
BRANCH  80  81
ATOM     81  N   UNL A   1      31.170  29.896  24.579  1.00  0.00    -0.319 N 
ATOM     82  C   UNL A   1      30.226  30.874  24.343  1.00  0.00     0.291 C 
ATOM     83  H   UNL A   1      31.692  30.031  25.404  1.00  0.00     0.170 HD
ATOM     84  O   UNL A   1      30.253  31.870  25.071  1.00  0.00    -0.265 OA
BRANCH  82  85
ATOM     85  C   UNL A   1      29.214  30.664  23.338  1.00  0.00     0.191 A 
ATOM     86  C   UNL A   1      27.888  30.274  23.417  1.00  0.00     0.056 A 
ATOM     87  O   UNL A   1      29.556  30.853  22.028  1.00  0.00    -0.459 OA
ATOM     88  C   UNL A   1      27.414  30.181  22.086  1.00  0.00     0.043 A 
ATOM     89  C   UNL A   1      28.466  30.547  21.280  1.00  0.00     0.196 A 
ENDBRANCH  82  85
ENDBRANCH  80  81
ENDBRANCH  73  75
ENDBRANCH  67  71
ENDBRANCH  62  65
ENDBRANCH  60  61
ENDBRANCH  59  60
ENDBRANCH   1  59
TORSDOF 17
ENDMDL
MODEL 2
REMARK VINA RESULT:     -11.1      2.064      6.954
REMARK SMILES O=C(NCCCCCCNC(=O)[C@@H]1CCCC[C@H]1C(=O)Nc1ccc(NC(=O)c2ccco2)cc1)c1ccc(-c2c3nc(c(-c4ccccc4)c4ccc([nH]4)c(-c4ccccc4)c4nc(c(-c5ccccc5)c5ccc2[nH]5)C=C4)C=C3)cc1
REMARK SMILES IDX 7 1 6 2 5 3 4 4 3 5 1 6 2 7 36 9 37 10 83 11 38 12 82 13
REMARK SMILES IDX 39 14 40 15 41 16 76 17 42 18 81 19 75 20 77 21 43 22 80 23
REMARK SMILES IDX 74 24 73 25 44 27 66 28 51 29 65 30 52 31 55 32 64 33 78 34
REMARK SMILES IDX 53 35 54 36 63 38 79 39 56 40 45 41 46 42 50 43 47 44 49 45
REMARK SMILES IDX 48 46 67 47 68 48 72 49 69 50 71 51 70 52 57 53 58 54 62 55
REMARK SMILES IDX 59 56 61 57 60 58 8 59 9 60 10 61 11 62 12 64 13 65 14 66
REMARK SMILES IDX 18 67 15 68 17 69 16 70 19 71 20 72 21 73 22 75 23 76 35 77
REMARK SMILES IDX 24 78 34 79 25 80 26 81 27 82 28 84 29 85 30 86 33 87 31 88
REMARK SMILES IDX 32 89
REMARK H PARENT 3 8 77 26 55 37 10 63 21 74 26 83
REMARK Flexibility Score: inf
ROOT
ATOM      1  C   UNL A   1      37.553  22.950  26.108  1.00  0.00     0.002 C 
ENDROOT
BRANCH   1   2
ATOM      2  C   UNL A   1      38.904  22.229  26.134  1.00  0.00     0.002 C 
BRANCH   2   3
ATOM      3  C   UNL A   1      39.014  20.911  25.359  1.00  0.00     0.021 C 
BRANCH   3   4
ATOM      4  C   UNL A   1      39.429  19.679  26.160  1.00  0.00     0.116 C 
BRANCH   4   5
ATOM      5  N   UNL A   1      40.724  19.159  25.763  1.00  0.00    -0.352 N 
ATOM      6  O   UNL A   1      42.909  19.131  25.260  1.00  0.00    -0.269 OA
ATOM      7  C   UNL A   1      41.972  19.725  25.790  1.00  0.00     0.251 C 
ATOM      8  H   UNL A   1      40.702  18.239  25.413  1.00  0.00     0.163 HD
BRANCH   7   9
ATOM      9  C   UNL A   1      42.222  21.040  26.426  1.00  0.00     0.039 A 
ATOM     10  C   UNL A   1      42.190  21.222  27.812  1.00  0.00     0.014 A 
ATOM     11  C   UNL A   1      42.601  22.105  25.599  1.00  0.00     0.014 A 
ATOM     12  C   UNL A   1      42.455  22.481  28.360  1.00  0.00     0.010 A 
ATOM     13  C   UNL A   1      42.908  23.351  26.150  1.00  0.00     0.010 A 
ATOM     14  C   UNL A   1      42.820  23.555  27.535  1.00  0.00    -0.014 A 
BRANCH  14  15
ATOM     15  C   UNL A   1      43.155  24.881  28.110  1.00  0.00     0.031 A 
ATOM     16  C   UNL A   1      42.080  25.899  28.364  1.00  0.00     0.074 A 
ATOM     17  C   UNL A   1      44.441  25.192  28.362  1.00  0.00     0.049 A 
ATOM     18  N   UNL A   1      42.196  27.130  28.796  1.00  0.00    -0.248 NA
ATOM     19  C   UNL A   1      40.697  25.483  28.086  1.00  0.00     0.031 C 
ATOM     20  C   UNL A   1      45.583  24.304  28.146  1.00  0.00     0.029 A 
ATOM     21  N   UNL A   1      45.001  26.349  28.841  1.00  0.00    -0.354 N 
ATOM     22  C   UNL A   1      40.905  27.643  28.823  1.00  0.00     0.074 A 
ATOM     23  C   UNL A   1      40.024  26.595  28.353  1.00  0.00     0.031 C 
ATOM     24  C   UNL A   1      46.709  24.947  28.495  1.00  0.00     0.029 A 
ATOM     25  C   UNL A   1      46.370  26.302  28.922  1.00  0.00     0.049 A 
ATOM     26  H   UNL A   1      44.472  27.138  29.101  1.00  0.00     0.167 HD
ATOM     27  C   UNL A   1      40.491  28.874  29.206  1.00  0.00     0.031 A 
ATOM     28  C   UNL A   1      47.261  27.246  29.278  1.00  0.00     0.031 A 
ATOM     29  C   UNL A   1      41.357  29.921  29.678  1.00  0.00     0.049 A 
ATOM     30  C   UNL A   1      46.781  28.611  29.677  1.00  0.00     0.074 A 
ATOM     31  C   UNL A   1      41.016  31.184  30.133  1.00  0.00     0.029 A 
ATOM     32  N   UNL A   1      42.738  29.830  29.745  1.00  0.00    -0.354 N 
ATOM     33  N   UNL A   1      45.553  29.064  29.741  1.00  0.00    -0.248 NA
ATOM     34  C   UNL A   1      47.809  29.592  30.055  1.00  0.00     0.031 C 
ATOM     35  C   UNL A   1      42.197  31.869  30.446  1.00  0.00     0.029 A 
ATOM     36  C   UNL A   1      43.266  31.020  30.214  1.00  0.00     0.049 A 
ATOM     37  H   UNL A   1      43.265  29.036  29.497  1.00  0.00     0.167 HD
ATOM     38  C   UNL A   1      45.658  30.377  30.177  1.00  0.00     0.074 A 
ATOM     39  C   UNL A   1      47.069  30.646  30.371  1.00  0.00     0.031 C 
ATOM     40  C   UNL A   1      44.670  31.278  30.399  1.00  0.00     0.031 A 
BRANCH  27  41
ATOM     41  C   UNL A   1      39.022  29.164  29.107  1.00  0.00    -0.014 A 
ATOM     42  C   UNL A   1      38.174  28.999  30.213  1.00  0.00     0.009 A 
ATOM     43  C   UNL A   1      38.484  29.630  27.898  1.00  0.00     0.009 A 
ATOM     44  C   UNL A   1      36.809  29.269  30.100  1.00  0.00     0.001 A 
ATOM     45  C   UNL A   1      37.122  29.916  27.793  1.00  0.00     0.001 A 
ATOM     46  C   UNL A   1      36.285  29.728  28.891  1.00  0.00     0.000 A 
ENDBRANCH  27  41
BRANCH  28  47
ATOM     47  C   UNL A   1      48.708  26.926  29.254  1.00  0.00    -0.014 A 
ATOM     48  C   UNL A   1      49.327  26.350  30.373  1.00  0.00     0.009 A 
ATOM     49  C   UNL A   1      49.467  27.157  28.097  1.00  0.00     0.009 A 
ATOM     50  C   UNL A   1      50.681  26.016  30.334  1.00  0.00     0.001 A 
ATOM     51  C   UNL A   1      50.817  26.805  28.055  1.00  0.00     0.001 A 
ATOM     52  C   UNL A   1      51.423  26.238  29.175  1.00  0.00     0.000 A 
ENDBRANCH  28  47
BRANCH  40  53
ATOM     53  C   UNL A   1      45.077  32.633  30.896  1.00  0.00    -0.014 A 
ATOM     54  C   UNL A   1      45.217  32.884  32.270  1.00  0.00     0.009 A 
ATOM     55  C   UNL A   1      45.369  33.654  29.979  1.00  0.00     0.009 A 
ATOM     56  C   UNL A   1      45.625  34.142  32.715  1.00  0.00     0.001 A 
ATOM     57  C   UNL A   1      45.791  34.905  30.428  1.00  0.00     0.001 A 
ATOM     58  C   UNL A   1      45.915  35.149  31.795  1.00  0.00     0.000 A 
ENDBRANCH  40  53
ENDBRANCH  14  15
ENDBRANCH   7   9
ENDBRANCH   4   5
ENDBRANCH   3   4
ENDBRANCH   2   3
ENDBRANCH   1   2
BRANCH   1  59
ATOM     59  C   UNL A   1      37.191  23.706  24.830  1.00  0.00     0.021 C 
BRANCH  59  60
ATOM     60  C   UNL A   1      36.223  23.013  23.881  1.00  0.00     0.116 C 
BRANCH  60  61
ATOM     61  N   UNL A   1      35.827  21.676  24.272  1.00  0.00    -0.356 N 
ATOM     62  C   UNL A   1      34.618  21.243  24.749  1.00  0.00     0.223 C 
ATOM     63  H   UNL A   1      36.521  20.984  24.183  1.00  0.00     0.163 HD
ATOM     64  O   UNL A   1      34.422  20.029  24.807  1.00  0.00    -0.275 OA
BRANCH  62  65
ATOM     65  C   UNL A   1      33.578  22.263  25.241  1.00  0.00     0.091 C 
ATOM     66  C   UNL A   1      33.630  22.321  26.784  1.00  0.00     0.014 C 
ATOM     67  C   UNL A   1      32.150  21.934  24.748  1.00  0.00     0.091 C 
ATOM     68  C   UNL A   1      32.527  23.183  27.383  1.00  0.00     0.001 C 
ATOM     69  C   UNL A   1      30.979  22.590  25.506  1.00  0.00     0.014 C 
ATOM     70  C   UNL A   1      31.161  22.625  27.013  1.00  0.00     0.001 C 
BRANCH  67  71
ATOM     71  C   UNL A   1      31.923  22.066  23.245  1.00  0.00     0.228 C 
ATOM     72  O   UNL A   1      32.108  21.069  22.530  1.00  0.00    -0.274 OA
ATOM     73  N   UNL A   1      31.483  23.171  22.585  1.00  0.00    -0.326 N 
ATOM     74  H   UNL A   1      31.280  22.970  21.642  1.00  0.00     0.169 HD
BRANCH  73  75
ATOM     75  C   UNL A   1      31.239  24.524  22.882  1.00  0.00     0.041 A 
ATOM     76  C   UNL A   1      32.148  25.452  22.365  1.00  0.00     0.028 A 
ATOM     77  C   UNL A   1      30.199  25.016  23.659  1.00  0.00     0.028 A 
ATOM     78  C   UNL A   1      31.953  26.831  22.534  1.00  0.00     0.028 A 
ATOM     79  C   UNL A   1      30.012  26.389  23.852  1.00  0.00     0.028 A 
ATOM     80  C   UNL A   1      30.846  27.311  23.230  1.00  0.00     0.041 A 
BRANCH  80  81
ATOM     81  N   UNL A   1      30.499  28.663  23.367  1.00  0.00    -0.319 N 
ATOM     82  C   UNL A   1      30.765  29.584  24.359  1.00  0.00     0.291 C 
ATOM     83  H   UNL A   1      29.968  29.020  22.618  1.00  0.00     0.170 HD
ATOM     84  O   UNL A   1      30.183  30.670  24.290  1.00  0.00    -0.265 OA
BRANCH  82  85
ATOM     85  C   UNL A   1      31.754  29.287  25.366  1.00  0.00     0.191 A 
ATOM     86  C   UNL A   1      31.667  28.692  26.613  1.00  0.00     0.056 A 
ATOM     87  O   UNL A   1      33.052  29.644  25.121  1.00  0.00    -0.459 OA
ATOM     88  C   UNL A   1      32.968  28.728  27.170  1.00  0.00     0.043 A 
ATOM     89  C   UNL A   1      33.773  29.313  26.221  1.00  0.00     0.196 A 
ENDBRANCH  82  85
ENDBRANCH  80  81
ENDBRANCH  73  75
ENDBRANCH  67  71
ENDBRANCH  62  65
ENDBRANCH  60  61
ENDBRANCH  59  60
ENDBRANCH   1  59
TORSDOF 17
ENDMDL
MODEL 3
REMARK VINA RESULT:     -11.1      2.323      7.075
REMARK SMILES O=C(NCCCCCCNC(=O)[C@@H]1CCCC[C@H]1C(=O)Nc1ccc(NC(=O)c2ccco2)cc1)c1ccc(-c2c3nc(c(-c4ccccc4)c4ccc([nH]4)c(-c4ccccc4)c4nc(c(-c5ccccc5)c5ccc2[nH]5)C=C4)C=C3)cc1
REMARK SMILES IDX 7 1 6 2 5 3 4 4 3 5 1 6 2 7 36 9 37 10 83 11 38 12 82 13
REMARK SMILES IDX 39 14 40 15 41 16 76 17 42 18 81 19 75 20 77 21 43 22 80 23
REMARK SMILES IDX 74 24 73 25 44 27 66 28 51 29 65 30 52 31 55 32 64 33 78 34
REMARK SMILES IDX 53 35 54 36 63 38 79 39 56 40 45 41 46 42 50 43 47 44 49 45
REMARK SMILES IDX 48 46 67 47 68 48 72 49 69 50 71 51 70 52 57 53 58 54 62 55
REMARK SMILES IDX 59 56 61 57 60 58 8 59 9 60 10 61 11 62 12 64 13 65 14 66
REMARK SMILES IDX 18 67 15 68 17 69 16 70 19 71 20 72 21 73 22 75 23 76 35 77
REMARK SMILES IDX 24 78 34 79 25 80 26 81 27 82 28 84 29 85 30 86 33 87 31 88
REMARK SMILES IDX 32 89
REMARK H PARENT 3 8 77 26 55 37 10 63 21 74 26 83
REMARK Flexibility Score: inf
ROOT
ATOM      1  C   UNL A   1      34.206  25.297  25.670  1.00  0.00     0.002 C 
ENDROOT
BRANCH   1   2
ATOM      2  C   UNL A   1      34.644  23.902  26.128  1.00  0.00     0.002 C 
BRANCH   2   3
ATOM      3  C   UNL A   1      36.132  23.697  26.436  1.00  0.00     0.021 C 
BRANCH   3   4
ATOM      4  C   UNL A   1      37.072  23.598  25.236  1.00  0.00     0.116 C 
BRANCH   4   5
ATOM      5  N   UNL A   1      38.224  22.755  25.491  1.00  0.00    -0.352 N 
ATOM      6  O   UNL A   1      40.303  22.169  26.090  1.00  0.00    -0.269 OA
ATOM      7  C   UNL A   1      39.411  23.013  26.126  1.00  0.00     0.251 C 
ATOM      8  H   UNL A   1      38.140  21.837  25.145  1.00  0.00     0.163 HD
BRANCH   7   9
ATOM      9  C   UNL A   1      39.654  24.288  26.843  1.00  0.00     0.039 A 
ATOM     10  C   UNL A   1      39.279  24.482  28.176  1.00  0.00     0.014 A 
ATOM     11  C   UNL A   1      40.376  25.285  26.176  1.00  0.00     0.014 A 
ATOM     12  C   UNL A   1      39.552  25.698  28.811  1.00  0.00     0.010 A 
ATOM     13  C   UNL A   1      40.687  26.483  26.824  1.00  0.00     0.010 A 
ATOM     14  C   UNL A   1      40.262  26.707  28.142  1.00  0.00    -0.014 A 
BRANCH  14  15
ATOM     15  C   UNL A   1      40.604  27.980  28.823  1.00  0.00     0.031 A 
ATOM     16  C   UNL A   1      41.947  28.165  29.470  1.00  0.00     0.074 A 
ATOM     17  C   UNL A   1      39.684  28.960  28.903  1.00  0.00     0.049 A 
ATOM     18  N   UNL A   1      42.393  29.180  30.167  1.00  0.00    -0.248 NA
ATOM     19  C   UNL A   1      42.909  27.062  29.324  1.00  0.00     0.031 C 
ATOM     20  C   UNL A   1      38.338  28.905  28.333  1.00  0.00     0.029 A 
ATOM     21  N   UNL A   1      39.742  30.189  29.511  1.00  0.00    -0.354 N 
ATOM     22  C   UNL A   1      43.679  28.831  30.561  1.00  0.00     0.074 A 
ATOM     23  C   UNL A   1      43.937  27.507  30.036  1.00  0.00     0.031 C 
ATOM     24  C   UNL A   1      37.697  30.050  28.615  1.00  0.00     0.029 A 
ATOM     25  C   UNL A   1      38.573  30.902  29.415  1.00  0.00     0.049 A 
ATOM     26  H   UNL A   1      40.544  30.527  29.970  1.00  0.00     0.167 HD
ATOM     27  C   UNL A   1      44.566  29.549  31.291  1.00  0.00     0.031 A 
ATOM     28  C   UNL A   1      38.230  32.098  29.929  1.00  0.00     0.031 A 
ATOM     29  C   UNL A   1      44.321  30.866  31.814  1.00  0.00     0.049 A 
ATOM     30  C   UNL A   1      39.220  32.865  30.755  1.00  0.00     0.074 A 
ATOM     31  C   UNL A   1      45.182  31.686  32.525  1.00  0.00     0.029 A 
ATOM     32  N   UNL A   1      43.123  31.552  31.693  1.00  0.00    -0.354 N 
ATOM     33  N   UNL A   1      40.448  32.540  31.078  1.00  0.00    -0.248 NA
ATOM     34  C   UNL A   1      38.778  34.163  31.284  1.00  0.00     0.031 C 
ATOM     35  C   UNL A   1      44.492  32.857  32.861  1.00  0.00     0.029 A 
ATOM     36  C   UNL A   1      43.214  32.776  32.332  1.00  0.00     0.049 A 
ATOM     37  H   UNL A   1      42.326  31.218  31.221  1.00  0.00     0.167 HD
ATOM     38  C   UNL A   1      40.930  33.597  31.837  1.00  0.00     0.074 A 
ATOM     39  C   UNL A   1      39.867  34.578  31.920  1.00  0.00     0.031 C 
ATOM     40  C   UNL A   1      42.149  33.741  32.412  1.00  0.00     0.031 A 
BRANCH  27  41
ATOM     41  C   UNL A   1      45.888  28.905  31.588  1.00  0.00    -0.014 A 
ATOM     42  C   UNL A   1      46.979  29.054  30.719  1.00  0.00     0.009 A 
ATOM     43  C   UNL A   1      46.050  28.159  32.765  1.00  0.00     0.009 A 
ATOM     44  C   UNL A   1      48.201  28.443  31.010  1.00  0.00     0.001 A 
ATOM     45  C   UNL A   1      47.277  27.564  33.063  1.00  0.00     0.001 A 
ATOM     46  C   UNL A   1      48.349  27.700  32.182  1.00  0.00     0.000 A 
ENDBRANCH  27  41
BRANCH  28  47
ATOM     47  C   UNL A   1      36.869  32.631  29.684  1.00  0.00    -0.014 A 
ATOM     48  C   UNL A   1      35.827  32.359  30.583  1.00  0.00     0.009 A 
ATOM     49  C   UNL A   1      36.616  33.447  28.571  1.00  0.00     0.009 A 
ATOM     50  C   UNL A   1      34.555  32.893  30.368  1.00  0.00     0.001 A 
ATOM     51  C   UNL A   1      35.348  33.993  28.369  1.00  0.00     0.001 A 
ATOM     52  C   UNL A   1      34.318  33.713  29.266  1.00  0.00     0.000 A 
ENDBRANCH  28  47
BRANCH  40  53
ATOM     53  C   UNL A   1      42.407  35.012  33.163  1.00  0.00    -0.014 A 
ATOM     54  C   UNL A   1      41.988  35.160  34.495  1.00  0.00     0.009 A 
ATOM     55  C   UNL A   1      43.118  36.054  32.548  1.00  0.00     0.009 A 
ATOM     56  C   UNL A   1      42.262  36.339  35.190  1.00  0.00     0.001 A 
ATOM     57  C   UNL A   1      43.403  37.224  33.252  1.00  0.00     0.001 A 
ATOM     58  C   UNL A   1      42.972  37.368  34.570  1.00  0.00     0.000 A 
ENDBRANCH  40  53
ENDBRANCH  14  15
ENDBRANCH   7   9
ENDBRANCH   4   5
ENDBRANCH   3   4
ENDBRANCH   2   3
ENDBRANCH   1   2
BRANCH   1  59
ATOM     59  C   UNL A   1      32.815  25.764  26.094  1.00  0.00     0.021 C 
BRANCH  59  60
ATOM     60  C   UNL A   1      31.675  24.774  25.894  1.00  0.00     0.116 C 
BRANCH  60  61
ATOM     61  N   UNL A   1      30.712  25.138  24.876  1.00  0.00    -0.356 N 
ATOM     62  C   UNL A   1      30.474  24.543  23.666  1.00  0.00     0.223 C 
ATOM     63  H   UNL A   1      30.152  25.921  25.082  1.00  0.00     0.163 HD
ATOM     64  O   UNL A   1      29.460  24.873  23.050  1.00  0.00    -0.275 OA
BRANCH  62  65
ATOM     65  C   UNL A   1      31.488  23.539  23.093  1.00  0.00     0.091 C 
ATOM     66  C   UNL A   1      31.798  22.476  24.170  1.00  0.00     0.014 C 
ATOM     67  C   UNL A   1      32.785  24.225  22.603  1.00  0.00     0.091 C 
ATOM     68  C   UNL A   1      32.915  21.524  23.761  1.00  0.00     0.001 C 
ATOM     69  C   UNL A   1      34.027  23.328  22.426  1.00  0.00     0.014 C 
ATOM     70  C   UNL A   1      34.204  22.295  23.524  1.00  0.00     0.001 C 
BRANCH  67  71
ATOM     71  C   UNL A   1      32.633  25.134  21.387  1.00  0.00     0.228 C 
ATOM     72  O   UNL A   1      32.903  24.672  20.267  1.00  0.00    -0.274 OA
ATOM     73  N   UNL A   1      32.178  26.416  21.384  1.00  0.00    -0.326 N 
ATOM     74  H   UNL A   1      32.036  26.745  20.467  1.00  0.00     0.169 HD
BRANCH  73  75
ATOM     75  C   UNL A   1      31.856  27.400  22.336  1.00  0.00     0.041 A 
ATOM     76  C   UNL A   1      32.920  27.930  23.072  1.00  0.00     0.028 A 
ATOM     77  C   UNL A   1      30.583  27.871  22.626  1.00  0.00     0.028 A 
ATOM     78  C   UNL A   1      32.720  28.974  23.988  1.00  0.00     0.028 A 
ATOM     79  C   UNL A   1      30.373  28.895  23.556  1.00  0.00     0.028 A 
ATOM     80  C   UNL A   1      31.448  29.505  24.192  1.00  0.00     0.041 A 
BRANCH  80  81
ATOM     81  N   UNL A   1      31.153  30.612  25.001  1.00  0.00    -0.319 N 
ATOM     82  C   UNL A   1      31.594  30.978  26.256  1.00  0.00     0.291 C 
ATOM     83  H   UNL A   1      30.512  31.243  24.600  1.00  0.00     0.170 HD
ATOM     84  O   UNL A   1      31.028  31.932  26.796  1.00  0.00    -0.265 OA
BRANCH  82  85
ATOM     85  C   UNL A   1      32.730  30.308  26.839  1.00  0.00     0.191 A 
ATOM     86  C   UNL A   1      34.027  30.720  27.095  1.00  0.00     0.056 A 
ATOM     87  O   UNL A   1      32.581  29.005  27.227  1.00  0.00    -0.459 OA
ATOM     88  C   UNL A   1      34.710  29.599  27.626  1.00  0.00     0.043 A 
ATOM     89  C   UNL A   1      33.785  28.584  27.689  1.00  0.00     0.196 A 
ENDBRANCH  82  85
ENDBRANCH  80  81
ENDBRANCH  73  75
ENDBRANCH  67  71
ENDBRANCH  62  65
ENDBRANCH  60  61
ENDBRANCH  59  60
ENDBRANCH   1  59
TORSDOF 17
ENDMDL
