MODEL 1
REMARK VINA RESULT:     -11.2      0.000      0.000
REMARK SMILES CCCc1cc(OC(F)(F)F)cc2c1O[C@@H](C(F)(F)F)C(C(=O)NCCCCCCNC(=O)c1ccc(-c3c4nc(c(-c5ccccc5)c5ccc([nH]5)c(-c5ccccc5)c5nc(c(-c6ccccc6)c6ccc3[nH]6)C=C5)C=C4)cc1)=C2
REMARK SMILES IDX 27 1 26 2 25 3 24 4 22 5 23 6 21 8 4 9 5 10 14 11 6 12 13 13
REMARK SMILES IDX 15 14 12 15 82 16 16 17 3 18 2 19 1 20 7 21 8 22 9 23 10 24
REMARK SMILES IDX 11 25 17 26 18 27 19 28 20 29 28 30 29 31 30 32 31 33 32 34
REMARK SMILES IDX 33 36 34 37 35 38 81 39 36 40 80 41 37 42 38 43 39 44 74 45
REMARK SMILES IDX 40 46 79 47 73 48 75 49 41 50 78 51 72 52 71 53 42 55 64 56
REMARK SMILES IDX 49 57 63 58 50 59 53 60 62 61 76 62 51 63 52 64 61 66 77 67
REMARK SMILES IDX 54 68 43 69 44 70 48 71 45 72 47 73 46 74 65 75 66 76 70 77
REMARK SMILES IDX 67 78 69 79 68 80 55 81 56 82 60 83 57 84 59 85 58 86
REMARK H PARENT 24 7 31 35 75 54 53 65
REMARK Flexibility Score: inf
ROOT
ATOM      1  C   UNL A   1      36.724  21.731  24.921  1.00  0.00     0.002 C 
ENDROOT
BRANCH   1   2
ATOM      2  C   UNL A   1      36.652  22.353  23.519  1.00  0.00     0.021 C 
BRANCH   2   3
ATOM      3  C   UNL A   1      35.544  23.405  23.395  1.00  0.00     0.116 C 
BRANCH   3   4
ATOM      4  N   UNL A   1      34.335  22.758  22.926  1.00  0.00    -0.352 N 
ATOM      5  C   UNL A   1      33.024  23.052  23.116  1.00  0.00     0.251 C 
ATOM      6  O   UNL A   1      32.193  22.183  22.869  1.00  0.00    -0.270 OA
ATOM      7  H   UNL A   1      34.493  21.961  22.371  1.00  0.00     0.163 HD
BRANCH   5   8
ATOM      8  C   UNL A   1      32.564  24.406  23.507  1.00  0.00     0.067 C 
ATOM      9  C   UNL A   1      31.262  28.110  25.018  1.00  0.00    -0.002 A 
ATOM     10  C   UNL A   1      30.663  29.026  24.123  1.00  0.00     0.054 A 
ATOM     11  C   UNL A   1      31.646  26.858  24.519  1.00  0.00     0.131 A 
ATOM     12  C   UNL A   1      30.493  28.720  22.771  1.00  0.00     0.130 A 
ATOM     13  C   UNL A   1      31.559  26.574  23.153  1.00  0.00     0.021 A 
ATOM     14  O   UNL A   1      32.004  25.885  25.404  1.00  0.00    -0.475 OA
ATOM     15  C   UNL A   1      30.976  27.504  22.288  1.00  0.00     0.058 A 
ATOM     16  C   UNL A   1      32.018  25.284  22.651  1.00  0.00     0.025 C 
ATOM     17  C   UNL A   1      32.880  24.827  24.934  1.00  0.00     0.314 C 
BRANCH   9  18
ATOM     18  C   UNL A   1      31.417  28.567  26.460  1.00  0.00     0.039 C 
BRANCH  18  19
ATOM     19  C   UNL A   1      32.808  28.834  27.053  1.00  0.00     0.001 C 
ATOM     20  C   UNL A   1      33.921  28.942  26.016  1.00  0.00     0.004 C 
ENDBRANCH  18  19
ENDBRANCH   9  18
BRANCH  12  21
ATOM     21  O   UNL A   1      29.888  29.499  21.828  1.00  0.00    -0.406 OA
BRANCH  21  22
ATOM     22  C   UNL A   1      28.515  29.811  22.003  1.00  0.00     0.573 C 
ATOM     23  F   UNL A   1      27.904  30.025  20.820  1.00  0.00    -0.132 F 
ATOM     24  F   UNL A   1      27.880  28.825  22.671  1.00  0.00    -0.132 F 
ATOM     25  F   UNL A   1      28.422  30.943  22.735  1.00  0.00    -0.132 F 
ENDBRANCH  21  22
ENDBRANCH  12  21
BRANCH  17  26
ATOM     26  C   UNL A   1      32.870  23.723  26.018  1.00  0.00     0.429 C 
ATOM     27  F   UNL A   1      34.075  23.129  26.171  1.00  0.00    -0.167 F 
ATOM     28  F   UNL A   1      32.572  24.247  27.239  1.00  0.00    -0.167 F 
ATOM     29  F   UNL A   1      31.949  22.765  25.773  1.00  0.00    -0.167 F 
ENDBRANCH  17  26
ENDBRANCH   5   8
ENDBRANCH   3   4
ENDBRANCH   2   3
ENDBRANCH   1   2
BRANCH   1  30
ATOM     30  C   UNL A   1      36.575  20.207  24.943  1.00  0.00     0.002 C 
BRANCH  30  31
ATOM     31  C   UNL A   1      37.899  19.440  24.919  1.00  0.00     0.021 C 
BRANCH  31  32
ATOM     32  C   UNL A   1      39.011  20.106  25.719  1.00  0.00     0.116 C 
BRANCH  32  33
ATOM     33  N   UNL A   1      40.179  19.247  25.816  1.00  0.00    -0.352 N 
ATOM     34  C   UNL A   1      41.482  19.591  26.065  1.00  0.00     0.251 C 
ATOM     35  H   UNL A   1      40.010  18.286  25.685  1.00  0.00     0.163 HD
ATOM     36  O   UNL A   1      42.385  18.788  25.859  1.00  0.00    -0.269 OA
BRANCH  34  37
ATOM     37  C   UNL A   1      41.793  20.937  26.584  1.00  0.00     0.039 A 
ATOM     38  C   UNL A   1      41.666  21.182  27.953  1.00  0.00     0.014 A 
ATOM     39  C   UNL A   1      42.178  21.962  25.715  1.00  0.00     0.014 A 
ATOM     40  C   UNL A   1      41.952  22.452  28.455  1.00  0.00     0.010 A 
ATOM     41  C   UNL A   1      42.532  23.207  26.225  1.00  0.00     0.010 A 
ATOM     42  C   UNL A   1      42.400  23.469  27.597  1.00  0.00    -0.014 A 
BRANCH  42  43
ATOM     43  C   UNL A   1      42.695  24.829  28.110  1.00  0.00     0.031 A 
ATOM     44  C   UNL A   1      44.104  25.196  28.487  1.00  0.00     0.074 A 
ATOM     45  C   UNL A   1      41.694  25.710  28.282  1.00  0.00     0.049 A 
ATOM     46  N   UNL A   1      44.558  26.313  28.998  1.00  0.00    -0.248 NA
ATOM     47  C   UNL A   1      45.136  24.164  28.290  1.00  0.00     0.031 C 
ATOM     48  C   UNL A   1      40.282  25.461  27.987  1.00  0.00     0.029 A 
ATOM     49  N   UNL A   1      41.713  26.999  28.754  1.00  0.00    -0.354 N 
ATOM     50  C   UNL A   1      45.917  26.111  29.198  1.00  0.00     0.074 A 
ATOM     51  C   UNL A   1      46.207  24.749  28.805  1.00  0.00     0.031 C 
ATOM     52  C   UNL A   1      39.574  26.571  28.257  1.00  0.00     0.029 A 
ATOM     53  C   UNL A   1      40.476  27.594  28.778  1.00  0.00     0.049 A 
ATOM     54  H   UNL A   1      42.535  27.454  29.046  1.00  0.00     0.167 HD
ATOM     55  C   UNL A   1      46.848  26.985  29.649  1.00  0.00     0.031 A 
ATOM     56  C   UNL A   1      40.109  28.825  29.177  1.00  0.00     0.031 A 
ATOM     57  C   UNL A   1      46.563  28.344  30.022  1.00  0.00     0.049 A 
ATOM     58  C   UNL A   1      41.160  29.776  29.679  1.00  0.00     0.074 A 
ATOM     59  C   UNL A   1      47.443  29.327  30.437  1.00  0.00     0.029 A 
ATOM     60  N   UNL A   1      45.298  28.910  30.024  1.00  0.00    -0.354 N 
ATOM     61  N   UNL A   1      42.451  29.591  29.802  1.00  0.00    -0.248 NA
ATOM     62  C   UNL A   1      40.701  31.112  30.086  1.00  0.00     0.031 C 
ATOM     63  C   UNL A   1      46.704  30.476  30.736  1.00  0.00     0.029 A 
ATOM     64  C   UNL A   1      45.371  30.223  30.455  1.00  0.00     0.049 A 
ATOM     65  H   UNL A   1      44.470  28.447  29.759  1.00  0.00     0.167 HD
ATOM     66  C   UNL A   1      42.964  30.793  30.271  1.00  0.00     0.074 A 
ATOM     67  C   UNL A   1      41.845  31.705  30.396  1.00  0.00     0.031 C 
ATOM     68  C   UNL A   1      44.246  31.116  30.571  1.00  0.00     0.031 A 
BRANCH  55  69
ATOM     69  C   UNL A   1      48.262  26.489  29.766  1.00  0.00    -0.014 A 
ATOM     70  C   UNL A   1      48.726  25.880  30.943  1.00  0.00     0.009 A 
ATOM     71  C   UNL A   1      49.138  26.608  28.675  1.00  0.00     0.009 A 
ATOM     72  C   UNL A   1      50.046  25.437  31.039  1.00  0.00     0.001 A 
ATOM     73  C   UNL A   1      50.448  26.137  28.763  1.00  0.00     0.001 A 
ATOM     74  C   UNL A   1      50.905  25.562  29.948  1.00  0.00     0.000 A 
ENDBRANCH  55  69
BRANCH  56  75
ATOM     75  C   UNL A   1      38.684  29.241  29.099  1.00  0.00    -0.014 A 
ATOM     76  C   UNL A   1      37.838  29.092  30.210  1.00  0.00     0.009 A 
ATOM     77  C   UNL A   1      38.161  29.782  27.915  1.00  0.00     0.009 A 
ATOM     78  C   UNL A   1      36.492  29.451  30.127  1.00  0.00     0.001 A 
ATOM     79  C   UNL A   1      36.820  30.167  27.844  1.00  0.00     0.001 A 
ATOM     80  C   UNL A   1      35.984  29.991  28.946  1.00  0.00     0.000 A 
ENDBRANCH  56  75
BRANCH  68  81
ATOM     81  C   UNL A   1      44.512  32.522  31.028  1.00  0.00    -0.014 A 
ATOM     82  C   UNL A   1      44.488  32.864  32.388  1.00  0.00     0.009 A 
ATOM     83  C   UNL A   1      44.832  33.508  30.082  1.00  0.00     0.009 A 
ATOM     84  C   UNL A   1      44.747  34.176  32.790  1.00  0.00     0.001 A 
ATOM     85  C   UNL A   1      45.120  34.811  30.488  1.00  0.00     0.001 A 
ATOM     86  C   UNL A   1      45.069  35.146  31.841  1.00  0.00     0.000 A 
ENDBRANCH  68  81
ENDBRANCH  42  43
ENDBRANCH  34  37
ENDBRANCH  32  33
ENDBRANCH  31  32
ENDBRANCH  30  31
ENDBRANCH   1  30
TORSDOF 18
ENDMDL
MODEL 2
REMARK VINA RESULT:     -11.1      0.466      5.701
REMARK SMILES CCCc1cc(OC(F)(F)F)cc2c1O[C@@H](C(F)(F)F)C(C(=O)NCCCCCCNC(=O)c1ccc(-c3c4nc(c(-c5ccccc5)c5ccc([nH]5)c(-c5ccccc5)c5nc(c(-c6ccccc6)c6ccc3[nH]6)C=C5)C=C4)cc1)=C2
REMARK SMILES IDX 27 1 26 2 25 3 24 4 22 5 23 6 21 8 4 9 5 10 14 11 6 12 13 13
REMARK SMILES IDX 15 14 12 15 82 16 16 17 3 18 2 19 1 20 7 21 8 22 9 23 10 24
REMARK SMILES IDX 11 25 17 26 18 27 19 28 20 29 28 30 29 31 30 32 31 33 32 34
REMARK SMILES IDX 33 36 34 37 35 38 81 39 36 40 80 41 37 42 38 43 39 44 74 45
REMARK SMILES IDX 40 46 79 47 73 48 75 49 41 50 78 51 72 52 71 53 42 55 64 56
REMARK SMILES IDX 49 57 63 58 50 59 53 60 62 61 76 62 51 63 52 64 61 66 77 67
REMARK SMILES IDX 54 68 43 69 44 70 48 71 45 72 47 73 46 74 65 75 66 76 70 77
REMARK SMILES IDX 67 78 69 79 68 80 55 81 56 82 60 83 57 84 59 85 58 86
REMARK H PARENT 24 7 31 35 75 54 53 65
REMARK Flexibility Score: inf
ROOT
ATOM      1  C   UNL A   1      36.755  21.980  24.879  1.00  0.00     0.002 C 
ENDROOT
BRANCH   1   2
ATOM      2  C   UNL A   1      36.605  22.555  23.463  1.00  0.00     0.021 C 
BRANCH   2   3
ATOM      3  C   UNL A   1      35.475  23.587  23.361  1.00  0.00     0.116 C 
BRANCH   3   4
ATOM      4  N   UNL A   1      34.262  22.911  22.945  1.00  0.00    -0.352 N 
ATOM      5  C   UNL A   1      32.953  23.204  23.150  1.00  0.00     0.251 C 
ATOM      6  O   UNL A   1      32.123  22.320  22.957  1.00  0.00    -0.270 OA
ATOM      7  H   UNL A   1      34.414  22.093  22.421  1.00  0.00     0.163 HD
BRANCH   5   8
ATOM      8  C   UNL A   1      32.490  24.570  23.494  1.00  0.00     0.067 C 
ATOM      9  C   UNL A   1      31.186  28.323  24.877  1.00  0.00    -0.002 A 
ATOM     10  C   UNL A   1      30.571  29.201  23.954  1.00  0.00     0.054 A 
ATOM     11  C   UNL A   1      31.570  27.055  24.421  1.00  0.00     0.131 A 
ATOM     12  C   UNL A   1      30.386  28.841  22.617  1.00  0.00     0.130 A 
ATOM     13  C   UNL A   1      31.469  26.718  23.069  1.00  0.00     0.021 A 
ATOM     14  O   UNL A   1      31.945  26.118  25.339  1.00  0.00    -0.475 OA
ATOM     15  C   UNL A   1      30.871  27.610  22.176  1.00  0.00     0.058 A 
ATOM     16  C   UNL A   1      31.929  25.411  22.612  1.00  0.00     0.025 C 
ATOM     17  C   UNL A   1      32.821  25.048  24.900  1.00  0.00     0.314 C 
BRANCH   9  18
ATOM     18  C   UNL A   1      31.356  28.836  26.298  1.00  0.00     0.039 C 
BRANCH  18  19
ATOM     19  C   UNL A   1      32.646  29.551  26.724  1.00  0.00     0.001 C 
ATOM     20  C   UNL A   1      33.910  28.714  26.561  1.00  0.00     0.004 C 
ENDBRANCH  18  19
ENDBRANCH   9  18
BRANCH  12  21
ATOM     21  O   UNL A   1      29.766  29.580  21.652  1.00  0.00    -0.406 OA
BRANCH  21  22
ATOM     22  C   UNL A   1      28.413  29.951  21.864  1.00  0.00     0.573 C 
ATOM     23  F   UNL A   1      28.314  30.970  22.743  1.00  0.00    -0.132 F 
ATOM     24  F   UNL A   1      27.822  30.295  20.702  1.00  0.00    -0.132 F 
ATOM     25  F   UNL A   1      27.751  28.890  22.376  1.00  0.00    -0.132 F 
ENDBRANCH  21  22
ENDBRANCH  12  21
BRANCH  17  26
ATOM     26  C   UNL A   1      32.830  23.987  26.026  1.00  0.00     0.429 C 
ATOM     27  F   UNL A   1      34.067  23.501  26.278  1.00  0.00    -0.167 F 
ATOM     28  F   UNL A   1      32.411  24.527  27.203  1.00  0.00    -0.167 F 
ATOM     29  F   UNL A   1      32.009  22.945  25.764  1.00  0.00    -0.167 F 
ENDBRANCH  17  26
ENDBRANCH   5   8
ENDBRANCH   3   4
ENDBRANCH   2   3
ENDBRANCH   1   2
BRANCH   1  30
ATOM     30  C   UNL A   1      36.501  20.472  24.977  1.00  0.00     0.002 C 
BRANCH  30  31
ATOM     31  C   UNL A   1      37.768  19.614  24.961  1.00  0.00     0.021 C 
BRANCH  31  32
ATOM     32  C   UNL A   1      38.945  20.239  25.699  1.00  0.00     0.116 C 
BRANCH  32  33
ATOM     33  N   UNL A   1      40.046  19.300  25.828  1.00  0.00    -0.352 N 
ATOM     34  C   UNL A   1      41.367  19.553  26.089  1.00  0.00     0.251 C 
ATOM     35  H   UNL A   1      39.809  18.351  25.712  1.00  0.00     0.163 HD
ATOM     36  O   UNL A   1      42.213  18.683  25.910  1.00  0.00    -0.269 OA
BRANCH  34  37
ATOM     37  C   UNL A   1      41.769  20.883  26.588  1.00  0.00     0.039 A 
ATOM     38  C   UNL A   1      42.195  21.850  25.674  1.00  0.00     0.014 A 
ATOM     39  C   UNL A   1      41.757  21.161  27.958  1.00  0.00     0.014 A 
ATOM     40  C   UNL A   1      42.582  23.108  26.135  1.00  0.00     0.010 A 
ATOM     41  C   UNL A   1      42.075  22.438  28.409  1.00  0.00     0.010 A 
ATOM     42  C   UNL A   1      42.512  23.416  27.503  1.00  0.00    -0.014 A 
BRANCH  42  43
ATOM     43  C   UNL A   1      42.934  24.743  28.012  1.00  0.00     0.031 A 
ATOM     44  C   UNL A   1      41.901  25.803  28.280  1.00  0.00     0.074 A 
ATOM     45  C   UNL A   1      44.241  25.009  28.185  1.00  0.00     0.049 A 
ATOM     46  N   UNL A   1      42.070  27.039  28.681  1.00  0.00    -0.248 NA
ATOM     47  C   UNL A   1      40.495  25.437  28.042  1.00  0.00     0.031 C 
ATOM     48  C   UNL A   1      45.339  24.076  27.926  1.00  0.00     0.029 A 
ATOM     49  N   UNL A   1      44.868  26.150  28.618  1.00  0.00    -0.354 N 
ATOM     50  C   UNL A   1      40.799  27.598  28.723  1.00  0.00     0.074 A 
ATOM     51  C   UNL A   1      39.874  26.587  28.258  1.00  0.00     0.031 C 
ATOM     52  C   UNL A   1      46.503  24.673  28.233  1.00  0.00     0.029 A 
ATOM     53  C   UNL A   1      46.236  26.039  28.672  1.00  0.00     0.049 A 
ATOM     54  H   UNL A   1      44.384  26.970  28.866  1.00  0.00     0.167 HD
ATOM     55  C   UNL A   1      40.430  28.835  29.133  1.00  0.00     0.031 A 
ATOM     56  C   UNL A   1      47.169  26.937  29.035  1.00  0.00     0.031 A 
ATOM     57  C   UNL A   1      41.348  29.832  29.611  1.00  0.00     0.049 A 
ATOM     58  C   UNL A   1      46.735  28.306  29.480  1.00  0.00     0.074 A 
ATOM     59  C   UNL A   1      41.070  31.096  30.102  1.00  0.00     0.029 A 
ATOM     60  N   UNL A   1      42.725  29.676  29.659  1.00  0.00    -0.354 N 
ATOM     61  N   UNL A   1      45.524  28.799  29.576  1.00  0.00    -0.248 NA
ATOM     62  C   UNL A   1      47.798  29.239  29.879  1.00  0.00     0.031 C 
ATOM     63  C   UNL A   1      42.283  31.723  30.403  1.00  0.00     0.029 A 
ATOM     64  C   UNL A   1      43.312  30.829  30.150  1.00  0.00     0.049 A 
ATOM     65  H   UNL A   1      43.212  28.867  29.384  1.00  0.00     0.167 HD
ATOM     66  C   UNL A   1      45.676  30.086  30.074  1.00  0.00     0.074 A 
ATOM     67  C   UNL A   1      47.096  30.293  30.273  1.00  0.00     0.031 C 
ATOM     68  C   UNL A   1      44.727  31.015  30.343  1.00  0.00     0.031 A 
BRANCH  55  69
ATOM     69  C   UNL A   1      38.967  29.174  29.073  1.00  0.00    -0.014 A 
ATOM     70  C   UNL A   1      38.382  29.671  27.897  1.00  0.00     0.009 A 
ATOM     71  C   UNL A   1      38.154  28.968  30.199  1.00  0.00     0.009 A 
ATOM     72  C   UNL A   1      37.024  29.994  27.863  1.00  0.00     0.001 A 
ATOM     73  C   UNL A   1      36.791  29.263  30.153  1.00  0.00     0.001 A 
ATOM     74  C   UNL A   1      36.229  29.785  28.989  1.00  0.00     0.000 A 
ENDBRANCH  55  69
BRANCH  56  75
ATOM     75  C   UNL A   1      48.608  26.567  29.013  1.00  0.00    -0.014 A 
ATOM     76  C   UNL A   1      49.194  25.926  30.117  1.00  0.00     0.009 A 
ATOM     77  C   UNL A   1      49.404  26.856  27.895  1.00  0.00     0.009 A 
ATOM     78  C   UNL A   1      50.554  25.609  30.111  1.00  0.00     0.001 A 
ATOM     79  C   UNL A   1      50.757  26.511  27.880  1.00  0.00     0.001 A 
ATOM     80  C   UNL A   1      51.333  25.898  28.992  1.00  0.00     0.000 A 
ENDBRANCH  56  75
BRANCH  68  81
ATOM     81  C   UNL A   1      45.190  32.324  30.916  1.00  0.00    -0.014 A 
ATOM     82  C   UNL A   1      45.330  32.505  32.300  1.00  0.00     0.009 A 
ATOM     83  C   UNL A   1      45.531  33.377  30.053  1.00  0.00     0.009 A 
ATOM     84  C   UNL A   1      45.770  33.729  32.810  1.00  0.00     0.001 A 
ATOM     85  C   UNL A   1      45.999  34.588  30.563  1.00  0.00     0.001 A 
ATOM     86  C   UNL A   1      46.110  34.765  31.942  1.00  0.00     0.000 A 
ENDBRANCH  68  81
ENDBRANCH  42  43
ENDBRANCH  34  37
ENDBRANCH  32  33
ENDBRANCH  31  32
ENDBRANCH  30  31
ENDBRANCH   1  30
TORSDOF 18
ENDMDL
MODEL 3
REMARK VINA RESULT:     -10.4      3.608      9.133
REMARK SMILES CCCc1cc(OC(F)(F)F)cc2c1O[C@@H](C(F)(F)F)C(C(=O)NCCCCCCNC(=O)c1ccc(-c3c4nc(c(-c5ccccc5)c5ccc([nH]5)c(-c5ccccc5)c5nc(c(-c6ccccc6)c6ccc3[nH]6)C=C5)C=C4)cc1)=C2
REMARK SMILES IDX 27 1 26 2 25 3 24 4 22 5 23 6 21 8 4 9 5 10 14 11 6 12 13 13
REMARK SMILES IDX 15 14 12 15 82 16 16 17 3 18 2 19 1 20 7 21 8 22 9 23 10 24
REMARK SMILES IDX 11 25 17 26 18 27 19 28 20 29 28 30 29 31 30 32 31 33 32 34
REMARK SMILES IDX 33 36 34 37 35 38 81 39 36 40 80 41 37 42 38 43 39 44 74 45
REMARK SMILES IDX 40 46 79 47 73 48 75 49 41 50 78 51 72 52 71 53 42 55 64 56
REMARK SMILES IDX 49 57 63 58 50 59 53 60 62 61 76 62 51 63 52 64 61 66 77 67
REMARK SMILES IDX 54 68 43 69 44 70 48 71 45 72 47 73 46 74 65 75 66 76 70 77
REMARK SMILES IDX 67 78 69 79 68 80 55 81 56 82 60 83 57 84 59 85 58 86
REMARK H PARENT 24 7 31 35 75 54 53 65
REMARK Flexibility Score: inf
ROOT
ATOM      1  C   UNL A   1      33.465  29.217  26.409  1.00  0.00     0.002 C 
ENDROOT
BRANCH   1   2
ATOM      2  C   UNL A   1      31.976  28.886  26.239  1.00  0.00     0.021 C 
BRANCH   2   3
ATOM      3  C   UNL A   1      31.657  27.417  26.543  1.00  0.00     0.116 C 
BRANCH   3   4
ATOM      4  N   UNL A   1      30.623  26.965  25.633  1.00  0.00    -0.352 N 
ATOM      5  C   UNL A   1      30.626  26.011  24.669  1.00  0.00     0.251 C 
ATOM      6  O   UNL A   1      29.725  26.025  23.835  1.00  0.00    -0.270 OA
ATOM      7  H   UNL A   1      29.765  27.435  25.732  1.00  0.00     0.163 HD
BRANCH   5   8
ATOM      8  C   UNL A   1      31.613  24.904  24.652  1.00  0.00     0.067 C 
ATOM      9  C   UNL A   1      34.636  21.996  24.330  1.00  0.00    -0.002 A 
ATOM     10  C   UNL A   1      34.345  20.677  24.749  1.00  0.00     0.054 A 
ATOM     11  C   UNL A   1      33.608  22.947  24.391  1.00  0.00     0.131 A 
ATOM     12  C   UNL A   1      33.088  20.332  25.251  1.00  0.00     0.130 A 
ATOM     13  C   UNL A   1      32.376  22.634  24.970  1.00  0.00     0.021 A 
ATOM     14  O   UNL A   1      33.796  24.150  23.779  1.00  0.00    -0.475 OA
ATOM     15  C   UNL A   1      32.120  21.326  25.390  1.00  0.00     0.058 A 
ATOM     16  C   UNL A   1      31.343  23.658  25.073  1.00  0.00     0.025 C 
ATOM     17  C   UNL A   1      33.032  25.286  24.261  1.00  0.00     0.314 C 
BRANCH   9  18
ATOM     18  C   UNL A   1      36.046  22.256  23.827  1.00  0.00     0.039 C 
BRANCH  18  19
ATOM     19  C   UNL A   1      37.128  22.797  24.772  1.00  0.00     0.001 C 
ATOM     20  C   UNL A   1      36.585  23.541  25.987  1.00  0.00     0.004 C 
ENDBRANCH  18  19
ENDBRANCH   9  18
BRANCH  12  21
ATOM     21  O   UNL A   1      32.677  19.089  25.638  1.00  0.00    -0.406 OA
BRANCH  21  22
ATOM     22  C   UNL A   1      32.589  18.079  24.646  1.00  0.00     0.573 C 
ATOM     23  F   UNL A   1      31.791  17.066  25.045  1.00  0.00    -0.132 F 
ATOM     24  F   UNL A   1      32.129  18.586  23.483  1.00  0.00    -0.132 F 
ATOM     25  F   UNL A   1      33.825  17.579  24.428  1.00  0.00    -0.132 F 
ENDBRANCH  21  22
ENDBRANCH  12  21
BRANCH  17  26
ATOM     26  C   UNL A   1      33.201  26.415  23.217  1.00  0.00     0.429 C 
ATOM     27  F   UNL A   1      33.816  27.508  23.722  1.00  0.00    -0.167 F 
ATOM     28  F   UNL A   1      33.988  26.006  22.184  1.00  0.00    -0.167 F 
ATOM     29  F   UNL A   1      32.023  26.801  22.676  1.00  0.00    -0.167 F 
ENDBRANCH  17  26
ENDBRANCH   5   8
ENDBRANCH   3   4
ENDBRANCH   2   3
ENDBRANCH   1   2
BRANCH   1  30
ATOM     30  C   UNL A   1      33.744  30.404  27.337  1.00  0.00     0.002 C 
BRANCH  30  31
ATOM     31  C   UNL A   1      33.296  31.759  26.785  1.00  0.00     0.021 C 
BRANCH  31  32
ATOM     32  C   UNL A   1      32.073  32.335  27.486  1.00  0.00     0.116 C 
BRANCH  32  33
ATOM     33  N   UNL A   1      32.179  33.777  27.633  1.00  0.00    -0.352 N 
ATOM     34  C   UNL A   1      33.098  34.504  28.344  1.00  0.00     0.251 C 
ATOM     35  H   UNL A   1      31.498  34.304  27.155  1.00  0.00     0.163 HD
ATOM     36  O   UNL A   1      32.901  35.691  28.581  1.00  0.00    -0.269 OA
BRANCH  34  37
ATOM     37  C   UNL A   1      34.330  33.848  28.827  1.00  0.00     0.039 A 
ATOM     38  C   UNL A   1      34.269  33.051  29.972  1.00  0.00     0.014 A 
ATOM     39  C   UNL A   1      35.546  34.049  28.167  1.00  0.00     0.014 A 
ATOM     40  C   UNL A   1      35.427  32.431  30.441  1.00  0.00     0.010 A 
ATOM     41  C   UNL A   1      36.685  33.372  28.594  1.00  0.00     0.010 A 
ATOM     42  C   UNL A   1      36.640  32.576  29.747  1.00  0.00    -0.014 A 
BRANCH  42  43
ATOM     43  C   UNL A   1      37.884  31.936  30.239  1.00  0.00     0.031 A 
ATOM     44  C   UNL A   1      38.685  32.598  31.327  1.00  0.00     0.074 A 
ATOM     45  C   UNL A   1      38.316  30.793  29.677  1.00  0.00     0.049 A 
ATOM     46  N   UNL A   1      39.821  32.224  31.860  1.00  0.00    -0.248 NA
ATOM     47  C   UNL A   1      38.153  33.858  31.871  1.00  0.00     0.031 C 
ATOM     48  C   UNL A   1      37.647  30.074  28.592  1.00  0.00     0.029 A 
ATOM     49  N   UNL A   1      39.430  30.035  29.942  1.00  0.00    -0.354 N 
ATOM     50  C   UNL A   1      40.147  33.210  32.782  1.00  0.00     0.074 A 
ATOM     51  C   UNL A   1      39.118  34.224  32.702  1.00  0.00     0.031 C 
ATOM     52  C   UNL A   1      38.348  28.965  28.302  1.00  0.00     0.029 A 
ATOM     53  C   UNL A   1      39.532  28.915  29.154  1.00  0.00     0.049 A 
ATOM     54  H   UNL A   1      40.091  30.273  30.630  1.00  0.00     0.167 HD
ATOM     55  C   UNL A   1      41.196  33.259  33.637  1.00  0.00     0.031 A 
ATOM     56  C   UNL A   1      40.475  27.956  29.123  1.00  0.00     0.031 A 
ATOM     57  C   UNL A   1      42.208  32.243  33.729  1.00  0.00     0.049 A 
ATOM     58  C   UNL A   1      41.634  28.036  30.078  1.00  0.00     0.074 A 
ATOM     59  C   UNL A   1      43.281  32.169  34.600  1.00  0.00     0.029 A 
ATOM     60  N   UNL A   1      42.271  31.119  32.920  1.00  0.00    -0.354 N 
ATOM     61  N   UNL A   1      41.894  28.942  30.989  1.00  0.00    -0.248 NA
ATOM     62  C   UNL A   1      42.623  26.952  30.006  1.00  0.00     0.031 C 
ATOM     63  C   UNL A   1      44.020  31.025  34.286  1.00  0.00     0.029 A 
ATOM     64  C   UNL A   1      43.376  30.358  33.256  1.00  0.00     0.049 A 
ATOM     65  H   UNL A   1      41.625  30.896  32.211  1.00  0.00     0.167 HD
ATOM     66  C   UNL A   1      43.058  28.523  31.619  1.00  0.00     0.074 A 
ATOM     67  C   UNL A   1      43.445  27.274  30.996  1.00  0.00     0.031 C 
ATOM     68  C   UNL A   1      43.745  29.117  32.625  1.00  0.00     0.031 A 
BRANCH  55  69
ATOM     69  C   UNL A   1      41.299  34.460  34.536  1.00  0.00    -0.014 A 
ATOM     70  C   UNL A   1      42.006  35.607  34.141  1.00  0.00     0.009 A 
ATOM     71  C   UNL A   1      40.658  34.456  35.785  1.00  0.00     0.009 A 
ATOM     72  C   UNL A   1      42.103  36.708  34.994  1.00  0.00     0.001 A 
ATOM     73  C   UNL A   1      40.731  35.569  36.623  1.00  0.00     0.001 A 
ATOM     74  C   UNL A   1      41.462  36.690  36.232  1.00  0.00     0.000 A 
ENDBRANCH  55  69
BRANCH  56  75
ATOM     75  C   UNL A   1      40.355  26.824  28.168  1.00  0.00    -0.014 A 
ATOM     76  C   UNL A   1      39.675  25.652  28.536  1.00  0.00     0.009 A 
ATOM     77  C   UNL A   1      40.922  26.906  26.887  1.00  0.00     0.009 A 
ATOM     78  C   UNL A   1      39.591  24.575  27.651  1.00  0.00     0.001 A 
ATOM     79  C   UNL A   1      40.812  25.838  25.994  1.00  0.00     0.001 A 
ATOM     80  C   UNL A   1      40.156  24.670  26.380  1.00  0.00     0.000 A 
ENDBRANCH  56  75
BRANCH  68  81
ATOM     81  C   UNL A   1      44.964  28.405  33.137  1.00  0.00    -0.014 A 
ATOM     82  C   UNL A   1      46.238  28.674  32.616  1.00  0.00     0.009 A 
ATOM     83  C   UNL A   1      44.838  27.483  34.188  1.00  0.00     0.009 A 
ATOM     84  C   UNL A   1      47.360  28.006  33.115  1.00  0.00     0.001 A 
ATOM     85  C   UNL A   1      45.963  26.839  34.704  1.00  0.00     0.001 A 
ATOM     86  C   UNL A   1      47.221  27.095  34.161  1.00  0.00     0.000 A 
ENDBRANCH  68  81
ENDBRANCH  42  43
ENDBRANCH  34  37
ENDBRANCH  32  33
ENDBRANCH  31  32
ENDBRANCH  30  31
ENDBRANCH   1  30
TORSDOF 18
ENDMDL
