MODEL 1
REMARK VINA RESULT:     -12.4      0.000      0.000
REMARK SMILES [NH3+][C@@H](Cc1cn(-c2nc(Cl)nc(N3CCOCC3)n2)c2ccccc12)C(=O)NCCCCCCNC(=O)c1ccc(-c2c3nc(c(-c4ccccc4)c4ccc([nH]4)c(-c4ccccc4)c4nc(c(-c5ccccc5)c5ccc2[nH]5)C=C4)C=C3)cc1
REMARK SMILES IDX 30 1 29 2 28 3 26 4 27 5 2 7 1 8 3 12 4 13 5 14 25 15 6 16
REMARK SMILES IDX 20 17 24 18 21 19 23 20 22 21 7 22 8 23 19 24 9 25 12 26
REMARK SMILES IDX 10 27 11 28 13 29 14 30 18 31 15 32 17 33 16 34 31 35 32 36
REMARK SMILES IDX 33 37 34 38 35 39 36 40 37 42 38 43 39 44 85 45 40 46 84 47
REMARK SMILES IDX 41 48 42 49 43 50 78 51 44 52 83 53 77 54 79 55 45 56 82 57
REMARK SMILES IDX 76 58 75 59 46 61 68 62 53 63 67 64 54 65 57 66 66 67 80 68
REMARK SMILES IDX 55 69 56 70 65 72 81 73 58 74 47 75 48 76 52 77 49 78 51 79
REMARK SMILES IDX 50 80 69 81 70 82 74 83 71 84 73 85 72 86 59 87 60 88 64 89
REMARK SMILES IDX 61 90 63 91 62 92
REMARK H PARENT 28 6 1 9 1 10 1 11 35 41 79 60 57 71
REMARK Flexibility Score: inf
ROOT
ATOM      1  C   UNL A   1      34.445  29.316  26.542  1.00  0.00     0.021 C 
ENDROOT
BRANCH   1   2
ATOM      2  C   UNL A   1      33.137  30.110  26.527  1.00  0.00     0.116 C 
BRANCH   2   3
ATOM      3  N   UNL A   1      32.178  29.576  25.580  1.00  0.00    -0.351 N 
ATOM      4  C   UNL A   1      31.428  28.454  25.507  1.00  0.00     0.278 C 
ATOM      5  O   UNL A   1      30.692  28.392  24.504  1.00  0.00    -0.268 OA
ATOM      6  H   UNL A   1      32.040  30.172  24.807  1.00  0.00     0.163 HD
BRANCH   4   7
ATOM      7  C   UNL A   1      31.432  27.239  26.472  1.00  0.00     0.275 C 
BRANCH   7   8
ATOM      8  N   UNL A   1      31.160  27.676  27.857  1.00  0.00    -0.347 N 
ATOM      9  H   UNL A   1      31.069  26.858  28.460  1.00  0.00     0.345 HD
ATOM     10  H   UNL A   1      30.294  28.213  27.880  1.00  0.00     0.345 HD
ATOM     11  H   UNL A   1      31.931  28.257  28.187  1.00  0.00     0.345 HD
ENDBRANCH   7   8
BRANCH   7  12
ATOM     12  C   UNL A   1      30.882  25.869  26.085  1.00  0.00     0.113 C 
BRANCH  12  13
ATOM     13  C   UNL A   1      31.518  24.962  25.066  1.00  0.00    -0.015 A 
ATOM     14  C   UNL A   1      31.979  23.708  25.440  1.00  0.00     0.099 A 
ATOM     15  C   UNL A   1      31.809  25.082  23.660  1.00  0.00     0.004 A 
ATOM     16  N   UNL A   1      32.705  23.170  24.411  1.00  0.00    -0.285 N 
ATOM     17  C   UNL A   1      32.607  23.983  23.301  1.00  0.00     0.056 A 
ATOM     18  C   UNL A   1      31.545  26.032  22.648  1.00  0.00     0.010 A 
ATOM     19  C   UNL A   1      33.142  23.818  22.010  1.00  0.00     0.027 A 
ATOM     20  C   UNL A   1      32.067  25.876  21.358  1.00  0.00     0.001 A 
ATOM     21  C   UNL A   1      32.860  24.784  21.046  1.00  0.00     0.002 A 
BRANCH  16  22
ATOM     22  C   UNL A   1      33.461  21.982  24.515  1.00  0.00     0.240 A 
ATOM     23  N   UNL A   1      34.777  22.103  24.640  1.00  0.00    -0.181 NA
ATOM     24  N   UNL A   1      32.777  20.838  24.532  1.00  0.00    -0.176 NA
ATOM     25  C   UNL A   1      35.360  20.940  24.888  1.00  0.00     0.228 A 
ATOM     26  C   UNL A   1      33.497  19.735  24.691  1.00  0.00     0.231 A 
ATOM     27  Cl  UNL A   1      37.052  20.994  25.120  1.00  0.00    -0.041 Cl
ATOM     28  N   UNL A   1      34.795  19.743  24.954  1.00  0.00    -0.182 NA
BRANCH  26  29
ATOM     29  N   UNL A   1      32.894  18.530  24.469  1.00  0.00    -0.336 N 
ATOM     30  C   UNL A   1      32.643  17.629  25.589  1.00  0.00     0.148 C 
ATOM     31  C   UNL A   1      32.974  17.917  23.149  1.00  0.00     0.148 C 
ATOM     32  C   UNL A   1      33.591  16.428  25.535  1.00  0.00     0.181 C 
ATOM     33  C   UNL A   1      33.899  16.684  23.205  1.00  0.00     0.181 C 
ATOM     34  O   UNL A   1      33.523  15.774  24.255  1.00  0.00    -0.378 OA
ENDBRANCH  26  29
ENDBRANCH  16  22
ENDBRANCH  12  13
ENDBRANCH   7  12
ENDBRANCH   4   7
ENDBRANCH   2   3
ENDBRANCH   1   2
BRANCH   1  35
ATOM     35  C   UNL A   1      35.289  29.492  27.809  1.00  0.00     0.002 C 
BRANCH  35  36
ATOM     36  C   UNL A   1      36.402  30.547  27.721  1.00  0.00     0.002 C 
BRANCH  36  37
ATOM     37  C   UNL A   1      36.099  31.924  28.327  1.00  0.00     0.021 C 
BRANCH  37  38
ATOM     38  C   UNL A   1      34.691  32.106  28.894  1.00  0.00     0.116 C 
BRANCH  38  39
ATOM     39  N   UNL A   1      34.626  32.278  30.331  1.00  0.00    -0.352 N 
ATOM     40  C   UNL A   1      35.464  32.015  31.375  1.00  0.00     0.251 C 
ATOM     41  H   UNL A   1      33.777  32.681  30.624  1.00  0.00     0.163 HD
ATOM     42  O   UNL A   1      35.097  32.413  32.487  1.00  0.00    -0.269 OA
BRANCH  40  43
ATOM     43  C   UNL A   1      36.732  31.242  31.285  1.00  0.00     0.039 A 
ATOM     44  C   UNL A   1      38.012  31.783  31.172  1.00  0.00     0.014 A 
ATOM     45  C   UNL A   1      36.595  29.841  31.309  1.00  0.00     0.014 A 
ATOM     46  C   UNL A   1      39.117  30.951  30.983  1.00  0.00     0.010 A 
ATOM     47  C   UNL A   1      37.696  29.007  31.150  1.00  0.00     0.010 A 
ATOM     48  C   UNL A   1      38.954  29.565  30.937  1.00  0.00    -0.014 A 
BRANCH  48  49
ATOM     49  C   UNL A   1      40.138  28.731  30.718  1.00  0.00     0.031 A 
ATOM     50  C   UNL A   1      40.994  28.445  31.908  1.00  0.00     0.074 A 
ATOM     51  C   UNL A   1      40.380  28.099  29.551  1.00  0.00     0.049 A 
ATOM     52  N   UNL A   1      42.274  28.592  32.040  1.00  0.00    -0.248 NA
ATOM     53  C   UNL A   1      40.321  27.949  33.119  1.00  0.00     0.031 C 
ATOM     54  C   UNL A   1      39.490  27.986  28.392  1.00  0.00     0.029 A 
ATOM     55  N   UNL A   1      41.437  27.305  29.210  1.00  0.00    -0.354 N 
ATOM     56  C   UNL A   1      42.598  28.081  33.298  1.00  0.00     0.074 A 
ATOM     57  C   UNL A   1      41.349  27.777  33.949  1.00  0.00     0.031 C 
ATOM     58  C   UNL A   1      39.929  26.991  27.591  1.00  0.00     0.029 A 
ATOM     59  C   UNL A   1      41.200  26.507  28.102  1.00  0.00     0.049 A 
ATOM     60  H   UNL A   1      42.289  27.301  29.704  1.00  0.00     0.167 HD
ATOM     61  C   UNL A   1      43.875  27.791  33.674  1.00  0.00     0.031 A 
ATOM     62  C   UNL A   1      41.954  25.471  27.670  1.00  0.00     0.031 A 
ATOM     63  C   UNL A   1      44.850  28.462  32.862  1.00  0.00     0.049 A 
ATOM     64  C   UNL A   1      43.301  25.595  28.263  1.00  0.00     0.074 A 
ATOM     65  C   UNL A   1      45.182  29.779  32.624  1.00  0.00     0.029 A 
ATOM     66  N   UNL A   1      45.487  27.731  31.892  1.00  0.00    -0.354 N 
ATOM     67  N   UNL A   1      44.150  26.534  27.961  1.00  0.00    -0.248 NA
ATOM     68  C   UNL A   1      43.605  24.843  29.470  1.00  0.00     0.031 C 
ATOM     69  C   UNL A   1      45.610  29.815  31.266  1.00  0.00     0.029 A 
ATOM     70  C   UNL A   1      45.542  28.511  30.767  1.00  0.00     0.049 A 
ATOM     71  H   UNL A   1      45.840  26.818  31.986  1.00  0.00     0.167 HD
ATOM     72  C   UNL A   1      44.845  26.772  29.135  1.00  0.00     0.074 A 
ATOM     73  C   UNL A   1      44.573  25.611  29.976  1.00  0.00     0.031 C 
ATOM     74  C   UNL A   1      45.342  28.012  29.422  1.00  0.00     0.031 A 
BRANCH  61  75
ATOM     75  C   UNL A   1      44.246  26.651  34.594  1.00  0.00    -0.014 A 
ATOM     76  C   UNL A   1      44.518  26.825  35.964  1.00  0.00     0.009 A 
ATOM     77  C   UNL A   1      44.070  25.324  34.153  1.00  0.00     0.009 A 
ATOM     78  C   UNL A   1      44.606  25.745  36.848  1.00  0.00     0.001 A 
ATOM     79  C   UNL A   1      44.114  24.243  35.045  1.00  0.00     0.001 A 
ATOM     80  C   UNL A   1      44.381  24.455  36.393  1.00  0.00     0.000 A 
ENDBRANCH  61  75
BRANCH  62  81
ATOM     81  C   UNL A   1      41.492  24.219  27.036  1.00  0.00    -0.014 A 
ATOM     82  C   UNL A   1      40.358  23.556  27.539  1.00  0.00     0.009 A 
ATOM     83  C   UNL A   1      42.309  23.529  26.129  1.00  0.00     0.009 A 
ATOM     84  C   UNL A   1      40.069  22.236  27.179  1.00  0.00     0.001 A 
ATOM     85  C   UNL A   1      42.023  22.206  25.771  1.00  0.00     0.001 A 
ATOM     86  C   UNL A   1      40.913  21.555  26.307  1.00  0.00     0.000 A 
ENDBRANCH  62  81
BRANCH  74  87
ATOM     87  C   UNL A   1      45.381  29.040  28.315  1.00  0.00    -0.014 A 
ATOM     88  C   UNL A   1      46.609  29.310  27.690  1.00  0.00     0.009 A 
ATOM     89  C   UNL A   1      44.284  29.863  28.002  1.00  0.00     0.009 A 
ATOM     90  C   UNL A   1      46.738  30.370  26.788  1.00  0.00     0.001 A 
ATOM     91  C   UNL A   1      44.406  30.905  27.079  1.00  0.00     0.001 A 
ATOM     92  C   UNL A   1      45.636  31.164  26.479  1.00  0.00     0.000 A 
ENDBRANCH  74  87
ENDBRANCH  48  49
ENDBRANCH  40  43
ENDBRANCH  38  39
ENDBRANCH  37  38
ENDBRANCH  36  37
ENDBRANCH  35  36
ENDBRANCH   1  35
TORSDOF 18
ENDMDL
MODEL 2
REMARK VINA RESULT:     -11.9      3.181      8.864
REMARK SMILES [NH3+][C@@H](Cc1cn(-c2nc(Cl)nc(N3CCOCC3)n2)c2ccccc12)C(=O)NCCCCCCNC(=O)c1ccc(-c2c3nc(c(-c4ccccc4)c4ccc([nH]4)c(-c4ccccc4)c4nc(c(-c5ccccc5)c5ccc2[nH]5)C=C4)C=C3)cc1
REMARK SMILES IDX 30 1 29 2 28 3 26 4 27 5 2 7 1 8 3 12 4 13 5 14 25 15 6 16
REMARK SMILES IDX 20 17 24 18 21 19 23 20 22 21 7 22 8 23 19 24 9 25 12 26
REMARK SMILES IDX 10 27 11 28 13 29 14 30 18 31 15 32 17 33 16 34 31 35 32 36
REMARK SMILES IDX 33 37 34 38 35 39 36 40 37 42 38 43 39 44 85 45 40 46 84 47
REMARK SMILES IDX 41 48 42 49 43 50 78 51 44 52 83 53 77 54 79 55 45 56 82 57
REMARK SMILES IDX 76 58 75 59 46 61 68 62 53 63 67 64 54 65 57 66 66 67 80 68
REMARK SMILES IDX 55 69 56 70 65 72 81 73 58 74 47 75 48 76 52 77 49 78 51 79
REMARK SMILES IDX 50 80 69 81 70 82 74 83 71 84 73 85 72 86 59 87 60 88 64 89
REMARK SMILES IDX 61 90 63 91 62 92
REMARK H PARENT 28 6 1 9 1 10 1 11 35 41 79 60 57 71
REMARK Flexibility Score: inf
ROOT
ATOM      1  C   UNL A   1      39.611  22.350  26.203  1.00  0.00     0.021 C 
ENDROOT
BRANCH   1   2
ATOM      2  C   UNL A   1      38.284  21.731  25.753  1.00  0.00     0.116 C 
BRANCH   2   3
ATOM      3  N   UNL A   1      37.843  22.245  24.472  1.00  0.00    -0.351 N 
ATOM      4  C   UNL A   1      36.675  22.716  23.981  1.00  0.00     0.278 C 
ATOM      5  O   UNL A   1      36.731  23.092  22.795  1.00  0.00    -0.268 OA
ATOM      6  H   UNL A   1      38.564  22.253  23.800  1.00  0.00     0.163 HD
BRANCH   4   7
ATOM      7  C   UNL A   1      35.297  22.775  24.690  1.00  0.00     0.275 C 
BRANCH   7   8
ATOM      8  N   UNL A   1      34.853  21.420  25.075  1.00  0.00    -0.347 N 
ATOM      9  H   UNL A   1      35.209  21.197  26.004  1.00  0.00     0.345 HD
ATOM     10  H   UNL A   1      35.209  20.741  24.402  1.00  0.00     0.345 HD
ATOM     11  H   UNL A   1      33.834  21.387  25.084  1.00  0.00     0.345 HD
ENDBRANCH   7   8
BRANCH   7  12
ATOM     12  C   UNL A   1      34.899  23.902  25.640  1.00  0.00     0.113 C 
BRANCH  12  13
ATOM     13  C   UNL A   1      33.556  24.581  25.627  1.00  0.00    -0.015 A 
ATOM     14  C   UNL A   1      33.451  25.909  25.241  1.00  0.00     0.099 A 
ATOM     15  C   UNL A   1      32.218  24.163  25.959  1.00  0.00     0.004 A 
ATOM     16  N   UNL A   1      32.188  26.361  25.520  1.00  0.00    -0.285 N 
ATOM     17  C   UNL A   1      31.405  25.309  25.948  1.00  0.00     0.056 A 
ATOM     18  C   UNL A   1      31.598  22.950  26.334  1.00  0.00     0.010 A 
ATOM     19  C   UNL A   1      30.043  25.283  26.303  1.00  0.00     0.027 A 
ATOM     20  C   UNL A   1      30.243  22.909  26.684  1.00  0.00     0.001 A 
ATOM     21  C   UNL A   1      29.477  24.064  26.672  1.00  0.00     0.002 A 
BRANCH  16  22
ATOM     22  C   UNL A   1      31.791  27.712  25.414  1.00  0.00     0.240 A 
ATOM     23  N   UNL A   1      32.201  28.546  26.361  1.00  0.00    -0.181 NA
ATOM     24  N   UNL A   1      31.080  28.043  24.336  1.00  0.00    -0.176 NA
ATOM     25  C   UNL A   1      31.906  29.805  26.075  1.00  0.00     0.228 A 
ATOM     26  C   UNL A   1      30.768  29.327  24.221  1.00  0.00     0.231 A 
ATOM     27  Cl  UNL A   1      32.438  30.967  27.208  1.00  0.00    -0.041 Cl
ATOM     28  N   UNL A   1      31.229  30.266  25.032  1.00  0.00    -0.182 NA
BRANCH  26  29
ATOM     29  N   UNL A   1      29.841  29.686  23.284  1.00  0.00    -0.336 N 
ATOM     30  C   UNL A   1      29.237  31.014  23.335  1.00  0.00     0.148 C 
ATOM     31  C   UNL A   1      29.080  28.654  22.591  1.00  0.00     0.148 C 
ATOM     32  C   UNL A   1      27.779  30.924  23.795  1.00  0.00     0.181 C 
ATOM     33  C   UNL A   1      27.615  28.679  23.073  1.00  0.00     0.181 C 
ATOM     34  O   UNL A   1      27.039  29.995  22.983  1.00  0.00    -0.378 OA
ENDBRANCH  26  29
ENDBRANCH  16  22
ENDBRANCH  12  13
ENDBRANCH   7  12
ENDBRANCH   4   7
ENDBRANCH   2   3
ENDBRANCH   1   2
BRANCH   1  35
ATOM     35  C   UNL A   1      40.196  21.749  27.485  1.00  0.00     0.002 C 
BRANCH  35  36
ATOM     36  C   UNL A   1      41.713  21.502  27.467  1.00  0.00     0.002 C 
BRANCH  36  37
ATOM     37  C   UNL A   1      42.178  20.084  27.106  1.00  0.00     0.021 C 
BRANCH  37  38
ATOM     38  C   UNL A   1      42.199  19.751  25.615  1.00  0.00     0.116 C 
BRANCH  38  39
ATOM     39  N   UNL A   1      43.483  19.925  24.966  1.00  0.00    -0.352 N 
ATOM     40  C   UNL A   1      44.459  20.878  24.995  1.00  0.00     0.251 C 
ATOM     41  H   UNL A   1      43.703  19.180  24.362  1.00  0.00     0.163 HD
ATOM     42  O   UNL A   1      45.495  20.621  24.370  1.00  0.00    -0.269 OA
BRANCH  40  43
ATOM     43  C   UNL A   1      44.345  22.204  25.658  1.00  0.00     0.039 A 
ATOM     44  C   UNL A   1      45.034  22.608  26.802  1.00  0.00     0.014 A 
ATOM     45  C   UNL A   1      43.448  23.109  25.061  1.00  0.00     0.014 A 
ATOM     46  C   UNL A   1      44.758  23.842  27.394  1.00  0.00     0.010 A 
ATOM     47  C   UNL A   1      43.191  24.352  25.630  1.00  0.00     0.010 A 
ATOM     48  C   UNL A   1      43.812  24.698  26.828  1.00  0.00    -0.014 A 
BRANCH  48  49
ATOM     49  C   UNL A   1      43.540  25.974  27.493  1.00  0.00     0.031 A 
ATOM     50  C   UNL A   1      44.465  27.107  27.188  1.00  0.00     0.074 A 
ATOM     51  C   UNL A   1      42.425  26.197  28.218  1.00  0.00     0.049 A 
ATOM     52  N   UNL A   1      45.098  27.882  28.010  1.00  0.00    -0.248 NA
ATOM     53  C   UNL A   1      44.732  27.395  25.769  1.00  0.00     0.031 C 
ATOM     54  C   UNL A   1      41.253  25.327  28.348  1.00  0.00     0.029 A 
ATOM     55  N   UNL A   1      42.052  27.324  28.892  1.00  0.00    -0.354 N 
ATOM     56  C   UNL A   1      45.738  28.844  27.227  1.00  0.00     0.074 A 
ATOM     57  C   UNL A   1      45.546  28.446  25.855  1.00  0.00     0.031 C 
ATOM     58  C   UNL A   1      40.221  26.044  28.843  1.00  0.00     0.029 A 
ATOM     59  C   UNL A   1      40.701  27.368  29.201  1.00  0.00     0.049 A 
ATOM     60  H   UNL A   1      42.684  28.039  29.137  1.00  0.00     0.167 HD
ATOM     61  C   UNL A   1      46.253  29.995  27.742  1.00  0.00     0.031 A 
ATOM     62  C   UNL A   1      40.005  28.436  29.650  1.00  0.00     0.031 A 
ATOM     63  C   UNL A   1      46.476  29.910  29.157  1.00  0.00     0.049 A 
ATOM     64  C   UNL A   1      40.960  29.416  30.206  1.00  0.00     0.074 A 
ATOM     65  C   UNL A   1      47.279  29.143  29.974  1.00  0.00     0.029 A 
ATOM     66  N   UNL A   1      45.569  30.520  29.986  1.00  0.00    -0.354 N 
ATOM     67  N   UNL A   1      41.657  29.227  31.288  1.00  0.00    -0.248 NA
ATOM     68  C   UNL A   1      41.401  30.516  29.363  1.00  0.00     0.031 C 
ATOM     69  C   UNL A   1      46.529  28.966  31.172  1.00  0.00     0.029 A 
ATOM     70  C   UNL A   1      45.326  29.661  31.025  1.00  0.00     0.049 A 
ATOM     71  H   UNL A   1      45.168  31.410  29.858  1.00  0.00     0.167 HD
ATOM     72  C   UNL A   1      42.852  29.888  31.058  1.00  0.00     0.074 A 
ATOM     73  C   UNL A   1      42.580  30.777  29.934  1.00  0.00     0.031 C 
ATOM     74  C   UNL A   1      44.020  29.448  31.614  1.00  0.00     0.031 A 
BRANCH  61  75
ATOM     75  C   UNL A   1      46.274  31.314  27.005  1.00  0.00    -0.014 A 
ATOM     76  C   UNL A   1      45.106  31.993  26.611  1.00  0.00     0.009 A 
ATOM     77  C   UNL A   1      47.479  32.039  26.922  1.00  0.00     0.009 A 
ATOM     78  C   UNL A   1      45.130  33.319  26.164  1.00  0.00     0.001 A 
ATOM     79  C   UNL A   1      47.502  33.381  26.516  1.00  0.00     0.001 A 
ATOM     80  C   UNL A   1      46.326  34.020  26.139  1.00  0.00     0.000 A 
ENDBRANCH  61  75
BRANCH  62  81
ATOM     81  C   UNL A   1      38.605  28.796  29.344  1.00  0.00    -0.014 A 
ATOM     82  C   UNL A   1      38.275  29.314  28.078  1.00  0.00     0.009 A 
ATOM     83  C   UNL A   1      37.650  28.900  30.365  1.00  0.00     0.009 A 
ATOM     84  C   UNL A   1      37.050  29.945  27.848  1.00  0.00     0.001 A 
ATOM     85  C   UNL A   1      36.424  29.537  30.137  1.00  0.00     0.001 A 
ATOM     86  C   UNL A   1      36.130  30.071  28.884  1.00  0.00     0.000 A 
ENDBRANCH  62  81
BRANCH  74  87
ATOM     87  C   UNL A   1      43.944  28.413  32.713  1.00  0.00    -0.014 A 
ATOM     88  C   UNL A   1      43.945  27.055  32.359  1.00  0.00     0.009 A 
ATOM     89  C   UNL A   1      43.698  28.746  34.057  1.00  0.00     0.009 A 
ATOM     90  C   UNL A   1      43.701  26.063  33.313  1.00  0.00     0.001 A 
ATOM     91  C   UNL A   1      43.482  27.754  35.017  1.00  0.00     0.001 A 
ATOM     92  C   UNL A   1      43.474  26.412  34.643  1.00  0.00     0.000 A 
ENDBRANCH  74  87
ENDBRANCH  48  49
ENDBRANCH  40  43
ENDBRANCH  38  39
ENDBRANCH  37  38
ENDBRANCH  36  37
ENDBRANCH  35  36
ENDBRANCH   1  35
TORSDOF 18
ENDMDL
MODEL 3
REMARK VINA RESULT:     -11.8      3.658      9.318
REMARK SMILES [NH3+][C@@H](Cc1cn(-c2nc(Cl)nc(N3CCOCC3)n2)c2ccccc12)C(=O)NCCCCCCNC(=O)c1ccc(-c2c3nc(c(-c4ccccc4)c4ccc([nH]4)c(-c4ccccc4)c4nc(c(-c5ccccc5)c5ccc2[nH]5)C=C4)C=C3)cc1
REMARK SMILES IDX 30 1 29 2 28 3 26 4 27 5 2 7 1 8 3 12 4 13 5 14 25 15 6 16
REMARK SMILES IDX 20 17 24 18 21 19 23 20 22 21 7 22 8 23 19 24 9 25 12 26
REMARK SMILES IDX 10 27 11 28 13 29 14 30 18 31 15 32 17 33 16 34 31 35 32 36
REMARK SMILES IDX 33 37 34 38 35 39 36 40 37 42 38 43 39 44 85 45 40 46 84 47
REMARK SMILES IDX 41 48 42 49 43 50 78 51 44 52 83 53 77 54 79 55 45 56 82 57
REMARK SMILES IDX 76 58 75 59 46 61 68 62 53 63 67 64 54 65 57 66 66 67 80 68
REMARK SMILES IDX 55 69 56 70 65 72 81 73 58 74 47 75 48 76 52 77 49 78 51 79
REMARK SMILES IDX 50 80 69 81 70 82 74 83 71 84 73 85 72 86 59 87 60 88 64 89
REMARK SMILES IDX 61 90 63 91 62 92
REMARK H PARENT 28 6 1 9 1 10 1 11 35 41 79 60 57 71
REMARK Flexibility Score: inf
ROOT
ATOM      1  C   UNL A   1      44.920  20.821  24.382  1.00  0.00     0.021 C 
ENDROOT
BRANCH   1   2
ATOM      2  C   UNL A   1      45.245  19.850  25.521  1.00  0.00     0.116 C 
BRANCH   2   3
ATOM      3  N   UNL A   1      44.312  18.742  25.584  1.00  0.00    -0.351 N 
ATOM      4  C   UNL A   1      43.020  18.600  25.952  1.00  0.00     0.278 C 
ATOM      5  O   UNL A   1      42.575  17.444  25.828  1.00  0.00    -0.268 OA
ATOM      6  H   UNL A   1      44.716  17.892  25.290  1.00  0.00     0.163 HD
BRANCH   4   7
ATOM      7  C   UNL A   1      42.077  19.672  26.557  1.00  0.00     0.275 C 
BRANCH   7   8
ATOM      8  N   UNL A   1      42.359  19.860  27.995  1.00  0.00    -0.347 N 
ATOM      9  H   UNL A   1      41.715  19.292  28.546  1.00  0.00     0.345 HD
ATOM     10  H   UNL A   1      42.240  20.843  28.240  1.00  0.00     0.345 HD
ATOM     11  H   UNL A   1      43.318  19.574  28.192  1.00  0.00     0.345 HD
ENDBRANCH   7   8
BRANCH   7  12
ATOM     12  C   UNL A   1      41.641  20.922  25.795  1.00  0.00     0.113 C 
BRANCH  12  13
ATOM     13  C   UNL A   1      40.381  21.690  26.087  1.00  0.00    -0.015 A 
ATOM     14  C   UNL A   1      39.158  21.228  25.623  1.00  0.00     0.099 A 
ATOM     15  C   UNL A   1      40.094  22.916  26.788  1.00  0.00     0.004 A 
ATOM     16  N   UNL A   1      38.208  22.194  25.817  1.00  0.00    -0.285 N 
ATOM     17  C   UNL A   1      38.748  23.235  26.543  1.00  0.00     0.056 A 
ATOM     18  C   UNL A   1      40.835  23.841  27.558  1.00  0.00     0.010 A 
ATOM     19  C   UNL A   1      38.145  24.416  27.015  1.00  0.00     0.027 A 
ATOM     20  C   UNL A   1      40.245  25.017  28.038  1.00  0.00     0.001 A 
ATOM     21  C   UNL A   1      38.917  25.302  27.765  1.00  0.00     0.002 A 
BRANCH  16  22
ATOM     22  C   UNL A   1      36.893  22.123  25.306  1.00  0.00     0.240 A 
ATOM     23  N   UNL A   1      36.382  23.227  24.776  1.00  0.00    -0.181 NA
ATOM     24  N   UNL A   1      36.297  20.931  25.354  1.00  0.00    -0.176 NA
ATOM     25  C   UNL A   1      35.216  23.002  24.189  1.00  0.00     0.228 A 
ATOM     26  C   UNL A   1      35.087  20.868  24.814  1.00  0.00     0.231 A 
ATOM     27  Cl  UNL A   1      34.498  24.351  23.428  1.00  0.00    -0.041 Cl
ATOM     28  N   UNL A   1      34.533  21.867  24.145  1.00  0.00    -0.182 NA
BRANCH  26  29
ATOM     29  N   UNL A   1      34.331  19.754  25.050  1.00  0.00    -0.336 N 
ATOM     30  C   UNL A   1      34.943  18.432  24.965  1.00  0.00     0.148 C 
ATOM     31  C   UNL A   1      32.886  19.814  24.865  1.00  0.00     0.148 C 
ATOM     32  C   UNL A   1      34.462  17.697  23.712  1.00  0.00     0.181 C 
ATOM     33  C   UNL A   1      32.490  18.997  23.618  1.00  0.00     0.181 C 
ATOM     34  O   UNL A   1      33.024  17.661  23.655  1.00  0.00    -0.378 OA
ENDBRANCH  26  29
ENDBRANCH  16  22
ENDBRANCH  12  13
ENDBRANCH   7  12
ENDBRANCH   4   7
ENDBRANCH   2   3
ENDBRANCH   1   2
BRANCH   1  35
ATOM     35  C   UNL A   1      45.537  22.215  24.533  1.00  0.00     0.002 C 
BRANCH  35  36
ATOM     36  C   UNL A   1      45.584  22.767  25.966  1.00  0.00     0.002 C 
BRANCH  36  37
ATOM     37  C   UNL A   1      44.236  23.048  26.643  1.00  0.00     0.021 C 
BRANCH  37  38
ATOM     38  C   UNL A   1      44.276  23.210  28.163  1.00  0.00     0.116 C 
BRANCH  38  39
ATOM     39  N   UNL A   1      45.416  23.947  28.670  1.00  0.00    -0.352 N 
ATOM     40  C   UNL A   1      45.602  25.180  29.225  1.00  0.00     0.251 C 
ATOM     41  H   UNL A   1      46.255  23.438  28.598  1.00  0.00     0.163 HD
ATOM     42  O   UNL A   1      46.737  25.426  29.649  1.00  0.00    -0.269 OA
BRANCH  40  43
ATOM     43  C   UNL A   1      44.574  26.252  29.297  1.00  0.00     0.039 A 
ATOM     44  C   UNL A   1      43.730  26.646  28.258  1.00  0.00     0.014 A 
ATOM     45  C   UNL A   1      44.472  26.919  30.532  1.00  0.00     0.014 A 
ATOM     46  C   UNL A   1      42.881  27.743  28.415  1.00  0.00     0.010 A 
ATOM     47  C   UNL A   1      43.607  27.993  30.703  1.00  0.00     0.010 A 
ATOM     48  C   UNL A   1      42.845  28.438  29.625  1.00  0.00    -0.014 A 
BRANCH  48  49
ATOM     49  C   UNL A   1      41.954  29.594  29.739  1.00  0.00     0.031 A 
ATOM     50  C   UNL A   1      42.576  30.944  29.595  1.00  0.00     0.074 A 
ATOM     51  C   UNL A   1      40.612  29.479  29.802  1.00  0.00     0.049 A 
ATOM     52  N   UNL A   1      42.478  31.971  30.379  1.00  0.00    -0.248 NA
ATOM     53  C   UNL A   1      43.442  31.166  28.426  1.00  0.00     0.031 C 
ATOM     54  C   UNL A   1      39.807  28.268  29.617  1.00  0.00     0.029 A 
ATOM     55  N   UNL A   1      39.671  30.462  29.918  1.00  0.00    -0.354 N 
ATOM     56  C   UNL A   1      43.153  33.014  29.744  1.00  0.00     0.074 A 
ATOM     57  C   UNL A   1      43.796  32.441  28.588  1.00  0.00     0.031 C 
ATOM     58  C   UNL A   1      38.522  28.619  29.392  1.00  0.00     0.029 A 
ATOM     59  C   UNL A   1      38.394  30.055  29.567  1.00  0.00     0.049 A 
ATOM     60  H   UNL A   1      39.881  31.375  30.223  1.00  0.00     0.167 HD
ATOM     61  C   UNL A   1      43.018  34.319  30.114  1.00  0.00     0.031 A 
ATOM     62  C   UNL A   1      37.317  30.848  29.361  1.00  0.00     0.031 A 
ATOM     63  C   UNL A   1      42.503  34.458  31.446  1.00  0.00     0.049 A 
ATOM     64  C   UNL A   1      37.566  32.152  30.007  1.00  0.00     0.074 A 
ATOM     65  C   UNL A   1      42.947  34.110  32.705  1.00  0.00     0.029 A 
ATOM     66  N   UNL A   1      41.180  34.788  31.590  1.00  0.00    -0.354 N 
ATOM     67  N   UNL A   1      37.638  32.329  31.294  1.00  0.00    -0.248 NA
ATOM     68  C   UNL A   1      38.073  33.247  29.196  1.00  0.00     0.031 C 
ATOM     69  C   UNL A   1      41.767  33.799  33.441  1.00  0.00     0.029 A 
ATOM     70  C   UNL A   1      40.674  34.005  32.595  1.00  0.00     0.049 A 
ATOM     71  H   UNL A   1      40.685  35.460  31.069  1.00  0.00     0.167 HD
ATOM     72  C   UNL A   1      38.566  33.344  31.459  1.00  0.00     0.074 A 
ATOM     73  C   UNL A   1      38.683  33.964  30.143  1.00  0.00     0.031 C 
ATOM     74  C   UNL A   1      39.356  33.404  32.571  1.00  0.00     0.031 A 
BRANCH  61  75
ATOM     75  C   UNL A   1      43.068  35.479  29.148  1.00  0.00    -0.014 A 
ATOM     76  C   UNL A   1      44.259  36.150  28.813  1.00  0.00     0.009 A 
ATOM     77  C   UNL A   1      41.945  35.756  28.343  1.00  0.00     0.009 A 
ATOM     78  C   UNL A   1      44.334  37.043  27.739  1.00  0.00     0.001 A 
ATOM     79  C   UNL A   1      42.028  36.616  27.239  1.00  0.00     0.001 A 
ATOM     80  C   UNL A   1      43.223  37.258  26.937  1.00  0.00     0.000 A 
ENDBRANCH  61  75
BRANCH  62  81
ATOM     81  C   UNL A   1      36.229  30.657  28.379  1.00  0.00    -0.014 A 
ATOM     82  C   UNL A   1      35.209  31.619  28.267  1.00  0.00     0.009 A 
ATOM     83  C   UNL A   1      36.033  29.415  27.757  1.00  0.00     0.009 A 
ATOM     84  C   UNL A   1      34.020  31.340  27.588  1.00  0.00     0.001 A 
ATOM     85  C   UNL A   1      34.840  29.134  27.081  1.00  0.00     0.001 A 
ATOM     86  C   UNL A   1      33.828  30.090  27.009  1.00  0.00     0.000 A 
ENDBRANCH  62  81
BRANCH  74  87
ATOM     87  C   UNL A   1      39.003  32.524  33.748  1.00  0.00    -0.014 A 
ATOM     88  C   UNL A   1      38.139  33.030  34.732  1.00  0.00     0.009 A 
ATOM     89  C   UNL A   1      39.634  31.291  33.993  1.00  0.00     0.009 A 
ATOM     90  C   UNL A   1      37.919  32.332  35.923  1.00  0.00     0.001 A 
ATOM     91  C   UNL A   1      39.392  30.579  35.171  1.00  0.00     0.001 A 
ATOM     92  C   UNL A   1      38.541  31.105  36.140  1.00  0.00     0.000 A 
ENDBRANCH  74  87
ENDBRANCH  48  49
ENDBRANCH  40  43
ENDBRANCH  38  39
ENDBRANCH  37  38
ENDBRANCH  36  37
ENDBRANCH  35  36
ENDBRANCH   1  35
TORSDOF 18
ENDMDL
