MODEL 1
REMARK VINA RESULT:     -10.7      0.000      0.000
REMARK SMILES CC1(C)CSC[C@H](Nc2cc(C(=O)NCCCCCCNC(=O)c3ccc(-c4c5nc(c(-c6ccccc6)c6ccc([nH]6)c(-c6ccccc6)c6nc(c(-c7ccccc7)c7ccc4[nH]7)C=C6)C=C5)cc3)ccc2F)C1
REMARK SMILES IDX 17 1 16 2 15 3 14 4 12 5 13 6 11 8 9 9 10 10 74 11 73 12
REMARK SMILES IDX 75 13 72 14 8 15 7 17 1 18 2 19 3 20 4 21 76 22 5 23 6 24
REMARK SMILES IDX 18 25 19 26 20 27 21 28 22 29 23 31 24 32 25 33 71 34 26 35
REMARK SMILES IDX 70 36 27 37 28 38 29 39 64 40 30 41 69 42 63 43 65 44 31 45
REMARK SMILES IDX 68 46 62 47 61 48 32 50 54 51 39 52 53 53 40 54 43 55 52 56
REMARK SMILES IDX 66 57 41 58 42 59 51 61 67 62 44 63 33 64 34 65 38 66 35 67
REMARK SMILES IDX 37 68 36 69 55 70 56 71 60 72 57 73 59 74 58 75 45 76 46 77
REMARK SMILES IDX 50 78 47 79 49 80 48 81
REMARK H PARENT 14 7 8 16 21 30 65 49 43 60
REMARK Flexibility Score: inf
ROOT
ATOM      1  C   UNL A   1      34.427  32.546  28.752  1.00  0.00     0.002 C 
ENDROOT
BRANCH   1   2
ATOM      2  C   UNL A   1      35.350  31.815  27.766  1.00  0.00     0.021 C 
BRANCH   2   3
ATOM      3  C   UNL A   1      35.063  30.315  27.673  1.00  0.00     0.116 C 
BRANCH   3   4
ATOM      4  N   UNL A   1      33.649  30.075  27.863  1.00  0.00    -0.352 N 
ATOM      5  C   UNL A   1      32.687  29.471  27.102  1.00  0.00     0.251 C 
ATOM      6  O   UNL A   1      31.537  29.496  27.545  1.00  0.00    -0.269 OA
ATOM      7  H   UNL A   1      33.308  30.419  28.720  1.00  0.00     0.163 HD
BRANCH   5   8
ATOM      8  C   UNL A   1      32.952  28.738  25.830  1.00  0.00     0.042 A 
ATOM      9  C   UNL A   1      33.033  26.503  24.796  1.00  0.00     0.071 A 
ATOM     10  C   UNL A   1      32.763  27.343  25.886  1.00  0.00     0.042 A 
ATOM     11  C   UNL A   1      33.528  27.099  23.632  1.00  0.00     0.146 A 
ATOM     12  C   UNL A   1      33.668  28.482  23.531  1.00  0.00     0.042 A 
ATOM     13  F   UNL A   1      33.833  26.357  22.556  1.00  0.00    -0.205 F 
ATOM     14  C   UNL A   1      33.354  29.303  24.619  1.00  0.00     0.017 A 
BRANCH   9  15
ATOM     15  N   UNL A   1      32.871  25.134  24.975  1.00  0.00    -0.379 N 
ATOM     16  H   UNL A   1      32.051  24.698  24.646  1.00  0.00     0.160 HD
BRANCH  15  17
ATOM     17  C   UNL A   1      33.897  24.327  25.641  1.00  0.00     0.089 C 
ATOM     18  C   UNL A   1      36.966  23.705  25.930  1.00  0.00     0.012 C 
ATOM     19  C   UNL A   1      35.989  22.893  25.057  1.00  0.00    -0.024 C 
ATOM     20  C   UNL A   1      36.775  22.382  23.830  1.00  0.00     0.012 C 
ATOM     21  C   UNL A   1      35.442  21.667  25.816  1.00  0.00     0.076 C 
ATOM     22  C   UNL A   1      34.837  23.787  24.548  1.00  0.00     0.033 C 
ATOM     23  S   UNL A   1      34.395  22.073  27.245  1.00  0.00    -0.159 SA
ATOM     24  C   UNL A   1      33.220  23.186  26.422  1.00  0.00     0.094 C 
ENDBRANCH  15  17
ENDBRANCH   9  15
ENDBRANCH   5   8
ENDBRANCH   3   4
ENDBRANCH   2   3
ENDBRANCH   1   2
BRANCH   1  25
ATOM     25  C   UNL A   1      34.502  34.077  28.693  1.00  0.00     0.002 C 
BRANCH  25  26
ATOM     26  C   UNL A   1      33.163  34.799  28.864  1.00  0.00     0.021 C 
BRANCH  26  27
ATOM     27  C   UNL A   1      33.279  36.222  29.403  1.00  0.00     0.116 C 
BRANCH  27  28
ATOM     28  N   UNL A   1      32.511  36.398  30.623  1.00  0.00    -0.352 N 
ATOM     29  C   UNL A   1      32.675  35.809  31.850  1.00  0.00     0.251 C 
ATOM     30  H   UNL A   1      31.763  37.035  30.559  1.00  0.00     0.163 HD
ATOM     31  O   UNL A   1      31.793  35.902  32.697  1.00  0.00    -0.269 OA
BRANCH  29  32
ATOM     32  C   UNL A   1      33.910  35.056  32.157  1.00  0.00     0.039 A 
ATOM     33  C   UNL A   1      33.807  33.700  32.478  1.00  0.00     0.014 A 
ATOM     34  C   UNL A   1      35.155  35.689  32.182  1.00  0.00     0.014 A 
ATOM     35  C   UNL A   1      34.955  32.973  32.795  1.00  0.00     0.010 A 
ATOM     36  C   UNL A   1      36.308  34.949  32.433  1.00  0.00     0.010 A 
ATOM     37  C   UNL A   1      36.217  33.589  32.760  1.00  0.00    -0.014 A 
BRANCH  37  38
ATOM     38  C   UNL A   1      37.444  32.824  33.096  1.00  0.00     0.031 A 
ATOM     39  C   UNL A   1      38.179  33.100  34.379  1.00  0.00     0.074 A 
ATOM     40  C   UNL A   1      37.915  31.904  32.233  1.00  0.00     0.049 A 
ATOM     41  N   UNL A   1      39.267  32.538  34.844  1.00  0.00    -0.248 NA
ATOM     42  C   UNL A   1      37.637  34.162  35.242  1.00  0.00     0.031 C 
ATOM     43  C   UNL A   1      37.317  31.573  30.938  1.00  0.00     0.029 A 
ATOM     44  N   UNL A   1      39.006  31.078  32.319  1.00  0.00    -0.354 N 
ATOM     45  C   UNL A   1      39.546  33.188  36.041  1.00  0.00     0.074 A 
ATOM     46  C   UNL A   1      38.543  34.217  36.206  1.00  0.00     0.031 C 
ATOM     47  C   UNL A   1      38.032  30.591  30.365  1.00  0.00     0.029 A 
ATOM     48  C   UNL A   1      39.150  30.245  31.237  1.00  0.00     0.049 A 
ATOM     49  H   UNL A   1      39.626  31.081  33.083  1.00  0.00     0.167 HD
ATOM     50  C   UNL A   1      40.534  32.938  36.932  1.00  0.00     0.031 A 
ATOM     51  C   UNL A   1      40.075  29.302  30.980  1.00  0.00     0.031 A 
ATOM     52  C   UNL A   1      41.523  31.905  36.777  1.00  0.00     0.049 A 
ATOM     53  C   UNL A   1      41.152  29.032  31.992  1.00  0.00     0.074 A 
ATOM     54  C   UNL A   1      42.533  31.538  37.650  1.00  0.00     0.029 A 
ATOM     55  N   UNL A   1      41.624  31.072  35.675  1.00  0.00    -0.354 N 
ATOM     56  N   UNL A   1      41.362  29.610  33.151  1.00  0.00    -0.248 NA
ATOM     57  C   UNL A   1      42.110  27.965  31.669  1.00  0.00     0.031 C 
ATOM     58  C   UNL A   1      43.271  30.508  37.056  1.00  0.00     0.029 A 
ATOM     59  C   UNL A   1      42.688  30.201  35.837  1.00  0.00     0.049 A 
ATOM     60  H   UNL A   1      41.028  31.095  34.893  1.00  0.00     0.167 HD
ATOM     61  C   UNL A   1      42.455  28.957  33.706  1.00  0.00     0.074 A 
ATOM     62  C   UNL A   1      42.853  27.931  32.765  1.00  0.00     0.031 C 
ATOM     63  C   UNL A   1      43.072  29.187  34.891  1.00  0.00     0.031 A 
BRANCH  50  64
ATOM     64  C   UNL A   1      40.592  33.807  38.158  1.00  0.00    -0.014 A 
ATOM     65  C   UNL A   1      39.916  33.449  39.336  1.00  0.00     0.009 A 
ATOM     66  C   UNL A   1      41.351  34.988  38.143  1.00  0.00     0.009 A 
ATOM     67  C   UNL A   1      39.968  34.274  40.461  1.00  0.00     0.001 A 
ATOM     68  C   UNL A   1      41.424  35.796  39.280  1.00  0.00     0.001 A 
ATOM     69  C   UNL A   1      40.724  35.445  40.433  1.00  0.00     0.000 A 
ENDBRANCH  50  64
BRANCH  51  70
ATOM     70  C   UNL A   1      40.003  28.514  29.723  1.00  0.00    -0.014 A 
ATOM     71  C   UNL A   1      39.313  27.292  29.689  1.00  0.00     0.009 A 
ATOM     72  C   UNL A   1      40.628  28.975  28.554  1.00  0.00     0.009 A 
ATOM     73  C   UNL A   1      39.274  26.534  28.517  1.00  0.00     0.001 A 
ATOM     74  C   UNL A   1      40.563  28.228  27.376  1.00  0.00     0.001 A 
ATOM     75  C   UNL A   1      39.895  27.004  27.361  1.00  0.00     0.000 A 
ENDBRANCH  51  70
BRANCH  63  76
ATOM     76  C   UNL A   1      44.218  28.284  35.248  1.00  0.00    -0.014 A 
ATOM     77  C   UNL A   1      44.012  27.080  35.939  1.00  0.00     0.009 A 
ATOM     78  C   UNL A   1      45.522  28.635  34.865  1.00  0.00     0.009 A 
ATOM     79  C   UNL A   1      45.095  26.266  36.276  1.00  0.00     0.001 A 
ATOM     80  C   UNL A   1      46.599  27.806  35.177  1.00  0.00     0.001 A 
ATOM     81  C   UNL A   1      46.386  26.627  35.891  1.00  0.00     0.000 A 
ENDBRANCH  63  76
ENDBRANCH  37  38
ENDBRANCH  29  32
ENDBRANCH  27  28
ENDBRANCH  26  27
ENDBRANCH  25  26
ENDBRANCH   1  25
TORSDOF 15
ENDMDL
MODEL 2
REMARK VINA RESULT:     -10.6      2.586      3.421
REMARK SMILES CC1(C)CSC[C@H](Nc2cc(C(=O)NCCCCCCNC(=O)c3ccc(-c4c5nc(c(-c6ccccc6)c6ccc([nH]6)c(-c6ccccc6)c6nc(c(-c7ccccc7)c7ccc4[nH]7)C=C6)C=C5)cc3)ccc2F)C1
REMARK SMILES IDX 17 1 16 2 15 3 14 4 12 5 13 6 11 8 9 9 10 10 74 11 73 12
REMARK SMILES IDX 75 13 72 14 8 15 7 17 1 18 2 19 3 20 4 21 76 22 5 23 6 24
REMARK SMILES IDX 18 25 19 26 20 27 21 28 22 29 23 31 24 32 25 33 71 34 26 35
REMARK SMILES IDX 70 36 27 37 28 38 29 39 64 40 30 41 69 42 63 43 65 44 31 45
REMARK SMILES IDX 68 46 62 47 61 48 32 50 54 51 39 52 53 53 40 54 43 55 52 56
REMARK SMILES IDX 66 57 41 58 42 59 51 61 67 62 44 63 33 64 34 65 38 66 35 67
REMARK SMILES IDX 37 68 36 69 55 70 56 71 60 72 57 73 59 74 58 75 45 76 46 77
REMARK SMILES IDX 50 78 47 79 49 80 48 81
REMARK H PARENT 14 7 8 16 21 30 65 49 43 60
REMARK Flexibility Score: inf
ROOT
ATOM      1  C   UNL A   1      32.645  30.246  27.095  1.00  0.00     0.002 C 
ENDROOT
BRANCH   1   2
ATOM      2  C   UNL A   1      32.497  28.717  27.100  1.00  0.00     0.021 C 
BRANCH   2   3
ATOM      3  C   UNL A   1      33.648  27.999  26.392  1.00  0.00     0.116 C 
BRANCH   3   4
ATOM      4  N   UNL A   1      33.890  28.616  25.105  1.00  0.00    -0.352 N 
ATOM      5  C   UNL A   1      33.137  28.755  23.972  1.00  0.00     0.251 C 
ATOM      6  O   UNL A   1      33.686  29.293  23.008  1.00  0.00    -0.269 OA
ATOM      7  H   UNL A   1      34.785  29.020  25.030  1.00  0.00     0.163 HD
BRANCH   5   8
ATOM      8  C   UNL A   1      31.701  28.368  23.859  1.00  0.00     0.042 A 
ATOM      9  C   UNL A   1      30.133  26.470  23.953  1.00  0.00     0.071 A 
ATOM     10  C   UNL A   1      31.421  27.007  24.086  1.00  0.00     0.042 A 
ATOM     11  C   UNL A   1      29.112  27.341  23.557  1.00  0.00     0.146 A 
ATOM     12  C   UNL A   1      29.350  28.703  23.383  1.00  0.00     0.042 A 
ATOM     13  F   UNL A   1      27.858  26.896  23.384  1.00  0.00    -0.205 F 
ATOM     14  C   UNL A   1      30.637  29.221  23.561  1.00  0.00     0.017 A 
BRANCH   9  15
ATOM     15  N   UNL A   1      29.975  25.103  24.141  1.00  0.00    -0.379 N 
ATOM     16  H   UNL A   1      29.072  24.711  24.103  1.00  0.00     0.160 HD
BRANCH  15  17
ATOM     17  C   UNL A   1      31.126  24.232  24.392  1.00  0.00     0.089 C 
ATOM     18  C   UNL A   1      33.620  22.763  23.162  1.00  0.00     0.012 C 
ATOM     19  C   UNL A   1      32.255  22.096  23.420  1.00  0.00    -0.024 C 
ATOM     20  C   UNL A   1      32.039  21.034  22.320  1.00  0.00     0.012 C 
ATOM     21  C   UNL A   1      32.226  21.380  24.785  1.00  0.00     0.076 C 
ATOM     22  C   UNL A   1      31.112  23.132  23.315  1.00  0.00     0.033 C 
ATOM     23  S   UNL A   1      32.362  22.489  26.219  1.00  0.00    -0.159 SA
ATOM     24  C   UNL A   1      31.019  23.640  25.808  1.00  0.00     0.094 C 
ENDBRANCH  15  17
ENDBRANCH   9  15
ENDBRANCH   5   8
ENDBRANCH   3   4
ENDBRANCH   2   3
ENDBRANCH   1   2
BRANCH   1  25
ATOM     25  C   UNL A   1      31.455  31.008  26.497  1.00  0.00     0.002 C 
BRANCH  25  26
ATOM     26  C   UNL A   1      31.462  32.518  26.745  1.00  0.00     0.021 C 
BRANCH  26  27
ATOM     27  C   UNL A   1      32.805  33.073  27.210  1.00  0.00     0.116 C 
BRANCH  27  28
ATOM     28  N   UNL A   1      32.643  34.289  27.988  1.00  0.00    -0.352 N 
ATOM     29  C   UNL A   1      33.346  34.725  29.082  1.00  0.00     0.251 C 
ATOM     30  H   UNL A   1      31.923  34.888  27.687  1.00  0.00     0.163 HD
ATOM     31  O   UNL A   1      32.922  35.662  29.750  1.00  0.00    -0.269 OA
BRANCH  29  32
ATOM     32  C   UNL A   1      34.614  34.067  29.464  1.00  0.00     0.039 A 
ATOM     33  C   UNL A   1      35.780  34.401  28.771  1.00  0.00     0.014 A 
ATOM     34  C   UNL A   1      34.648  33.087  30.460  1.00  0.00     0.014 A 
ATOM     35  C   UNL A   1      36.985  33.777  29.097  1.00  0.00     0.010 A 
ATOM     36  C   UNL A   1      35.862  32.513  30.830  1.00  0.00     0.010 A 
ATOM     37  C   UNL A   1      37.038  32.838  30.140  1.00  0.00    -0.014 A 
BRANCH  37  38
ATOM     38  C   UNL A   1      38.314  32.168  30.493  1.00  0.00     0.031 A 
ATOM     39  C   UNL A   1      39.246  32.795  31.494  1.00  0.00     0.074 A 
ATOM     40  C   UNL A   1      38.650  31.013  29.889  1.00  0.00     0.049 A 
ATOM     41  N   UNL A   1      40.404  32.362  31.928  1.00  0.00    -0.248 NA
ATOM     42  C   UNL A   1      38.837  34.088  32.065  1.00  0.00     0.031 C 
ATOM     43  C   UNL A   1      37.853  30.324  28.872  1.00  0.00     0.029 A 
ATOM     44  N   UNL A   1      39.752  30.212  30.048  1.00  0.00    -0.354 N 
ATOM     45  C   UNL A   1      40.865  33.334  32.806  1.00  0.00     0.074 A 
ATOM     46  C   UNL A   1      39.888  34.401  32.807  1.00  0.00     0.031 C 
ATOM     47  C   UNL A   1      38.479  29.189  28.520  1.00  0.00     0.029 A 
ATOM     48  C   UNL A   1      39.729  29.084  29.265  1.00  0.00     0.049 A 
ATOM     49  H   UNL A   1      40.490  30.426  30.664  1.00  0.00     0.167 HD
ATOM     50  C   UNL A   1      41.990  33.333  33.560  1.00  0.00     0.031 A 
ATOM     51  C   UNL A   1      40.614  28.075  29.164  1.00  0.00     0.031 A 
ATOM     52  C   UNL A   1      42.955  32.266  33.573  1.00  0.00     0.049 A 
ATOM     53  C   UNL A   1      41.846  28.087  30.024  1.00  0.00     0.074 A 
ATOM     54  C   UNL A   1      44.100  32.145  34.341  1.00  0.00     0.029 A 
ATOM     55  N   UNL A   1      42.886  31.133  32.778  1.00  0.00    -0.354 N 
ATOM     56  N   UNL A   1      42.234  28.982  30.900  1.00  0.00    -0.248 NA
ATOM     57  C   UNL A   1      42.753  26.937  29.893  1.00  0.00     0.031 C 
ATOM     58  C   UNL A   1      44.745  30.957  33.982  1.00  0.00     0.029 A 
ATOM     59  C   UNL A   1      43.975  30.314  33.026  1.00  0.00     0.049 A 
ATOM     60  H   UNL A   1      42.169  30.938  32.133  1.00  0.00     0.167 HD
ATOM     61  C   UNL A   1      43.413  28.490  31.445  1.00  0.00     0.074 A 
ATOM     62  C   UNL A   1      43.666  27.212  30.813  1.00  0.00     0.031 C 
ATOM     63  C   UNL A   1      44.213  29.047  32.388  1.00  0.00     0.031 A 
BRANCH  50  64
ATOM     64  C   UNL A   1      42.236  34.530  34.434  1.00  0.00    -0.014 A 
ATOM     65  C   UNL A   1      41.804  34.557  35.771  1.00  0.00     0.009 A 
ATOM     66  C   UNL A   1      42.928  35.639  33.924  1.00  0.00     0.009 A 
ATOM     67  C   UNL A   1      42.026  35.683  36.565  1.00  0.00     0.001 A 
ATOM     68  C   UNL A   1      43.175  36.753  34.729  1.00  0.00     0.001 A 
ATOM     69  C   UNL A   1      42.715  36.779  36.045  1.00  0.00     0.000 A 
ENDBRANCH  50  64
BRANCH  51  70
ATOM     70  C   UNL A   1      40.348  26.944  28.238  1.00  0.00    -0.014 A 
ATOM     71  C   UNL A   1      39.598  25.837  28.665  1.00  0.00     0.009 A 
ATOM     72  C   UNL A   1      40.846  26.963  26.926  1.00  0.00     0.009 A 
ATOM     73  C   UNL A   1      39.377  24.759  27.806  1.00  0.00     0.001 A 
ATOM     74  C   UNL A   1      40.599  25.896  26.061  1.00  0.00     0.001 A 
ATOM     75  C   UNL A   1      39.874  24.790  26.504  1.00  0.00     0.000 A 
ENDBRANCH  51  70
BRANCH  63  76
ATOM     76  C   UNL A   1      45.416  28.255  32.815  1.00  0.00    -0.014 A 
ATOM     77  C   UNL A   1      46.665  28.439  32.204  1.00  0.00     0.009 A 
ATOM     78  C   UNL A   1      45.298  27.326  33.861  1.00  0.00     0.009 A 
ATOM     79  C   UNL A   1      47.765  27.678  32.606  1.00  0.00     0.001 A 
ATOM     80  C   UNL A   1      46.405  26.589  34.280  1.00  0.00     0.001 A 
ATOM     81  C   UNL A   1      47.635  26.757  33.645  1.00  0.00     0.000 A 
ENDBRANCH  63  76
ENDBRANCH  37  38
ENDBRANCH  29  32
ENDBRANCH  27  28
ENDBRANCH  26  27
ENDBRANCH  25  26
ENDBRANCH   1  25
TORSDOF 15
ENDMDL
MODEL 3
REMARK VINA RESULT:     -10.5      2.149      2.968
REMARK SMILES CC1(C)CSC[C@H](Nc2cc(C(=O)NCCCCCCNC(=O)c3ccc(-c4c5nc(c(-c6ccccc6)c6ccc([nH]6)c(-c6ccccc6)c6nc(c(-c7ccccc7)c7ccc4[nH]7)C=C6)C=C5)cc3)ccc2F)C1
REMARK SMILES IDX 17 1 16 2 15 3 14 4 12 5 13 6 11 8 9 9 10 10 74 11 73 12
REMARK SMILES IDX 75 13 72 14 8 15 7 17 1 18 2 19 3 20 4 21 76 22 5 23 6 24
REMARK SMILES IDX 18 25 19 26 20 27 21 28 22 29 23 31 24 32 25 33 71 34 26 35
REMARK SMILES IDX 70 36 27 37 28 38 29 39 64 40 30 41 69 42 63 43 65 44 31 45
REMARK SMILES IDX 68 46 62 47 61 48 32 50 54 51 39 52 53 53 40 54 43 55 52 56
REMARK SMILES IDX 66 57 41 58 42 59 51 61 67 62 44 63 33 64 34 65 38 66 35 67
REMARK SMILES IDX 37 68 36 69 55 70 56 71 60 72 57 73 59 74 58 75 45 76 46 77
REMARK SMILES IDX 50 78 47 79 49 80 48 81
REMARK H PARENT 14 7 8 16 21 30 65 49 43 60
REMARK Flexibility Score: inf
ROOT
ATOM      1  C   UNL A   1      32.677  30.025  27.234  1.00  0.00     0.002 C 
ENDROOT
BRANCH   1   2
ATOM      2  C   UNL A   1      32.800  28.501  27.099  1.00  0.00     0.021 C 
BRANCH   2   3
ATOM      3  C   UNL A   1      34.055  28.064  26.339  1.00  0.00     0.116 C 
BRANCH   3   4
ATOM      4  N   UNL A   1      34.047  28.637  25.011  1.00  0.00    -0.352 N 
ATOM      5  C   UNL A   1      33.452  28.275  23.834  1.00  0.00     0.251 C 
ATOM      6  O   UNL A   1      33.711  28.970  22.849  1.00  0.00    -0.269 OA
ATOM      7  H   UNL A   1      34.580  29.461  24.940  1.00  0.00     0.163 HD
BRANCH   5   8
ATOM      8  C   UNL A   1      32.474  27.158  23.689  1.00  0.00     0.042 A 
ATOM      9  C   UNL A   1      32.253  24.751  23.214  1.00  0.00     0.071 A 
ATOM     10  C   UNL A   1      33.037  25.891  23.440  1.00  0.00     0.042 A 
ATOM     11  C   UNL A   1      30.864  24.914  23.221  1.00  0.00     0.146 A 
ATOM     12  C   UNL A   1      30.281  26.143  23.523  1.00  0.00     0.042 A 
ATOM     13  F   UNL A   1      30.049  23.874  22.987  1.00  0.00    -0.205 F 
ATOM     14  C   UNL A   1      31.085  27.258  23.785  1.00  0.00     0.017 A 
BRANCH   9  15
ATOM     15  N   UNL A   1      32.907  23.561  22.917  1.00  0.00    -0.379 N 
ATOM     16  H   UNL A   1      33.268  23.421  22.011  1.00  0.00     0.160 HD
BRANCH  15  17
ATOM     17  C   UNL A   1      33.072  22.511  23.926  1.00  0.00     0.089 C 
ATOM     18  C   UNL A   1      34.501  21.631  26.585  1.00  0.00     0.012 C 
ATOM     19  C   UNL A   1      34.964  21.229  25.171  1.00  0.00    -0.024 C 
ATOM     20  C   UNL A   1      36.504  21.116  25.199  1.00  0.00     0.012 C 
ATOM     21  C   UNL A   1      34.393  19.856  24.762  1.00  0.00     0.076 C 
ATOM     22  C   UNL A   1      34.584  22.315  24.141  1.00  0.00     0.033 C 
ATOM     23  S   UNL A   1      32.586  19.819  24.573  1.00  0.00    -0.159 SA
ATOM     24  C   UNL A   1      32.397  21.219  23.432  1.00  0.00     0.094 C 
ENDBRANCH  15  17
ENDBRANCH   9  15
ENDBRANCH   5   8
ENDBRANCH   3   4
ENDBRANCH   2   3
ENDBRANCH   1   2
BRANCH   1  25
ATOM     25  C   UNL A   1      31.421  30.631  26.592  1.00  0.00     0.002 C 
BRANCH  25  26
ATOM     26  C   UNL A   1      31.311  32.154  26.696  1.00  0.00     0.021 C 
BRANCH  26  27
ATOM     27  C   UNL A   1      32.639  32.866  26.931  1.00  0.00     0.116 C 
BRANCH  27  28
ATOM     28  N   UNL A   1      32.455  34.130  27.623  1.00  0.00    -0.352 N 
ATOM     29  C   UNL A   1      33.139  34.645  28.694  1.00  0.00     0.251 C 
ATOM     30  H   UNL A   1      31.734  34.700  27.272  1.00  0.00     0.163 HD
ATOM     31  O   UNL A   1      32.697  35.621  29.292  1.00  0.00    -0.269 OA
BRANCH  29  32
ATOM     32  C   UNL A   1      34.408  34.027  29.137  1.00  0.00     0.039 A 
ATOM     33  C   UNL A   1      34.356  32.960  30.037  1.00  0.00     0.014 A 
ATOM     34  C   UNL A   1      35.642  34.527  28.713  1.00  0.00     0.014 A 
ATOM     35  C   UNL A   1      35.540  32.375  30.488  1.00  0.00     0.010 A 
ATOM     36  C   UNL A   1      36.821  33.901  29.111  1.00  0.00     0.010 A 
ATOM     37  C   UNL A   1      36.782  32.832  30.017  1.00  0.00    -0.014 A 
BRANCH  37  38
ATOM     38  C   UNL A   1      38.046  32.217  30.492  1.00  0.00     0.031 A 
ATOM     39  C   UNL A   1      38.737  32.757  31.715  1.00  0.00     0.074 A 
ATOM     40  C   UNL A   1      38.590  31.195  29.806  1.00  0.00     0.049 A 
ATOM     41  N   UNL A   1      39.848  32.355  32.280  1.00  0.00    -0.248 NA
ATOM     42  C   UNL A   1      38.113  33.914  32.375  1.00  0.00     0.031 C 
ATOM     43  C   UNL A   1      38.040  30.607  28.582  1.00  0.00     0.029 A 
ATOM     44  N   UNL A   1      39.728  30.467  30.044  1.00  0.00    -0.354 N 
ATOM     45  C   UNL A   1      40.062  33.217  33.348  1.00  0.00     0.074 A 
ATOM     46  C   UNL A   1      38.995  34.193  33.324  1.00  0.00     0.031 C 
ATOM     47  C   UNL A   1      38.826  29.590  28.194  1.00  0.00     0.029 A 
ATOM     48  C   UNL A   1      39.946  29.471  29.123  1.00  0.00     0.049 A 
ATOM     49  H   UNL A   1      40.332  30.642  30.801  1.00  0.00     0.167 HD
ATOM     50  C   UNL A   1      41.046  33.189  34.278  1.00  0.00     0.031 A 
ATOM     51  C   UNL A   1      40.932  28.559  29.042  1.00  0.00     0.031 A 
ATOM     52  C   UNL A   1      42.100  32.210  34.314  1.00  0.00     0.049 A 
ATOM     53  C   UNL A   1      42.003  28.538  30.096  1.00  0.00     0.074 A 
ATOM     54  C   UNL A   1      43.112  32.065  35.246  1.00  0.00     0.029 A 
ATOM     55  N   UNL A   1      42.274  31.208  33.374  1.00  0.00    -0.354 N 
ATOM     56  N   UNL A   1      42.153  29.319  31.138  1.00  0.00    -0.248 NA
ATOM     57  C   UNL A   1      43.031  27.495  29.971  1.00  0.00     0.031 C 
ATOM     58  C   UNL A   1      43.924  30.997  34.847  1.00  0.00     0.029 A 
ATOM     59  C   UNL A   1      43.386  30.448  33.694  1.00  0.00     0.049 A 
ATOM     60  H   UNL A   1      41.693  31.057  32.593  1.00  0.00     0.167 HD
ATOM     61  C   UNL A   1      43.273  28.843  31.808  1.00  0.00     0.074 A 
ATOM     62  C   UNL A   1      43.752  27.698  31.063  1.00  0.00     0.031 C 
ATOM     63  C   UNL A   1      43.851  29.313  32.941  1.00  0.00     0.031 A 
BRANCH  50  64
ATOM     64  C   UNL A   1      41.026  34.258  35.335  1.00  0.00    -0.014 A 
ATOM     65  C   UNL A   1      41.661  35.494  35.132  1.00  0.00     0.009 A 
ATOM     66  C   UNL A   1      40.343  34.037  36.542  1.00  0.00     0.009 A 
ATOM     67  C   UNL A   1      41.646  36.471  36.129  1.00  0.00     0.001 A 
ATOM     68  C   UNL A   1      40.306  35.027  37.526  1.00  0.00     0.001 A 
ATOM     69  C   UNL A   1      40.966  36.238  37.323  1.00  0.00     0.000 A 
ENDBRANCH  50  64
BRANCH  51  70
ATOM     70  C   UNL A   1      40.934  27.563  27.940  1.00  0.00    -0.014 A 
ATOM     71  C   UNL A   1      40.257  26.342  28.085  1.00  0.00     0.009 A 
ATOM     72  C   UNL A   1      41.617  27.825  26.742  1.00  0.00     0.009 A 
ATOM     73  C   UNL A   1      40.288  25.392  27.063  1.00  0.00     0.001 A 
ATOM     74  C   UNL A   1      41.622  26.884  25.711  1.00  0.00     0.001 A 
ATOM     75  C   UNL A   1      40.966  25.664  25.875  1.00  0.00     0.000 A 
ENDBRANCH  51  70
BRANCH  63  76
ATOM     76  C   UNL A   1      45.044  28.561  33.460  1.00  0.00    -0.014 A 
ATOM     77  C   UNL A   1      44.900  27.505  34.374  1.00  0.00     0.009 A 
ATOM     78  C   UNL A   1      46.328  28.901  33.007  1.00  0.00     0.009 A 
ATOM     79  C   UNL A   1      46.025  26.833  34.855  1.00  0.00     0.001 A 
ATOM     80  C   UNL A   1      47.447  28.208  33.468  1.00  0.00     0.001 A 
ATOM     81  C   UNL A   1      47.296  27.181  34.399  1.00  0.00     0.000 A 
ENDBRANCH  63  76
ENDBRANCH  37  38
ENDBRANCH  29  32
ENDBRANCH  27  28
ENDBRANCH  26  27
ENDBRANCH  25  26
ENDBRANCH   1  25
TORSDOF 15
ENDMDL
