MODEL 1
REMARK VINA RESULT:     -12.6      0.000      0.000
REMARK SMILES Cc1cc(C(=O)N[C@H](C(=O)NCCCCCCNC(=O)c2ccc(-c3c4nc(c(-c5ccccc5)c5ccc([nH]5)c(-c5ccccc5)c5nc(c(-c6ccccc6)c6ccc3[nH]6)C=C5)C=C4)cc2)c2c(C)n[nH]c2C)c2ccc(C)c(C)c2n1
REMARK SMILES IDX 14 1 13 2 12 3 11 4 9 5 10 6 8 8 7 9 5 10 6 11 4 13 1 14
REMARK SMILES IDX 2 15 3 16 84 17 83 18 76 19 81 20 77 21 79 22 82 23 78 24
REMARK SMILES IDX 80 25 69 26 70 27 74 28 71 29 72 30 73 31 75 32 15 34 16 35
REMARK SMILES IDX 17 36 18 37 19 38 20 40 21 41 22 42 68 43 23 44 67 45 24 46
REMARK SMILES IDX 25 47 26 48 61 49 27 50 66 51 60 52 62 53 28 54 65 55 59 56
REMARK SMILES IDX 58 57 29 59 51 60 36 61 50 62 37 63 40 64 49 65 63 66 38 67
REMARK SMILES IDX 39 68 48 70 64 71 41 72 30 73 31 74 35 75 32 76 34 77 33 78
REMARK SMILES IDX 52 79 53 80 57 81 54 82 56 83 55 84 42 85 43 86 47 87 44 88
REMARK SMILES IDX 46 89 45 90
REMARK H PARENT 11 7 7 12 73 33 18 39 62 58 40 69
REMARK Flexibility Score: inf
ROOT
ATOM      1  C   UNL A   1      37.339  21.924  25.189  1.00  0.00     0.002 C 
ENDROOT
BRANCH   1   2
ATOM      2  C   UNL A   1      36.326  22.713  26.024  1.00  0.00     0.021 C 
BRANCH   2   3
ATOM      3  C   UNL A   1      35.602  23.838  25.299  1.00  0.00     0.116 C 
BRANCH   3   4
ATOM      4  N   UNL A   1      35.316  23.547  23.915  1.00  0.00    -0.354 N 
ATOM      5  C   UNL A   1      34.179  23.762  23.201  1.00  0.00     0.247 C 
ATOM      6  O   UNL A   1      34.191  23.339  22.035  1.00  0.00    -0.272 OA
ATOM      7  H   UNL A   1      36.054  23.132  23.413  1.00  0.00     0.163 HD
BRANCH   5   8
ATOM      8  C   UNL A   1      32.864  24.374  23.767  1.00  0.00     0.206 C 
BRANCH   8   9
ATOM      9  N   UNL A   1      32.079  24.914  22.651  1.00  0.00    -0.336 N 
ATOM     10  C   UNL A   1      31.799  26.187  22.215  1.00  0.00     0.252 C 
ATOM     11  O   UNL A   1      31.379  26.306  21.065  1.00  0.00    -0.269 OA
ATOM     12  H   UNL A   1      31.666  24.216  22.096  1.00  0.00     0.165 HD
BRANCH  10  13
ATOM     13  C   UNL A   1      31.921  27.392  23.086  1.00  0.00     0.051 A 
ATOM     14  C   UNL A   1      34.166  28.606  25.841  1.00  0.00     0.067 C 
ATOM     15  C   UNL A   1      33.090  28.558  24.798  1.00  0.00     0.039 A 
ATOM     16  C   UNL A   1      33.075  27.565  23.844  1.00  0.00     0.038 A 
ATOM     17  N   UNL A   1      32.102  29.466  24.906  1.00  0.00    -0.253 NA
ATOM     18  C   UNL A   1      31.032  29.404  24.091  1.00  0.00     0.074 A 
ATOM     19  C   UNL A   1      30.866  28.348  23.170  1.00  0.00     0.013 A 
ATOM     20  C   UNL A   1      30.054  30.413  24.193  1.00  0.00    -0.022 A 
ATOM     21  C   UNL A   1      29.664  28.313  22.417  1.00  0.00     0.011 A 
ATOM     22  C   UNL A   1      28.866  30.359  23.432  1.00  0.00    -0.046 A 
ATOM     23  C   UNL A   1      30.314  31.545  25.162  1.00  0.00     0.047 C 
ATOM     24  C   UNL A   1      28.686  29.298  22.547  1.00  0.00     0.004 A 
ATOM     25  C   UNL A   1      27.801  31.417  23.526  1.00  0.00     0.044 C 
ENDBRANCH  10  13
ENDBRANCH   8   9
BRANCH   8  26
ATOM     26  C   UNL A   1      32.088  23.552  24.750  1.00  0.00     0.027 A 
ATOM     27  C   UNL A   1      31.337  24.094  25.843  1.00  0.00     0.065 A 
ATOM     28  C   UNL A   1      31.884  22.181  24.859  1.00  0.00     0.038 A 
ATOM     29  C   UNL A   1      31.234  25.513  26.276  1.00  0.00     0.069 C 
ATOM     30  N   UNL A   1      30.698  23.146  26.533  1.00  0.00    -0.180 NA
ATOM     31  N   UNL A   1      30.999  22.012  25.889  1.00  0.00    -0.282 N 
ATOM     32  C   UNL A   1      32.401  21.007  24.113  1.00  0.00     0.066 C 
ATOM     33  H   UNL A   1      30.618  21.137  26.133  1.00  0.00     0.190 HD
ENDBRANCH   8  26
ENDBRANCH   5   8
ENDBRANCH   3   4
ENDBRANCH   2   3
ENDBRANCH   1   2
BRANCH   1  34
ATOM     34  C   UNL A   1      36.989  20.473  24.842  1.00  0.00     0.002 C 
BRANCH  34  35
ATOM     35  C   UNL A   1      38.036  19.404  25.159  1.00  0.00     0.021 C 
BRANCH  35  36
ATOM     36  C   UNL A   1      39.362  19.896  25.723  1.00  0.00     0.116 C 
BRANCH  36  37
ATOM     37  N   UNL A   1      40.400  18.883  25.739  1.00  0.00    -0.352 N 
ATOM     38  C   UNL A   1      41.727  19.017  26.075  1.00  0.00     0.251 C 
ATOM     39  H   UNL A   1      40.118  17.978  25.475  1.00  0.00     0.163 HD
ATOM     40  O   UNL A   1      42.494  18.070  25.992  1.00  0.00    -0.269 OA
BRANCH  38  41
ATOM     41  C   UNL A   1      42.228  20.340  26.498  1.00  0.00     0.039 A 
ATOM     42  C   UNL A   1      42.780  21.179  25.529  1.00  0.00     0.014 A 
ATOM     43  C   UNL A   1      42.123  20.762  27.828  1.00  0.00     0.014 A 
ATOM     44  C   UNL A   1      43.176  22.469  25.880  1.00  0.00     0.010 A 
ATOM     45  C   UNL A   1      42.469  22.067  28.167  1.00  0.00     0.010 A 
ATOM     46  C   UNL A   1      43.000  22.930  27.196  1.00  0.00    -0.014 A 
BRANCH  46  47
ATOM     47  C   UNL A   1      43.389  24.311  27.560  1.00  0.00     0.031 A 
ATOM     48  C   UNL A   1      44.825  24.734  27.471  1.00  0.00     0.074 A 
ATOM     49  C   UNL A   1      42.448  25.183  27.973  1.00  0.00     0.049 A 
ATOM     50  N   UNL A   1      45.347  25.914  27.691  1.00  0.00    -0.248 NA
ATOM     51  C   UNL A   1      45.805  23.702  27.095  1.00  0.00     0.031 C 
ATOM     52  C   UNL A   1      41.023  24.881  28.124  1.00  0.00     0.029 A 
ATOM     53  N   UNL A   1      42.549  26.505  28.325  1.00  0.00    -0.354 N 
ATOM     54  C   UNL A   1      46.710  25.765  27.478  1.00  0.00     0.074 A 
ATOM     55  C   UNL A   1      46.945  24.375  27.159  1.00  0.00     0.031 C 
ATOM     56  C   UNL A   1      40.377  25.998  28.495  1.00  0.00     0.029 A 
ATOM     57  C   UNL A   1      41.342  27.087  28.630  1.00  0.00     0.049 A 
ATOM     58  H   UNL A   1      43.404  26.992  28.355  1.00  0.00     0.167 HD
ATOM     59  C   UNL A   1      47.675  26.710  27.517  1.00  0.00     0.031 A 
ATOM     60  C   UNL A   1      41.043  28.356  28.965  1.00  0.00     0.031 A 
ATOM     61  C   UNL A   1      47.440  28.095  27.812  1.00  0.00     0.049 A 
ATOM     62  C   UNL A   1      42.138  29.381  29.036  1.00  0.00     0.074 A 
ATOM     63  C   UNL A   1      48.351  29.137  27.810  1.00  0.00     0.029 A 
ATOM     64  N   UNL A   1      46.213  28.629  28.161  1.00  0.00    -0.354 N 
ATOM     65  N   UNL A   1      43.413  29.238  28.769  1.00  0.00    -0.248 NA
ATOM     66  C   UNL A   1      41.758  30.741  29.449  1.00  0.00     0.031 C 
ATOM     67  C   UNL A   1      47.681  30.297  28.202  1.00  0.00     0.029 A 
ATOM     68  C   UNL A   1      46.346  29.983  28.408  1.00  0.00     0.049 A 
ATOM     69  H   UNL A   1      45.371  28.122  28.224  1.00  0.00     0.167 HD
ATOM     70  C   UNL A   1      43.985  30.488  28.964  1.00  0.00     0.074 A 
ATOM     71  C   UNL A   1      42.918  31.381  29.369  1.00  0.00     0.031 C 
ATOM     72  C   UNL A   1      45.278  30.858  28.814  1.00  0.00     0.031 A 
BRANCH  59  73
ATOM     73  C   UNL A   1      49.081  26.285  27.214  1.00  0.00    -0.014 A 
ATOM     74  C   UNL A   1      49.555  26.261  25.895  1.00  0.00     0.009 A 
ATOM     75  C   UNL A   1      49.961  25.983  28.264  1.00  0.00     0.009 A 
ATOM     76  C   UNL A   1      50.884  25.928  25.630  1.00  0.00     0.001 A 
ATOM     77  C   UNL A   1      51.295  25.669  27.998  1.00  0.00     0.001 A 
ATOM     78  C   UNL A   1      51.755  25.640  26.681  1.00  0.00     0.000 A 
ENDBRANCH  59  73
BRANCH  60  79
ATOM     79  C   UNL A   1      39.628  28.729  29.212  1.00  0.00    -0.014 A 
ATOM     80  C   UNL A   1      38.824  29.180  28.154  1.00  0.00     0.009 A 
ATOM     81  C   UNL A   1      39.060  28.586  30.487  1.00  0.00     0.009 A 
ATOM     82  C   UNL A   1      37.478  29.481  28.368  1.00  0.00     0.001 A 
ATOM     83  C   UNL A   1      37.708  28.872  30.694  1.00  0.00     0.001 A 
ATOM     84  C   UNL A   1      36.919  29.321  29.636  1.00  0.00     0.000 A 
ENDBRANCH  60  79
BRANCH  72  85
ATOM     85  C   UNL A   1      45.644  32.287  29.081  1.00  0.00    -0.014 A 
ATOM     86  C   UNL A   1      46.128  32.674  30.338  1.00  0.00     0.009 A 
ATOM     87  C   UNL A   1      45.651  33.213  28.026  1.00  0.00     0.009 A 
ATOM     88  C   UNL A   1      46.624  33.964  30.531  1.00  0.00     0.001 A 
ATOM     89  C   UNL A   1      46.163  34.496  28.219  1.00  0.00     0.001 A 
ATOM     90  C   UNL A   1      46.652  34.869  29.470  1.00  0.00     0.000 A 
ENDBRANCH  72  85
ENDBRANCH  46  47
ENDBRANCH  38  41
ENDBRANCH  36  37
ENDBRANCH  35  36
ENDBRANCH  34  35
ENDBRANCH   1  34
TORSDOF 16
ENDMDL
MODEL 2
REMARK VINA RESULT:     -12.6      4.098      9.704
REMARK SMILES Cc1cc(C(=O)N[C@H](C(=O)NCCCCCCNC(=O)c2ccc(-c3c4nc(c(-c5ccccc5)c5ccc([nH]5)c(-c5ccccc5)c5nc(c(-c6ccccc6)c6ccc3[nH]6)C=C5)C=C4)cc2)c2c(C)n[nH]c2C)c2ccc(C)c(C)c2n1
REMARK SMILES IDX 14 1 13 2 12 3 11 4 9 5 10 6 8 8 7 9 5 10 6 11 4 13 1 14
REMARK SMILES IDX 2 15 3 16 84 17 83 18 76 19 81 20 77 21 79 22 82 23 78 24
REMARK SMILES IDX 80 25 69 26 70 27 74 28 71 29 72 30 73 31 75 32 15 34 16 35
REMARK SMILES IDX 17 36 18 37 19 38 20 40 21 41 22 42 68 43 23 44 67 45 24 46
REMARK SMILES IDX 25 47 26 48 61 49 27 50 66 51 60 52 62 53 28 54 65 55 59 56
REMARK SMILES IDX 58 57 29 59 51 60 36 61 50 62 37 63 40 64 49 65 63 66 38 67
REMARK SMILES IDX 39 68 48 70 64 71 41 72 30 73 31 74 35 75 32 76 34 77 33 78
REMARK SMILES IDX 52 79 53 80 57 81 54 82 56 83 55 84 42 85 43 86 47 87 44 88
REMARK SMILES IDX 46 89 45 90
REMARK H PARENT 11 7 7 12 73 33 18 39 62 58 40 69
REMARK Flexibility Score: inf
ROOT
ATOM      1  C   UNL A   1      34.625  29.300  27.416  1.00  0.00     0.002 C 
ENDROOT
BRANCH   1   2
ATOM      2  C   UNL A   1      34.020  28.854  26.082  1.00  0.00     0.021 C 
BRANCH   2   3
ATOM      3  C   UNL A   1      33.658  27.379  25.977  1.00  0.00     0.116 C 
BRANCH   3   4
ATOM      4  N   UNL A   1      32.263  27.106  26.229  1.00  0.00    -0.354 N 
ATOM      5  C   UNL A   1      31.472  26.114  25.738  1.00  0.00     0.247 C 
ATOM      6  O   UNL A   1      30.279  26.167  26.073  1.00  0.00    -0.272 OA
ATOM      7  H   UNL A   1      31.819  27.728  26.849  1.00  0.00     0.163 HD
BRANCH   5   8
ATOM      8  C   UNL A   1      31.922  25.025  24.721  1.00  0.00     0.206 C 
BRANCH   8   9
ATOM      9  N   UNL A   1      31.135  23.809  24.956  1.00  0.00    -0.336 N 
ATOM     10  C   UNL A   1      31.432  22.567  25.462  1.00  0.00     0.252 C 
ATOM     11  O   UNL A   1      30.487  21.870  25.831  1.00  0.00    -0.269 OA
ATOM     12  H   UNL A   1      30.191  23.905  24.696  1.00  0.00     0.165 HD
BRANCH  10  13
ATOM     13  C   UNL A   1      32.819  22.021  25.518  1.00  0.00     0.051 A 
ATOM     14  C   UNL A   1      36.288  23.323  26.126  1.00  0.00     0.067 C 
ATOM     15  C   UNL A   1      35.141  22.391  25.879  1.00  0.00     0.039 A 
ATOM     16  C   UNL A   1      33.840  22.818  26.027  1.00  0.00     0.038 A 
ATOM     17  N   UNL A   1      35.446  21.164  25.416  1.00  0.00    -0.253 NA
ATOM     18  C   UNL A   1      34.468  20.317  25.041  1.00  0.00     0.074 A 
ATOM     19  C   UNL A   1      33.113  20.711  25.035  1.00  0.00     0.013 A 
ATOM     20  C   UNL A   1      34.829  19.021  24.625  1.00  0.00    -0.022 A 
ATOM     21  C   UNL A   1      32.161  19.786  24.538  1.00  0.00     0.011 A 
ATOM     22  C   UNL A   1      33.863  18.115  24.137  1.00  0.00    -0.046 A 
ATOM     23  C   UNL A   1      36.292  18.642  24.704  1.00  0.00     0.047 C 
ATOM     24  C   UNL A   1      32.529  18.516  24.098  1.00  0.00     0.004 A 
ATOM     25  C   UNL A   1      34.220  16.727  23.679  1.00  0.00     0.044 C 
ENDBRANCH  10  13
ENDBRANCH   8   9
BRANCH   8  26
ATOM     26  C   UNL A   1      32.049  25.432  23.285  1.00  0.00     0.027 A 
ATOM     27  C   UNL A   1      32.932  24.810  22.343  1.00  0.00     0.065 A 
ATOM     28  C   UNL A   1      31.405  26.410  22.536  1.00  0.00     0.038 A 
ATOM     29  C   UNL A   1      33.930  23.734  22.588  1.00  0.00     0.069 C 
ATOM     30  N   UNL A   1      32.810  25.331  21.120  1.00  0.00    -0.180 NA
ATOM     31  N   UNL A   1      31.848  26.252  21.251  1.00  0.00    -0.282 N 
ATOM     32  C   UNL A   1      30.418  27.466  22.866  1.00  0.00     0.066 C 
ATOM     33  H   UNL A   1      31.491  26.769  20.491  1.00  0.00     0.190 HD
ENDBRANCH   8  26
ENDBRANCH   5   8
ENDBRANCH   3   4
ENDBRANCH   2   3
ENDBRANCH   1   2
BRANCH   1  34
ATOM     34  C   UNL A   1      34.554  30.791  27.759  1.00  0.00     0.002 C 
BRANCH  34  35
ATOM     35  C   UNL A   1      33.193  31.477  27.626  1.00  0.00     0.021 C 
BRANCH  35  36
ATOM     36  C   UNL A   1      33.192  32.879  27.033  1.00  0.00     0.116 C 
BRANCH  36  37
ATOM     37  N   UNL A   1      32.680  33.894  27.934  1.00  0.00    -0.352 N 
ATOM     38  C   UNL A   1      33.252  34.394  29.080  1.00  0.00     0.251 C 
ATOM     39  H   UNL A   1      31.805  34.276  27.694  1.00  0.00     0.163 HD
ATOM     40  O   UNL A   1      32.667  35.221  29.763  1.00  0.00    -0.269 OA
BRANCH  38  41
ATOM     41  C   UNL A   1      34.572  33.886  29.502  1.00  0.00     0.039 A 
ATOM     42  C   UNL A   1      34.630  33.037  30.609  1.00  0.00     0.014 A 
ATOM     43  C   UNL A   1      35.734  34.213  28.794  1.00  0.00     0.014 A 
ATOM     44  C   UNL A   1      35.849  32.466  30.975  1.00  0.00     0.010 A 
ATOM     45  C   UNL A   1      36.939  33.601  29.128  1.00  0.00     0.010 A 
ATOM     46  C   UNL A   1      37.006  32.725  30.221  1.00  0.00    -0.014 A 
BRANCH  46  47
ATOM     47  C   UNL A   1      38.292  32.091  30.590  1.00  0.00     0.031 A 
ATOM     48  C   UNL A   1      39.147  32.698  31.663  1.00  0.00     0.074 A 
ATOM     49  C   UNL A   1      38.690  30.971  29.957  1.00  0.00     0.049 A 
ATOM     50  N   UNL A   1      40.273  32.256  32.161  1.00  0.00    -0.248 NA
ATOM     51  C   UNL A   1      38.687  33.968  32.247  1.00  0.00     0.031 C 
ATOM     52  C   UNL A   1      37.957  30.302  28.880  1.00  0.00     0.029 A 
ATOM     53  N   UNL A   1      39.803  30.189  30.139  1.00  0.00    -0.354 N 
ATOM     54  C   UNL A   1      40.651  33.189  33.116  1.00  0.00     0.074 A 
ATOM     55  C   UNL A   1      39.666  34.246  33.097  1.00  0.00     0.031 C 
ATOM     56  C   UNL A   1      38.618  29.186  28.529  1.00  0.00     0.029 A 
ATOM     57  C   UNL A   1      39.830  29.074  29.337  1.00  0.00     0.049 A 
ATOM     58  H   UNL A   1      40.515  30.406  30.784  1.00  0.00     0.167 HD
ATOM     59  C   UNL A   1      41.711  33.153  33.954  1.00  0.00     0.031 A 
ATOM     60  C   UNL A   1      40.720  28.066  29.270  1.00  0.00     0.031 A 
ATOM     61  C   UNL A   1      42.679  32.094  33.989  1.00  0.00     0.049 A 
ATOM     62  C   UNL A   1      41.909  28.065  30.188  1.00  0.00     0.074 A 
ATOM     63  C   UNL A   1      43.751  31.942  34.851  1.00  0.00     0.029 A 
ATOM     64  N   UNL A   1      42.693  31.010  33.128  1.00  0.00    -0.354 N 
ATOM     65  N   UNL A   1      42.218  28.923  31.129  1.00  0.00    -0.248 NA
ATOM     66  C   UNL A   1      42.869  26.962  30.040  1.00  0.00     0.031 C 
ATOM     67  C   UNL A   1      44.442  30.786  34.482  1.00  0.00     0.029 A 
ATOM     68  C   UNL A   1      43.775  30.199  33.417  1.00  0.00     0.049 A 
ATOM     69  H   UNL A   1      42.033  30.842  32.417  1.00  0.00     0.167 HD
ATOM     70  C   UNL A   1      43.395  28.456  31.697  1.00  0.00     0.074 A 
ATOM     71  C   UNL A   1      43.746  27.237  30.998  1.00  0.00     0.031 C 
ATOM     72  C   UNL A   1      44.114  28.991  32.711  1.00  0.00     0.031 A 
BRANCH  59  73
ATOM     73  C   UNL A   1      41.875  34.287  34.921  1.00  0.00    -0.014 A 
ATOM     74  C   UNL A   1      42.525  35.469  34.536  1.00  0.00     0.009 A 
ATOM     75  C   UNL A   1      41.304  34.204  36.200  1.00  0.00     0.009 A 
ATOM     76  C   UNL A   1      42.613  36.544  35.422  1.00  0.00     0.001 A 
ATOM     77  C   UNL A   1      41.377  35.287  37.076  1.00  0.00     0.001 A 
ATOM     78  C   UNL A   1      42.033  36.455  36.688  1.00  0.00     0.000 A 
ENDBRANCH  59  73
BRANCH  60  79
ATOM     79  C   UNL A   1      40.483  26.948  28.323  1.00  0.00    -0.014 A 
ATOM     80  C   UNL A   1      39.651  25.879  28.689  1.00  0.00     0.009 A 
ATOM     81  C   UNL A   1      41.040  26.969  27.035  1.00  0.00     0.009 A 
ATOM     82  C   UNL A   1      39.382  24.852  27.783  1.00  0.00     0.001 A 
ATOM     83  C   UNL A   1      40.754  25.947  26.126  1.00  0.00     0.001 A 
ATOM     84  C   UNL A   1      39.927  24.890  26.501  1.00  0.00     0.000 A 
ENDBRANCH  60  79
BRANCH  72  85
ATOM     85  C   UNL A   1      45.360  28.283  33.150  1.00  0.00    -0.014 A 
ATOM     86  C   UNL A   1      45.295  27.240  34.084  1.00  0.00     0.009 A 
ATOM     87  C   UNL A   1      46.579  28.557  32.509  1.00  0.00     0.009 A 
ATOM     88  C   UNL A   1      46.428  26.476  34.362  1.00  0.00     0.001 A 
ATOM     89  C   UNL A   1      47.706  27.779  32.777  1.00  0.00     0.001 A 
ATOM     90  C   UNL A   1      47.628  26.738  33.700  1.00  0.00     0.000 A 
ENDBRANCH  72  85
ENDBRANCH  46  47
ENDBRANCH  38  41
ENDBRANCH  36  37
ENDBRANCH  35  36
ENDBRANCH  34  35
ENDBRANCH   1  34
TORSDOF 16
ENDMDL
MODEL 3
REMARK VINA RESULT:     -12.1      0.918      5.638
REMARK SMILES Cc1cc(C(=O)N[C@H](C(=O)NCCCCCCNC(=O)c2ccc(-c3c4nc(c(-c5ccccc5)c5ccc([nH]5)c(-c5ccccc5)c5nc(c(-c6ccccc6)c6ccc3[nH]6)C=C5)C=C4)cc2)c2c(C)n[nH]c2C)c2ccc(C)c(C)c2n1
REMARK SMILES IDX 14 1 13 2 12 3 11 4 9 5 10 6 8 8 7 9 5 10 6 11 4 13 1 14
REMARK SMILES IDX 2 15 3 16 84 17 83 18 76 19 81 20 77 21 79 22 82 23 78 24
REMARK SMILES IDX 80 25 69 26 70 27 74 28 71 29 72 30 73 31 75 32 15 34 16 35
REMARK SMILES IDX 17 36 18 37 19 38 20 40 21 41 22 42 68 43 23 44 67 45 24 46
REMARK SMILES IDX 25 47 26 48 61 49 27 50 66 51 60 52 62 53 28 54 65 55 59 56
REMARK SMILES IDX 58 57 29 59 51 60 36 61 50 62 37 63 40 64 49 65 63 66 38 67
REMARK SMILES IDX 39 68 48 70 64 71 41 72 30 73 31 74 35 75 32 76 34 77 33 78
REMARK SMILES IDX 52 79 53 80 57 81 54 82 56 83 55 84 42 85 43 86 47 87 44 88
REMARK SMILES IDX 46 89 45 90
REMARK H PARENT 11 7 7 12 73 33 18 39 62 58 40 69
REMARK Flexibility Score: inf
ROOT
ATOM      1  C   UNL A   1      37.309  21.551  24.807  1.00  0.00     0.002 C 
ENDROOT
BRANCH   1   2
ATOM      2  C   UNL A   1      36.336  22.217  25.785  1.00  0.00     0.021 C 
BRANCH   2   3
ATOM      3  C   UNL A   1      35.539  23.390  25.232  1.00  0.00     0.116 C 
BRANCH   3   4
ATOM      4  N   UNL A   1      35.275  23.296  23.816  1.00  0.00    -0.354 N 
ATOM      5  C   UNL A   1      34.170  23.664  23.114  1.00  0.00     0.247 C 
ATOM      6  O   UNL A   1      34.192  23.395  21.903  1.00  0.00    -0.272 OA
ATOM      7  H   UNL A   1      36.004  22.909  23.279  1.00  0.00     0.163 HD
BRANCH   5   8
ATOM      8  C   UNL A   1      32.875  24.269  23.729  1.00  0.00     0.206 C 
BRANCH   8   9
ATOM      9  N   UNL A   1      32.073  24.857  22.651  1.00  0.00    -0.336 N 
ATOM     10  C   UNL A   1      31.802  26.147  22.262  1.00  0.00     0.252 C 
ATOM     11  O   UNL A   1      31.358  26.309  21.126  1.00  0.00    -0.269 OA
ATOM     12  H   UNL A   1      31.636  24.183  22.083  1.00  0.00     0.165 HD
BRANCH  10  13
ATOM     13  C   UNL A   1      31.964  27.321  23.167  1.00  0.00     0.051 A 
ATOM     14  C   UNL A   1      34.188  28.341  26.015  1.00  0.00     0.067 C 
ATOM     15  C   UNL A   1      33.143  28.379  24.942  1.00  0.00     0.039 A 
ATOM     16  C   UNL A   1      33.102  27.412  23.962  1.00  0.00     0.038 A 
ATOM     17  N   UNL A   1      32.203  29.337  25.046  1.00  0.00    -0.253 NA
ATOM     18  C   UNL A   1      31.155  29.353  24.199  1.00  0.00     0.074 A 
ATOM     19  C   UNL A   1      30.959  28.331  23.246  1.00  0.00     0.013 A 
ATOM     20  C   UNL A   1      30.230  30.411  24.301  1.00  0.00    -0.022 A 
ATOM     21  C   UNL A   1      29.780  28.381  22.460  1.00  0.00     0.011 A 
ATOM     22  C   UNL A   1      29.064  30.441  23.506  1.00  0.00    -0.046 A 
ATOM     23  C   UNL A   1      30.522  31.503  25.307  1.00  0.00     0.047 C 
ATOM     24  C   UNL A   1      28.854  29.414  22.588  1.00  0.00     0.004 A 
ATOM     25  C   UNL A   1      28.056  31.553  23.598  1.00  0.00     0.044 C 
ENDBRANCH  10  13
ENDBRANCH   8   9
BRANCH   8  26
ATOM     26  C   UNL A   1      32.110  23.421  24.699  1.00  0.00     0.027 A 
ATOM     27  C   UNL A   1      31.266  23.938  25.736  1.00  0.00     0.065 A 
ATOM     28  C   UNL A   1      32.000  22.043  24.843  1.00  0.00     0.038 A 
ATOM     29  C   UNL A   1      31.039  25.358  26.116  1.00  0.00     0.069 C 
ATOM     30  N   UNL A   1      30.662  22.966  26.424  1.00  0.00    -0.180 NA
ATOM     31  N   UNL A   1      31.077  21.839  25.833  1.00  0.00    -0.282 N 
ATOM     32  C   UNL A   1      32.638  20.889  24.163  1.00  0.00     0.066 C 
ATOM     33  H   UNL A   1      30.748  20.946  26.087  1.00  0.00     0.190 HD
ENDBRANCH   8  26
ENDBRANCH   5   8
ENDBRANCH   3   4
ENDBRANCH   2   3
ENDBRANCH   1   2
BRANCH   1  34
ATOM     34  C   UNL A   1      37.191  20.035  24.618  1.00  0.00     0.002 C 
BRANCH  34  35
ATOM     35  C   UNL A   1      38.283  19.164  25.240  1.00  0.00     0.021 C 
BRANCH  35  36
ATOM     36  C   UNL A   1      39.475  19.894  25.844  1.00  0.00     0.116 C 
BRANCH  36  37
ATOM     37  N   UNL A   1      40.654  19.062  25.994  1.00  0.00    -0.352 N 
ATOM     38  C   UNL A   1      41.921  19.428  26.383  1.00  0.00     0.251 C 
ATOM     39  H   UNL A   1      40.531  18.107  25.789  1.00  0.00     0.163 HD
ATOM     40  O   UNL A   1      42.828  18.611  26.415  1.00  0.00    -0.269 OA
BRANCH  38  41
ATOM     41  C   UNL A   1      42.186  20.841  26.723  1.00  0.00     0.039 A 
ATOM     42  C   UNL A   1      41.992  21.251  28.044  1.00  0.00     0.014 A 
ATOM     43  C   UNL A   1      42.653  21.741  25.760  1.00  0.00     0.014 A 
ATOM     44  C   UNL A   1      42.322  22.553  28.415  1.00  0.00     0.010 A 
ATOM     45  C   UNL A   1      43.033  23.024  26.143  1.00  0.00     0.010 A 
ATOM     46  C   UNL A   1      42.869  23.441  27.472  1.00  0.00    -0.014 A 
BRANCH  46  47
ATOM     47  C   UNL A   1      43.252  24.812  27.876  1.00  0.00     0.031 A 
ATOM     48  C   UNL A   1      42.193  25.850  28.107  1.00  0.00     0.074 A 
ATOM     49  C   UNL A   1      44.553  25.124  28.032  1.00  0.00     0.049 A 
ATOM     50  N   UNL A   1      42.330  27.084  28.520  1.00  0.00    -0.248 NA
ATOM     51  C   UNL A   1      40.801  25.457  27.833  1.00  0.00     0.031 C 
ATOM     52  C   UNL A   1      45.674  24.208  27.812  1.00  0.00     0.029 A 
ATOM     53  N   UNL A   1      45.150  26.294  28.428  1.00  0.00    -0.354 N 
ATOM     54  C   UNL A   1      41.048  27.611  28.557  1.00  0.00     0.074 A 
ATOM     55  C   UNL A   1      40.149  26.584  28.081  1.00  0.00     0.031 C 
ATOM     56  C   UNL A   1      46.820  24.838  28.119  1.00  0.00     0.029 A 
ATOM     57  C   UNL A   1      46.517  26.206  28.534  1.00  0.00     0.049 A 
ATOM     58  H   UNL A   1      44.647  27.119  28.619  1.00  0.00     0.167 HD
ATOM     59  C   UNL A   1      40.652  28.833  28.978  1.00  0.00     0.031 A 
ATOM     60  C   UNL A   1      47.423  27.117  28.936  1.00  0.00     0.031 A 
ATOM     61  C   UNL A   1      41.542  29.845  29.471  1.00  0.00     0.049 A 
ATOM     62  C   UNL A   1      46.964  28.480  29.366  1.00  0.00     0.074 A 
ATOM     63  C   UNL A   1      41.222  31.091  29.981  1.00  0.00     0.029 A 
ATOM     64  N   UNL A   1      42.920  29.730  29.516  1.00  0.00    -0.354 N 
ATOM     65  N   UNL A   1      45.740  28.942  29.456  1.00  0.00    -0.248 NA
ATOM     66  C   UNL A   1      48.002  29.447  29.753  1.00  0.00     0.031 C 
ATOM     67  C   UNL A   1      42.413  31.749  30.294  1.00  0.00     0.029 A 
ATOM     68  C   UNL A   1      43.469  30.896  30.016  1.00  0.00     0.049 A 
ATOM     69  H   UNL A   1      43.433  28.938  29.234  1.00  0.00     0.167 HD
ATOM     70  C   UNL A   1      45.858  30.243  29.924  1.00  0.00     0.074 A 
ATOM     71  C   UNL A   1      47.273  30.500  30.104  1.00  0.00     0.031 C 
ATOM     72  C   UNL A   1      44.878  31.139  30.186  1.00  0.00     0.031 A 
BRANCH  59  73
ATOM     73  C   UNL A   1      39.186  29.142  28.942  1.00  0.00    -0.014 A 
ATOM     74  C   UNL A   1      38.591  29.664  27.784  1.00  0.00     0.009 A 
ATOM     75  C   UNL A   1      38.379  28.834  30.048  1.00  0.00     0.009 A 
ATOM     76  C   UNL A   1      37.214  29.885  27.739  1.00  0.00     0.001 A 
ATOM     77  C   UNL A   1      37.000  29.039  29.993  1.00  0.00     0.001 A 
ATOM     78  C   UNL A   1      36.419  29.566  28.839  1.00  0.00     0.000 A 
ENDBRANCH  59  73
BRANCH  60  79
ATOM     79  C   UNL A   1      48.858  26.740  28.991  1.00  0.00    -0.014 A 
ATOM     80  C   UNL A   1      49.674  26.905  27.862  1.00  0.00     0.009 A 
ATOM     81  C   UNL A   1      49.430  26.268  30.183  1.00  0.00     0.009 A 
ATOM     82  C   UNL A   1      51.036  26.604  27.924  1.00  0.00     0.001 A 
ATOM     83  C   UNL A   1      50.796  25.983  30.246  1.00  0.00     0.001 A 
ATOM     84  C   UNL A   1      51.597  26.150  29.117  1.00  0.00     0.000 A 
ENDBRANCH  60  79
BRANCH  72  85
ATOM     85  C   UNL A   1      45.271  32.492  30.698  1.00  0.00    -0.014 A 
ATOM     86  C   UNL A   1      45.413  33.572  29.816  1.00  0.00     0.009 A 
ATOM     87  C   UNL A   1      45.344  32.719  32.081  1.00  0.00     0.009 A 
ATOM     88  C   UNL A   1      45.612  34.861  30.313  1.00  0.00     0.001 A 
ATOM     89  C   UNL A   1      45.526  34.011  32.574  1.00  0.00     0.001 A 
ATOM     90  C   UNL A   1      45.657  35.081  31.689  1.00  0.00     0.000 A 
ENDBRANCH  72  85
ENDBRANCH  46  47
ENDBRANCH  38  41
ENDBRANCH  36  37
ENDBRANCH  35  36
ENDBRANCH  34  35
ENDBRANCH   1  34
TORSDOF 16
ENDMDL
