MODEL 1
REMARK VINA RESULT:     -11.7      0.000      0.000
REMARK SMILES CC1=C(C)C[C@H](C(=O)N[C@@H](C)CCc2ccccc2)[C@@H](C(=O)NCCCCCCNC(=O)c2ccc(-c3c4nc(c(-c5ccccc5)c5ccc([nH]5)c(-c5ccccc5)c5nc(c(-c6ccccc6)c6ccc3[nH]6)C=C5)C=C4)cc2)C1
REMARK SMILES IDX 25 1 24 2 23 3 21 4 22 5 20 7 1 8 2 9 3 10 81 11 4 12 5 13
REMARK SMILES IDX 6 14 7 15 8 16 9 17 10 19 11 20 12 21 13 22 14 23 15 24
REMARK SMILES IDX 19 25 16 26 18 27 17 28 26 29 27 30 28 31 29 32 30 33 31 34
REMARK SMILES IDX 32 36 33 37 34 38 80 39 35 40 79 41 36 42 37 43 38 44 73 45
REMARK SMILES IDX 39 46 78 47 72 48 74 49 40 50 77 51 71 52 70 53 41 55 63 56
REMARK SMILES IDX 48 57 62 58 49 59 52 60 61 61 75 62 50 63 51 64 60 66 76 67
REMARK SMILES IDX 53 68 42 69 43 70 47 71 44 72 46 73 45 74 64 75 65 76 69 77
REMARK SMILES IDX 66 78 68 79 67 80 54 81 55 82 59 83 56 84 58 85 57 86
REMARK H PARENT 23 6 9 18 30 35 74 54 52 65
REMARK Flexibility Score: inf
ROOT
ATOM      1  C   UNL A   1      36.481  22.892  23.543  1.00  0.00     0.021 C 
ENDROOT
BRANCH   1   2
ATOM      2  C   UNL A   1      35.078  23.257  24.035  1.00  0.00     0.116 C 
BRANCH   2   3
ATOM      3  N   UNL A   1      34.414  24.162  23.111  1.00  0.00    -0.356 N 
ATOM      4  C   UNL A   1      33.413  25.074  23.277  1.00  0.00     0.224 C 
ATOM      5  O   UNL A   1      33.045  25.691  22.275  1.00  0.00    -0.275 OA
ATOM      6  H   UNL A   1      34.752  24.107  22.188  1.00  0.00     0.163 HD
BRANCH   4   7
ATOM      7  C   UNL A   1      32.782  25.336  24.650  1.00  0.00     0.095 C 
ATOM      8  C   UNL A   1      31.043  28.814  24.177  1.00  0.00     0.039 C 
ATOM      9  C   UNL A   1      31.109  27.319  24.372  1.00  0.00    -0.074 C 
ATOM     10  C   UNL A   1      30.072  26.472  24.209  1.00  0.00    -0.074 C 
ATOM     11  C   UNL A   1      32.485  26.836  24.773  1.00  0.00     0.045 C 
ATOM     12  C   UNL A   1      28.655  26.875  23.876  1.00  0.00     0.039 C 
ATOM     13  C   UNL A   1      30.229  24.975  24.318  1.00  0.00     0.045 C 
ATOM     14  C   UNL A   1      31.569  24.413  24.822  1.00  0.00     0.095 C 
BRANCH  14  15
ATOM     15  C   UNL A   1      31.393  23.811  26.218  1.00  0.00     0.224 C 
ATOM     16  O   UNL A   1      30.934  24.444  27.167  1.00  0.00    -0.275 OA
ATOM     17  N   UNL A   1      31.676  22.479  26.413  1.00  0.00    -0.353 N 
ATOM     18  H   UNL A   1      31.081  21.984  27.021  1.00  0.00     0.163 HD
BRANCH  17  19
ATOM     19  C   UNL A   1      32.768  21.730  25.808  1.00  0.00     0.079 C 
ATOM     20  C   UNL A   1      33.672  21.274  26.968  1.00  0.00     0.031 C 
BRANCH  19  21
ATOM     21  C   UNL A   1      32.338  20.499  24.986  1.00  0.00     0.029 C 
BRANCH  21  22
ATOM     22  C   UNL A   1      33.441  19.686  24.293  1.00  0.00     0.037 C 
BRANCH  22  23
ATOM     23  C   UNL A   1      33.540  18.227  24.662  1.00  0.00    -0.048 A 
ATOM     24  C   UNL A   1      34.663  17.490  24.267  1.00  0.00     0.004 A 
ATOM     25  C   UNL A   1      32.528  17.569  25.373  1.00  0.00     0.004 A 
ATOM     26  C   UNL A   1      34.816  16.155  24.644  1.00  0.00     0.000 A 
ATOM     27  C   UNL A   1      32.665  16.221  25.724  1.00  0.00     0.000 A 
ATOM     28  C   UNL A   1      33.819  15.520  25.376  1.00  0.00     0.000 A 
ENDBRANCH  22  23
ENDBRANCH  21  22
ENDBRANCH  19  21
ENDBRANCH  17  19
ENDBRANCH  14  15
ENDBRANCH   4   7
ENDBRANCH   2   3
ENDBRANCH   1   2
BRANCH   1  29
ATOM     29  C   UNL A   1      37.350  22.096  24.516  1.00  0.00     0.002 C 
BRANCH  29  30
ATOM     30  C   UNL A   1      36.998  20.609  24.643  1.00  0.00     0.002 C 
BRANCH  30  31
ATOM     31  C   UNL A   1      38.177  19.638  24.787  1.00  0.00     0.021 C 
BRANCH  31  32
ATOM     32  C   UNL A   1      39.040  19.816  26.035  1.00  0.00     0.116 C 
BRANCH  32  33
ATOM     33  N   UNL A   1      40.292  19.081  25.954  1.00  0.00    -0.352 N 
ATOM     34  C   UNL A   1      41.592  19.504  26.075  1.00  0.00     0.251 C 
ATOM     35  H   UNL A   1      40.191  18.118  25.782  1.00  0.00     0.163 HD
ATOM     36  O   UNL A   1      42.503  18.742  25.766  1.00  0.00    -0.269 OA
BRANCH  34  37
ATOM     37  C   UNL A   1      41.920  20.865  26.560  1.00  0.00     0.039 A 
ATOM     38  C   UNL A   1      42.265  21.841  25.619  1.00  0.00     0.014 A 
ATOM     39  C   UNL A   1      41.971  21.170  27.924  1.00  0.00     0.014 A 
ATOM     40  C   UNL A   1      42.609  23.129  26.039  1.00  0.00     0.010 A 
ATOM     41  C   UNL A   1      42.254  22.473  28.338  1.00  0.00     0.010 A 
ATOM     42  C   UNL A   1      42.584  23.465  27.402  1.00  0.00    -0.014 A 
BRANCH  42  43
ATOM     43  C   UNL A   1      42.900  24.845  27.853  1.00  0.00     0.031 A 
ATOM     44  C   UNL A   1      44.326  25.276  28.066  1.00  0.00     0.074 A 
ATOM     45  C   UNL A   1      41.898  25.707  28.112  1.00  0.00     0.049 A 
ATOM     46  N   UNL A   1      44.787  26.432  28.475  1.00  0.00    -0.248 NA
ATOM     47  C   UNL A   1      45.369  24.272  27.805  1.00  0.00     0.031 C 
ATOM     48  C   UNL A   1      40.471  25.410  27.981  1.00  0.00     0.029 A 
ATOM     49  N   UNL A   1      41.929  27.010  28.543  1.00  0.00    -0.354 N 
ATOM     50  C   UNL A   1      46.168  26.290  28.535  1.00  0.00     0.074 A 
ATOM     51  C   UNL A   1      46.467  24.924  28.162  1.00  0.00     0.031 C 
ATOM     52  C   UNL A   1      39.763  26.507  28.294  1.00  0.00     0.029 A 
ATOM     53  C   UNL A   1      40.683  27.573  28.681  1.00  0.00     0.049 A 
ATOM     54  H   UNL A   1      42.763  27.496  28.735  1.00  0.00     0.167 HD
ATOM     55  C   UNL A   1      47.106  27.216  28.852  1.00  0.00     0.031 A 
ATOM     56  C   UNL A   1      40.319  28.807  29.075  1.00  0.00     0.031 A 
ATOM     57  C   UNL A   1      46.817  28.578  29.214  1.00  0.00     0.049 A 
ATOM     58  C   UNL A   1      41.377  29.814  29.431  1.00  0.00     0.074 A 
ATOM     59  C   UNL A   1      47.704  29.602  29.500  1.00  0.00     0.029 A 
ATOM     60  N   UNL A   1      45.543  29.107  29.344  1.00  0.00    -0.354 N 
ATOM     61  N   UNL A   1      42.680  29.679  29.421  1.00  0.00    -0.248 NA
ATOM     62  C   UNL A   1      40.910  31.146  29.842  1.00  0.00     0.031 C 
ATOM     63  C   UNL A   1      46.966  30.738  29.847  1.00  0.00     0.029 A 
ATOM     64  C   UNL A   1      45.618  30.436  29.727  1.00  0.00     0.049 A 
ATOM     65  H   UNL A   1      44.707  28.611  29.186  1.00  0.00     0.167 HD
ATOM     66  C   UNL A   1      43.190  30.916  29.798  1.00  0.00     0.074 A 
ATOM     67  C   UNL A   1      42.055  31.789  30.014  1.00  0.00     0.031 C 
ATOM     68  C   UNL A   1      44.483  31.292  29.949  1.00  0.00     0.031 A 
BRANCH  55  69
ATOM     69  C   UNL A   1      48.544  26.773  28.829  1.00  0.00    -0.014 A 
ATOM     70  C   UNL A   1      49.151  26.210  29.963  1.00  0.00     0.009 A 
ATOM     71  C   UNL A   1      49.294  26.897  27.649  1.00  0.00     0.009 A 
ATOM     72  C   UNL A   1      50.490  25.818  29.929  1.00  0.00     0.001 A 
ATOM     73  C   UNL A   1      50.626  26.477  27.609  1.00  0.00     0.001 A 
ATOM     74  C   UNL A   1      51.226  25.949  28.751  1.00  0.00     0.000 A 
ENDBRANCH  55  69
BRANCH  56  75
ATOM     75  C   UNL A   1      38.880  29.173  29.130  1.00  0.00    -0.014 A 
ATOM     76  C   UNL A   1      38.150  29.005  30.316  1.00  0.00     0.009 A 
ATOM     77  C   UNL A   1      38.231  29.694  27.999  1.00  0.00     0.009 A 
ATOM     78  C   UNL A   1      36.793  29.329  30.363  1.00  0.00     0.001 A 
ATOM     79  C   UNL A   1      36.880  30.042  28.057  1.00  0.00     0.001 A 
ATOM     80  C   UNL A   1      36.160  29.851  29.235  1.00  0.00     0.000 A 
ENDBRANCH  56  75
BRANCH  68  81
ATOM     81  C   UNL A   1      44.737  32.720  30.342  1.00  0.00    -0.014 A 
ATOM     82  C   UNL A   1      44.851  33.094  31.690  1.00  0.00     0.009 A 
ATOM     83  C   UNL A   1      44.890  33.698  29.348  1.00  0.00     0.009 A 
ATOM     84  C   UNL A   1      45.077  34.429  32.034  1.00  0.00     0.001 A 
ATOM     85  C   UNL A   1      45.143  35.027  29.695  1.00  0.00     0.001 A 
ATOM     86  C   UNL A   1      45.226  35.393  31.037  1.00  0.00     0.000 A 
ENDBRANCH  68  81
ENDBRANCH  42  43
ENDBRANCH  34  37
ENDBRANCH  32  33
ENDBRANCH  31  32
ENDBRANCH  30  31
ENDBRANCH  29  30
ENDBRANCH   1  29
TORSDOF 18
ENDMDL
MODEL 2
REMARK VINA RESULT:     -11.6      0.851      5.803
REMARK SMILES CC1=C(C)C[C@H](C(=O)N[C@@H](C)CCc2ccccc2)[C@@H](C(=O)NCCCCCCNC(=O)c2ccc(-c3c4nc(c(-c5ccccc5)c5ccc([nH]5)c(-c5ccccc5)c5nc(c(-c6ccccc6)c6ccc3[nH]6)C=C5)C=C4)cc2)C1
REMARK SMILES IDX 25 1 24 2 23 3 21 4 22 5 20 7 1 8 2 9 3 10 81 11 4 12 5 13
REMARK SMILES IDX 6 14 7 15 8 16 9 17 10 19 11 20 12 21 13 22 14 23 15 24
REMARK SMILES IDX 19 25 16 26 18 27 17 28 26 29 27 30 28 31 29 32 30 33 31 34
REMARK SMILES IDX 32 36 33 37 34 38 80 39 35 40 79 41 36 42 37 43 38 44 73 45
REMARK SMILES IDX 39 46 78 47 72 48 74 49 40 50 77 51 71 52 70 53 41 55 63 56
REMARK SMILES IDX 48 57 62 58 49 59 52 60 61 61 75 62 50 63 51 64 60 66 76 67
REMARK SMILES IDX 53 68 42 69 43 70 47 71 44 72 46 73 45 74 64 75 65 76 69 77
REMARK SMILES IDX 66 78 68 79 67 80 54 81 55 82 59 83 56 84 58 85 57 86
REMARK H PARENT 23 6 9 18 30 35 74 54 52 65
REMARK Flexibility Score: inf
ROOT
ATOM      1  C   UNL A   1      36.898  23.115  25.131  1.00  0.00     0.021 C 
ENDROOT
BRANCH   1   2
ATOM      2  C   UNL A   1      35.602  23.829  25.527  1.00  0.00     0.116 C 
BRANCH   2   3
ATOM      3  N   UNL A   1      35.008  24.512  24.388  1.00  0.00    -0.356 N 
ATOM      4  C   UNL A   1      33.839  25.198  24.236  1.00  0.00     0.224 C 
ATOM      5  O   UNL A   1      33.601  25.658  23.117  1.00  0.00    -0.275 OA
ATOM      6  H   UNL A   1      35.555  24.472  23.570  1.00  0.00     0.163 HD
BRANCH   4   7
ATOM      7  C   UNL A   1      32.868  25.406  25.405  1.00  0.00     0.095 C 
ATOM      8  C   UNL A   1      31.504  29.025  24.793  1.00  0.00     0.039 C 
ATOM      9  C   UNL A   1      31.438  27.519  24.864  1.00  0.00    -0.074 C 
ATOM     10  C   UNL A   1      30.445  26.764  24.352  1.00  0.00    -0.074 C 
ATOM     11  C   UNL A   1      32.624  26.910  25.577  1.00  0.00     0.045 C 
ATOM     12  C   UNL A   1      29.196  27.292  23.686  1.00  0.00     0.039 C 
ATOM     13  C   UNL A   1      30.490  25.255  24.365  1.00  0.00     0.045 C 
ATOM     14  C   UNL A   1      31.610  24.563  25.160  1.00  0.00     0.095 C 
BRANCH  14  15
ATOM     15  C   UNL A   1      31.028  23.876  26.397  1.00  0.00     0.224 C 
ATOM     16  O   UNL A   1      30.097  24.347  27.048  1.00  0.00    -0.275 OA
ATOM     17  N   UNL A   1      31.498  22.635  26.757  1.00  0.00    -0.353 N 
ATOM     18  H   UNL A   1      30.836  21.992  27.100  1.00  0.00     0.163 HD
BRANCH  17  19
ATOM     19  C   UNL A   1      32.878  22.178  26.681  1.00  0.00     0.079 C 
ATOM     20  C   UNL A   1      33.461  22.329  28.098  1.00  0.00     0.031 C 
BRANCH  19  21
ATOM     21  C   UNL A   1      33.058  20.721  26.211  1.00  0.00     0.029 C 
BRANCH  21  22
ATOM     22  C   UNL A   1      32.584  20.367  24.793  1.00  0.00     0.037 C 
BRANCH  22  23
ATOM     23  C   UNL A   1      33.093  19.071  24.214  1.00  0.00    -0.048 A 
ATOM     24  C   UNL A   1      32.498  18.551  23.058  1.00  0.00     0.004 A 
ATOM     25  C   UNL A   1      34.137  18.349  24.808  1.00  0.00     0.004 A 
ATOM     26  C   UNL A   1      32.983  17.387  22.461  1.00  0.00     0.000 A 
ATOM     27  C   UNL A   1      34.604  17.164  24.227  1.00  0.00     0.000 A 
ATOM     28  C   UNL A   1      34.039  16.694  23.043  1.00  0.00     0.000 A 
ENDBRANCH  22  23
ENDBRANCH  21  22
ENDBRANCH  19  21
ENDBRANCH  17  19
ENDBRANCH  14  15
ENDBRANCH   4   7
ENDBRANCH   2   3
ENDBRANCH   1   2
BRANCH   1  29
ATOM     29  C   UNL A   1      36.748  21.923  24.188  1.00  0.00     0.002 C 
BRANCH  29  30
ATOM     30  C   UNL A   1      36.698  20.550  24.868  1.00  0.00     0.002 C 
BRANCH  30  31
ATOM     31  C   UNL A   1      37.998  19.735  24.857  1.00  0.00     0.021 C 
BRANCH  31  32
ATOM     32  C   UNL A   1      38.987  20.039  25.982  1.00  0.00     0.116 C 
BRANCH  32  33
ATOM     33  N   UNL A   1      40.232  19.302  25.841  1.00  0.00    -0.352 N 
ATOM     34  C   UNL A   1      41.537  19.712  25.953  1.00  0.00     0.251 C 
ATOM     35  H   UNL A   1      40.121  18.348  25.628  1.00  0.00     0.163 HD
ATOM     36  O   UNL A   1      42.436  18.960  25.591  1.00  0.00    -0.269 OA
BRANCH  34  37
ATOM     37  C   UNL A   1      41.884  21.048  26.492  1.00  0.00     0.039 A 
ATOM     38  C   UNL A   1      41.861  21.231  27.880  1.00  0.00     0.014 A 
ATOM     39  C   UNL A   1      42.151  22.136  25.655  1.00  0.00     0.014 A 
ATOM     40  C   UNL A   1      42.154  22.484  28.426  1.00  0.00     0.010 A 
ATOM     41  C   UNL A   1      42.505  23.370  26.204  1.00  0.00     0.010 A 
ATOM     42  C   UNL A   1      42.502  23.560  27.595  1.00  0.00    -0.014 A 
BRANCH  42  43
ATOM     43  C   UNL A   1      42.864  24.882  28.170  1.00  0.00     0.031 A 
ATOM     44  C   UNL A   1      41.813  25.938  28.390  1.00  0.00     0.074 A 
ATOM     45  C   UNL A   1      44.151  25.152  28.460  1.00  0.00     0.049 A 
ATOM     46  N   UNL A   1      41.950  27.152  28.862  1.00  0.00    -0.248 NA
ATOM     47  C   UNL A   1      40.435  25.591  28.012  1.00  0.00     0.031 C 
ATOM     48  C   UNL A   1      45.274  24.234  28.265  1.00  0.00     0.029 A 
ATOM     49  N   UNL A   1      44.731  26.283  28.980  1.00  0.00    -0.354 N 
ATOM     50  C   UNL A   1      40.681  27.718  28.824  1.00  0.00     0.074 A 
ATOM     51  C   UNL A   1      39.798  26.730  28.242  1.00  0.00     0.031 C 
ATOM     52  C   UNL A   1      46.403  24.825  28.687  1.00  0.00     0.029 A 
ATOM     53  C   UNL A   1      46.090  26.174  29.150  1.00  0.00     0.049 A 
ATOM     54  H   UNL A   1      44.223  27.094  29.209  1.00  0.00     0.167 HD
ATOM     55  C   UNL A   1      40.281  28.941  29.251  1.00  0.00     0.031 A 
ATOM     56  C   UNL A   1      46.986  27.058  29.626  1.00  0.00     0.031 A 
ATOM     57  C   UNL A   1      41.152  29.924  29.839  1.00  0.00     0.049 A 
ATOM     58  C   UNL A   1      46.521  28.411  30.084  1.00  0.00     0.074 A 
ATOM     59  C   UNL A   1      40.828  31.169  30.349  1.00  0.00     0.029 A 
ATOM     60  N   UNL A   1      42.521  29.774  29.991  1.00  0.00    -0.354 N 
ATOM     61  N   UNL A   1      45.307  28.905  30.099  1.00  0.00    -0.248 NA
ATOM     62  C   UNL A   1      47.551  29.323  30.603  1.00  0.00     0.031 C 
ATOM     63  C   UNL A   1      42.008  31.792  30.769  1.00  0.00     0.029 A 
ATOM     64  C   UNL A   1      43.060  30.913  30.567  1.00  0.00     0.049 A 
ATOM     65  H   UNL A   1      43.035  28.976  29.729  1.00  0.00     0.167 HD
ATOM     66  C   UNL A   1      45.423  30.175  30.651  1.00  0.00     0.074 A 
ATOM     67  C   UNL A   1      46.822  30.367  30.971  1.00  0.00     0.031 C 
ATOM     68  C   UNL A   1      44.455  31.097  30.873  1.00  0.00     0.031 A 
BRANCH  55  69
ATOM     69  C   UNL A   1      38.825  29.285  29.085  1.00  0.00    -0.014 A 
ATOM     70  C   UNL A   1      38.331  29.791  27.872  1.00  0.00     0.009 A 
ATOM     71  C   UNL A   1      37.933  29.075  30.147  1.00  0.00     0.009 A 
ATOM     72  C   UNL A   1      36.981  30.119  27.739  1.00  0.00     0.001 A 
ATOM     73  C   UNL A   1      36.577  29.377  30.002  1.00  0.00     0.001 A 
ATOM     74  C   UNL A   1      36.104  29.909  28.803  1.00  0.00     0.000 A 
ENDBRANCH  55  69
BRANCH  56  75
ATOM     75  C   UNL A   1      48.421  26.683  29.718  1.00  0.00    -0.014 A 
ATOM     76  C   UNL A   1      48.916  26.051  30.869  1.00  0.00     0.009 A 
ATOM     77  C   UNL A   1      49.301  26.952  28.658  1.00  0.00     0.009 A 
ATOM     78  C   UNL A   1      50.268  25.715  30.966  1.00  0.00     0.001 A 
ATOM     79  C   UNL A   1      50.647  26.592  28.748  1.00  0.00     0.001 A 
ATOM     80  C   UNL A   1      51.131  25.983  29.904  1.00  0.00     0.000 A 
ENDBRANCH  56  75
BRANCH  68  81
ATOM     81  C   UNL A   1      44.875  32.387  31.518  1.00  0.00    -0.014 A 
ATOM     82  C   UNL A   1      45.255  33.497  30.748  1.00  0.00     0.009 A 
ATOM     83  C   UNL A   1      44.867  32.500  32.917  1.00  0.00     0.009 A 
ATOM     84  C   UNL A   1      45.653  34.683  31.367  1.00  0.00     0.001 A 
ATOM     85  C   UNL A   1      45.239  33.696  33.533  1.00  0.00     0.001 A 
ATOM     86  C   UNL A   1      45.641  34.783  32.759  1.00  0.00     0.000 A 
ENDBRANCH  68  81
ENDBRANCH  42  43
ENDBRANCH  34  37
ENDBRANCH  32  33
ENDBRANCH  31  32
ENDBRANCH  30  31
ENDBRANCH  29  30
ENDBRANCH   1  29
TORSDOF 18
ENDMDL
MODEL 3
REMARK VINA RESULT:     -11.4      2.166      7.163
REMARK SMILES CC1=C(C)C[C@H](C(=O)N[C@@H](C)CCc2ccccc2)[C@@H](C(=O)NCCCCCCNC(=O)c2ccc(-c3c4nc(c(-c5ccccc5)c5ccc([nH]5)c(-c5ccccc5)c5nc(c(-c6ccccc6)c6ccc3[nH]6)C=C5)C=C4)cc2)C1
REMARK SMILES IDX 25 1 24 2 23 3 21 4 22 5 20 7 1 8 2 9 3 10 81 11 4 12 5 13
REMARK SMILES IDX 6 14 7 15 8 16 9 17 10 19 11 20 12 21 13 22 14 23 15 24
REMARK SMILES IDX 19 25 16 26 18 27 17 28 26 29 27 30 28 31 29 32 30 33 31 34
REMARK SMILES IDX 32 36 33 37 34 38 80 39 35 40 79 41 36 42 37 43 38 44 73 45
REMARK SMILES IDX 39 46 78 47 72 48 74 49 40 50 77 51 71 52 70 53 41 55 63 56
REMARK SMILES IDX 48 57 62 58 49 59 52 60 61 61 75 62 50 63 51 64 60 66 76 67
REMARK SMILES IDX 53 68 42 69 43 70 47 71 44 72 46 73 45 74 64 75 65 76 69 77
REMARK SMILES IDX 66 78 68 79 67 80 54 81 55 82 59 83 56 84 58 85 57 86
REMARK H PARENT 23 6 9 18 30 35 74 54 52 65
REMARK Flexibility Score: inf
ROOT
ATOM      1  C   UNL A   1      30.359  28.543  23.375  1.00  0.00     0.021 C 
ENDROOT
BRANCH   1   2
ATOM      2  C   UNL A   1      30.578  27.223  22.630  1.00  0.00     0.116 C 
BRANCH   2   3
ATOM      3  N   UNL A   1      31.965  27.074  22.219  1.00  0.00    -0.356 N 
ATOM      4  C   UNL A   1      32.927  26.164  22.548  1.00  0.00     0.224 C 
ATOM      5  O   UNL A   1      34.040  26.316  22.037  1.00  0.00    -0.275 OA
ATOM      6  H   UNL A   1      32.267  27.760  21.581  1.00  0.00     0.163 HD
BRANCH   4   7
ATOM      7  C   UNL A   1      32.641  24.995  23.497  1.00  0.00     0.095 C 
ATOM      8  C   UNL A   1      35.789  22.706  23.060  1.00  0.00     0.039 C 
ATOM      9  C   UNL A   1      34.863  23.657  23.778  1.00  0.00    -0.074 C 
ATOM     10  C   UNL A   1      35.166  24.324  24.911  1.00  0.00    -0.074 C 
ATOM     11  C   UNL A   1      33.524  23.808  23.092  1.00  0.00     0.045 C 
ATOM     12  C   UNL A   1      36.449  24.181  25.695  1.00  0.00     0.039 C 
ATOM     13  C   UNL A   1      34.234  25.340  25.523  1.00  0.00     0.045 C 
ATOM     14  C   UNL A   1      32.816  25.476  24.943  1.00  0.00     0.095 C 
BRANCH  14  15
ATOM     15  C   UNL A   1      31.788  24.941  25.943  1.00  0.00     0.224 C 
ATOM     16  O   UNL A   1      31.023  25.670  26.571  1.00  0.00    -0.275 OA
ATOM     17  N   UNL A   1      31.642  23.581  26.090  1.00  0.00    -0.353 N 
ATOM     18  H   UNL A   1      30.726  23.245  26.220  1.00  0.00     0.163 HD
BRANCH  17  19
ATOM     19  C   UNL A   1      32.708  22.591  26.073  1.00  0.00     0.079 C 
ATOM     20  C   UNL A   1      33.122  22.377  27.540  1.00  0.00     0.031 C 
BRANCH  19  21
ATOM     21  C   UNL A   1      32.328  21.233  25.451  1.00  0.00     0.029 C 
BRANCH  21  22
ATOM     22  C   UNL A   1      33.216  20.024  25.784  1.00  0.00     0.037 C 
BRANCH  22  23
ATOM     23  C   UNL A   1      33.378  18.986  24.702  1.00  0.00    -0.048 A 
ATOM     24  C   UNL A   1      34.522  18.178  24.687  1.00  0.00     0.004 A 
ATOM     25  C   UNL A   1      32.427  18.812  23.688  1.00  0.00     0.004 A 
ATOM     26  C   UNL A   1      34.675  17.166  23.738  1.00  0.00     0.000 A 
ATOM     27  C   UNL A   1      32.595  17.819  22.716  1.00  0.00     0.000 A 
ATOM     28  C   UNL A   1      33.711  16.984  22.754  1.00  0.00     0.000 A 
ENDBRANCH  22  23
ENDBRANCH  21  22
ENDBRANCH  19  21
ENDBRANCH  17  19
ENDBRANCH  14  15
ENDBRANCH   4   7
ENDBRANCH   2   3
ENDBRANCH   1   2
BRANCH   1  29
ATOM     29  C   UNL A   1      30.847  28.588  24.822  1.00  0.00     0.002 C 
BRANCH  29  30
ATOM     30  C   UNL A   1      32.030  29.525  25.087  1.00  0.00     0.002 C 
BRANCH  30  31
ATOM     31  C   UNL A   1      33.381  28.857  25.376  1.00  0.00     0.021 C 
BRANCH  31  32
ATOM     32  C   UNL A   1      33.809  28.824  26.842  1.00  0.00     0.116 C 
BRANCH  32  33
ATOM     33  N   UNL A   1      33.701  30.125  27.483  1.00  0.00    -0.352 N 
ATOM     34  C   UNL A   1      34.570  30.797  28.304  1.00  0.00     0.251 C 
ATOM     35  H   UNL A   1      32.863  30.604  27.295  1.00  0.00     0.163 HD
ATOM     36  O   UNL A   1      34.183  31.800  28.896  1.00  0.00    -0.269 OA
BRANCH  34  37
ATOM     37  C   UNL A   1      35.963  30.333  28.501  1.00  0.00     0.039 A 
ATOM     38  C   UNL A   1      36.300  29.743  29.725  1.00  0.00     0.014 A 
ATOM     39  C   UNL A   1      36.954  30.541  27.537  1.00  0.00     0.014 A 
ATOM     40  C   UNL A   1      37.611  29.319  29.961  1.00  0.00     0.010 A 
ATOM     41  C   UNL A   1      38.248  30.060  27.750  1.00  0.00     0.010 A 
ATOM     42  C   UNL A   1      38.593  29.451  28.967  1.00  0.00    -0.014 A 
BRANCH  42  43
ATOM     43  C   UNL A   1      39.977  28.957  29.191  1.00  0.00     0.031 A 
ATOM     44  C   UNL A   1      41.015  29.843  29.825  1.00  0.00     0.074 A 
ATOM     45  C   UNL A   1      40.315  27.718  28.785  1.00  0.00     0.049 A 
ATOM     46  N   UNL A   1      42.274  29.586  30.079  1.00  0.00    -0.248 NA
ATOM     47  C   UNL A   1      40.589  31.198  30.205  1.00  0.00     0.031 C 
ATOM     48  C   UNL A   1      39.417  26.768  28.126  1.00  0.00     0.029 A 
ATOM     49  N   UNL A   1      41.510  27.046  28.867  1.00  0.00    -0.354 N 
ATOM     50  C   UNL A   1      42.794  30.750  30.634  1.00  0.00     0.074 A 
ATOM     51  C   UNL A   1      41.725  31.726  30.638  1.00  0.00     0.031 C 
ATOM     52  C   UNL A   1      40.083  25.626  27.891  1.00  0.00     0.029 A 
ATOM     53  C   UNL A   1      41.461  25.774  28.350  1.00  0.00     0.049 A 
ATOM     54  H   UNL A   1      42.323  27.437  29.259  1.00  0.00     0.167 HD
ATOM     55  C   UNL A   1      44.040  30.982  31.114  1.00  0.00     0.031 A 
ATOM     56  C   UNL A   1      42.417  24.831  28.254  1.00  0.00     0.031 A 
ATOM     57  C   UNL A   1      45.104  30.014  31.121  1.00  0.00     0.049 A 
ATOM     58  C   UNL A   1      43.793  25.115  28.785  1.00  0.00     0.074 A 
ATOM     59  C   UNL A   1      46.384  30.141  31.634  1.00  0.00     0.029 A 
ATOM     60  N   UNL A   1      45.013  28.738  30.586  1.00  0.00    -0.354 N 
ATOM     61  N   UNL A   1      44.248  26.200  29.362  1.00  0.00    -0.248 NA
ATOM     62  C   UNL A   1      44.785  24.037  28.658  1.00  0.00     0.031 C 
ATOM     63  C   UNL A   1      47.082  28.958  31.369  1.00  0.00     0.029 A 
ATOM     64  C   UNL A   1      46.221  28.076  30.736  1.00  0.00     0.049 A 
ATOM     65  H   UNL A   1      44.210  28.360  30.162  1.00  0.00     0.167 HD
ATOM     66  C   UNL A   1      45.570  25.927  29.692  1.00  0.00     0.074 A 
ATOM     67  C   UNL A   1      45.837  24.569  29.263  1.00  0.00     0.031 C 
ATOM     68  C   UNL A   1      46.478  26.729  30.298  1.00  0.00     0.031 A 
BRANCH  55  69
ATOM     69  C   UNL A   1      44.320  32.354  31.666  1.00  0.00    -0.014 A 
ATOM     70  C   UNL A   1      44.107  32.650  33.022  1.00  0.00     0.009 A 
ATOM     71  C   UNL A   1      44.829  33.355  30.824  1.00  0.00     0.009 A 
ATOM     72  C   UNL A   1      44.358  33.932  33.515  1.00  0.00     0.001 A 
ATOM     73  C   UNL A   1      45.107  34.628  31.327  1.00  0.00     0.001 A 
ATOM     74  C   UNL A   1      44.860  34.919  32.667  1.00  0.00     0.000 A 
ENDBRANCH  55  69
BRANCH  56  75
ATOM     75  C   UNL A   1      42.097  23.511  27.651  1.00  0.00    -0.014 A 
ATOM     76  C   UNL A   1      41.585  22.474  28.445  1.00  0.00     0.009 A 
ATOM     77  C   UNL A   1      42.301  23.283  26.282  1.00  0.00     0.009 A 
ATOM     78  C   UNL A   1      41.304  21.227  27.884  1.00  0.00     0.001 A 
ATOM     79  C   UNL A   1      41.995  22.043  25.718  1.00  0.00     0.001 A 
ATOM     80  C   UNL A   1      41.505  21.014  26.521  1.00  0.00     0.000 A 
ENDBRANCH  56  75
BRANCH  68  81
ATOM     81  C   UNL A   1      47.840  26.148  30.555  1.00  0.00    -0.014 A 
ATOM     82  C   UNL A   1      48.813  26.096  29.546  1.00  0.00     0.009 A 
ATOM     83  C   UNL A   1      48.159  25.667  31.835  1.00  0.00     0.009 A 
ATOM     84  C   UNL A   1      50.068  25.541  29.803  1.00  0.00     0.001 A 
ATOM     85  C   UNL A   1      49.425  25.138  32.097  1.00  0.00     0.001 A 
ATOM     86  C   UNL A   1      50.374  25.066  31.079  1.00  0.00     0.000 A 
ENDBRANCH  68  81
ENDBRANCH  42  43
ENDBRANCH  34  37
ENDBRANCH  32  33
ENDBRANCH  31  32
ENDBRANCH  30  31
ENDBRANCH  29  30
ENDBRANCH   1  29
TORSDOF 18
ENDMDL
