MODEL 1
REMARK VINA RESULT:     -10.2      0.000      0.000
REMARK SMILES CN(CCCC(=O)NCCCCCCNC(=O)c1ccc(-c2c3nc(c(-c4ccccc4)c4ccc([nH]4)c(-c4ccccc4)c4nc(c(-c5ccccc5)c5ccc2[nH]5)C=C4)C=C3)cc1)c1cccc(F)c1C(N)=O
REMARK SMILES IDX 10 1 9 2 8 3 6 4 7 5 5 7 4 8 3 9 2 10 1 11 66 12 67 13 72 14
REMARK SMILES IDX 68 15 70 16 69 17 71 18 73 19 74 20 75 21 11 24 12 25 13 26
REMARK SMILES IDX 14 27 15 28 16 29 17 31 18 32 19 33 65 34 20 35 64 36 21 37
REMARK SMILES IDX 22 38 23 39 58 40 24 41 63 42 57 43 59 44 25 45 62 46 56 47
REMARK SMILES IDX 55 48 26 50 48 51 33 52 47 53 34 54 37 55 46 56 60 57 35 58
REMARK SMILES IDX 36 59 45 61 61 62 38 63 27 64 28 65 32 66 29 67 31 68 30 69
REMARK SMILES IDX 49 70 50 71 54 72 51 73 53 74 52 75 39 76 40 77 44 78 41 79
REMARK SMILES IDX 43 80 42 81
REMARK H PARENT 8 6 74 22 74 23 15 30 59 49 37 60
REMARK Flexibility Score: inf
ROOT
ATOM      1  C   UNL A   1      35.399  21.913  26.039  1.00  0.00     0.021 C 
ENDROOT
BRANCH   1   2
ATOM      2  C   UNL A   1      34.186  21.731  25.130  1.00  0.00     0.116 C 
BRANCH   2   3
ATOM      3  N   UNL A   1      34.345  22.530  23.938  1.00  0.00    -0.356 N 
ATOM      4  C   UNL A   1      33.476  22.689  22.903  1.00  0.00     0.220 C 
ATOM      5  O   UNL A   1      33.875  23.252  21.882  1.00  0.00    -0.275 OA
ATOM      6  H   UNL A   1      35.194  23.025  23.865  1.00  0.00     0.163 HD
BRANCH   4   7
ATOM      7  C   UNL A   1      32.024  22.281  23.063  1.00  0.00     0.102 C 
BRANCH   7   8
ATOM      8  C   UNL A   1      30.981  23.367  23.341  1.00  0.00     0.031 C 
BRANCH   8   9
ATOM      9  C   UNL A   1      31.037  24.218  24.622  1.00  0.00     0.117 C 
BRANCH   9  10
ATOM     10  N   UNL A   1      30.951  25.692  24.489  1.00  0.00    -0.374 N 
ATOM     11  C   UNL A   1      29.618  26.274  24.661  1.00  0.00     0.143 C 
BRANCH  10  12
ATOM     12  C   UNL A   1      32.042  26.521  24.742  1.00  0.00     0.052 A 
ATOM     13  C   UNL A   1      32.303  26.788  26.104  1.00  0.00     0.027 A 
ATOM     14  C   UNL A   1      32.906  27.123  23.786  1.00  0.00     0.098 A 
ATOM     15  C   UNL A   1      33.262  27.711  26.522  1.00  0.00     0.005 A 
ATOM     16  C   UNL A   1      33.874  28.046  24.231  1.00  0.00     0.138 A 
ATOM     17  C   UNL A   1      34.037  28.359  25.576  1.00  0.00     0.040 A 
ATOM     18  F   UNL A   1      34.672  28.690  23.363  1.00  0.00    -0.206 F 
BRANCH  14  19
ATOM     19  C   UNL A   1      32.813  26.867  22.311  1.00  0.00     0.253 C 
ATOM     20  N   UNL A   1      31.630  27.184  21.687  1.00  0.00    -0.365 N 
ATOM     21  O   UNL A   1      33.723  26.399  21.645  1.00  0.00    -0.269 OA
ATOM     22  H   UNL A   1      30.886  27.563  22.208  1.00  0.00     0.159 HD
ATOM     23  H   UNL A   1      31.528  27.034  20.720  1.00  0.00     0.159 HD
ENDBRANCH  14  19
ENDBRANCH  10  12
ENDBRANCH   9  10
ENDBRANCH   8   9
ENDBRANCH   7   8
ENDBRANCH   4   7
ENDBRANCH   2   3
ENDBRANCH   1   2
BRANCH   1  24
ATOM     24  C   UNL A   1      36.695  21.456  25.374  1.00  0.00     0.002 C 
BRANCH  24  25
ATOM     25  C   UNL A   1      36.657  20.007  24.875  1.00  0.00     0.002 C 
BRANCH  25  26
ATOM     26  C   UNL A   1      37.997  19.267  24.928  1.00  0.00     0.021 C 
BRANCH  26  27
ATOM     27  C   UNL A   1      39.081  19.975  25.729  1.00  0.00     0.116 C 
BRANCH  27  28
ATOM     28  N   UNL A   1      40.278  19.156  25.824  1.00  0.00    -0.352 N 
ATOM     29  C   UNL A   1      41.575  19.535  26.046  1.00  0.00     0.251 C 
ATOM     30  H   UNL A   1      40.136  18.188  25.712  1.00  0.00     0.163 HD
ATOM     31  O   UNL A   1      42.495  18.760  25.803  1.00  0.00    -0.269 OA
BRANCH  29  32
ATOM     32  C   UNL A   1      41.867  20.881  26.580  1.00  0.00     0.039 A 
ATOM     33  C   UNL A   1      42.263  21.887  25.697  1.00  0.00     0.014 A 
ATOM     34  C   UNL A   1      41.794  21.136  27.953  1.00  0.00     0.014 A 
ATOM     35  C   UNL A   1      42.553  23.160  26.187  1.00  0.00     0.010 A 
ATOM     36  C   UNL A   1      42.006  22.426  28.430  1.00  0.00     0.010 A 
ATOM     37  C   UNL A   1      42.408  23.445  27.555  1.00  0.00    -0.014 A 
BRANCH  37  38
ATOM     38  C   UNL A   1      42.692  24.802  28.085  1.00  0.00     0.031 A 
ATOM     39  C   UNL A   1      44.085  25.170  28.516  1.00  0.00     0.074 A 
ATOM     40  C   UNL A   1      41.686  25.685  28.219  1.00  0.00     0.049 A 
ATOM     41  N   UNL A   1      44.522  26.298  29.017  1.00  0.00    -0.248 NA
ATOM     42  C   UNL A   1      45.118  24.128  28.393  1.00  0.00     0.031 C 
ATOM     43  C   UNL A   1      40.285  25.432  27.881  1.00  0.00     0.029 A 
ATOM     44  N   UNL A   1      41.689  26.977  28.680  1.00  0.00    -0.354 N 
ATOM     45  C   UNL A   1      45.871  26.095  29.282  1.00  0.00     0.074 A 
ATOM     46  C   UNL A   1      46.168  24.722  28.941  1.00  0.00     0.031 C 
ATOM     47  C   UNL A   1      39.568  26.541  28.120  1.00  0.00     0.029 A 
ATOM     48  C   UNL A   1      40.449  27.568  28.665  1.00  0.00     0.049 A 
ATOM     49  H   UNL A   1      42.501  27.437  28.994  1.00  0.00     0.167 HD
ATOM     50  C   UNL A   1      46.786  26.978  29.752  1.00  0.00     0.031 A 
ATOM     51  C   UNL A   1      40.063  28.798  29.053  1.00  0.00     0.031 A 
ATOM     52  C   UNL A   1      46.488  28.344  30.090  1.00  0.00     0.049 A 
ATOM     53  C   UNL A   1      41.094  29.758  29.578  1.00  0.00     0.074 A 
ATOM     54  C   UNL A   1      47.354  29.336  30.512  1.00  0.00     0.029 A 
ATOM     55  N   UNL A   1      45.220  28.907  30.053  1.00  0.00    -0.354 N 
ATOM     56  N   UNL A   1      42.382  29.578  29.743  1.00  0.00    -0.248 NA
ATOM     57  C   UNL A   1      40.618  31.096  29.954  1.00  0.00     0.031 C 
ATOM     58  C   UNL A   1      46.601  30.481  30.795  1.00  0.00     0.029 A 
ATOM     59  C   UNL A   1      45.277  30.224  30.478  1.00  0.00     0.049 A 
ATOM     60  H   UNL A   1      44.403  28.440  29.766  1.00  0.00     0.167 HD
ATOM     61  C   UNL A   1      42.875  30.786  30.218  1.00  0.00     0.074 A 
ATOM     62  C   UNL A   1      41.750  31.696  30.295  1.00  0.00     0.031 C 
ATOM     63  C   UNL A   1      44.146  31.114  30.558  1.00  0.00     0.031 A 
BRANCH  50  64
ATOM     64  C   UNL A   1      48.193  26.478  29.944  1.00  0.00    -0.014 A 
ATOM     65  C   UNL A   1      48.602  25.881  31.148  1.00  0.00     0.009 A 
ATOM     66  C   UNL A   1      49.119  26.587  28.896  1.00  0.00     0.009 A 
ATOM     67  C   UNL A   1      49.919  25.447  31.314  1.00  0.00     0.001 A 
ATOM     68  C   UNL A   1      50.427  26.121  29.052  1.00  0.00     0.001 A 
ATOM     69  C   UNL A   1      50.829  25.563  30.263  1.00  0.00     0.000 A 
ENDBRANCH  50  64
BRANCH  51  70
ATOM     70  C   UNL A   1      38.633  29.191  28.950  1.00  0.00    -0.014 A 
ATOM     71  C   UNL A   1      37.787  29.116  30.067  1.00  0.00     0.009 A 
ATOM     72  C   UNL A   1      38.108  29.652  27.732  1.00  0.00     0.009 A 
ATOM     73  C   UNL A   1      36.439  29.470  29.959  1.00  0.00     0.001 A 
ATOM     74  C   UNL A   1      36.769  30.035  27.635  1.00  0.00     0.001 A 
ATOM     75  C   UNL A   1      35.933  29.933  28.745  1.00  0.00     0.000 A 
ENDBRANCH  51  70
BRANCH  63  76
ATOM     76  C   UNL A   1      44.393  32.526  31.015  1.00  0.00    -0.014 A 
ATOM     77  C   UNL A   1      44.698  33.549  30.105  1.00  0.00     0.009 A 
ATOM     78  C   UNL A   1      44.282  32.841  32.379  1.00  0.00     0.009 A 
ATOM     79  C   UNL A   1      44.926  34.851  30.557  1.00  0.00     0.001 A 
ATOM     80  C   UNL A   1      44.477  34.149  32.824  1.00  0.00     0.001 A 
ATOM     81  C   UNL A   1      44.811  35.151  31.914  1.00  0.00     0.000 A 
ENDBRANCH  63  76
ENDBRANCH  37  38
ENDBRANCH  29  32
ENDBRANCH  27  28
ENDBRANCH  26  27
ENDBRANCH  25  26
ENDBRANCH  24  25
ENDBRANCH   1  24
TORSDOF 18
ENDMDL
MODEL 2
REMARK VINA RESULT:     -10.1      2.821      4.272
REMARK SMILES CN(CCCC(=O)NCCCCCCNC(=O)c1ccc(-c2c3nc(c(-c4ccccc4)c4ccc([nH]4)c(-c4ccccc4)c4nc(c(-c5ccccc5)c5ccc2[nH]5)C=C4)C=C3)cc1)c1cccc(F)c1C(N)=O
REMARK SMILES IDX 10 1 9 2 8 3 6 4 7 5 5 7 4 8 3 9 2 10 1 11 66 12 67 13 72 14
REMARK SMILES IDX 68 15 70 16 69 17 71 18 73 19 74 20 75 21 11 24 12 25 13 26
REMARK SMILES IDX 14 27 15 28 16 29 17 31 18 32 19 33 65 34 20 35 64 36 21 37
REMARK SMILES IDX 22 38 23 39 58 40 24 41 63 42 57 43 59 44 25 45 62 46 56 47
REMARK SMILES IDX 55 48 26 50 48 51 33 52 47 53 34 54 37 55 46 56 60 57 35 58
REMARK SMILES IDX 36 59 45 61 61 62 38 63 27 64 28 65 32 66 29 67 31 68 30 69
REMARK SMILES IDX 49 70 50 71 54 72 51 73 53 74 52 75 39 76 40 77 44 78 41 79
REMARK SMILES IDX 43 80 42 81
REMARK H PARENT 8 6 74 22 74 23 15 30 59 49 37 60
REMARK Flexibility Score: inf
ROOT
ATOM      1  C   UNL A   1      40.801  22.159  27.666  1.00  0.00     0.021 C 
ENDROOT
BRANCH   1   2
ATOM      2  C   UNL A   1      39.804  23.006  26.879  1.00  0.00     0.116 C 
BRANCH   2   3
ATOM      3  N   UNL A   1      39.156  22.193  25.877  1.00  0.00    -0.356 N 
ATOM      4  C   UNL A   1      37.861  22.231  25.463  1.00  0.00     0.220 C 
ATOM      5  O   UNL A   1      37.446  21.322  24.742  1.00  0.00    -0.275 OA
ATOM      6  H   UNL A   1      39.727  21.522  25.436  1.00  0.00     0.163 HD
BRANCH   4   7
ATOM      7  C   UNL A   1      36.995  23.432  25.796  1.00  0.00     0.102 C 
BRANCH   7   8
ATOM      8  C   UNL A   1      35.881  23.828  24.823  1.00  0.00     0.031 C 
BRANCH   8   9
ATOM      9  C   UNL A   1      34.689  24.687  25.282  1.00  0.00     0.117 C 
BRANCH   9  10
ATOM     10  N   UNL A   1      33.410  24.005  25.592  1.00  0.00    -0.374 N 
ATOM     11  C   UNL A   1      32.358  24.847  26.166  1.00  0.00     0.143 C 
BRANCH  10  12
ATOM     12  C   UNL A   1      33.005  22.855  24.917  1.00  0.00     0.052 A 
ATOM     13  C   UNL A   1      32.953  21.677  25.695  1.00  0.00     0.027 A 
ATOM     14  C   UNL A   1      32.650  22.743  23.545  1.00  0.00     0.098 A 
ATOM     15  C   UNL A   1      32.710  20.419  25.143  1.00  0.00     0.005 A 
ATOM     16  C   UNL A   1      32.401  21.463  23.010  1.00  0.00     0.138 A 
ATOM     17  C   UNL A   1      32.454  20.311  23.787  1.00  0.00     0.040 A 
ATOM     18  F   UNL A   1      32.124  21.296  21.706  1.00  0.00    -0.206 F 
BRANCH  14  19
ATOM     19  C   UNL A   1      32.573  23.915  22.612  1.00  0.00     0.253 C 
ATOM     20  N   UNL A   1      31.339  24.485  22.412  1.00  0.00    -0.365 N 
ATOM     21  O   UNL A   1      33.539  24.384  22.031  1.00  0.00    -0.269 OA
ATOM     22  H   UNL A   1      30.548  24.121  22.873  1.00  0.00     0.159 HD
ATOM     23  H   UNL A   1      31.245  25.257  21.809  1.00  0.00     0.159 HD
ENDBRANCH  14  19
ENDBRANCH  10  12
ENDBRANCH   9  10
ENDBRANCH   8   9
ENDBRANCH   7   8
ENDBRANCH   4   7
ENDBRANCH   2   3
ENDBRANCH   1   2
BRANCH   1  24
ATOM     24  C   UNL A   1      41.748  21.381  26.754  1.00  0.00     0.002 C 
BRANCH  24  25
ATOM     25  C   UNL A   1      41.946  19.919  27.171  1.00  0.00     0.002 C 
BRANCH  25  26
ATOM     26  C   UNL A   1      42.390  18.978  26.047  1.00  0.00     0.021 C 
BRANCH  26  27
ATOM     27  C   UNL A   1      43.874  18.637  26.055  1.00  0.00     0.116 C 
BRANCH  27  28
ATOM     28  N   UNL A   1      44.406  18.595  24.702  1.00  0.00    -0.352 N 
ATOM     29  C   UNL A   1      44.729  19.627  23.863  1.00  0.00     0.251 C 
ATOM     30  H   UNL A   1      44.556  17.692  24.337  1.00  0.00     0.163 HD
ATOM     31  O   UNL A   1      44.884  19.422  22.662  1.00  0.00    -0.269 OA
BRANCH  29  32
ATOM     32  C   UNL A   1      44.893  20.992  24.404  1.00  0.00     0.039 A 
ATOM     33  C   UNL A   1      44.444  22.077  23.648  1.00  0.00     0.014 A 
ATOM     34  C   UNL A   1      45.528  21.202  25.632  1.00  0.00     0.014 A 
ATOM     35  C   UNL A   1      44.602  23.372  24.140  1.00  0.00     0.010 A 
ATOM     36  C   UNL A   1      45.612  22.488  26.157  1.00  0.00     0.010 A 
ATOM     37  C   UNL A   1      45.169  23.587  25.408  1.00  0.00    -0.014 A 
BRANCH  37  38
ATOM     38  C   UNL A   1      45.321  24.959  25.951  1.00  0.00     0.031 A 
ATOM     39  C   UNL A   1      46.664  25.635  25.936  1.00  0.00     0.074 A 
ATOM     40  C   UNL A   1      44.259  25.577  26.500  1.00  0.00     0.049 A 
ATOM     41  N   UNL A   1      46.995  26.822  26.379  1.00  0.00    -0.248 NA
ATOM     42  C   UNL A   1      47.789  24.870  25.373  1.00  0.00     0.031 C 
ATOM     43  C   UNL A   1      42.915  25.008  26.617  1.00  0.00     0.029 A 
ATOM     44  N   UNL A   1      44.144  26.822  27.065  1.00  0.00    -0.354 N 
ATOM     45  C   UNL A   1      48.363  26.937  26.163  1.00  0.00     0.074 A 
ATOM     46  C   UNL A   1      48.811  25.681  25.604  1.00  0.00     0.031 C 
ATOM     47  C   UNL A   1      42.104  25.911  27.191  1.00  0.00     0.029 A 
ATOM     48  C   UNL A   1      42.878  27.104  27.519  1.00  0.00     0.049 A 
ATOM     49  H   UNL A   1      44.896  27.452  27.139  1.00  0.00     0.167 HD
ATOM     50  C   UNL A   1      49.172  27.999  26.394  1.00  0.00     0.031 A 
ATOM     51  C   UNL A   1      42.395  28.198  28.137  1.00  0.00     0.031 A 
ATOM     52  C   UNL A   1      48.724  29.248  26.950  1.00  0.00     0.049 A 
ATOM     53  C   UNL A   1      43.314  29.361  28.390  1.00  0.00     0.074 A 
ATOM     54  C   UNL A   1      49.450  30.406  27.164  1.00  0.00     0.029 A 
ATOM     55  N   UNL A   1      47.432  29.496  27.390  1.00  0.00    -0.354 N 
ATOM     56  N   UNL A   1      44.587  29.486  28.102  1.00  0.00    -0.248 NA
ATOM     57  C   UNL A   1      42.723  30.539  29.037  1.00  0.00     0.031 C 
ATOM     58  C   UNL A   1      48.614  31.334  27.795  1.00  0.00     0.029 A 
ATOM     59  C   UNL A   1      47.349  30.779  27.906  1.00  0.00     0.049 A 
ATOM     60  H   UNL A   1      46.686  28.857  27.342  1.00  0.00     0.167 HD
ATOM     61  C   UNL A   1      44.943  30.765  28.510  1.00  0.00     0.074 A 
ATOM     62  C   UNL A   1      43.746  31.382  29.046  1.00  0.00     0.031 C 
ATOM     63  C   UNL A   1      46.152  31.375  28.445  1.00  0.00     0.031 A 
BRANCH  50  64
ATOM     64  C   UNL A   1      50.632  27.842  26.061  1.00  0.00    -0.014 A 
ATOM     65  C   UNL A   1      51.554  27.363  27.007  1.00  0.00     0.009 A 
ATOM     66  C   UNL A   1      51.089  28.156  24.772  1.00  0.00     0.009 A 
ATOM     67  C   UNL A   1      52.908  27.248  26.683  1.00  0.00     0.001 A 
ATOM     68  C   UNL A   1      52.438  28.007  24.440  1.00  0.00     0.001 A 
ATOM     69  C   UNL A   1      53.347  27.566  25.399  1.00  0.00     0.000 A 
ENDBRANCH  50  64
BRANCH  51  70
ATOM     70  C   UNL A   1      40.969  28.244  28.551  1.00  0.00    -0.014 A 
ATOM     71  C   UNL A   1      40.008  28.873  27.745  1.00  0.00     0.009 A 
ATOM     72  C   UNL A   1      40.559  27.651  29.755  1.00  0.00     0.009 A 
ATOM     73  C   UNL A   1      38.671  28.929  28.149  1.00  0.00     0.001 A 
ATOM     74  C   UNL A   1      39.218  27.680  30.142  1.00  0.00     0.001 A 
ATOM     75  C   UNL A   1      38.277  28.329  29.344  1.00  0.00     0.000 A 
ENDBRANCH  51  70
BRANCH  63  76
ATOM     76  C   UNL A   1      46.233  32.794  28.939  1.00  0.00    -0.014 A 
ATOM     77  C   UNL A   1      46.573  33.090  30.267  1.00  0.00     0.009 A 
ATOM     78  C   UNL A   1      46.000  33.852  28.046  1.00  0.00     0.009 A 
ATOM     79  C   UNL A   1      46.637  34.417  30.701  1.00  0.00     0.001 A 
ATOM     80  C   UNL A   1      46.098  35.176  28.473  1.00  0.00     0.001 A 
ATOM     81  C   UNL A   1      46.405  35.458  29.803  1.00  0.00     0.000 A 
ENDBRANCH  63  76
ENDBRANCH  37  38
ENDBRANCH  29  32
ENDBRANCH  27  28
ENDBRANCH  26  27
ENDBRANCH  25  26
ENDBRANCH  24  25
ENDBRANCH   1  24
TORSDOF 18
ENDMDL
MODEL 3
REMARK VINA RESULT:     -10.0      1.198      6.046
REMARK SMILES CN(CCCC(=O)NCCCCCCNC(=O)c1ccc(-c2c3nc(c(-c4ccccc4)c4ccc([nH]4)c(-c4ccccc4)c4nc(c(-c5ccccc5)c5ccc2[nH]5)C=C4)C=C3)cc1)c1cccc(F)c1C(N)=O
REMARK SMILES IDX 10 1 9 2 8 3 6 4 7 5 5 7 4 8 3 9 2 10 1 11 66 12 67 13 72 14
REMARK SMILES IDX 68 15 70 16 69 17 71 18 73 19 74 20 75 21 11 24 12 25 13 26
REMARK SMILES IDX 14 27 15 28 16 29 17 31 18 32 19 33 65 34 20 35 64 36 21 37
REMARK SMILES IDX 22 38 23 39 58 40 24 41 63 42 57 43 59 44 25 45 62 46 56 47
REMARK SMILES IDX 55 48 26 50 48 51 33 52 47 53 34 54 37 55 46 56 60 57 35 58
REMARK SMILES IDX 36 59 45 61 61 62 38 63 27 64 28 65 32 66 29 67 31 68 30 69
REMARK SMILES IDX 49 70 50 71 54 72 51 73 53 74 52 75 39 76 40 77 44 78 41 79
REMARK SMILES IDX 43 80 42 81
REMARK H PARENT 8 6 74 22 74 23 15 30 59 49 37 60
REMARK Flexibility Score: inf
ROOT
ATOM      1  C   UNL A   1      35.706  21.887  26.127  1.00  0.00     0.021 C 
ENDROOT
BRANCH   1   2
ATOM      2  C   UNL A   1      34.398  21.435  26.772  1.00  0.00     0.116 C 
BRANCH   2   3
ATOM      3  N   UNL A   1      33.802  20.385  25.981  1.00  0.00    -0.356 N 
ATOM      4  C   UNL A   1      32.558  20.340  25.432  1.00  0.00     0.220 C 
ATOM      5  O   UNL A   1      32.160  19.273  24.963  1.00  0.00    -0.275 OA
ATOM      6  H   UNL A   1      34.370  19.597  25.819  1.00  0.00     0.163 HD
BRANCH   4   7
ATOM      7  C   UNL A   1      31.740  21.612  25.307  1.00  0.00     0.102 C 
BRANCH   7   8
ATOM      8  C   UNL A   1      32.058  22.581  24.163  1.00  0.00     0.031 C 
BRANCH   8   9
ATOM      9  C   UNL A   1      31.605  24.051  24.215  1.00  0.00     0.117 C 
BRANCH   9  10
ATOM     10  N   UNL A   1      32.601  25.078  24.602  1.00  0.00    -0.374 N 
ATOM     11  C   UNL A   1      34.005  24.664  24.541  1.00  0.00     0.143 C 
BRANCH  10  12
ATOM     12  C   UNL A   1      32.336  26.442  24.491  1.00  0.00     0.052 A 
ATOM     13  C   UNL A   1      32.026  27.104  25.698  1.00  0.00     0.027 A 
ATOM     14  C   UNL A   1      32.341  27.224  23.303  1.00  0.00     0.098 A 
ATOM     15  C   UNL A   1      31.595  28.431  25.742  1.00  0.00     0.005 A 
ATOM     16  C   UNL A   1      31.910  28.564  23.371  1.00  0.00     0.138 A 
ATOM     17  C   UNL A   1      31.517  29.157  24.566  1.00  0.00     0.040 A 
ATOM     18  F   UNL A   1      31.834  29.327  22.268  1.00  0.00    -0.206 F 
BRANCH  14  19
ATOM     19  C   UNL A   1      32.734  26.686  21.960  1.00  0.00     0.253 C 
ATOM     20  N   UNL A   1      31.729  26.222  21.145  1.00  0.00    -0.365 N 
ATOM     21  O   UNL A   1      33.887  26.640  21.558  1.00  0.00    -0.269 OA
ATOM     22  H   UNL A   1      30.794  26.252  21.451  1.00  0.00     0.159 HD
ATOM     23  H   UNL A   1      31.945  25.862  20.254  1.00  0.00     0.159 HD
ENDBRANCH  14  19
ENDBRANCH  10  12
ENDBRANCH   9  10
ENDBRANCH   8   9
ENDBRANCH   7   8
ENDBRANCH   4   7
ENDBRANCH   2   3
ENDBRANCH   1   2
BRANCH   1  24
ATOM     24  C   UNL A   1      35.912  21.277  24.742  1.00  0.00     0.002 C 
BRANCH  24  25
ATOM     25  C   UNL A   1      37.384  21.160  24.330  1.00  0.00     0.002 C 
BRANCH  25  26
ATOM     26  C   UNL A   1      38.102  19.908  24.840  1.00  0.00     0.021 C 
BRANCH  26  27
ATOM     27  C   UNL A   1      39.026  20.146  26.027  1.00  0.00     0.116 C 
BRANCH  27  28
ATOM     28  N   UNL A   1      40.210  19.306  25.941  1.00  0.00    -0.352 N 
ATOM     29  C   UNL A   1      41.532  19.659  26.003  1.00  0.00     0.251 C 
ATOM     30  H   UNL A   1      40.036  18.344  25.823  1.00  0.00     0.163 HD
ATOM     31  O   UNL A   1      42.398  18.877  25.621  1.00  0.00    -0.269 OA
BRANCH  29  32
ATOM     32  C   UNL A   1      41.916  20.984  26.530  1.00  0.00     0.039 A 
ATOM     33  C   UNL A   1      42.243  22.001  25.631  1.00  0.00     0.014 A 
ATOM     34  C   UNL A   1      41.996  21.209  27.908  1.00  0.00     0.014 A 
ATOM     35  C   UNL A   1      42.620  23.254  26.113  1.00  0.00     0.010 A 
ATOM     36  C   UNL A   1      42.293  22.481  28.386  1.00  0.00     0.010 A 
ATOM     37  C   UNL A   1      42.628  23.510  27.494  1.00  0.00    -0.014 A 
BRANCH  37  38
ATOM     38  C   UNL A   1      43.005  24.846  28.019  1.00  0.00     0.031 A 
ATOM     39  C   UNL A   1      41.947  25.884  28.278  1.00  0.00     0.074 A 
ATOM     40  C   UNL A   1      44.303  25.139  28.217  1.00  0.00     0.049 A 
ATOM     41  N   UNL A   1      42.085  27.109  28.719  1.00  0.00    -0.248 NA
ATOM     42  C   UNL A   1      40.556  25.506  27.980  1.00  0.00     0.031 C 
ATOM     43  C   UNL A   1      45.425  24.235  27.958  1.00  0.00     0.029 A 
ATOM     44  N   UNL A   1      44.899  26.284  28.681  1.00  0.00    -0.354 N 
ATOM     45  C   UNL A   1      40.805  27.650  28.734  1.00  0.00     0.074 A 
ATOM     46  C   UNL A   1      39.913  26.642  28.206  1.00  0.00     0.031 C 
ATOM     47  C   UNL A   1      46.571  24.849  28.293  1.00  0.00     0.029 A 
ATOM     48  C   UNL A   1      46.268  26.202  28.750  1.00  0.00     0.049 A 
ATOM     49  H   UNL A   1      44.394  27.089  28.939  1.00  0.00     0.167 HD
ATOM     50  C   UNL A   1      40.405  28.870  29.166  1.00  0.00     0.031 A 
ATOM     51  C   UNL A   1      47.181  27.115  29.132  1.00  0.00     0.031 A 
ATOM     52  C   UNL A   1      41.294  29.871  29.691  1.00  0.00     0.049 A 
ATOM     53  C   UNL A   1      46.714  28.465  29.599  1.00  0.00     0.074 A 
ATOM     54  C   UNL A   1      40.982  31.113  30.214  1.00  0.00     0.029 A 
ATOM     55  N   UNL A   1      42.674  29.746  29.752  1.00  0.00    -0.354 N 
ATOM     56  N   UNL A   1      45.492  28.931  29.688  1.00  0.00    -0.248 NA
ATOM     57  C   UNL A   1      47.752  29.408  30.034  1.00  0.00     0.031 C 
ATOM     58  C   UNL A   1      42.179  31.767  30.529  1.00  0.00     0.029 A 
ATOM     59  C   UNL A   1      43.231  30.902  30.272  1.00  0.00     0.049 A 
ATOM     60  H   UNL A   1      43.182  28.952  29.468  1.00  0.00     0.167 HD
ATOM     61  C   UNL A   1      45.612  30.212  30.213  1.00  0.00     0.074 A 
ATOM     62  C   UNL A   1      47.025  30.439  30.440  1.00  0.00     0.031 C 
ATOM     63  C   UNL A   1      44.640  31.117  30.483  1.00  0.00     0.031 A 
BRANCH  50  64
ATOM     64  C   UNL A   1      38.937  29.192  29.065  1.00  0.00    -0.014 A 
ATOM     65  C   UNL A   1      38.069  29.011  30.154  1.00  0.00     0.009 A 
ATOM     66  C   UNL A   1      38.419  29.708  27.867  1.00  0.00     0.009 A 
ATOM     67  C   UNL A   1      36.707  29.293  30.031  1.00  0.00     0.001 A 
ATOM     68  C   UNL A   1      37.062  30.022  27.757  1.00  0.00     0.001 A 
ATOM     69  C   UNL A   1      36.206  29.803  28.833  1.00  0.00     0.000 A 
ENDBRANCH  50  64
BRANCH  51  70
ATOM     70  C   UNL A   1      48.627  26.776  29.094  1.00  0.00    -0.014 A 
ATOM     71  C   UNL A   1      49.254  26.182  30.200  1.00  0.00     0.009 A 
ATOM     72  C   UNL A   1      49.389  27.038  27.944  1.00  0.00     0.009 A 
ATOM     73  C   UNL A   1      50.619  25.883  30.164  1.00  0.00     0.001 A 
ATOM     74  C   UNL A   1      50.745  26.708  27.899  1.00  0.00     0.001 A 
ATOM     75  C   UNL A   1      51.361  26.141  29.013  1.00  0.00     0.000 A 
ENDBRANCH  51  70
BRANCH  63  76
ATOM     76  C   UNL A   1      45.070  32.427  31.086  1.00  0.00    -0.014 A 
ATOM     77  C   UNL A   1      45.187  32.593  32.474  1.00  0.00     0.009 A 
ATOM     78  C   UNL A   1      45.397  33.502  30.244  1.00  0.00     0.009 A 
ATOM     79  C   UNL A   1      45.585  33.821  33.008  1.00  0.00     0.001 A 
ATOM     80  C   UNL A   1      45.827  34.717  30.778  1.00  0.00     0.001 A 
ATOM     81  C   UNL A   1      45.909  34.880  32.160  1.00  0.00     0.000 A 
ENDBRANCH  63  76
ENDBRANCH  37  38
ENDBRANCH  29  32
ENDBRANCH  27  28
ENDBRANCH  26  27
ENDBRANCH  25  26
ENDBRANCH  24  25
ENDBRANCH   1  24
TORSDOF 18
ENDMDL
