MODEL 1
REMARK VINA RESULT:     -10.9      0.000      0.000
REMARK SMILES CCc1cc(OC(F)(F)F)cc2c1O[C@H](C(F)(F)F)C(C(=O)NCCCCCCNC(=O)c1ccc(-c3c4nc(c(-c5ccccc5)c5ccc([nH]5)c(-c5ccccc5)c5nc(c(-c6ccccc6)c6ccc3[nH]6)C=C5)C=C4)cc1)=C2
REMARK SMILES IDX 26 1 25 2 24 3 23 4 21 5 22 6 20 8 3 9 4 10 13 11 5 12 12 13
REMARK SMILES IDX 14 14 11 15 81 16 15 17 2 18 1 19 6 20 7 21 8 22 9 23 10 24
REMARK SMILES IDX 16 25 17 26 18 27 19 28 27 29 28 30 29 31 30 32 31 33 32 35
REMARK SMILES IDX 33 36 34 37 80 38 35 39 79 40 36 41 37 42 38 43 73 44 39 45
REMARK SMILES IDX 78 46 72 47 74 48 40 49 77 50 71 51 70 52 41 54 63 55 48 56
REMARK SMILES IDX 62 57 49 58 52 59 61 60 75 61 50 62 51 63 60 65 76 66 53 67
REMARK SMILES IDX 42 68 43 69 47 70 44 71 46 72 45 73 64 74 65 75 69 76 66 77
REMARK SMILES IDX 68 78 67 79 54 80 55 81 59 82 56 83 58 84 57 85
REMARK H PARENT 23 7 30 34 74 53 52 64
REMARK Flexibility Score: inf
ROOT
ATOM      1  C   UNL A   1      31.484  29.277  24.914  1.00  0.00     0.002 C 
ENDROOT
BRANCH   1   2
ATOM      2  C   UNL A   1      31.012  28.664  23.588  1.00  0.00     0.021 C 
BRANCH   2   3
ATOM      3  C   UNL A   1      30.865  27.143  23.658  1.00  0.00     0.116 C 
BRANCH   3   4
ATOM      4  N   UNL A   1      30.242  26.770  24.910  1.00  0.00    -0.352 N 
ATOM      5  C   UNL A   1      30.381  25.698  25.727  1.00  0.00     0.251 C 
ATOM      6  O   UNL A   1      29.659  25.652  26.723  1.00  0.00    -0.270 OA
ATOM      7  H   UNL A   1      29.585  27.427  25.234  1.00  0.00     0.163 HD
BRANCH   5   8
ATOM      8  C   UNL A   1      31.434  24.660  25.546  1.00  0.00     0.067 C 
ATOM      9  C   UNL A   1      33.728  21.131  25.476  1.00  0.00    -0.002 A 
ATOM     10  C   UNL A   1      35.096  21.220  25.818  1.00  0.00     0.054 A 
ATOM     11  C   UNL A   1      32.964  22.307  25.493  1.00  0.00     0.131 A 
ATOM     12  C   UNL A   1      35.690  22.441  26.144  1.00  0.00     0.130 A 
ATOM     13  C   UNL A   1      33.555  23.544  25.792  1.00  0.00     0.021 A 
ATOM     14  O   UNL A   1      31.613  22.209  25.301  1.00  0.00    -0.475 OA
ATOM     15  C   UNL A   1      34.914  23.601  26.116  1.00  0.00     0.058 A 
ATOM     16  C   UNL A   1      32.729  24.748  25.883  1.00  0.00     0.025 C 
ATOM     17  C   UNL A   1      30.928  23.407  24.856  1.00  0.00     0.314 C 
BRANCH   9  18
ATOM     18  C   UNL A   1      33.186  19.744  25.181  1.00  0.00     0.036 C 
ATOM     19  C   UNL A   1      34.122  18.711  24.567  1.00  0.00     0.009 C 
ENDBRANCH   9  18
BRANCH  12  20
ATOM     20  O   UNL A   1      36.986  22.641  26.522  1.00  0.00    -0.406 OA
BRANCH  20  21
ATOM     21  C   UNL A   1      37.962  22.788  25.503  1.00  0.00     0.573 C 
ATOM     22  F   UNL A   1      39.108  23.305  25.995  1.00  0.00    -0.132 F 
ATOM     23  F   UNL A   1      38.218  21.607  24.903  1.00  0.00    -0.132 F 
ATOM     24  F   UNL A   1      37.485  23.641  24.570  1.00  0.00    -0.132 F 
ENDBRANCH  20  21
ENDBRANCH  12  20
BRANCH  17  25
ATOM     25  C   UNL A   1      30.984  23.522  23.318  1.00  0.00     0.429 C 
ATOM     26  F   UNL A   1      29.849  24.059  22.806  1.00  0.00    -0.167 F 
ATOM     27  F   UNL A   1      32.009  24.320  22.928  1.00  0.00    -0.167 F 
ATOM     28  F   UNL A   1      31.165  22.333  22.703  1.00  0.00    -0.167 F 
ENDBRANCH  17  25
ENDBRANCH   5   8
ENDBRANCH   3   4
ENDBRANCH   2   3
ENDBRANCH   1   2
BRANCH   1  29
ATOM     29  C   UNL A   1      33.005  29.453  25.029  1.00  0.00     0.002 C 
BRANCH  29  30
ATOM     30  C   UNL A   1      33.714  28.370  25.846  1.00  0.00     0.021 C 
BRANCH  30  31
ATOM     31  C   UNL A   1      33.689  28.613  27.351  1.00  0.00     0.116 C 
BRANCH  31  32
ATOM     32  N   UNL A   1      33.652  30.035  27.659  1.00  0.00    -0.352 N 
ATOM     33  C   UNL A   1      34.580  30.801  28.316  1.00  0.00     0.251 C 
ATOM     34  H   UNL A   1      32.848  30.513  27.352  1.00  0.00     0.163 HD
ATOM     35  O   UNL A   1      34.287  31.922  28.715  1.00  0.00    -0.269 OA
BRANCH  33  36
ATOM     36  C   UNL A   1      35.937  30.265  28.545  1.00  0.00     0.039 A 
ATOM     37  C   UNL A   1      36.881  30.350  27.518  1.00  0.00     0.014 A 
ATOM     38  C   UNL A   1      36.267  29.660  29.761  1.00  0.00     0.014 A 
ATOM     39  C   UNL A   1      38.173  29.865  27.730  1.00  0.00     0.010 A 
ATOM     40  C   UNL A   1      37.573  29.242  29.994  1.00  0.00     0.010 A 
ATOM     41  C   UNL A   1      38.535  29.328  28.977  1.00  0.00    -0.014 A 
BRANCH  41  42
ATOM     42  C   UNL A   1      39.909  28.833  29.230  1.00  0.00     0.031 A 
ATOM     43  C   UNL A   1      40.920  29.728  29.891  1.00  0.00     0.074 A 
ATOM     44  C   UNL A   1      40.262  27.602  28.814  1.00  0.00     0.049 A 
ATOM     45  N   UNL A   1      42.184  29.498  30.147  1.00  0.00    -0.248 NA
ATOM     46  C   UNL A   1      40.460  31.066  30.296  1.00  0.00     0.031 C 
ATOM     47  C   UNL A   1      39.382  26.652  28.129  1.00  0.00     0.029 A 
ATOM     48  N   UNL A   1      41.461  26.942  28.903  1.00  0.00    -0.354 N 
ATOM     49  C   UNL A   1      42.670  30.665  30.722  1.00  0.00     0.074 A 
ATOM     50  C   UNL A   1      41.581  31.618  30.733  1.00  0.00     0.031 C 
ATOM     51  C   UNL A   1      40.065  25.522  27.884  1.00  0.00     0.029 A 
ATOM     52  C   UNL A   1      41.435  25.681  28.357  1.00  0.00     0.049 A 
ATOM     53  H   UNL A   1      42.263  27.333  29.318  1.00  0.00     0.167 HD
ATOM     54  C   UNL A   1      43.906  30.916  31.214  1.00  0.00     0.031 A 
ATOM     55  C   UNL A   1      42.409  24.758  28.246  1.00  0.00     0.031 A 
ATOM     56  C   UNL A   1      44.984  29.965  31.216  1.00  0.00     0.049 A 
ATOM     57  C   UNL A   1      43.776  25.065  28.792  1.00  0.00     0.074 A 
ATOM     58  C   UNL A   1      46.257  30.103  31.741  1.00  0.00     0.029 A 
ATOM     59  N   UNL A   1      44.915  28.697  30.660  1.00  0.00    -0.354 N 
ATOM     60  N   UNL A   1      44.201  26.151  29.393  1.00  0.00    -0.248 NA
ATOM     61  C   UNL A   1      44.793  24.013  28.655  1.00  0.00     0.031 C 
ATOM     62  C   UNL A   1      46.974  28.935  31.460  1.00  0.00     0.029 A 
ATOM     63  C   UNL A   1      46.130  28.050  30.811  1.00  0.00     0.049 A 
ATOM     64  H   UNL A   1      44.120  28.313  30.224  1.00  0.00     0.167 HD
ATOM     65  C   UNL A   1      45.526  25.902  29.730  1.00  0.00     0.074 A 
ATOM     66  C   UNL A   1      45.827  24.558  29.280  1.00  0.00     0.031 C 
ATOM     67  C   UNL A   1      46.412  26.712  30.356  1.00  0.00     0.031 A 
BRANCH  54  68
ATOM     68  C   UNL A   1      44.156  32.283  31.790  1.00  0.00    -0.014 A 
ATOM     69  C   UNL A   1      44.629  33.336  30.990  1.00  0.00     0.009 A 
ATOM     70  C   UNL A   1      43.888  32.530  33.145  1.00  0.00     0.009 A 
ATOM     71  C   UNL A   1      44.865  34.595  31.543  1.00  0.00     0.001 A 
ATOM     72  C   UNL A   1      44.097  33.798  33.690  1.00  0.00     0.001 A 
ATOM     73  C   UNL A   1      44.594  34.827  32.891  1.00  0.00     0.000 A 
ENDBRANCH  54  68
BRANCH  55  74
ATOM     74  C   UNL A   1      42.124  23.448  27.609  1.00  0.00    -0.014 A 
ATOM     75  C   UNL A   1      42.436  23.230  26.258  1.00  0.00     0.009 A 
ATOM     76  C   UNL A   1      41.532  22.409  28.344  1.00  0.00     0.009 A 
ATOM     77  C   UNL A   1      42.136  22.010  25.650  1.00  0.00     0.001 A 
ATOM     78  C   UNL A   1      41.259  21.179  27.740  1.00  0.00     0.001 A 
ATOM     79  C   UNL A   1      41.553  20.984  26.392  1.00  0.00     0.000 A 
ENDBRANCH  55  74
BRANCH  67  80
ATOM     80  C   UNL A   1      47.781  26.155  30.626  1.00  0.00    -0.014 A 
ATOM     81  C   UNL A   1      48.771  26.140  29.632  1.00  0.00     0.009 A 
ATOM     82  C   UNL A   1      48.094  25.674  31.907  1.00  0.00     0.009 A 
ATOM     83  C   UNL A   1      50.039  25.624  29.908  1.00  0.00     0.001 A 
ATOM     84  C   UNL A   1      49.370  25.185  32.188  1.00  0.00     0.001 A 
ATOM     85  C   UNL A   1      50.339  25.152  31.186  1.00  0.00     0.000 A 
ENDBRANCH  67  80
ENDBRANCH  41  42
ENDBRANCH  33  36
ENDBRANCH  31  32
ENDBRANCH  30  31
ENDBRANCH  29  30
ENDBRANCH   1  29
TORSDOF 17
ENDMDL
MODEL 2
REMARK VINA RESULT:     -10.5      2.813      6.901
REMARK SMILES CCc1cc(OC(F)(F)F)cc2c1O[C@H](C(F)(F)F)C(C(=O)NCCCCCCNC(=O)c1ccc(-c3c4nc(c(-c5ccccc5)c5ccc([nH]5)c(-c5ccccc5)c5nc(c(-c6ccccc6)c6ccc3[nH]6)C=C5)C=C4)cc1)=C2
REMARK SMILES IDX 26 1 25 2 24 3 23 4 21 5 22 6 20 8 3 9 4 10 13 11 5 12 12 13
REMARK SMILES IDX 14 14 11 15 81 16 15 17 2 18 1 19 6 20 7 21 8 22 9 23 10 24
REMARK SMILES IDX 16 25 17 26 18 27 19 28 27 29 28 30 29 31 30 32 31 33 32 35
REMARK SMILES IDX 33 36 34 37 80 38 35 39 79 40 36 41 37 42 38 43 73 44 39 45
REMARK SMILES IDX 78 46 72 47 74 48 40 49 77 50 71 51 70 52 41 54 63 55 48 56
REMARK SMILES IDX 62 57 49 58 52 59 61 60 75 61 50 62 51 63 60 65 76 66 53 67
REMARK SMILES IDX 42 68 43 69 47 70 44 71 46 72 45 73 64 74 65 75 69 76 66 77
REMARK SMILES IDX 68 78 67 79 54 80 55 81 59 82 56 83 58 84 57 85
REMARK H PARENT 23 7 30 34 74 53 52 64
REMARK Flexibility Score: inf
ROOT
ATOM      1  C   UNL A   1      30.737  29.684  24.383  1.00  0.00     0.002 C 
ENDROOT
BRANCH   1   2
ATOM      2  C   UNL A   1      31.570  29.254  23.167  1.00  0.00     0.021 C 
BRANCH   2   3
ATOM      3  C   UNL A   1      30.912  28.126  22.368  1.00  0.00     0.116 C 
BRANCH   3   4
ATOM      4  N   UNL A   1      29.770  27.614  23.095  1.00  0.00    -0.352 N 
ATOM      5  C   UNL A   1      29.552  26.468  23.782  1.00  0.00     0.251 C 
ATOM      6  O   UNL A   1      28.431  26.305  24.265  1.00  0.00    -0.270 OA
ATOM      7  H   UNL A   1      28.995  28.221  23.088  1.00  0.00     0.163 HD
BRANCH   5   8
ATOM      8  C   UNL A   1      30.622  25.476  24.083  1.00  0.00     0.067 C 
ATOM      9  C   UNL A   1      34.226  23.329  24.431  1.00  0.00    -0.002 A 
ATOM     10  C   UNL A   1      34.190  21.931  24.230  1.00  0.00     0.054 A 
ATOM     11  C   UNL A   1      33.025  24.045  24.321  1.00  0.00     0.131 A 
ATOM     12  C   UNL A   1      32.995  21.264  23.952  1.00  0.00     0.130 A 
ATOM     13  C   UNL A   1      31.814  23.383  24.069  1.00  0.00     0.021 A 
ATOM     14  O   UNL A   1      33.074  25.411  24.375  1.00  0.00    -0.475 OA
ATOM     15  C   UNL A   1      31.809  21.996  23.886  1.00  0.00     0.058 A 
ATOM     16  C   UNL A   1      30.584  24.152  23.879  1.00  0.00     0.025 C 
ATOM     17  C   UNL A   1      31.846  26.094  24.732  1.00  0.00     0.314 C 
BRANCH   9  18
ATOM     18  C   UNL A   1      35.589  23.947  24.686  1.00  0.00     0.036 C 
ATOM     19  C   UNL A   1      36.445  23.386  25.814  1.00  0.00     0.009 C 
ENDBRANCH   9  18
BRANCH  12  20
ATOM     20  O   UNL A   1      32.845  19.929  23.706  1.00  0.00    -0.406 OA
BRANCH  20  21
ATOM     21  C   UNL A   1      33.075  19.025  24.775  1.00  0.00     0.573 C 
ATOM     22  F   UNL A   1      32.136  18.056  24.806  1.00  0.00    -0.132 F 
ATOM     23  F   UNL A   1      34.299  18.467  24.682  1.00  0.00    -0.132 F 
ATOM     24  F   UNL A   1      33.010  19.708  25.939  1.00  0.00    -0.132 F 
ENDBRANCH  20  21
ENDBRANCH  12  20
BRANCH  17  25
ATOM     25  C   UNL A   1      31.709  26.192  26.267  1.00  0.00     0.429 C 
ATOM     26  F   UNL A   1      31.585  24.972  26.846  1.00  0.00    -0.167 F 
ATOM     27  F   UNL A   1      32.801  26.781  26.815  1.00  0.00    -0.167 F 
ATOM     28  F   UNL A   1      30.641  26.920  26.659  1.00  0.00    -0.167 F 
ENDBRANCH  17  25
ENDBRANCH   5   8
ENDBRANCH   3   4
ENDBRANCH   2   3
ENDBRANCH   1   2
BRANCH   1  29
ATOM     29  C   UNL A   1      31.560  30.006  25.637  1.00  0.00     0.002 C 
BRANCH  29  30
ATOM     30  C   UNL A   1      31.353  31.417  26.193  1.00  0.00     0.021 C 
BRANCH  30  31
ATOM     31  C   UNL A   1      32.548  31.957  26.971  1.00  0.00     0.116 C 
BRANCH  31  32
ATOM     32  N   UNL A   1      32.346  33.345  27.360  1.00  0.00    -0.352 N 
ATOM     33  C   UNL A   1      33.053  34.103  28.257  1.00  0.00     0.251 C 
ATOM     34  H   UNL A   1      31.596  33.803  26.916  1.00  0.00     0.163 HD
ATOM     35  O   UNL A   1      32.603  35.171  28.657  1.00  0.00    -0.269 OA
BRANCH  33  36
ATOM     36  C   UNL A   1      34.363  33.624  28.743  1.00  0.00     0.039 A 
ATOM     37  C   UNL A   1      34.418  32.898  29.936  1.00  0.00     0.014 A 
ATOM     38  C   UNL A   1      35.533  33.911  28.035  1.00  0.00     0.014 A 
ATOM     39  C   UNL A   1      35.648  32.422  30.395  1.00  0.00     0.010 A 
ATOM     40  C   UNL A   1      36.746  33.377  28.457  1.00  0.00     0.010 A 
ATOM     41  C   UNL A   1      36.817  32.639  29.647  1.00  0.00    -0.014 A 
BRANCH  41  42
ATOM     42  C   UNL A   1      38.128  32.119  30.104  1.00  0.00     0.031 A 
ATOM     43  C   UNL A   1      38.640  30.806  29.578  1.00  0.00     0.074 A 
ATOM     44  C   UNL A   1      38.829  32.797  31.033  1.00  0.00     0.049 A 
ATOM     45  N   UNL A   1      39.733  30.159  29.898  1.00  0.00    -0.248 NA
ATOM     46  C   UNL A   1      37.803  30.117  28.582  1.00  0.00     0.031 C 
ATOM     47  C   UNL A   1      38.422  34.063  31.646  1.00  0.00     0.029 A 
ATOM     48  N   UNL A   1      40.031  32.510  31.627  1.00  0.00    -0.354 N 
ATOM     49  C   UNL A   1      39.703  28.984  29.159  1.00  0.00     0.074 A 
ATOM     50  C   UNL A   1      38.464  28.982  28.413  1.00  0.00     0.031 C 
ATOM     51  C   UNL A   1      39.371  34.456  32.511  1.00  0.00     0.029 A 
ATOM     52  C   UNL A   1      40.431  33.454  32.542  1.00  0.00     0.049 A 
ATOM     53  H   UNL A   1      40.557  31.704  31.419  1.00  0.00     0.167 HD
ATOM     54  C   UNL A   1      40.633  28.001  29.091  1.00  0.00     0.031 A 
ATOM     55  C   UNL A   1      41.527  33.504  33.321  1.00  0.00     0.031 A 
ATOM     56  C   UNL A   1      41.871  28.009  29.822  1.00  0.00     0.049 A 
ATOM     57  C   UNL A   1      42.540  32.396  33.235  1.00  0.00     0.074 A 
ATOM     58  C   UNL A   1      42.904  27.089  29.780  1.00  0.00     0.029 A 
ATOM     59  N   UNL A   1      42.242  28.987  30.731  1.00  0.00    -0.354 N 
ATOM     60  N   UNL A   1      42.529  31.323  32.481  1.00  0.00    -0.248 NA
ATOM     61  C   UNL A   1      43.723  32.514  34.099  1.00  0.00     0.031 C 
ATOM     62  C   UNL A   1      43.880  27.486  30.701  1.00  0.00     0.029 A 
ATOM     63  C   UNL A   1      43.479  28.682  31.274  1.00  0.00     0.049 A 
ATOM     64  H   UNL A   1      41.706  29.781  30.957  1.00  0.00     0.167 HD
ATOM     65  C   UNL A   1      43.713  30.653  32.759  1.00  0.00     0.074 A 
ATOM     66  C   UNL A   1      44.425  31.450  33.738  1.00  0.00     0.031 C 
ATOM     67  C   UNL A   1      44.172  29.485  32.248  1.00  0.00     0.031 A 
BRANCH  54  68
ATOM     68  C   UNL A   1      40.338  26.831  28.194  1.00  0.00    -0.014 A 
ATOM     69  C   UNL A   1      40.803  26.792  26.869  1.00  0.00     0.009 A 
ATOM     70  C   UNL A   1      39.610  25.738  28.689  1.00  0.00     0.009 A 
ATOM     71  C   UNL A   1      40.511  25.702  26.048  1.00  0.00     0.001 A 
ATOM     72  C   UNL A   1      39.344  24.635  27.875  1.00  0.00     0.001 A 
ATOM     73  C   UNL A   1      39.786  24.622  26.553  1.00  0.00     0.000 A 
ENDBRANCH  54  68
BRANCH  55  74
ATOM     74  C   UNL A   1      41.737  34.654  34.238  1.00  0.00    -0.014 A 
ATOM     75  C   UNL A   1      42.430  35.793  33.804  1.00  0.00     0.009 A 
ATOM     76  C   UNL A   1      41.250  34.616  35.554  1.00  0.00     0.009 A 
ATOM     77  C   UNL A   1      42.656  36.860  34.676  1.00  0.00     0.001 A 
ATOM     78  C   UNL A   1      41.453  35.696  36.416  1.00  0.00     0.001 A 
ATOM     79  C   UNL A   1      42.164  36.812  35.979  1.00  0.00     0.000 A 
ENDBRANCH  55  74
BRANCH  67  80
ATOM     80  C   UNL A   1      45.521  29.016  32.712  1.00  0.00    -0.014 A 
ATOM     81  C   UNL A   1      46.702  29.505  32.134  1.00  0.00     0.009 A 
ATOM     82  C   UNL A   1      45.610  28.099  33.771  1.00  0.00     0.009 A 
ATOM     83  C   UNL A   1      47.946  29.060  32.587  1.00  0.00     0.001 A 
ATOM     84  C   UNL A   1      46.855  27.677  34.240  1.00  0.00     0.001 A 
ATOM     85  C   UNL A   1      48.021  28.151  33.642  1.00  0.00     0.000 A 
ENDBRANCH  67  80
ENDBRANCH  41  42
ENDBRANCH  33  36
ENDBRANCH  31  32
ENDBRANCH  30  31
ENDBRANCH  29  30
ENDBRANCH   1  29
TORSDOF 17
ENDMDL
MODEL 3
REMARK VINA RESULT:     -10.3      5.876      9.531
REMARK SMILES CCc1cc(OC(F)(F)F)cc2c1O[C@H](C(F)(F)F)C(C(=O)NCCCCCCNC(=O)c1ccc(-c3c4nc(c(-c5ccccc5)c5ccc([nH]5)c(-c5ccccc5)c5nc(c(-c6ccccc6)c6ccc3[nH]6)C=C5)C=C4)cc1)=C2
REMARK SMILES IDX 26 1 25 2 24 3 23 4 21 5 22 6 20 8 3 9 4 10 13 11 5 12 12 13
REMARK SMILES IDX 14 14 11 15 81 16 15 17 2 18 1 19 6 20 7 21 8 22 9 23 10 24
REMARK SMILES IDX 16 25 17 26 18 27 19 28 27 29 28 30 29 31 30 32 31 33 32 35
REMARK SMILES IDX 33 36 34 37 80 38 35 39 79 40 36 41 37 42 38 43 73 44 39 45
REMARK SMILES IDX 78 46 72 47 74 48 40 49 77 50 71 51 70 52 41 54 63 55 48 56
REMARK SMILES IDX 62 57 49 58 52 59 61 60 75 61 50 62 51 63 60 65 76 66 53 67
REMARK SMILES IDX 42 68 43 69 47 70 44 71 46 72 45 73 64 74 65 75 69 76 66 77
REMARK SMILES IDX 68 78 67 79 54 80 55 81 59 82 56 83 58 84 57 85
REMARK H PARENT 23 7 30 34 74 53 52 64
REMARK Flexibility Score: inf
ROOT
ATOM      1  C   UNL A   1      35.679  35.166  32.919  1.00  0.00     0.002 C 
ENDROOT
BRANCH   1   2
ATOM      2  C   UNL A   1      35.922  33.948  33.822  1.00  0.00     0.021 C 
BRANCH   2   3
ATOM      3  C   UNL A   1      37.150  34.114  34.721  1.00  0.00     0.116 C 
BRANCH   3   4
ATOM      4  N   UNL A   1      36.875  33.564  36.030  1.00  0.00    -0.352 N 
ATOM      5  C   UNL A   1      37.479  32.608  36.776  1.00  0.00     0.251 C 
ATOM      6  O   UNL A   1      36.967  32.330  37.860  1.00  0.00    -0.270 OA
ATOM      7  H   UNL A   1      36.090  33.965  36.469  1.00  0.00     0.163 HD
BRANCH   5   8
ATOM      8  C   UNL A   1      38.781  31.983  36.408  1.00  0.00     0.067 C 
ATOM      9  C   UNL A   1      42.073  29.419  35.853  1.00  0.00    -0.002 A 
ATOM     10  C   UNL A   1      43.369  29.951  36.034  1.00  0.00     0.054 A 
ATOM     11  C   UNL A   1      40.975  30.273  36.032  1.00  0.00     0.131 A 
ATOM     12  C   UNL A   1      43.568  31.295  36.359  1.00  0.00     0.130 A 
ATOM     13  C   UNL A   1      41.163  31.631  36.332  1.00  0.00     0.021 A 
ATOM     14  O   UNL A   1      39.718  29.734  35.997  1.00  0.00    -0.475 OA
ATOM     15  C   UNL A   1      42.459  32.131  36.493  1.00  0.00     0.058 A 
ATOM     16  C   UNL A   1      40.008  32.490  36.593  1.00  0.00     0.025 C 
ATOM     17  C   UNL A   1      38.626  30.644  35.710  1.00  0.00     0.314 C 
BRANCH   9  18
ATOM     18  C   UNL A   1      41.981  27.935  35.543  1.00  0.00     0.036 C 
ATOM     19  C   UNL A   1      41.690  27.507  34.110  1.00  0.00     0.009 C 
ENDBRANCH   9  18
BRANCH  12  20
ATOM     20  O   UNL A   1      44.766  31.908  36.590  1.00  0.00    -0.406 OA
BRANCH  20  21
ATOM     21  C   UNL A   1      45.619  31.351  37.577  1.00  0.00     0.573 C 
ATOM     22  F   UNL A   1      44.908  30.780  38.572  1.00  0.00    -0.132 F 
ATOM     23  F   UNL A   1      46.454  30.441  37.036  1.00  0.00    -0.132 F 
ATOM     24  F   UNL A   1      46.365  32.343  38.111  1.00  0.00    -0.132 F 
ENDBRANCH  20  21
ENDBRANCH  12  20
BRANCH  17  25
ATOM     25  C   UNL A   1      38.437  30.797  34.186  1.00  0.00     0.429 C 
ATOM     26  F   UNL A   1      39.129  31.853  33.689  1.00  0.00    -0.167 F 
ATOM     27  F   UNL A   1      38.875  29.694  33.529  1.00  0.00    -0.167 F 
ATOM     28  F   UNL A   1      37.146  30.973  33.827  1.00  0.00    -0.167 F 
ENDBRANCH  17  25
ENDBRANCH   5   8
ENDBRANCH   3   4
ENDBRANCH   2   3
ENDBRANCH   1   2
BRANCH   1  29
ATOM     29  C   UNL A   1      34.367  35.913  33.197  1.00  0.00     0.002 C 
BRANCH  29  30
ATOM     30  C   UNL A   1      33.235  35.604  32.214  1.00  0.00     0.021 C 
BRANCH  30  31
ATOM     31  C   UNL A   1      33.417  36.238  30.840  1.00  0.00     0.116 C 
BRANCH  31  32
ATOM     32  N   UNL A   1      32.698  35.498  29.814  1.00  0.00    -0.352 N 
ATOM     33  C   UNL A   1      33.157  34.518  28.973  1.00  0.00     0.251 C 
ATOM     34  H   UNL A   1      31.748  35.735  29.709  1.00  0.00     0.163 HD
ATOM     35  O   UNL A   1      32.495  34.175  28.000  1.00  0.00    -0.269 OA
BRANCH  33  36
ATOM     36  C   UNL A   1      34.460  33.876  29.244  1.00  0.00     0.039 A 
ATOM     37  C   UNL A   1      35.566  34.235  28.468  1.00  0.00     0.014 A 
ATOM     38  C   UNL A   1      34.581  32.908  30.244  1.00  0.00     0.014 A 
ATOM     39  C   UNL A   1      36.807  33.650  28.729  1.00  0.00     0.010 A 
ATOM     40  C   UNL A   1      35.832  32.380  30.548  1.00  0.00     0.010 A 
ATOM     41  C   UNL A   1      36.954  32.736  29.785  1.00  0.00    -0.014 A 
BRANCH  41  42
ATOM     42  C   UNL A   1      38.268  32.125  30.095  1.00  0.00     0.031 A 
ATOM     43  C   UNL A   1      39.273  32.881  30.920  1.00  0.00     0.074 A 
ATOM     44  C   UNL A   1      38.580  30.918  29.586  1.00  0.00     0.049 A 
ATOM     45  N   UNL A   1      40.494  32.540  31.250  1.00  0.00    -0.248 NA
ATOM     46  C   UNL A   1      38.862  34.203  31.419  1.00  0.00     0.031 C 
ATOM     47  C   UNL A   1      37.705  30.100  28.742  1.00  0.00     0.029 A 
ATOM     48  N   UNL A   1      39.724  30.170  29.702  1.00  0.00    -0.354 N 
ATOM     49  C   UNL A   1      40.999  33.611  31.976  1.00  0.00     0.074 A 
ATOM     50  C   UNL A   1      39.974  34.632  31.997  1.00  0.00     0.031 C 
ATOM     51  C   UNL A   1      38.336  28.955  28.438  1.00  0.00     0.029 A 
ATOM     52  C   UNL A   1      39.668  28.972  29.032  1.00  0.00     0.049 A 
ATOM     53  H   UNL A   1      40.511  30.464  30.216  1.00  0.00     0.167 HD
ATOM     54  C   UNL A   1      42.202  33.728  32.587  1.00  0.00     0.031 A 
ATOM     55  C   UNL A   1      40.590  27.999  28.906  1.00  0.00     0.031 A 
ATOM     56  C   UNL A   1      43.215  32.709  32.577  1.00  0.00     0.049 A 
ATOM     57  C   UNL A   1      41.921  28.158  29.585  1.00  0.00     0.074 A 
ATOM     58  C   UNL A   1      44.445  32.708  33.212  1.00  0.00     0.029 A 
ATOM     59  N   UNL A   1      43.117  31.507  31.894  1.00  0.00    -0.354 N 
ATOM     60  N   UNL A   1      42.359  29.149  30.324  1.00  0.00    -0.248 NA
ATOM     61  C   UNL A   1      42.880  27.056  29.424  1.00  0.00     0.031 C 
ATOM     62  C   UNL A   1      45.111  31.525  32.873  1.00  0.00     0.029 A 
ATOM     63  C   UNL A   1      44.273  30.766  32.073  1.00  0.00     0.049 A 
ATOM     64  H   UNL A   1      42.340  31.222  31.360  1.00  0.00     0.167 HD
ATOM     65  C   UNL A   1      43.633  28.778  30.737  1.00  0.00     0.074 A 
ATOM     66  C   UNL A   1      43.888  27.465  30.180  1.00  0.00     0.031 C 
ATOM     67  C   UNL A   1      44.510  29.462  31.510  1.00  0.00     0.031 A 
BRANCH  54  68
ATOM     68  C   UNL A   1      42.485  35.013  33.315  1.00  0.00    -0.014 A 
ATOM     69  C   UNL A   1      42.021  35.228  34.623  1.00  0.00     0.009 A 
ATOM     70  C   UNL A   1      43.251  36.013  32.695  1.00  0.00     0.009 A 
ATOM     71  C   UNL A   1      42.285  36.431  35.280  1.00  0.00     0.001 A 
ATOM     72  C   UNL A   1      43.538  37.204  33.365  1.00  0.00     0.001 A 
ATOM     73  C   UNL A   1      43.047  37.416  34.653  1.00  0.00     0.000 A 
ENDBRANCH  54  68
BRANCH  55  74
ATOM     74  C   UNL A   1      40.280  26.778  28.119  1.00  0.00    -0.014 A 
ATOM     75  C   UNL A   1      39.601  25.703  28.712  1.00  0.00     0.009 A 
ATOM     76  C   UNL A   1      40.666  26.678  26.773  1.00  0.00     0.009 A 
ATOM     77  C   UNL A   1      39.339  24.541  27.982  1.00  0.00     0.001 A 
ATOM     78  C   UNL A   1      40.378  25.526  26.037  1.00  0.00     0.001 A 
ATOM     79  C   UNL A   1      39.724  24.456  26.645  1.00  0.00     0.000 A 
ENDBRANCH  55  74
BRANCH  67  80
ATOM     80  C   UNL A   1      45.815  28.788  31.829  1.00  0.00    -0.014 A 
ATOM     81  C   UNL A   1      45.940  27.921  32.925  1.00  0.00     0.009 A 
ATOM     82  C   UNL A   1      46.924  28.995  30.994  1.00  0.00     0.009 A 
ATOM     83  C   UNL A   1      47.160  27.301  33.197  1.00  0.00     0.001 A 
ATOM     84  C   UNL A   1      48.134  28.351  31.252  1.00  0.00     0.001 A 
ATOM     85  C   UNL A   1      48.255  27.512  32.357  1.00  0.00     0.000 A 
ENDBRANCH  67  80
ENDBRANCH  41  42
ENDBRANCH  33  36
ENDBRANCH  31  32
ENDBRANCH  30  31
ENDBRANCH  29  30
ENDBRANCH   1  29
TORSDOF 17
ENDMDL
