MODEL 1
REMARK VINA RESULT:     -11.0      0.000      0.000
REMARK SMILES O=C(NCCCCCCNC(=O)c1ccc(-c2c3nc(c(-c4ccccc4)c4ccc([nH]4)c(-c4ccccc4)c4nc(c(-c5ccccc5)c5ccc2[nH]5)C=C4)C=C3)cc1)c1ccc(Nc2ccc(F)cc2[N+](=O)[O-])cc1
REMARK SMILES IDX 6 1 5 2 4 3 3 4 1 5 2 6 61 8 62 9 77 10 63 11 76 12 64 13
REMARK SMILES IDX 65 14 66 16 67 17 72 18 68 19 71 20 69 21 70 22 73 23 74 24
REMARK SMILES IDX 75 25 7 26 8 27 9 28 10 29 11 30 12 32 13 33 14 34 60 35
REMARK SMILES IDX 15 36 59 37 16 38 17 39 18 40 53 41 19 42 58 43 52 44 54 45
REMARK SMILES IDX 20 46 57 47 51 48 50 49 21 51 43 52 28 53 42 54 29 55 32 56
REMARK SMILES IDX 41 57 55 58 30 59 31 60 40 62 56 63 33 64 22 65 23 66 27 67
REMARK SMILES IDX 24 68 26 69 25 70 44 71 45 72 49 73 46 74 48 75 47 76 34 77
REMARK SMILES IDX 35 78 39 79 36 80 38 81 37 82
REMARK H PARENT 3 7 65 15 10 31 54 50 32 61
REMARK Flexibility Score: inf
ROOT
ATOM      1  C   UNL A   1      31.635  29.166  25.170  1.00  0.00     0.002 C 
ENDROOT
BRANCH   1   2
ATOM      2  C   UNL A   1      30.593  29.017  24.059  1.00  0.00     0.021 C 
BRANCH   2   3
ATOM      3  C   UNL A   1      30.906  27.941  23.025  1.00  0.00     0.116 C 
BRANCH   3   4
ATOM      4  N   UNL A   1      32.078  28.268  22.229  1.00  0.00    -0.352 N 
ATOM      5  O   UNL A   1      34.258  28.198  21.642  1.00  0.00    -0.269 OA
ATOM      6  C   UNL A   1      33.320  27.682  22.241  1.00  0.00     0.251 C 
ATOM      7  H   UNL A   1      31.965  29.011  21.593  1.00  0.00     0.163 HD
BRANCH   6   8
ATOM      8  C   UNL A   1      33.524  26.431  23.000  1.00  0.00     0.039 A 
ATOM      9  C   UNL A   1      33.946  26.476  24.328  1.00  0.00     0.016 A 
ATOM     10  C   UNL A   1      33.300  25.204  22.378  1.00  0.00     0.016 A 
ATOM     11  C   UNL A   1      34.253  25.294  24.996  1.00  0.00     0.027 A 
ATOM     12  C   UNL A   1      33.562  24.018  23.075  1.00  0.00     0.027 A 
ATOM     13  C   UNL A   1      34.064  24.047  24.385  1.00  0.00     0.039 A 
BRANCH  13  14
ATOM     14  N   UNL A   1      34.307  22.837  25.061  1.00  0.00    -0.350 N 
ATOM     15  H   UNL A   1      33.635  22.593  25.738  1.00  0.00     0.167 HD
BRANCH  14  16
ATOM     16  C   UNL A   1      35.368  21.923  24.914  1.00  0.00     0.118 A 
ATOM     17  C   UNL A   1      36.674  22.435  24.992  1.00  0.00     0.036 A 
ATOM     18  C   UNL A   1      35.231  20.522  24.839  1.00  0.00     0.295 A 
ATOM     19  C   UNL A   1      37.784  21.583  25.032  1.00  0.00     0.042 A 
ATOM     20  C   UNL A   1      36.332  19.659  24.892  1.00  0.00     0.127 A 
ATOM     21  C   UNL A   1      37.600  20.206  24.998  1.00  0.00     0.130 A 
ATOM     22  F   UNL A   1      38.663  19.397  25.063  1.00  0.00    -0.207 F 
BRANCH  18  23
ATOM     23  N   UNL A   1      33.930  19.906  24.630  1.00  0.00     0.065 N 
ATOM     24  O   UNL A   1      33.057  20.613  24.103  1.00  0.00    -0.258 OA
ATOM     25  O   UNL A   1      33.765  18.753  25.050  1.00  0.00    -0.258 OA
ENDBRANCH  18  23
ENDBRANCH  14  16
ENDBRANCH  13  14
ENDBRANCH   6   8
ENDBRANCH   3   4
ENDBRANCH   2   3
ENDBRANCH   1   2
BRANCH   1  26
ATOM     26  C   UNL A   1      31.337  28.394  26.458  1.00  0.00     0.002 C 
BRANCH  26  27
ATOM     27  C   UNL A   1      32.537  28.154  27.376  1.00  0.00     0.021 C 
BRANCH  27  28
ATOM     28  C   UNL A   1      33.771  28.991  27.061  1.00  0.00     0.116 C 
BRANCH  28  29
ATOM     29  N   UNL A   1      33.728  30.305  27.682  1.00  0.00    -0.352 N 
ATOM     30  C   UNL A   1      34.666  30.931  28.465  1.00  0.00     0.251 C 
ATOM     31  H   UNL A   1      32.906  30.821  27.518  1.00  0.00     0.163 HD
ATOM     32  O   UNL A   1      34.391  31.983  29.034  1.00  0.00    -0.269 OA
BRANCH  30  33
ATOM     33  C   UNL A   1      36.003  30.325  28.646  1.00  0.00     0.039 A 
ATOM     34  C   UNL A   1      36.914  30.381  27.588  1.00  0.00     0.014 A 
ATOM     35  C   UNL A   1      36.356  29.700  29.845  1.00  0.00     0.014 A 
ATOM     36  C   UNL A   1      38.200  29.862  27.753  1.00  0.00     0.010 A 
ATOM     37  C   UNL A   1      37.660  29.247  30.031  1.00  0.00     0.010 A 
ATOM     38  C   UNL A   1      38.594  29.321  28.987  1.00  0.00    -0.014 A 
BRANCH  38  39
ATOM     39  C   UNL A   1      39.978  28.831  29.203  1.00  0.00     0.031 A 
ATOM     40  C   UNL A   1      41.021  29.737  29.798  1.00  0.00     0.074 A 
ATOM     41  C   UNL A   1      40.315  27.589  28.806  1.00  0.00     0.049 A 
ATOM     42  N   UNL A   1      42.291  29.506  30.010  1.00  0.00    -0.248 NA
ATOM     43  C   UNL A   1      40.583  31.088  30.181  1.00  0.00     0.031 C 
ATOM     44  C   UNL A   1      39.409  26.624  28.180  1.00  0.00     0.029 A 
ATOM     45  N   UNL A   1      41.516  26.928  28.863  1.00  0.00    -0.354 N 
ATOM     46  C   UNL A   1      42.807  30.684  30.537  1.00  0.00     0.074 A 
ATOM     47  C   UNL A   1      41.724  31.644  30.562  1.00  0.00     0.031 C 
ATOM     48  C   UNL A   1      40.080  25.488  27.933  1.00  0.00     0.029 A 
ATOM     49  C   UNL A   1      41.469  25.656  28.347  1.00  0.00     0.049 A 
ATOM     50  H   UNL A   1      42.334  27.327  29.240  1.00  0.00     0.167 HD
ATOM     51  C   UNL A   1      44.062  30.939  30.976  1.00  0.00     0.031 A 
ATOM     52  C   UNL A   1      42.437  24.730  28.214  1.00  0.00     0.031 A 
ATOM     53  C   UNL A   1      45.138  29.986  30.956  1.00  0.00     0.049 A 
ATOM     54  C   UNL A   1      43.826  25.042  28.695  1.00  0.00     0.074 A 
ATOM     55  C   UNL A   1      46.432  30.133  31.426  1.00  0.00     0.029 A 
ATOM     56  N   UNL A   1      45.047  28.706  30.429  1.00  0.00    -0.354 N 
ATOM     57  N   UNL A   1      44.281  26.139  29.250  1.00  0.00    -0.248 NA
ATOM     58  C   UNL A   1      44.831  23.981  28.541  1.00  0.00     0.031 C 
ATOM     59  C   UNL A   1      47.138  28.960  31.139  1.00  0.00     0.029 A 
ATOM     60  C   UNL A   1      46.269  28.062  30.541  1.00  0.00     0.049 A 
ATOM     61  H   UNL A   1      44.236  28.313  30.035  1.00  0.00     0.167 HD
ATOM     62  C   UNL A   1      45.618  25.893  29.534  1.00  0.00     0.074 A 
ATOM     63  C   UNL A   1      45.895  24.537  29.105  1.00  0.00     0.031 C 
ATOM     64  C   UNL A   1      46.533  26.715  30.103  1.00  0.00     0.031 A 
BRANCH  51  65
ATOM     65  C   UNL A   1      44.335  32.319  31.510  1.00  0.00    -0.014 A 
ATOM     66  C   UNL A   1      44.095  32.642  32.855  1.00  0.00     0.009 A 
ATOM     67  C   UNL A   1      44.860  33.307  30.660  1.00  0.00     0.009 A 
ATOM     68  C   UNL A   1      44.330  33.935  33.327  1.00  0.00     0.001 A 
ATOM     69  C   UNL A   1      45.125  34.589  31.143  1.00  0.00     0.001 A 
ATOM     70  C   UNL A   1      44.848  34.906  32.472  1.00  0.00     0.000 A 
ENDBRANCH  51  65
BRANCH  52  71
ATOM     71  C   UNL A   1      42.119  23.410  27.609  1.00  0.00    -0.014 A 
ATOM     72  C   UNL A   1      41.548  22.391  28.386  1.00  0.00     0.009 A 
ATOM     73  C   UNL A   1      42.375  23.167  26.251  1.00  0.00     0.009 A 
ATOM     74  C   UNL A   1      41.261  21.147  27.820  1.00  0.00     0.001 A 
ATOM     75  C   UNL A   1      42.059  21.931  25.680  1.00  0.00     0.001 A 
ATOM     76  C   UNL A   1      41.510  20.920  26.467  1.00  0.00     0.000 A 
ENDBRANCH  52  71
BRANCH  64  77
ATOM     77  C   UNL A   1      47.913  26.162  30.320  1.00  0.00    -0.014 A 
ATOM     78  C   UNL A   1      48.866  26.152  29.289  1.00  0.00     0.009 A 
ATOM     79  C   UNL A   1      48.277  25.679  31.588  1.00  0.00     0.009 A 
ATOM     80  C   UNL A   1      50.145  25.639  29.515  1.00  0.00     0.001 A 
ATOM     81  C   UNL A   1      49.564  25.195  31.819  1.00  0.00     0.001 A 
ATOM     82  C   UNL A   1      50.494  25.166  30.780  1.00  0.00     0.000 A 
ENDBRANCH  64  77
ENDBRANCH  38  39
ENDBRANCH  30  33
ENDBRANCH  28  29
ENDBRANCH  27  28
ENDBRANCH  26  27
ENDBRANCH   1  26
TORSDOF 16
ENDMDL
MODEL 2
REMARK VINA RESULT:     -10.5      4.390      7.618
REMARK SMILES O=C(NCCCCCCNC(=O)c1ccc(-c2c3nc(c(-c4ccccc4)c4ccc([nH]4)c(-c4ccccc4)c4nc(c(-c5ccccc5)c5ccc2[nH]5)C=C4)C=C3)cc1)c1ccc(Nc2ccc(F)cc2[N+](=O)[O-])cc1
REMARK SMILES IDX 6 1 5 2 4 3 3 4 1 5 2 6 61 8 62 9 77 10 63 11 76 12 64 13
REMARK SMILES IDX 65 14 66 16 67 17 72 18 68 19 71 20 69 21 70 22 73 23 74 24
REMARK SMILES IDX 75 25 7 26 8 27 9 28 10 29 11 30 12 32 13 33 14 34 60 35
REMARK SMILES IDX 15 36 59 37 16 38 17 39 18 40 53 41 19 42 58 43 52 44 54 45
REMARK SMILES IDX 20 46 57 47 51 48 50 49 21 51 43 52 28 53 42 54 29 55 32 56
REMARK SMILES IDX 41 57 55 58 30 59 31 60 40 62 56 63 33 64 22 65 23 66 27 67
REMARK SMILES IDX 24 68 26 69 25 70 44 71 45 72 49 73 46 74 48 75 47 76 34 77
REMARK SMILES IDX 35 78 39 79 36 80 38 81 37 82
REMARK H PARENT 3 7 65 15 10 31 54 50 32 61
REMARK Flexibility Score: inf
ROOT
ATOM      1  C   UNL A   1      37.173  32.344  31.392  1.00  0.00     0.002 C 
ENDROOT
BRANCH   1   2
ATOM      2  C   UNL A   1      37.947  33.642  31.628  1.00  0.00     0.021 C 
BRANCH   2   3
ATOM      3  C   UNL A   1      38.939  33.597  32.785  1.00  0.00     0.116 C 
BRANCH   3   4
ATOM      4  N   UNL A   1      38.292  33.299  34.053  1.00  0.00    -0.352 N 
ATOM      5  O   UNL A   1      37.585  31.986  35.749  1.00  0.00    -0.269 OA
ATOM      6  C   UNL A   1      38.339  32.145  34.796  1.00  0.00     0.251 C 
ATOM      7  H   UNL A   1      37.746  34.026  34.431  1.00  0.00     0.163 HD
BRANCH   6   8
ATOM      8  C   UNL A   1      39.296  31.082  34.423  1.00  0.00     0.039 A 
ATOM      9  C   UNL A   1      40.631  31.169  34.812  1.00  0.00     0.016 A 
ATOM     10  C   UNL A   1      38.856  29.994  33.671  1.00  0.00     0.016 A 
ATOM     11  C   UNL A   1      41.548  30.228  34.353  1.00  0.00     0.027 A 
ATOM     12  C   UNL A   1      39.776  29.023  33.257  1.00  0.00     0.027 A 
ATOM     13  C   UNL A   1      41.138  29.139  33.573  1.00  0.00     0.039 A 
BRANCH  13  14
ATOM     14  N   UNL A   1      42.035  28.140  33.149  1.00  0.00    -0.350 N 
ATOM     15  H   UNL A   1      41.981  27.907  32.194  1.00  0.00     0.167 HD
BRANCH  14  16
ATOM     16  C   UNL A   1      42.997  27.426  33.887  1.00  0.00     0.118 A 
ATOM     17  C   UNL A   1      44.290  27.337  33.345  1.00  0.00     0.036 A 
ATOM     18  C   UNL A   1      42.810  26.914  35.187  1.00  0.00     0.295 A 
ATOM     19  C   UNL A   1      45.350  26.800  34.084  1.00  0.00     0.042 A 
ATOM     20  C   UNL A   1      43.865  26.387  35.942  1.00  0.00     0.127 A 
ATOM     21  C   UNL A   1      45.129  26.346  35.378  1.00  0.00     0.130 A 
ATOM     22  F   UNL A   1      46.152  25.857  36.090  1.00  0.00    -0.207 F 
BRANCH  18  23
ATOM     23  N   UNL A   1      41.485  26.847  35.784  1.00  0.00     0.065 N 
ATOM     24  O   UNL A   1      40.679  26.061  35.261  1.00  0.00    -0.258 OA
ATOM     25  O   UNL A   1      41.235  27.619  36.718  1.00  0.00    -0.258 OA
ENDBRANCH  18  23
ENDBRANCH  14  16
ENDBRANCH  13  14
ENDBRANCH   6   8
ENDBRANCH   3   4
ENDBRANCH   2   3
ENDBRANCH   1   2
BRANCH   1  26
ATOM     26  C   UNL A   1      35.710  32.360  31.843  1.00  0.00     0.002 C 
BRANCH  26  27
ATOM     27  C   UNL A   1      34.725  33.001  30.864  1.00  0.00     0.021 C 
BRANCH  27  28
ATOM     28  C   UNL A   1      35.063  32.817  29.389  1.00  0.00     0.116 C 
BRANCH  28  29
ATOM     29  N   UNL A   1      34.244  31.800  28.751  1.00  0.00    -0.352 N 
ATOM     30  C   UNL A   1      34.606  30.572  28.255  1.00  0.00     0.251 C 
ATOM     31  H   UNL A   1      33.290  32.026  28.659  1.00  0.00     0.163 HD
ATOM     32  O   UNL A   1      33.803  29.908  27.606  1.00  0.00    -0.269 OA
BRANCH  30  33
ATOM     33  C   UNL A   1      35.973  30.056  28.481  1.00  0.00     0.039 A 
ATOM     34  C   UNL A   1      36.922  30.199  27.465  1.00  0.00     0.014 A 
ATOM     35  C   UNL A   1      36.318  29.428  29.681  1.00  0.00     0.014 A 
ATOM     36  C   UNL A   1      38.233  29.766  27.675  1.00  0.00     0.010 A 
ATOM     37  C   UNL A   1      37.642  29.061  29.914  1.00  0.00     0.010 A 
ATOM     38  C   UNL A   1      38.611  29.224  28.913  1.00  0.00    -0.014 A 
BRANCH  38  39
ATOM     39  C   UNL A   1      40.016  28.825  29.179  1.00  0.00     0.031 A 
ATOM     40  C   UNL A   1      40.967  29.786  29.837  1.00  0.00     0.074 A 
ATOM     41  C   UNL A   1      40.454  27.619  28.772  1.00  0.00     0.049 A 
ATOM     42  N   UNL A   1      42.241  29.637  30.100  1.00  0.00    -0.248 NA
ATOM     43  C   UNL A   1      40.421  31.094  30.229  1.00  0.00     0.031 C 
ATOM     44  C   UNL A   1      39.644  26.609  28.087  1.00  0.00     0.029 A 
ATOM     45  N   UNL A   1      41.695  27.040  28.867  1.00  0.00    -0.354 N 
ATOM     46  C   UNL A   1      42.651  30.835  30.672  1.00  0.00     0.074 A 
ATOM     47  C   UNL A   1      41.504  31.718  30.669  1.00  0.00     0.031 C 
ATOM     48  C   UNL A   1      40.402  25.528  27.846  1.00  0.00     0.029 A 
ATOM     49  C   UNL A   1      41.758  25.781  28.323  1.00  0.00     0.049 A 
ATOM     50  H   UNL A   1      42.467  27.486  29.287  1.00  0.00     0.167 HD
ATOM     51  C   UNL A   1      43.865  31.166  31.170  1.00  0.00     0.031 A 
ATOM     52  C   UNL A   1      42.793  24.926  28.213  1.00  0.00     0.031 A 
ATOM     53  C   UNL A   1      45.006  30.289  31.177  1.00  0.00     0.049 A 
ATOM     54  C   UNL A   1      44.135  25.321  28.760  1.00  0.00     0.074 A 
ATOM     55  C   UNL A   1      46.265  30.513  31.706  1.00  0.00     0.029 A 
ATOM     56  N   UNL A   1      45.026  29.019  30.620  1.00  0.00    -0.354 N 
ATOM     57  N   UNL A   1      44.489  26.433  29.357  1.00  0.00    -0.248 NA
ATOM     58  C   UNL A   1      45.218  24.335  28.628  1.00  0.00     0.031 C 
ATOM     59  C   UNL A   1      47.062  29.399  31.425  1.00  0.00     0.029 A 
ATOM     60  C   UNL A   1      46.284  28.458  30.772  1.00  0.00     0.049 A 
ATOM     61  H   UNL A   1      44.261  28.581  30.184  1.00  0.00     0.167 HD
ATOM     62  C   UNL A   1      45.827  26.273  29.693  1.00  0.00     0.074 A 
ATOM     63  C   UNL A   1      46.216  24.950  29.249  1.00  0.00     0.031 C 
ATOM     64  C   UNL A   1      46.658  27.143  30.318  1.00  0.00     0.031 A 
BRANCH  51  65
ATOM     65  C   UNL A   1      44.020  32.548  31.743  1.00  0.00    -0.014 A 
ATOM     66  C   UNL A   1      43.796  32.802  33.106  1.00  0.00     0.009 A 
ATOM     67  C   UNL A   1      44.415  33.610  30.913  1.00  0.00     0.009 A 
ATOM     68  C   UNL A   1      43.918  34.096  33.616  1.00  0.00     0.001 A 
ATOM     69  C   UNL A   1      44.569  34.896  31.433  1.00  0.00     0.001 A 
ATOM     70  C   UNL A   1      44.308  35.141  32.780  1.00  0.00     0.000 A 
ENDBRANCH  51  65
BRANCH  52  71
ATOM     71  C   UNL A   1      42.593  23.603  27.568  1.00  0.00    -0.014 A 
ATOM     72  C   UNL A   1      42.831  23.437  26.195  1.00  0.00     0.009 A 
ATOM     73  C   UNL A   1      42.174  22.496  28.323  1.00  0.00     0.009 A 
ATOM     74  C   UNL A   1      42.630  22.196  25.587  1.00  0.00     0.001 A 
ATOM     75  C   UNL A   1      42.002  21.249  27.718  1.00  0.00     0.001 A 
ATOM     76  C   UNL A   1      42.223  21.102  26.350  1.00  0.00     0.000 A 
ENDBRANCH  52  71
BRANCH  64  77
ATOM     77  C   UNL A   1      48.063  26.681  30.583  1.00  0.00    -0.014 A 
ATOM     78  C   UNL A   1      48.398  25.997  31.762  1.00  0.00     0.009 A 
ATOM     79  C   UNL A   1      49.060  26.900  29.618  1.00  0.00     0.009 A 
ATOM     80  C   UNL A   1      49.708  25.571  31.983  1.00  0.00     0.001 A 
ATOM     81  C   UNL A   1      50.363  26.448  29.829  1.00  0.00     0.001 A 
ATOM     82  C   UNL A   1      50.688  25.792  31.015  1.00  0.00     0.000 A 
ENDBRANCH  64  77
ENDBRANCH  38  39
ENDBRANCH  30  33
ENDBRANCH  28  29
ENDBRANCH  27  28
ENDBRANCH  26  27
ENDBRANCH   1  26
TORSDOF 16
ENDMDL
MODEL 3
REMARK VINA RESULT:     -10.4      4.011      9.156
REMARK SMILES O=C(NCCCCCCNC(=O)c1ccc(-c2c3nc(c(-c4ccccc4)c4ccc([nH]4)c(-c4ccccc4)c4nc(c(-c5ccccc5)c5ccc2[nH]5)C=C4)C=C3)cc1)c1ccc(Nc2ccc(F)cc2[N+](=O)[O-])cc1
REMARK SMILES IDX 6 1 5 2 4 3 3 4 1 5 2 6 61 8 62 9 77 10 63 11 76 12 64 13
REMARK SMILES IDX 65 14 66 16 67 17 72 18 68 19 71 20 69 21 70 22 73 23 74 24
REMARK SMILES IDX 75 25 7 26 8 27 9 28 10 29 11 30 12 32 13 33 14 34 60 35
REMARK SMILES IDX 15 36 59 37 16 38 17 39 18 40 53 41 19 42 58 43 52 44 54 45
REMARK SMILES IDX 20 46 57 47 51 48 50 49 21 51 43 52 28 53 42 54 29 55 32 56
REMARK SMILES IDX 41 57 55 58 30 59 31 60 40 62 56 63 33 64 22 65 23 66 27 67
REMARK SMILES IDX 24 68 26 69 25 70 44 71 45 72 49 73 46 74 48 75 47 76 34 77
REMARK SMILES IDX 35 78 39 79 36 80 38 81 37 82
REMARK H PARENT 3 7 65 15 10 31 54 50 32 61
REMARK Flexibility Score: inf
ROOT
ATOM      1  C   UNL A   1      37.728  33.097  29.862  1.00  0.00     0.002 C 
ENDROOT
BRANCH   1   2
ATOM      2  C   UNL A   1      38.468  33.790  31.008  1.00  0.00     0.021 C 
BRANCH   2   3
ATOM      3  C   UNL A   1      38.656  32.937  32.258  1.00  0.00     0.116 C 
BRANCH   3   4
ATOM      4  N   UNL A   1      37.533  32.044  32.489  1.00  0.00    -0.352 N 
ATOM      5  O   UNL A   1      36.510  30.054  32.806  1.00  0.00    -0.269 OA
ATOM      6  C   UNL A   1      37.544  30.714  32.833  1.00  0.00     0.251 C 
ATOM      7  H   UNL A   1      36.641  32.448  32.386  1.00  0.00     0.163 HD
BRANCH   6   8
ATOM      8  C   UNL A   1      38.820  30.076  33.217  1.00  0.00     0.039 A 
ATOM      9  C   UNL A   1      39.722  30.747  34.041  1.00  0.00     0.016 A 
ATOM     10  C   UNL A   1      39.121  28.800  32.744  1.00  0.00     0.016 A 
ATOM     11  C   UNL A   1      40.972  30.190  34.297  1.00  0.00     0.027 A 
ATOM     12  C   UNL A   1      40.360  28.224  33.049  1.00  0.00     0.027 A 
ATOM     13  C   UNL A   1      41.311  28.920  33.810  1.00  0.00     0.039 A 
BRANCH  13  14
ATOM     14  N   UNL A   1      42.544  28.309  34.107  1.00  0.00    -0.350 N 
ATOM     15  H   UNL A   1      43.257  28.923  34.396  1.00  0.00     0.167 HD
BRANCH  14  16
ATOM     16  C   UNL A   1      42.909  26.951  34.052  1.00  0.00     0.118 A 
ATOM     17  C   UNL A   1      43.765  26.556  33.009  1.00  0.00     0.036 A 
ATOM     18  C   UNL A   1      42.606  25.986  35.033  1.00  0.00     0.295 A 
ATOM     19  C   UNL A   1      44.319  25.271  32.975  1.00  0.00     0.042 A 
ATOM     20  C   UNL A   1      43.164  24.702  35.018  1.00  0.00     0.127 A 
ATOM     21  C   UNL A   1      44.025  24.365  33.986  1.00  0.00     0.130 A 
ATOM     22  F   UNL A   1      44.579  23.147  33.962  1.00  0.00    -0.207 F 
BRANCH  18  23
ATOM     23  N   UNL A   1      41.633  26.260  36.080  1.00  0.00     0.065 N 
ATOM     24  O   UNL A   1      40.578  25.608  36.044  1.00  0.00    -0.258 OA
ATOM     25  O   UNL A   1      41.894  27.164  36.884  1.00  0.00    -0.258 OA
ENDBRANCH  18  23
ENDBRANCH  14  16
ENDBRANCH  13  14
ENDBRANCH   6   8
ENDBRANCH   3   4
ENDBRANCH   2   3
ENDBRANCH   1   2
BRANCH   1  26
ATOM     26  C   UNL A   1      36.623  33.924  29.198  1.00  0.00     0.002 C 
BRANCH  26  27
ATOM     27  C   UNL A   1      35.624  33.132  28.353  1.00  0.00     0.021 C 
BRANCH  27  28
ATOM     28  C   UNL A   1      34.613  32.309  29.144  1.00  0.00     0.116 C 
BRANCH  28  29
ATOM     29  N   UNL A   1      34.045  31.223  28.364  1.00  0.00    -0.352 N 
ATOM     30  C   UNL A   1      34.663  30.128  27.812  1.00  0.00     0.251 C 
ATOM     31  H   UNL A   1      33.075  31.281  28.207  1.00  0.00     0.163 HD
ATOM     32  O   UNL A   1      34.047  29.391  27.049  1.00  0.00    -0.269 OA
BRANCH  30  33
ATOM     33  C   UNL A   1      36.083  29.847  28.118  1.00  0.00     0.039 A 
ATOM     34  C   UNL A   1      36.413  29.352  29.382  1.00  0.00     0.014 A 
ATOM     35  C   UNL A   1      37.084  30.077  27.169  1.00  0.00     0.014 A 
ATOM     36  C   UNL A   1      37.740  29.032  29.676  1.00  0.00     0.010 A 
ATOM     37  C   UNL A   1      38.394  29.690  27.440  1.00  0.00     0.010 A 
ATOM     38  C   UNL A   1      38.735  29.166  28.696  1.00  0.00    -0.014 A 
BRANCH  38  39
ATOM     39  C   UNL A   1      40.138  28.762  28.966  1.00  0.00     0.031 A 
ATOM     40  C   UNL A   1      40.627  27.398  28.563  1.00  0.00     0.074 A 
ATOM     41  C   UNL A   1      40.956  29.599  29.632  1.00  0.00     0.049 A 
ATOM     42  N   UNL A   1      41.797  26.848  28.764  1.00  0.00    -0.248 NA
ATOM     43  C   UNL A   1      39.667  26.531  27.864  1.00  0.00     0.031 C 
ATOM     44  C   UNL A   1      40.594  30.934  30.114  1.00  0.00     0.029 A 
ATOM     45  N   UNL A   1      42.261  29.446  30.027  1.00  0.00    -0.354 N 
ATOM     46  C   UNL A   1      41.709  25.568  28.231  1.00  0.00     0.074 A 
ATOM     47  C   UNL A   1      40.356  25.405  27.746  1.00  0.00     0.031 C 
ATOM     48  C   UNL A   1      41.658  31.486  30.717  1.00  0.00     0.029 A 
ATOM     49  C   UNL A   1      42.763  30.533  30.700  1.00  0.00     0.049 A 
ATOM     50  H   UNL A   1      42.789  28.635  29.844  1.00  0.00     0.167 HD
ATOM     51  C   UNL A   1      42.671  24.620  28.137  1.00  0.00     0.031 A 
ATOM     52  C   UNL A   1      43.976  30.739  31.249  1.00  0.00     0.031 A 
ATOM     53  C   UNL A   1      44.019  24.781  28.615  1.00  0.00     0.049 A 
ATOM     54  C   UNL A   1      45.022  29.666  31.145  1.00  0.00     0.074 A 
ATOM     55  C   UNL A   1      45.080  23.898  28.520  1.00  0.00     0.029 A 
ATOM     56  N   UNL A   1      44.488  25.900  29.286  1.00  0.00    -0.354 N 
ATOM     57  N   UNL A   1      44.942  28.486  30.580  1.00  0.00    -0.248 NA
ATOM     58  C   UNL A   1      46.331  29.961  31.746  1.00  0.00     0.031 C 
ATOM     59  C   UNL A   1      46.179  24.462  29.178  1.00  0.00     0.029 A 
ATOM     60  C   UNL A   1      45.817  25.719  29.632  1.00  0.00     0.049 A 
ATOM     61  H   UNL A   1      43.956  26.703  29.486  1.00  0.00     0.167 HD
ATOM     62  C   UNL A   1      46.195  27.907  30.735  1.00  0.00     0.074 A 
ATOM     63  C   UNL A   1      47.020  28.872  31.432  1.00  0.00     0.031 C 
ATOM     64  C   UNL A   1      46.624  26.685  30.333  1.00  0.00     0.031 A 
BRANCH  51  65
ATOM     65  C   UNL A   1      42.289  23.313  27.497  1.00  0.00    -0.014 A 
ATOM     66  C   UNL A   1      42.515  23.077  26.131  1.00  0.00     0.009 A 
ATOM     67  C   UNL A   1      41.711  22.296  28.273  1.00  0.00     0.009 A 
ATOM     68  C   UNL A   1      42.129  21.868  25.547  1.00  0.00     0.001 A 
ATOM     69  C   UNL A   1      41.357  21.076  27.693  1.00  0.00     0.001 A 
ATOM     70  C   UNL A   1      41.554  20.868  26.329  1.00  0.00     0.000 A 
ENDBRANCH  51  65
BRANCH  52  71
ATOM     71  C   UNL A   1      44.268  32.025  31.935  1.00  0.00    -0.014 A 
ATOM     72  C   UNL A   1      44.019  32.170  33.308  1.00  0.00     0.009 A 
ATOM     73  C   UNL A   1      44.807  33.107  31.223  1.00  0.00     0.009 A 
ATOM     74  C   UNL A   1      44.282  33.383  33.949  1.00  0.00     0.001 A 
ATOM     75  C   UNL A   1      45.097  34.309  31.873  1.00  0.00     0.001 A 
ATOM     76  C   UNL A   1      44.826  34.449  33.233  1.00  0.00     0.000 A 
ENDBRANCH  52  71
BRANCH  64  77
ATOM     77  C   UNL A   1      48.059  26.335  30.611  1.00  0.00    -0.014 A 
ATOM     78  C   UNL A   1      49.082  26.674  29.713  1.00  0.00     0.009 A 
ATOM     79  C   UNL A   1      48.394  25.688  31.812  1.00  0.00     0.009 A 
ATOM     80  C   UNL A   1      50.408  26.345  29.996  1.00  0.00     0.001 A 
ATOM     81  C   UNL A   1      49.725  25.386  32.106  1.00  0.00     0.001 A 
ATOM     82  C   UNL A   1      50.728  25.706  31.194  1.00  0.00     0.000 A 
ENDBRANCH  64  77
ENDBRANCH  38  39
ENDBRANCH  30  33
ENDBRANCH  28  29
ENDBRANCH  27  28
ENDBRANCH  26  27
ENDBRANCH   1  26
TORSDOF 16
ENDMDL
