MODEL 1
REMARK VINA RESULT:      -9.4      0.000      0.000
REMARK SMILES O=C(NCCCCCCNC(=O)c1ncoc1-c1cc(F)cc(F)c1)c1ccc(-c2c3nc(c(-c4ccccc4)c4ccc([nH]4)c(-c4ccccc4)c4nc(c(-c5ccccc5)c5ccc2[nH]5)C=C4)C=C3)cc1
REMARK SMILES IDX 6 1 5 2 4 3 3 4 1 5 2 6 26 8 27 9 73 10 28 11 72 12 29 13
REMARK SMILES IDX 30 14 31 15 66 16 32 17 71 18 65 19 67 20 33 21 70 22 64 23
REMARK SMILES IDX 63 24 34 26 56 27 41 28 55 29 42 30 45 31 54 32 68 33 43 34
REMARK SMILES IDX 44 35 53 37 69 38 46 39 35 40 36 41 40 42 37 43 39 44 38 45
REMARK SMILES IDX 57 46 58 47 62 48 59 49 61 50 60 51 47 52 48 53 52 54 49 55
REMARK SMILES IDX 51 56 50 57 7 58 8 59 9 60 10 61 11 62 12 64 13 65 14 66
REMARK SMILES IDX 17 67 15 68 16 69 18 70 19 71 25 72 20 73 23 74 21 75 22 76
REMARK SMILES IDX 24 77
REMARK H PARENT 3 7 67 25 45 36 10 63
REMARK Flexibility Score: inf
ROOT
ATOM      1  C   UNL A   1      34.042  36.709  32.518  1.00  0.00     0.002 C 
ENDROOT
BRANCH   1   2
ATOM      2  C   UNL A   1      33.006  36.184  31.525  1.00  0.00     0.021 C 
BRANCH   2   3
ATOM      3  C   UNL A   1      33.387  36.351  30.064  1.00  0.00     0.116 C 
BRANCH   3   4
ATOM      4  N   UNL A   1      32.672  35.438  29.188  1.00  0.00    -0.352 N 
ATOM      5  O   UNL A   1      32.442  33.703  27.756  1.00  0.00    -0.269 OA
ATOM      6  C   UNL A   1      33.123  34.282  28.596  1.00  0.00     0.251 C 
ATOM      7  H   UNL A   1      31.738  35.682  28.990  1.00  0.00     0.163 HD
BRANCH   6   8
ATOM      8  C   UNL A   1      34.454  33.752  28.966  1.00  0.00     0.039 A 
ATOM      9  C   UNL A   1      35.572  34.054  28.187  1.00  0.00     0.014 A 
ATOM     10  C   UNL A   1      34.582  32.936  30.094  1.00  0.00     0.014 A 
ATOM     11  C   UNL A   1      36.782  33.424  28.447  1.00  0.00     0.010 A 
ATOM     12  C   UNL A   1      35.826  32.382  30.413  1.00  0.00     0.010 A 
ATOM     13  C   UNL A   1      36.931  32.603  29.578  1.00  0.00    -0.014 A 
BRANCH  13  14
ATOM     14  C   UNL A   1      38.282  32.077  29.900  1.00  0.00     0.031 A 
ATOM     15  C   UNL A   1      39.223  32.814  30.811  1.00  0.00     0.074 A 
ATOM     16  C   UNL A   1      38.630  30.878  29.392  1.00  0.00     0.049 A 
ATOM     17  N   UNL A   1      40.405  32.444  31.238  1.00  0.00    -0.248 NA
ATOM     18  C   UNL A   1      38.792  34.130  31.307  1.00  0.00     0.031 C 
ATOM     19  C   UNL A   1      37.802  30.076  28.484  1.00  0.00     0.029 A 
ATOM     20  N   UNL A   1      39.746  30.107  29.590  1.00  0.00    -0.354 N 
ATOM     21  C   UNL A   1      40.864  33.481  32.040  1.00  0.00     0.074 A 
ATOM     22  C   UNL A   1      39.844  34.509  32.021  1.00  0.00     0.031 C 
ATOM     23  C   UNL A   1      38.408  28.902  28.259  1.00  0.00     0.029 A 
ATOM     24  C   UNL A   1      39.693  28.896  28.944  1.00  0.00     0.049 A 
ATOM     25  H   UNL A   1      40.509  30.393  30.142  1.00  0.00     0.167 HD
ATOM     26  C   UNL A   1      42.026  33.565  32.733  1.00  0.00     0.031 A 
ATOM     27  C   UNL A   1      40.586  27.892  28.892  1.00  0.00     0.031 A 
ATOM     28  C   UNL A   1      43.042  32.542  32.743  1.00  0.00     0.049 A 
ATOM     29  C   UNL A   1      41.875  28.029  29.646  1.00  0.00     0.074 A 
ATOM     30  C   UNL A   1      44.247  32.532  33.425  1.00  0.00     0.029 A 
ATOM     31  N   UNL A   1      42.973  31.351  32.037  1.00  0.00    -0.354 N 
ATOM     32  N   UNL A   1      42.276  29.006  30.422  1.00  0.00    -0.248 NA
ATOM     33  C   UNL A   1      42.833  26.924  29.516  1.00  0.00     0.031 C 
ATOM     34  C   UNL A   1      44.929  31.355  33.094  1.00  0.00     0.029 A 
ATOM     35  C   UNL A   1      44.123  30.608  32.251  1.00  0.00     0.049 A 
ATOM     36  H   UNL A   1      42.219  31.074  31.470  1.00  0.00     0.167 HD
ATOM     37  C   UNL A   1      43.530  28.631  30.880  1.00  0.00     0.074 A 
ATOM     38  C   UNL A   1      43.805  27.321  30.324  1.00  0.00     0.031 C 
ATOM     39  C   UNL A   1      44.385  29.313  31.679  1.00  0.00     0.031 A 
BRANCH  26  40
ATOM     40  C   UNL A   1      42.279  34.814  33.530  1.00  0.00    -0.014 A 
ATOM     41  C   UNL A   1      41.934  34.892  34.889  1.00  0.00     0.009 A 
ATOM     42  C   UNL A   1      42.942  35.901  32.937  1.00  0.00     0.009 A 
ATOM     43  C   UNL A   1      42.229  36.039  35.630  1.00  0.00     0.001 A 
ATOM     44  C   UNL A   1      43.257  37.036  33.687  1.00  0.00     0.001 A 
ATOM     45  C   UNL A   1      42.896  37.107  35.031  1.00  0.00     0.000 A 
ENDBRANCH  26  40
BRANCH  27  46
ATOM     46  C   UNL A   1      40.304  26.685  28.072  1.00  0.00    -0.014 A 
ATOM     47  C   UNL A   1      40.811  26.563  26.771  1.00  0.00     0.009 A 
ATOM     48  C   UNL A   1      39.513  25.648  28.592  1.00  0.00     0.009 A 
ATOM     49  C   UNL A   1      40.507  25.441  25.996  1.00  0.00     0.001 A 
ATOM     50  C   UNL A   1      39.240  24.512  27.829  1.00  0.00     0.001 A 
ATOM     51  C   UNL A   1      39.726  24.416  26.528  1.00  0.00     0.000 A 
ENDBRANCH  27  46
BRANCH  39  52
ATOM     52  C   UNL A   1      45.685  28.636  32.009  1.00  0.00    -0.014 A 
ATOM     53  C   UNL A   1      45.810  27.819  33.144  1.00  0.00     0.009 A 
ATOM     54  C   UNL A   1      46.798  28.821  31.176  1.00  0.00     0.009 A 
ATOM     55  C   UNL A   1      47.037  27.236  33.463  1.00  0.00     0.001 A 
ATOM     56  C   UNL A   1      48.016  28.212  31.480  1.00  0.00     0.001 A 
ATOM     57  C   UNL A   1      48.138  27.432  32.629  1.00  0.00     0.000 A 
ENDBRANCH  39  52
ENDBRANCH  13  14
ENDBRANCH   6   8
ENDBRANCH   3   4
ENDBRANCH   2   3
ENDBRANCH   1   2
BRANCH   1  58
ATOM     58  C   UNL A   1      34.319  35.798  33.717  1.00  0.00     0.002 C 
BRANCH  58  59
ATOM     59  C   UNL A   1      34.382  34.295  33.410  1.00  0.00     0.021 C 
BRANCH  59  60
ATOM     60  C   UNL A   1      35.454  33.522  34.181  1.00  0.00     0.116 C 
BRANCH  60  61
ATOM     61  N   UNL A   1      36.724  34.219  34.147  1.00  0.00    -0.351 N 
ATOM     62  C   UNL A   1      37.719  34.222  35.083  1.00  0.00     0.273 C 
ATOM     63  H   UNL A   1      36.891  34.763  33.343  1.00  0.00     0.163 HD
ATOM     64  O   UNL A   1      38.606  35.080  34.998  1.00  0.00    -0.267 OA
BRANCH  62  65
ATOM     65  C   UNL A   1      37.692  33.243  36.155  1.00  0.00     0.174 A 
ATOM     66  N   UNL A   1      37.280  33.485  37.458  1.00  0.00    -0.211 NA
ATOM     67  C   UNL A   1      38.016  31.908  36.023  1.00  0.00     0.167 A 
ATOM     68  C   UNL A   1      37.345  32.302  38.025  1.00  0.00     0.309 A 
ATOM     69  O   UNL A   1      37.783  31.293  37.221  1.00  0.00    -0.443 OA
BRANCH  67  70
ATOM     70  C   UNL A   1      38.568  31.097  34.961  1.00  0.00     0.026 A 
ATOM     71  C   UNL A   1      37.748  30.679  33.905  1.00  0.00     0.051 A 
ATOM     72  C   UNL A   1      39.902  30.678  34.998  1.00  0.00     0.051 A 
ATOM     73  C   UNL A   1      38.259  29.845  32.916  1.00  0.00     0.126 A 
ATOM     74  C   UNL A   1      40.386  29.835  34.001  1.00  0.00     0.126 A 
ATOM     75  F   UNL A   1      37.464  29.452  31.913  1.00  0.00    -0.207 F 
ATOM     76  C   UNL A   1      39.576  29.411  32.957  1.00  0.00     0.078 A 
ATOM     77  F   UNL A   1      41.657  29.417  34.058  1.00  0.00    -0.207 F 
ENDBRANCH  67  70
ENDBRANCH  62  65
ENDBRANCH  60  61
ENDBRANCH  59  60
ENDBRANCH  58  59
ENDBRANCH   1  58
TORSDOF 14
ENDMDL
MODEL 2
REMARK VINA RESULT:      -9.3      5.392     11.623
REMARK SMILES O=C(NCCCCCCNC(=O)c1ncoc1-c1cc(F)cc(F)c1)c1ccc(-c2c3nc(c(-c4ccccc4)c4ccc([nH]4)c(-c4ccccc4)c4nc(c(-c5ccccc5)c5ccc2[nH]5)C=C4)C=C3)cc1
REMARK SMILES IDX 6 1 5 2 4 3 3 4 1 5 2 6 26 8 27 9 73 10 28 11 72 12 29 13
REMARK SMILES IDX 30 14 31 15 66 16 32 17 71 18 65 19 67 20 33 21 70 22 64 23
REMARK SMILES IDX 63 24 34 26 56 27 41 28 55 29 42 30 45 31 54 32 68 33 43 34
REMARK SMILES IDX 44 35 53 37 69 38 46 39 35 40 36 41 40 42 37 43 39 44 38 45
REMARK SMILES IDX 57 46 58 47 62 48 59 49 61 50 60 51 47 52 48 53 52 54 49 55
REMARK SMILES IDX 51 56 50 57 7 58 8 59 9 60 10 61 11 62 12 64 13 65 14 66
REMARK SMILES IDX 17 67 15 68 16 69 18 70 19 71 25 72 20 73 23 74 21 75 22 76
REMARK SMILES IDX 24 77
REMARK H PARENT 3 7 67 25 45 36 10 63
REMARK Flexibility Score: inf
ROOT
ATOM      1  C   UNL A   1      45.896  20.142  25.003  1.00  0.00     0.002 C 
ENDROOT
BRANCH   1   2
ATOM      2  C   UNL A   1      44.759  19.144  24.791  1.00  0.00     0.021 C 
BRANCH   2   3
ATOM      3  C   UNL A   1      43.895  18.899  26.017  1.00  0.00     0.116 C 
BRANCH   3   4
ATOM      4  N   UNL A   1      42.481  18.795  25.697  1.00  0.00    -0.352 N 
ATOM      5  O   UNL A   1      40.296  19.370  25.784  1.00  0.00    -0.269 OA
ATOM      6  C   UNL A   1      41.467  19.676  25.987  1.00  0.00     0.251 C 
ATOM      7  H   UNL A   1      42.214  17.982  25.209  1.00  0.00     0.163 HD
BRANCH   6   8
ATOM      8  C   UNL A   1      41.797  20.995  26.570  1.00  0.00     0.039 A 
ATOM      9  C   UNL A   1      42.019  21.122  27.942  1.00  0.00     0.014 A 
ATOM     10  C   UNL A   1      41.875  22.116  25.738  1.00  0.00     0.014 A 
ATOM     11  C   UNL A   1      42.169  22.384  28.501  1.00  0.00     0.010 A 
ATOM     12  C   UNL A   1      42.127  23.375  26.292  1.00  0.00     0.010 A 
ATOM     13  C   UNL A   1      42.253  23.522  27.681  1.00  0.00    -0.014 A 
BRANCH  13  14
ATOM     14  C   UNL A   1      42.568  24.829  28.312  1.00  0.00     0.031 A 
ATOM     15  C   UNL A   1      43.967  25.194  28.723  1.00  0.00     0.074 A 
ATOM     16  C   UNL A   1      41.564  25.717  28.460  1.00  0.00     0.049 A 
ATOM     17  N   UNL A   1      44.405  26.325  29.220  1.00  0.00    -0.248 NA
ATOM     18  C   UNL A   1      45.009  24.168  28.560  1.00  0.00     0.031 C 
ATOM     19  C   UNL A   1      40.162  25.469  28.109  1.00  0.00     0.029 A 
ATOM     20  N   UNL A   1      41.569  27.013  28.907  1.00  0.00    -0.354 N 
ATOM     21  C   UNL A   1      45.765  26.144  29.441  1.00  0.00     0.074 A 
ATOM     22  C   UNL A   1      46.077  24.786  29.047  1.00  0.00     0.031 C 
ATOM     23  C   UNL A   1      39.458  26.594  28.291  1.00  0.00     0.029 A 
ATOM     24  C   UNL A   1      40.338  27.618  28.836  1.00  0.00     0.049 A 
ATOM     25  H   UNL A   1      42.376  27.465  29.244  1.00  0.00     0.167 HD
ATOM     26  C   UNL A   1      46.669  27.031  29.921  1.00  0.00     0.031 A 
ATOM     27  C   UNL A   1      39.950  28.857  29.186  1.00  0.00     0.031 A 
ATOM     28  C   UNL A   1      46.352  28.380  30.319  1.00  0.00     0.049 A 
ATOM     29  C   UNL A   1      40.970  29.805  29.743  1.00  0.00     0.074 A 
ATOM     30  C   UNL A   1      47.204  29.358  30.807  1.00  0.00     0.029 A 
ATOM     31  N   UNL A   1      45.084  28.941  30.278  1.00  0.00    -0.354 N 
ATOM     32  N   UNL A   1      42.257  29.624  29.916  1.00  0.00    -0.248 NA
ATOM     33  C   UNL A   1      40.483  31.128  30.153  1.00  0.00     0.031 C 
ATOM     34  C   UNL A   1      46.443  30.494  31.105  1.00  0.00     0.029 A 
ATOM     35  C   UNL A   1      45.128  30.243  30.751  1.00  0.00     0.049 A 
ATOM     36  H   UNL A   1      44.275  28.482  29.960  1.00  0.00     0.167 HD
ATOM     37  C   UNL A   1      42.735  30.812  30.446  1.00  0.00     0.074 A 
ATOM     38  C   UNL A   1      41.607  31.718  30.532  1.00  0.00     0.031 C 
ATOM     39  C   UNL A   1      43.993  31.124  30.840  1.00  0.00     0.031 A 
BRANCH  26  40
ATOM     40  C   UNL A   1      48.094  26.574  30.064  1.00  0.00    -0.014 A 
ATOM     41  C   UNL A   1      48.486  25.734  31.119  1.00  0.00     0.009 A 
ATOM     42  C   UNL A   1      49.042  26.923  29.089  1.00  0.00     0.009 A 
ATOM     43  C   UNL A   1      49.801  25.271  31.204  1.00  0.00     0.001 A 
ATOM     44  C   UNL A   1      50.350  26.439  29.164  1.00  0.00     0.001 A 
ATOM     45  C   UNL A   1      50.730  25.618  30.224  1.00  0.00     0.000 A 
ENDBRANCH  26  40
BRANCH  27  46
ATOM     46  C   UNL A   1      38.527  29.259  29.049  1.00  0.00    -0.014 A 
ATOM     47  C   UNL A   1      37.636  29.135  30.125  1.00  0.00     0.009 A 
ATOM     48  C   UNL A   1      38.050  29.764  27.829  1.00  0.00     0.009 A 
ATOM     49  C   UNL A   1      36.292  29.480  29.972  1.00  0.00     0.001 A 
ATOM     50  C   UNL A   1      36.714  30.142  27.689  1.00  0.00     0.001 A 
ATOM     51  C   UNL A   1      35.833  29.987  28.757  1.00  0.00     0.000 A 
ENDBRANCH  27  46
BRANCH  39  52
ATOM     52  C   UNL A   1      44.207  32.511  31.378  1.00  0.00    -0.014 A 
ATOM     53  C   UNL A   1      44.046  32.792  32.744  1.00  0.00     0.009 A 
ATOM     54  C   UNL A   1      44.569  33.548  30.506  1.00  0.00     0.009 A 
ATOM     55  C   UNL A   1      44.199  34.095  33.219  1.00  0.00     0.001 A 
ATOM     56  C   UNL A   1      44.752  34.844  30.989  1.00  0.00     0.001 A 
ATOM     57  C   UNL A   1      44.555  35.119  32.342  1.00  0.00     0.000 A 
ENDBRANCH  39  52
ENDBRANCH  13  14
ENDBRANCH   6   8
ENDBRANCH   3   4
ENDBRANCH   2   3
ENDBRANCH   1   2
BRANCH   1  58
ATOM     58  C   UNL A   1      45.467  21.528  25.492  1.00  0.00     0.002 C 
BRANCH  58  59
ATOM     59  C   UNL A   1      45.110  22.540  24.394  1.00  0.00     0.021 C 
BRANCH  59  60
ATOM     60  C   UNL A   1      46.142  23.647  24.174  1.00  0.00     0.116 C 
BRANCH  60  61
ATOM     61  N   UNL A   1      46.844  23.956  25.404  1.00  0.00    -0.351 N 
ATOM     62  C   UNL A   1      47.735  24.963  25.646  1.00  0.00     0.273 C 
ATOM     63  H   UNL A   1      46.653  23.361  26.165  1.00  0.00     0.163 HD
ATOM     64  O   UNL A   1      48.423  24.907  26.672  1.00  0.00    -0.267 OA
BRANCH  62  65
ATOM     65  C   UNL A   1      47.865  26.046  24.688  1.00  0.00     0.174 A 
ATOM     66  N   UNL A   1      48.866  26.163  23.735  1.00  0.00    -0.211 NA
ATOM     67  C   UNL A   1      46.975  27.091  24.543  1.00  0.00     0.167 A 
ATOM     68  C   UNL A   1      48.520  27.234  23.056  1.00  0.00     0.309 A 
ATOM     69  O   UNL A   1      47.385  27.854  23.485  1.00  0.00    -0.443 OA
BRANCH  67  70
ATOM     70  C   UNL A   1      45.809  27.542  25.269  1.00  0.00     0.026 A 
ATOM     71  C   UNL A   1      44.584  26.885  25.097  1.00  0.00     0.051 A 
ATOM     72  C   UNL A   1      45.874  28.660  26.106  1.00  0.00     0.051 A 
ATOM     73  C   UNL A   1      43.446  27.357  25.744  1.00  0.00     0.126 A 
ATOM     74  C   UNL A   1      44.719  29.117  26.733  1.00  0.00     0.126 A 
ATOM     75  F   UNL A   1      42.281  26.720  25.569  1.00  0.00    -0.207 F 
ATOM     76  C   UNL A   1      43.500  28.476  26.560  1.00  0.00     0.078 A 
ATOM     77  F   UNL A   1      44.783  30.205  27.512  1.00  0.00    -0.207 F 
ENDBRANCH  67  70
ENDBRANCH  62  65
ENDBRANCH  60  61
ENDBRANCH  59  60
ENDBRANCH  58  59
ENDBRANCH   1  58
TORSDOF 14
ENDMDL
MODEL 3
REMARK VINA RESULT:      -9.0      6.054     11.948
REMARK SMILES O=C(NCCCCCCNC(=O)c1ncoc1-c1cc(F)cc(F)c1)c1ccc(-c2c3nc(c(-c4ccccc4)c4ccc([nH]4)c(-c4ccccc4)c4nc(c(-c5ccccc5)c5ccc2[nH]5)C=C4)C=C3)cc1
REMARK SMILES IDX 6 1 5 2 4 3 3 4 1 5 2 6 26 8 27 9 73 10 28 11 72 12 29 13
REMARK SMILES IDX 30 14 31 15 66 16 32 17 71 18 65 19 67 20 33 21 70 22 64 23
REMARK SMILES IDX 63 24 34 26 56 27 41 28 55 29 42 30 45 31 54 32 68 33 43 34
REMARK SMILES IDX 44 35 53 37 69 38 46 39 35 40 36 41 40 42 37 43 39 44 38 45
REMARK SMILES IDX 57 46 58 47 62 48 59 49 61 50 60 51 47 52 48 53 52 54 49 55
REMARK SMILES IDX 51 56 50 57 7 58 8 59 9 60 10 61 11 62 12 64 13 65 14 66
REMARK SMILES IDX 17 67 15 68 16 69 18 70 19 71 25 72 20 73 23 74 21 75 22 76
REMARK SMILES IDX 24 77
REMARK H PARENT 3 7 67 25 45 36 10 63
REMARK Flexibility Score: inf
ROOT
ATOM      1  C   UNL A   1      36.658  20.704  24.760  1.00  0.00     0.002 C 
ENDROOT
BRANCH   1   2
ATOM      2  C   UNL A   1      37.805  19.709  24.924  1.00  0.00     0.021 C 
BRANCH   2   3
ATOM      3  C   UNL A   1      38.976  20.222  25.746  1.00  0.00     0.116 C 
BRANCH   3   4
ATOM      4  N   UNL A   1      40.106  19.308  25.749  1.00  0.00    -0.352 N 
ATOM      5  O   UNL A   1      42.287  18.720  25.861  1.00  0.00    -0.269 OA
ATOM      6  C   UNL A   1      41.421  19.567  26.056  1.00  0.00     0.251 C 
ATOM      7  H   UNL A   1      39.902  18.378  25.495  1.00  0.00     0.163 HD
BRANCH   6   8
ATOM      8  C   UNL A   1      41.790  20.889  26.606  1.00  0.00     0.039 A 
ATOM      9  C   UNL A   1      41.693  21.133  27.977  1.00  0.00     0.014 A 
ATOM     10  C   UNL A   1      42.226  21.898  25.742  1.00  0.00     0.014 A 
ATOM     11  C   UNL A   1      41.886  22.419  28.463  1.00  0.00     0.010 A 
ATOM     12  C   UNL A   1      42.518  23.168  26.248  1.00  0.00     0.010 A 
ATOM     13  C   UNL A   1      42.327  23.445  27.610  1.00  0.00    -0.014 A 
BRANCH  13  14
ATOM     14  C   UNL A   1      42.669  24.763  28.204  1.00  0.00     0.031 A 
ATOM     15  C   UNL A   1      44.083  25.133  28.554  1.00  0.00     0.074 A 
ATOM     16  C   UNL A   1      41.672  25.656  28.373  1.00  0.00     0.049 A 
ATOM     17  N   UNL A   1      44.541  26.272  29.013  1.00  0.00    -0.248 NA
ATOM     18  C   UNL A   1      45.116  24.101  28.371  1.00  0.00     0.031 C 
ATOM     19  C   UNL A   1      40.258  25.403  28.082  1.00  0.00     0.029 A 
ATOM     20  N   UNL A   1      41.696  26.960  28.795  1.00  0.00    -0.354 N 
ATOM     21  C   UNL A   1      45.908  26.092  29.184  1.00  0.00     0.074 A 
ATOM     22  C   UNL A   1      46.203  24.726  28.805  1.00  0.00     0.031 C 
ATOM     23  C   UNL A   1      39.562  26.533  28.269  1.00  0.00     0.029 A 
ATOM     24  C   UNL A   1      40.464  27.566  28.761  1.00  0.00     0.049 A 
ATOM     25  H   UNL A   1      42.516  27.416  29.093  1.00  0.00     0.167 HD
ATOM     26  C   UNL A   1      46.831  26.987  29.613  1.00  0.00     0.031 A 
ATOM     27  C   UNL A   1      40.091  28.812  29.102  1.00  0.00     0.031 A 
ATOM     28  C   UNL A   1      46.531  28.343  29.997  1.00  0.00     0.049 A 
ATOM     29  C   UNL A   1      41.133  29.768  29.601  1.00  0.00     0.074 A 
ATOM     30  C   UNL A   1      47.402  29.328  30.433  1.00  0.00     0.029 A 
ATOM     31  N   UNL A   1      45.264  28.906  29.994  1.00  0.00    -0.354 N 
ATOM     32  N   UNL A   1      42.425  29.588  29.728  1.00  0.00    -0.248 NA
ATOM     33  C   UNL A   1      40.664  31.099  30.004  1.00  0.00     0.031 C 
ATOM     34  C   UNL A   1      46.655  30.471  30.739  1.00  0.00     0.029 A 
ATOM     35  C   UNL A   1      45.327  30.217  30.440  1.00  0.00     0.049 A 
ATOM     36  H   UNL A   1      44.442  28.443  29.716  1.00  0.00     0.167 HD
ATOM     37  C   UNL A   1      42.925  30.785  30.217  1.00  0.00     0.074 A 
ATOM     38  C   UNL A   1      41.802  31.694  30.329  1.00  0.00     0.031 C 
ATOM     39  C   UNL A   1      44.198  31.102  30.557  1.00  0.00     0.031 A 
BRANCH  26  40
ATOM     40  C   UNL A   1      48.260  26.529  29.710  1.00  0.00    -0.014 A 
ATOM     41  C   UNL A   1      48.744  25.896  30.866  1.00  0.00     0.009 A 
ATOM     42  C   UNL A   1      49.114  26.662  28.602  1.00  0.00     0.009 A 
ATOM     43  C   UNL A   1      50.058  25.425  30.917  1.00  0.00     0.001 A 
ATOM     44  C   UNL A   1      50.419  26.168  28.649  1.00  0.00     0.001 A 
ATOM     45  C   UNL A   1      50.892  25.555  29.807  1.00  0.00     0.000 A 
ENDBRANCH  26  40
BRANCH  27  46
ATOM     46  C   UNL A   1      38.664  29.214  29.012  1.00  0.00    -0.014 A 
ATOM     47  C   UNL A   1      37.804  29.069  30.110  1.00  0.00     0.009 A 
ATOM     48  C   UNL A   1      38.153  29.741  27.815  1.00  0.00     0.009 A 
ATOM     49  C   UNL A   1      36.455  29.415  30.001  1.00  0.00     0.001 A 
ATOM     50  C   UNL A   1      36.813  30.119  27.720  1.00  0.00     0.001 A 
ATOM     51  C   UNL A   1      35.963  29.943  28.808  1.00  0.00     0.000 A 
ENDBRANCH  27  46
BRANCH  39  52
ATOM     52  C   UNL A   1      44.433  32.497  31.059  1.00  0.00    -0.014 A 
ATOM     53  C   UNL A   1      44.359  32.798  32.429  1.00  0.00     0.009 A 
ATOM     54  C   UNL A   1      44.729  33.524  30.151  1.00  0.00     0.009 A 
ATOM     55  C   UNL A   1      44.532  34.109  32.875  1.00  0.00     0.001 A 
ATOM     56  C   UNL A   1      44.932  34.829  30.603  1.00  0.00     0.001 A 
ATOM     57  C   UNL A   1      44.821  35.122  31.962  1.00  0.00     0.000 A 
ENDBRANCH  39  52
ENDBRANCH  13  14
ENDBRANCH   6   8
ENDBRANCH   3   4
ENDBRANCH   2   3
ENDBRANCH   1   2
BRANCH   1  58
ATOM     58  C   UNL A   1      37.068  22.104  24.294  1.00  0.00     0.002 C 
BRANCH  58  59
ATOM     59  C   UNL A   1      36.768  23.246  25.275  1.00  0.00     0.021 C 
BRANCH  59  60
ATOM     60  C   UNL A   1      35.328  23.764  25.243  1.00  0.00     0.116 C 
BRANCH  60  61
ATOM     61  N   UNL A   1      34.778  23.688  23.904  1.00  0.00    -0.351 N 
ATOM     62  C   UNL A   1      33.640  23.057  23.486  1.00  0.00     0.273 C 
ATOM     63  H   UNL A   1      35.292  24.153  23.204  1.00  0.00     0.163 HD
ATOM     64  O   UNL A   1      33.477  22.881  22.272  1.00  0.00    -0.267 OA
BRANCH  62  65
ATOM     65  C   UNL A   1      32.679  22.593  24.469  1.00  0.00     0.174 A 
ATOM     66  N   UNL A   1      31.957  23.402  25.334  1.00  0.00    -0.211 NA
ATOM     67  C   UNL A   1      32.296  21.279  24.650  1.00  0.00     0.167 A 
ATOM     68  C   UNL A   1      31.168  22.556  25.958  1.00  0.00     0.309 A 
ATOM     69  O   UNL A   1      31.314  21.249  25.600  1.00  0.00    -0.443 OA
BRANCH  67  70
ATOM     70  C   UNL A   1      32.735  20.010  24.114  1.00  0.00     0.026 A 
ATOM     71  C   UNL A   1      32.129  19.493  22.961  1.00  0.00     0.051 A 
ATOM     72  C   UNL A   1      33.724  19.262  24.760  1.00  0.00     0.051 A 
ATOM     73  C   UNL A   1      32.503  18.242  22.481  1.00  0.00     0.126 A 
ATOM     74  C   UNL A   1      34.073  18.009  24.264  1.00  0.00     0.126 A 
ATOM     75  F   UNL A   1      31.914  17.760  21.380  1.00  0.00    -0.207 F 
ATOM     76  C   UNL A   1      33.470  17.488  23.127  1.00  0.00     0.078 A 
ATOM     77  F   UNL A   1      35.003  17.287  24.904  1.00  0.00    -0.207 F 
ENDBRANCH  67  70
ENDBRANCH  62  65
ENDBRANCH  60  61
ENDBRANCH  59  60
ENDBRANCH  58  59
ENDBRANCH   1  58
TORSDOF 14
ENDMDL
