MODEL 1
REMARK VINA RESULT:      -9.0      0.000      0.000
REMARK SMILES CCCCS[C@@H]1CC[C@@]([NH2+]CC)(C(=O)NCCCCCCNC(=O)c2ccc(-c3c4nc(c(-c5ccccc5)c5ccc([nH]5)c(-c5ccccc5)c5nc(c(-c6ccccc6)c6ccc3[nH]6)C=C5)C=C4)cc2)C1
REMARK SMILES IDX 17 1 16 2 15 3 13 4 14 5 9 7 6 8 7 9 73 10 8 11 5 12 4 13
REMARK SMILES IDX 3 14 2 15 1 16 10 17 11 20 12 21 18 22 19 23 20 24 21 25
REMARK SMILES IDX 22 26 23 27 24 29 25 30 26 31 72 32 27 33 71 34 28 35 29 36
REMARK SMILES IDX 30 37 65 38 31 39 70 40 64 41 66 42 32 43 69 44 63 45 62 46
REMARK SMILES IDX 33 48 55 49 40 50 54 51 41 52 44 53 53 54 67 55 42 56 43 57
REMARK SMILES IDX 52 59 68 60 45 61 34 62 35 63 39 64 36 65 38 66 37 67 56 68
REMARK SMILES IDX 57 69 61 70 58 71 60 72 59 73 46 74 47 75 51 76 48 77 50 78
REMARK SMILES IDX 49 79
REMARK H PARENT 15 6 10 18 10 19 22 28 66 47 44 58
REMARK Flexibility Score: inf
ROOT
ATOM      1  C   UNL A   1      33.662  29.046  26.041  1.00  0.00     0.021 C 
ENDROOT
BRANCH   1   2
ATOM      2  C   UNL A   1      33.343  27.632  26.516  1.00  0.00     0.116 C 
BRANCH   2   3
ATOM      3  N   UNL A   1      33.837  26.643  25.571  1.00  0.00    -0.351 N 
ATOM      4  C   UNL A   1      33.283  25.473  25.124  1.00  0.00     0.281 C 
ATOM      5  O   UNL A   1      33.981  24.755  24.405  1.00  0.00    -0.268 OA
ATOM      6  H   UNL A   1      34.719  26.851  25.187  1.00  0.00     0.163 HD
BRANCH   4   7
ATOM      7  C   UNL A   1      31.814  25.117  25.486  1.00  0.00     0.176 C 
ATOM      8  C   UNL A   1      30.191  26.230  24.000  1.00  0.00     0.053 C 
ATOM      9  C   UNL A   1      30.311  24.795  23.513  1.00  0.00     0.022 C 
ATOM     10  C   UNL A   1      30.844  26.308  25.369  1.00  0.00     0.093 C 
ATOM     11  C   UNL A   1      31.286  24.091  24.450  1.00  0.00     0.080 C 
BRANCH   8  12
ATOM     12  S   UNL A   1      28.471  26.863  23.842  1.00  0.00    -0.158 SA
BRANCH  12  13
ATOM     13  C   UNL A   1      28.581  28.393  22.823  1.00  0.00     0.070 C 
BRANCH  13  14
ATOM     14  C   UNL A   1      29.753  29.340  23.108  1.00  0.00     0.011 C 
BRANCH  14  15
ATOM     15  C   UNL A   1      29.425  30.648  23.825  1.00  0.00    -0.003 C 
ATOM     16  C   UNL A   1      28.511  31.585  23.055  1.00  0.00     0.004 C 
ENDBRANCH  14  15
ENDBRANCH  13  14
ENDBRANCH  12  13
ENDBRANCH   8  12
BRANCH   7  17
ATOM     17  N   UNL A   1      31.736  24.584  26.882  1.00  0.00    -0.334 N 
ATOM     18  H   UNL A   1      30.855  24.904  27.286  1.00  0.00     0.347 HD
ATOM     19  H   UNL A   1      32.572  24.935  27.349  1.00  0.00     0.347 HD
BRANCH  17  20
ATOM     20  C   UNL A   1      31.792  23.124  27.038  1.00  0.00     0.257 C 
ATOM     21  C   UNL A   1      33.120  22.579  27.542  1.00  0.00     0.071 C 
ENDBRANCH  17  20
ENDBRANCH   7  17
ENDBRANCH   4   7
ENDBRANCH   2   3
ENDBRANCH   1   2
BRANCH   1  22
ATOM     22  C   UNL A   1      32.424  29.856  25.654  1.00  0.00     0.002 C 
BRANCH  22  23
ATOM     23  C   UNL A   1      31.625  30.398  26.843  1.00  0.00     0.002 C 
BRANCH  23  24
ATOM     24  C   UNL A   1      31.360  31.904  26.799  1.00  0.00     0.021 C 
BRANCH  24  25
ATOM     25  C   UNL A   1      32.619  32.762  26.853  1.00  0.00     0.116 C 
BRANCH  25  26
ATOM     26  N   UNL A   1      32.418  33.971  27.633  1.00  0.00    -0.352 N 
ATOM     27  C   UNL A   1      33.124  34.431  28.717  1.00  0.00     0.251 C 
ATOM     28  H   UNL A   1      31.669  34.542  27.344  1.00  0.00     0.163 HD
ATOM     29  O   UNL A   1      32.697  35.362  29.387  1.00  0.00    -0.269 OA
BRANCH  27  30
ATOM     30  C   UNL A   1      34.397  33.777  29.081  1.00  0.00     0.039 A 
ATOM     31  C   UNL A   1      35.568  34.178  28.435  1.00  0.00     0.014 A 
ATOM     32  C   UNL A   1      34.432  32.779  30.057  1.00  0.00     0.014 A 
ATOM     33  C   UNL A   1      36.788  33.614  28.812  1.00  0.00     0.010 A 
ATOM     34  C   UNL A   1      35.656  32.277  30.487  1.00  0.00     0.010 A 
ATOM     35  C   UNL A   1      36.845  32.686  29.864  1.00  0.00    -0.014 A 
BRANCH  35  36
ATOM     36  C   UNL A   1      38.143  32.138  30.331  1.00  0.00     0.031 A 
ATOM     37  C   UNL A   1      38.675  30.853  29.759  1.00  0.00     0.074 A 
ATOM     38  C   UNL A   1      38.812  32.768  31.315  1.00  0.00     0.049 A 
ATOM     39  N   UNL A   1      39.768  30.203  30.070  1.00  0.00    -0.248 NA
ATOM     40  C   UNL A   1      37.860  30.198  28.724  1.00  0.00     0.031 C 
ATOM     41  C   UNL A   1      38.378  33.996  31.984  1.00  0.00     0.029 A 
ATOM     42  N   UNL A   1      40.000  32.456  31.930  1.00  0.00    -0.354 N 
ATOM     43  C   UNL A   1      39.763  29.060  29.282  1.00  0.00     0.074 A 
ATOM     44  C   UNL A   1      38.533  29.076  28.520  1.00  0.00     0.031 C 
ATOM     45  C   UNL A   1      39.300  34.350  32.893  1.00  0.00     0.029 A 
ATOM     46  C   UNL A   1      40.365  33.352  32.905  1.00  0.00     0.049 A 
ATOM     47  H   UNL A   1      40.538  31.667  31.694  1.00  0.00     0.167 HD
ATOM     48  C   UNL A   1      40.705  28.090  29.189  1.00  0.00     0.031 A 
ATOM     49  C   UNL A   1      41.433  33.366  33.725  1.00  0.00     0.031 A 
ATOM     50  C   UNL A   1      41.927  28.077  29.946  1.00  0.00     0.049 A 
ATOM     51  C   UNL A   1      42.456  32.272  33.612  1.00  0.00     0.074 A 
ATOM     52  C   UNL A   1      42.975  27.175  29.876  1.00  0.00     0.029 A 
ATOM     53  N   UNL A   1      42.262  29.004  30.921  1.00  0.00    -0.354 N 
ATOM     54  N   UNL A   1      42.478  31.239  32.804  1.00  0.00    -0.248 NA
ATOM     55  C   UNL A   1      43.611  32.352  34.518  1.00  0.00     0.031 C 
ATOM     56  C   UNL A   1      43.912  27.518  30.855  1.00  0.00     0.029 A 
ATOM     57  C   UNL A   1      43.483  28.675  31.486  1.00  0.00     0.049 A 
ATOM     58  H   UNL A   1      41.714  29.782  31.175  1.00  0.00     0.167 HD
ATOM     59  C   UNL A   1      43.657  30.563  33.084  1.00  0.00     0.074 A 
ATOM     60  C   UNL A   1      44.333  31.312  34.124  1.00  0.00     0.031 C 
ATOM     61  C   UNL A   1      44.140  29.424  32.528  1.00  0.00     0.031 A 
BRANCH  48  62
ATOM     62  C   UNL A   1      40.433  26.949  28.244  1.00  0.00    -0.014 A 
ATOM     63  C   UNL A   1      40.957  26.935  26.941  1.00  0.00     0.009 A 
ATOM     64  C   UNL A   1      39.662  25.858  28.676  1.00  0.00     0.009 A 
ATOM     65  C   UNL A   1      40.676  25.874  26.076  1.00  0.00     0.001 A 
ATOM     66  C   UNL A   1      39.412  24.783  27.822  1.00  0.00     0.001 A 
ATOM     67  C   UNL A   1      39.909  24.797  26.519  1.00  0.00     0.000 A 
ENDBRANCH  48  62
BRANCH  49  68
ATOM     68  C   UNL A   1      41.589  34.460  34.718  1.00  0.00    -0.014 A 
ATOM     69  C   UNL A   1      41.084  34.321  36.020  1.00  0.00     0.009 A 
ATOM     70  C   UNL A   1      42.254  35.646  34.373  1.00  0.00     0.009 A 
ATOM     71  C   UNL A   1      41.220  35.358  36.946  1.00  0.00     0.001 A 
ATOM     72  C   UNL A   1      42.417  36.668  35.311  1.00  0.00     0.001 A 
ATOM     73  C   UNL A   1      41.892  36.527  36.594  1.00  0.00     0.000 A 
ENDBRANCH  49  68
BRANCH  61  74
ATOM     74  C   UNL A   1      45.477  28.934  33.011  1.00  0.00    -0.014 A 
ATOM     75  C   UNL A   1      45.586  28.021  34.071  1.00  0.00     0.009 A 
ATOM     76  C   UNL A   1      46.647  29.363  32.362  1.00  0.00     0.009 A 
ATOM     77  C   UNL A   1      46.839  27.576  34.496  1.00  0.00     0.001 A 
ATOM     78  C   UNL A   1      47.897  28.891  32.766  1.00  0.00     0.001 A 
ATOM     79  C   UNL A   1      47.992  28.006  33.839  1.00  0.00     0.000 A 
ENDBRANCH  61  74
ENDBRANCH  35  36
ENDBRANCH  27  30
ENDBRANCH  25  26
ENDBRANCH  24  25
ENDBRANCH  23  24
ENDBRANCH  22  23
ENDBRANCH   1  22
TORSDOF 19
ENDMDL
MODEL 2
REMARK VINA RESULT:      -8.7      4.050      8.707
REMARK SMILES CCCCS[C@@H]1CC[C@@]([NH2+]CC)(C(=O)NCCCCCCNC(=O)c2ccc(-c3c4nc(c(-c5ccccc5)c5ccc([nH]5)c(-c5ccccc5)c5nc(c(-c6ccccc6)c6ccc3[nH]6)C=C5)C=C4)cc2)C1
REMARK SMILES IDX 17 1 16 2 15 3 13 4 14 5 9 7 6 8 7 9 73 10 8 11 5 12 4 13
REMARK SMILES IDX 3 14 2 15 1 16 10 17 11 20 12 21 18 22 19 23 20 24 21 25
REMARK SMILES IDX 22 26 23 27 24 29 25 30 26 31 72 32 27 33 71 34 28 35 29 36
REMARK SMILES IDX 30 37 65 38 31 39 70 40 64 41 66 42 32 43 69 44 63 45 62 46
REMARK SMILES IDX 33 48 55 49 40 50 54 51 41 52 44 53 53 54 67 55 42 56 43 57
REMARK SMILES IDX 52 59 68 60 45 61 34 62 35 63 39 64 36 65 38 66 37 67 56 68
REMARK SMILES IDX 57 69 61 70 58 71 60 72 59 73 46 74 47 75 51 76 48 77 50 78
REMARK SMILES IDX 49 79
REMARK H PARENT 15 6 10 18 10 19 22 28 66 47 44 58
REMARK Flexibility Score: inf
ROOT
ATOM      1  C   UNL A   1      37.241  22.972  25.150  1.00  0.00     0.021 C 
ENDROOT
BRANCH   1   2
ATOM      2  C   UNL A   1      35.983  22.431  25.821  1.00  0.00     0.116 C 
BRANCH   2   3
ATOM      3  N   UNL A   1      35.640  21.116  25.301  1.00  0.00    -0.351 N 
ATOM      4  C   UNL A   1      34.441  20.596  24.895  1.00  0.00     0.281 C 
ATOM      5  O   UNL A   1      34.412  19.397  24.609  1.00  0.00    -0.268 OA
ATOM      6  H   UNL A   1      36.402  20.496  25.227  1.00  0.00     0.163 HD
BRANCH   4   7
ATOM      7  C   UNL A   1      33.195  21.516  24.766  1.00  0.00     0.176 C 
ATOM      8  C   UNL A   1      33.438  23.166  22.950  1.00  0.00     0.053 C 
ATOM      9  C   UNL A   1      32.549  22.058  22.411  1.00  0.00     0.022 C 
ATOM     10  C   UNL A   1      33.542  22.983  24.454  1.00  0.00     0.093 C 
ATOM     11  C   UNL A   1      32.365  21.051  23.542  1.00  0.00     0.080 C 
BRANCH   8  12
ATOM     12  S   UNL A   1      32.923  24.819  22.328  1.00  0.00    -0.158 SA
BRANCH  12  13
ATOM     13  C   UNL A   1      31.233  25.113  22.997  1.00  0.00     0.070 C 
BRANCH  13  14
ATOM     14  C   UNL A   1      30.915  26.528  23.499  1.00  0.00     0.011 C 
BRANCH  14  15
ATOM     15  C   UNL A   1      30.843  26.723  25.011  1.00  0.00    -0.003 C 
ATOM     16  C   UNL A   1      30.184  25.585  25.771  1.00  0.00     0.004 C 
ENDBRANCH  14  15
ENDBRANCH  13  14
ENDBRANCH  12  13
ENDBRANCH   8  12
BRANCH   7  17
ATOM     17  N   UNL A   1      32.389  21.482  26.026  1.00  0.00    -0.334 N 
ATOM     18  H   UNL A   1      32.724  20.698  26.586  1.00  0.00     0.347 HD
ATOM     19  H   UNL A   1      31.419  21.405  25.721  1.00  0.00     0.347 HD
BRANCH  17  20
ATOM     20  C   UNL A   1      32.430  22.683  26.872  1.00  0.00     0.257 C 
ATOM     21  C   UNL A   1      33.263  22.553  28.138  1.00  0.00     0.071 C 
ENDBRANCH  17  20
ENDBRANCH   7  17
ENDBRANCH   4   7
ENDBRANCH   2   3
ENDBRANCH   1   2
BRANCH   1  22
ATOM     22  C   UNL A   1      38.210  23.649  26.121  1.00  0.00     0.002 C 
BRANCH  22  23
ATOM     23  C   UNL A   1      39.232  22.703  26.757  1.00  0.00     0.002 C 
BRANCH  23  24
ATOM     24  C   UNL A   1      39.584  21.481  25.906  1.00  0.00     0.021 C 
BRANCH  24  25
ATOM     25  C   UNL A   1      40.139  20.305  26.700  1.00  0.00     0.116 C 
BRANCH  25  26
ATOM     26  N   UNL A   1      41.319  19.735  26.072  1.00  0.00    -0.352 N 
ATOM     27  C   UNL A   1      42.510  20.340  25.753  1.00  0.00     0.251 C 
ATOM     28  H   UNL A   1      41.257  18.780  25.842  1.00  0.00     0.163 HD
ATOM     29  O   UNL A   1      43.324  19.771  25.039  1.00  0.00    -0.269 OA
BRANCH  27  30
ATOM     30  C   UNL A   1      42.790  21.697  26.264  1.00  0.00     0.039 A 
ATOM     31  C   UNL A   1      42.930  22.745  25.352  1.00  0.00     0.014 A 
ATOM     32  C   UNL A   1      42.909  21.933  27.637  1.00  0.00     0.014 A 
ATOM     33  C   UNL A   1      43.133  24.043  25.821  1.00  0.00     0.010 A 
ATOM     34  C   UNL A   1      43.031  23.236  28.105  1.00  0.00     0.010 A 
ATOM     35  C   UNL A   1      43.150  24.303  27.202  1.00  0.00    -0.014 A 
BRANCH  35  36
ATOM     36  C   UNL A   1      43.284  25.689  27.717  1.00  0.00     0.031 A 
ATOM     37  C   UNL A   1      44.642  26.264  28.007  1.00  0.00     0.074 A 
ATOM     38  C   UNL A   1      42.176  26.406  27.981  1.00  0.00     0.049 A 
ATOM     39  N   UNL A   1      44.953  27.438  28.495  1.00  0.00    -0.248 NA
ATOM     40  C   UNL A   1      45.801  25.398  27.739  1.00  0.00     0.031 C 
ATOM     41  C   UNL A   1      40.799  25.945  27.787  1.00  0.00     0.029 A 
ATOM     42  N   UNL A   1      42.032  27.679  28.478  1.00  0.00    -0.354 N 
ATOM     43  C   UNL A   1      46.337  27.444  28.608  1.00  0.00     0.074 A 
ATOM     44  C   UNL A   1      46.802  26.139  28.189  1.00  0.00     0.031 C 
ATOM     45  C   UNL A   1      39.954  26.929  28.131  1.00  0.00     0.029 A 
ATOM     46  C   UNL A   1      40.723  28.071  28.612  1.00  0.00     0.049 A 
ATOM     47  H   UNL A   1      42.795  28.254  28.714  1.00  0.00     0.167 HD
ATOM     48  C   UNL A   1      47.150  28.450  29.009  1.00  0.00     0.031 A 
ATOM     49  C   UNL A   1      40.198  29.220  29.079  1.00  0.00     0.031 A 
ATOM     50  C   UNL A   1      46.686  29.747  29.423  1.00  0.00     0.049 A 
ATOM     51  C   UNL A   1      41.120  30.316  29.532  1.00  0.00     0.074 A 
ATOM     52  C   UNL A   1      47.433  30.855  29.784  1.00  0.00     0.029 A 
ATOM     53  N   UNL A   1      45.352  30.107  29.542  1.00  0.00    -0.354 N 
ATOM     54  N   UNL A   1      42.431  30.337  29.556  1.00  0.00    -0.248 NA
ATOM     55  C   UNL A   1      40.489  31.554  30.011  1.00  0.00     0.031 C 
ATOM     56  C   UNL A   1      46.551  31.863  30.186  1.00  0.00     0.029 A 
ATOM     57  C   UNL A   1      45.254  31.408  30.007  1.00  0.00     0.049 A 
ATOM     58  H   UNL A   1      44.588  29.525  29.328  1.00  0.00     0.167 HD
ATOM     59  C   UNL A   1      42.782  31.595  30.025  1.00  0.00     0.074 A 
ATOM     60  C   UNL A   1      41.546  32.315  30.257  1.00  0.00     0.031 C 
ATOM     61  C   UNL A   1      44.017  32.110  30.243  1.00  0.00     0.031 A 
BRANCH  48  62
ATOM     62  C   UNL A   1      48.630  28.176  29.038  1.00  0.00    -0.014 A 
ATOM     63  C   UNL A   1      49.445  28.423  27.921  1.00  0.00     0.009 A 
ATOM     64  C   UNL A   1      49.224  27.685  30.213  1.00  0.00     0.009 A 
ATOM     65  C   UNL A   1      50.813  28.143  27.966  1.00  0.00     0.001 A 
ATOM     66  C   UNL A   1      50.596  27.439  30.266  1.00  0.00     0.001 A 
ATOM     67  C   UNL A   1      51.388  27.657  29.139  1.00  0.00     0.000 A 
ENDBRANCH  48  62
BRANCH  49  68
ATOM     68  C   UNL A   1      38.722  29.390  29.134  1.00  0.00    -0.014 A 
ATOM     69  C   UNL A   1      38.001  29.753  27.986  1.00  0.00     0.009 A 
ATOM     70  C   UNL A   1      38.025  29.179  30.334  1.00  0.00     0.009 A 
ATOM     71  C   UNL A   1      36.616  29.925  28.046  1.00  0.00     0.001 A 
ATOM     72  C   UNL A   1      36.636  29.321  30.383  1.00  0.00     0.001 A 
ATOM     73  C   UNL A   1      35.934  29.703  29.241  1.00  0.00     0.000 A 
ENDBRANCH  49  68
BRANCH  61  74
ATOM     74  C   UNL A   1      44.096  33.531  30.729  1.00  0.00    -0.014 A 
ATOM     75  C   UNL A   1      44.144  34.611  29.834  1.00  0.00     0.009 A 
ATOM     76  C   UNL A   1      44.079  33.794  32.108  1.00  0.00     0.009 A 
ATOM     77  C   UNL A   1      44.210  35.921  30.310  1.00  0.00     0.001 A 
ATOM     78  C   UNL A   1      44.112  35.106  32.582  1.00  0.00     0.001 A 
ATOM     79  C   UNL A   1      44.187  36.168  31.683  1.00  0.00     0.000 A 
ENDBRANCH  61  74
ENDBRANCH  35  36
ENDBRANCH  27  30
ENDBRANCH  25  26
ENDBRANCH  24  25
ENDBRANCH  23  24
ENDBRANCH  22  23
ENDBRANCH   1  22
TORSDOF 19
ENDMDL
MODEL 3
REMARK VINA RESULT:      -8.7      3.345      8.435
REMARK SMILES CCCCS[C@@H]1CC[C@@]([NH2+]CC)(C(=O)NCCCCCCNC(=O)c2ccc(-c3c4nc(c(-c5ccccc5)c5ccc([nH]5)c(-c5ccccc5)c5nc(c(-c6ccccc6)c6ccc3[nH]6)C=C5)C=C4)cc2)C1
REMARK SMILES IDX 17 1 16 2 15 3 13 4 14 5 9 7 6 8 7 9 73 10 8 11 5 12 4 13
REMARK SMILES IDX 3 14 2 15 1 16 10 17 11 20 12 21 18 22 19 23 20 24 21 25
REMARK SMILES IDX 22 26 23 27 24 29 25 30 26 31 72 32 27 33 71 34 28 35 29 36
REMARK SMILES IDX 30 37 65 38 31 39 70 40 64 41 66 42 32 43 69 44 63 45 62 46
REMARK SMILES IDX 33 48 55 49 40 50 54 51 41 52 44 53 53 54 67 55 42 56 43 57
REMARK SMILES IDX 52 59 68 60 45 61 34 62 35 63 39 64 36 65 38 66 37 67 56 68
REMARK SMILES IDX 57 69 61 70 58 71 60 72 59 73 46 74 47 75 51 76 48 77 50 78
REMARK SMILES IDX 49 79
REMARK H PARENT 15 6 10 18 10 19 22 28 66 47 44 58
REMARK Flexibility Score: inf
ROOT
ATOM      1  C   UNL A   1      35.479  22.751  24.282  1.00  0.00     0.021 C 
ENDROOT
BRANCH   1   2
ATOM      2  C   UNL A   1      35.314  23.725  25.444  1.00  0.00     0.116 C 
BRANCH   2   3
ATOM      3  N   UNL A   1      33.939  23.738  25.920  1.00  0.00    -0.351 N 
ATOM      4  C   UNL A   1      32.913  24.611  25.677  1.00  0.00     0.281 C 
ATOM      5  O   UNL A   1      31.870  24.451  26.315  1.00  0.00    -0.268 OA
ATOM      6  H   UNL A   1      33.708  22.990  26.518  1.00  0.00     0.163 HD
BRANCH   4   7
ATOM      7  C   UNL A   1      33.071  25.720  24.599  1.00  0.00     0.176 C 
ATOM      8  C   UNL A   1      32.077  27.861  25.310  1.00  0.00     0.053 C 
ATOM      9  C   UNL A   1      33.578  27.991  25.517  1.00  0.00     0.022 C 
ATOM     10  C   UNL A   1      31.834  26.626  24.460  1.00  0.00     0.093 C 
ATOM     11  C   UNL A   1      34.202  26.682  25.045  1.00  0.00     0.080 C 
BRANCH   8  12
ATOM     12  S   UNL A   1      31.326  29.443  24.745  1.00  0.00    -0.158 SA
BRANCH  12  13
ATOM     13  C   UNL A   1      30.034  28.985  23.515  1.00  0.00     0.070 C 
BRANCH  13  14
ATOM     14  C   UNL A   1      29.776  29.974  22.371  1.00  0.00     0.011 C 
BRANCH  14  15
ATOM     15  C   UNL A   1      28.351  30.042  21.827  1.00  0.00    -0.003 C 
ATOM     16  C   UNL A   1      28.053  31.261  20.971  1.00  0.00     0.004 C 
ENDBRANCH  14  15
ENDBRANCH  13  14
ENDBRANCH  12  13
ENDBRANCH   8  12
BRANCH   7  17
ATOM     17  N   UNL A   1      33.359  25.110  23.263  1.00  0.00    -0.334 N 
ATOM     18  H   UNL A   1      32.619  24.436  23.066  1.00  0.00     0.347 HD
ATOM     19  H   UNL A   1      34.292  24.709  23.348  1.00  0.00     0.347 HD
BRANCH  17  20
ATOM     20  C   UNL A   1      33.438  26.029  22.118  1.00  0.00     0.257 C 
ATOM     21  C   UNL A   1      32.363  25.838  21.060  1.00  0.00     0.071 C 
ENDBRANCH  17  20
ENDBRANCH   7  17
ENDBRANCH   4   7
ENDBRANCH   2   3
ENDBRANCH   1   2
BRANCH   1  22
ATOM     22  C   UNL A   1      34.963  21.343  24.585  1.00  0.00     0.002 C 
BRANCH  22  23
ATOM     23  C   UNL A   1      36.003  20.411  25.212  1.00  0.00     0.002 C 
BRANCH  23  24
ATOM     24  C   UNL A   1      37.402  20.515  24.601  1.00  0.00     0.021 C 
BRANCH  24  25
ATOM     25  C   UNL A   1      38.504  20.813  25.611  1.00  0.00     0.116 C 
BRANCH  25  26
ATOM     26  N   UNL A   1      39.517  19.771  25.631  1.00  0.00    -0.352 N 
ATOM     27  C   UNL A   1      40.849  19.862  25.951  1.00  0.00     0.251 C 
ATOM     28  H   UNL A   1      39.204  18.871  25.381  1.00  0.00     0.163 HD
ATOM     29  O   UNL A   1      41.609  18.932  25.717  1.00  0.00    -0.269 OA
BRANCH  27  30
ATOM     30  C   UNL A   1      41.362  21.105  26.561  1.00  0.00     0.039 A 
ATOM     31  C   UNL A   1      41.960  22.062  25.739  1.00  0.00     0.014 A 
ATOM     32  C   UNL A   1      41.249  21.324  27.937  1.00  0.00     0.014 A 
ATOM     33  C   UNL A   1      42.393  23.268  26.291  1.00  0.00     0.010 A 
ATOM     34  C   UNL A   1      41.607  22.557  28.471  1.00  0.00     0.010 A 
ATOM     35  C   UNL A   1      42.188  23.539  27.654  1.00  0.00    -0.014 A 
BRANCH  35  36
ATOM     36  C   UNL A   1      42.570  24.848  28.239  1.00  0.00     0.031 A 
ATOM     37  C   UNL A   1      41.540  25.927  28.424  1.00  0.00     0.074 A 
ATOM     38  C   UNL A   1      43.859  25.084  28.547  1.00  0.00     0.049 A 
ATOM     39  N   UNL A   1      41.694  27.144  28.882  1.00  0.00    -0.248 NA
ATOM     40  C   UNL A   1      40.163  25.609  28.016  1.00  0.00     0.031 C 
ATOM     41  C   UNL A   1      44.961  24.135  28.372  1.00  0.00     0.029 A 
ATOM     42  N   UNL A   1      44.463  26.202  29.069  1.00  0.00    -0.354 N 
ATOM     43  C   UNL A   1      40.442  27.738  28.801  1.00  0.00     0.074 A 
ATOM     44  C   UNL A   1      39.551  26.769  28.201  1.00  0.00     0.031 C 
ATOM     45  C   UNL A   1      46.099  24.699  28.806  1.00  0.00     0.029 A 
ATOM     46  C   UNL A   1      45.818  26.062  29.246  1.00  0.00     0.049 A 
ATOM     47  H   UNL A   1      43.972  27.024  29.294  1.00  0.00     0.167 HD
ATOM     48  C   UNL A   1      40.062  28.974  29.206  1.00  0.00     0.031 A 
ATOM     49  C   UNL A   1      46.735  26.934  29.704  1.00  0.00     0.031 A 
ATOM     50  C   UNL A   1      40.949  29.935  29.804  1.00  0.00     0.049 A 
ATOM     51  C   UNL A   1      46.292  28.304  30.133  1.00  0.00     0.074 A 
ATOM     52  C   UNL A   1      40.648  31.189  30.308  1.00  0.00     0.029 A 
ATOM     53  N   UNL A   1      42.314  29.754  29.971  1.00  0.00    -0.354 N 
ATOM     54  N   UNL A   1      45.089  28.824  30.127  1.00  0.00    -0.248 NA
ATOM     55  C   UNL A   1      47.335  29.206  30.644  1.00  0.00     0.031 C 
ATOM     56  C   UNL A   1      41.842  31.793  30.716  1.00  0.00     0.029 A 
ATOM     57  C   UNL A   1      42.875  30.888  30.535  1.00  0.00     0.049 A 
ATOM     58  H   UNL A   1      42.811  28.940  29.724  1.00  0.00     0.167 HD
ATOM     59  C   UNL A   1      45.223  30.100  30.657  1.00  0.00     0.074 A 
ATOM     60  C   UNL A   1      46.623  30.269  30.990  1.00  0.00     0.031 C 
ATOM     61  C   UNL A   1      44.272  31.047  30.852  1.00  0.00     0.031 A 
BRANCH  48  62
ATOM     62  C   UNL A   1      38.624  29.362  28.991  1.00  0.00    -0.014 A 
ATOM     63  C   UNL A   1      38.156  29.784  27.736  1.00  0.00     0.009 A 
ATOM     64  C   UNL A   1      37.714  29.278  30.058  1.00  0.00     0.009 A 
ATOM     65  C   UNL A   1      36.820  30.156  27.565  1.00  0.00     0.001 A 
ATOM     66  C   UNL A   1      36.373  29.618  29.877  1.00  0.00     0.001 A 
ATOM     67  C   UNL A   1      35.930  30.068  28.634  1.00  0.00     0.000 A 
ENDBRANCH  48  62
BRANCH  49  68
ATOM     68  C   UNL A   1      48.164  26.532  29.786  1.00  0.00    -0.014 A 
ATOM     69  C   UNL A   1      48.672  25.929  30.947  1.00  0.00     0.009 A 
ATOM     70  C   UNL A   1      49.025  26.738  28.697  1.00  0.00     0.009 A 
ATOM     71  C   UNL A   1      50.018  25.566  31.024  1.00  0.00     0.001 A 
ATOM     72  C   UNL A   1      50.363  26.344  28.766  1.00  0.00     0.001 A 
ATOM     73  C   UNL A   1      50.861  25.767  29.932  1.00  0.00     0.000 A 
ENDBRANCH  49  68
BRANCH  61  74
ATOM     74  C   UNL A   1      44.707  32.341  31.484  1.00  0.00    -0.014 A 
ATOM     75  C   UNL A   1      45.100  33.441  30.707  1.00  0.00     0.009 A 
ATOM     76  C   UNL A   1      44.682  32.471  32.883  1.00  0.00     0.009 A 
ATOM     77  C   UNL A   1      45.493  34.633  31.318  1.00  0.00     0.001 A 
ATOM     78  C   UNL A   1      45.043  33.675  33.490  1.00  0.00     0.001 A 
ATOM     79  C   UNL A   1      45.458  34.751  32.708  1.00  0.00     0.000 A 
ENDBRANCH  61  74
ENDBRANCH  35  36
ENDBRANCH  27  30
ENDBRANCH  25  26
ENDBRANCH  24  25
ENDBRANCH  23  24
ENDBRANCH  22  23
ENDBRANCH   1  22
TORSDOF 19
ENDMDL
