MODEL 1
REMARK VINA RESULT:     -11.4      0.000      0.000
REMARK SMILES CCC[C@H](CNC(=O)N1C[C@H]2CCC[N@H+]2C[C@@H]1C)C(=O)NCCCCCCNC(=O)c1ccc(-c2c3nc(c(-c4ccccc4)c4ccc([nH]4)c(-c4ccccc4)c4nc(c(-c5ccccc5)c5ccc2[nH]5)C=C4)C=C3)cc1
REMARK SMILES IDX 24 1 23 2 22 3 21 4 19 5 20 6 4 8 3 9 2 10 1 11 5 12 6 13
REMARK SMILES IDX 7 14 8 16 9 17 10 18 17 19 11 20 16 21 18 22 12 23 15 24
REMARK SMILES IDX 13 25 14 26 25 28 26 29 27 30 28 31 29 32 30 34 31 35 32 36
REMARK SMILES IDX 78 37 33 38 77 39 34 40 35 41 36 42 71 43 37 44 76 45 70 46
REMARK SMILES IDX 72 47 38 48 75 49 69 50 68 51 39 53 61 54 46 55 60 56 47 57
REMARK SMILES IDX 50 58 59 59 73 60 48 61 49 62 58 64 74 65 51 66 40 67 41 68
REMARK SMILES IDX 45 69 42 70 44 71 43 72 62 73 63 74 67 75 64 76 66 77 65 78
REMARK SMILES IDX 52 79 53 80 57 81 54 82 56 83 55 84
REMARK H PARENT 21 7 6 15 15 27 28 33 72 52 50 63
REMARK Flexibility Score: inf
ROOT
ATOM      1  C   UNL A   1      32.445  29.906  26.726  1.00  0.00     0.002 C 
ENDROOT
BRANCH   1   2
ATOM      2  C   UNL A   1      31.774  28.644  27.283  1.00  0.00     0.021 C 
BRANCH   2   3
ATOM      3  C   UNL A   1      32.218  27.369  26.580  1.00  0.00     0.116 C 
BRANCH   3   4
ATOM      4  N   UNL A   1      31.289  26.280  26.806  1.00  0.00    -0.356 N 
ATOM      5  C   UNL A   1      30.484  25.613  25.938  1.00  0.00     0.224 C 
ATOM      6  O   UNL A   1      29.829  24.665  26.376  1.00  0.00    -0.275 OA
ATOM      7  H   UNL A   1      31.231  25.974  27.741  1.00  0.00     0.163 HD
BRANCH   5   8
ATOM      8  C   UNL A   1      30.336  26.054  24.491  1.00  0.00     0.097 C 
BRANCH   8   9
ATOM      9  C   UNL A   1      29.014  26.712  24.044  1.00  0.00     0.015 C 
BRANCH   9  10
ATOM     10  C   UNL A   1      28.970  28.043  23.282  1.00  0.00    -0.003 C 
ATOM     11  C   UNL A   1      27.620  28.724  23.127  1.00  0.00     0.004 C 
ENDBRANCH   9  10
ENDBRANCH   8   9
BRANCH   8  12
ATOM     12  C   UNL A   1      30.898  24.896  23.644  1.00  0.00     0.131 C 
BRANCH  12  13
ATOM     13  N   UNL A   1      31.547  25.234  22.404  1.00  0.00    -0.337 N 
ATOM     14  C   UNL A   1      32.770  24.853  21.965  1.00  0.00     0.318 C 
ATOM     15  H   UNL A   1      31.037  25.818  21.796  1.00  0.00     0.165 HD
ATOM     16  O   UNL A   1      33.257  25.493  21.032  1.00  0.00    -0.249 OA
BRANCH  14  17
ATOM     17  N   UNL A   1      33.450  23.859  22.616  1.00  0.00    -0.311 N 
ATOM     18  C   UNL A   1      32.937  22.507  22.443  1.00  0.00     0.186 C 
ATOM     19  C   UNL A   1      34.608  24.002  23.542  1.00  0.00     0.139 C 
ATOM     20  C   UNL A   1      32.746  21.770  23.771  1.00  0.00     0.204 C 
ATOM     21  C   UNL A   1      35.002  22.646  24.211  1.00  0.00     0.287 C 
ATOM     22  C   UNL A   1      34.384  25.088  24.598  1.00  0.00     0.037 C 
ATOM     23  C   UNL A   1      32.509  20.278  23.542  1.00  0.00     0.073 C 
ATOM     24  N   UNL A   1      33.872  21.863  24.733  1.00  0.00    -0.329 N 
ATOM     25  C   UNL A   1      33.052  19.641  24.802  1.00  0.00     0.068 C 
ATOM     26  C   UNL A   1      34.267  20.499  25.107  1.00  0.00     0.262 C 
ATOM     27  H   UNL A   1      33.563  22.371  25.562  1.00  0.00     0.348 HD
ENDBRANCH  14  17
ENDBRANCH  12  13
ENDBRANCH   8  12
ENDBRANCH   5   8
ENDBRANCH   3   4
ENDBRANCH   2   3
ENDBRANCH   1   2
BRANCH   1  28
ATOM     28  C   UNL A   1      31.521  30.830  25.922  1.00  0.00     0.002 C 
BRANCH  28  29
ATOM     29  C   UNL A   1      31.286  32.211  26.543  1.00  0.00     0.021 C 
BRANCH  29  30
ATOM     30  C   UNL A   1      32.501  32.797  27.250  1.00  0.00     0.116 C 
BRANCH  30  31
ATOM     31  N   UNL A   1      32.318  34.202  27.574  1.00  0.00    -0.352 N 
ATOM     32  C   UNL A   1      32.947  34.962  28.526  1.00  0.00     0.251 C 
ATOM     33  H   UNL A   1      31.646  34.676  27.033  1.00  0.00     0.163 HD
ATOM     34  O   UNL A   1      32.537  36.085  28.792  1.00  0.00    -0.269 OA
BRANCH  32  35
ATOM     35  C   UNL A   1      34.114  34.411  29.245  1.00  0.00     0.039 A 
ATOM     36  C   UNL A   1      33.913  33.793  30.480  1.00  0.00     0.014 A 
ATOM     37  C   UNL A   1      35.400  34.512  28.706  1.00  0.00     0.014 A 
ATOM     38  C   UNL A   1      34.997  33.232  31.155  1.00  0.00     0.010 A 
ATOM     39  C   UNL A   1      36.468  33.887  29.343  1.00  0.00     0.010 A 
ATOM     40  C   UNL A   1      36.278  33.252  30.579  1.00  0.00    -0.014 A 
BRANCH  40  41
ATOM     41  C   UNL A   1      37.432  32.618  31.262  1.00  0.00     0.031 A 
ATOM     42  C   UNL A   1      38.119  31.433  30.643  1.00  0.00     0.074 A 
ATOM     43  C   UNL A   1      37.830  33.080  32.463  1.00  0.00     0.049 A 
ATOM     44  N   UNL A   1      39.119  30.725  31.105  1.00  0.00    -0.248 NA
ATOM     45  C   UNL A   1      37.598  30.964  29.348  1.00  0.00     0.031 C 
ATOM     46  C   UNL A   1      37.220  34.199  33.185  1.00  0.00     0.029 A 
ATOM     47  N   UNL A   1      38.842  32.662  33.289  1.00  0.00    -0.354 N 
ATOM     48  C   UNL A   1      39.336  29.724  30.167  1.00  0.00     0.074 A 
ATOM     49  C   UNL A   1      38.332  29.880  29.139  1.00  0.00     0.031 C 
ATOM     50  C   UNL A   1      37.891  34.397  34.332  1.00  0.00     0.029 A 
ATOM     51  C   UNL A   1      38.948  33.399  34.445  1.00  0.00     0.049 A 
ATOM     52  H   UNL A   1      39.435  31.906  33.075  1.00  0.00     0.167 HD
ATOM     53  C   UNL A   1      40.299  28.770  30.151  1.00  0.00     0.031 A 
ATOM     54  C   UNL A   1      39.798  33.279  35.480  1.00  0.00     0.031 A 
ATOM     55  C   UNL A   1      41.303  28.620  31.171  1.00  0.00     0.049 A 
ATOM     56  C   UNL A   1      40.847  32.202  35.448  1.00  0.00     0.074 A 
ATOM     57  C   UNL A   1      42.354  27.721  31.220  1.00  0.00     0.029 A 
ATOM     58  N   UNL A   1      41.376  29.386  32.324  1.00  0.00    -0.354 N 
ATOM     59  N   UNL A   1      41.084  31.307  34.518  1.00  0.00    -0.248 NA
ATOM     60  C   UNL A   1      41.754  32.129  36.601  1.00  0.00     0.031 C 
ATOM     61  C   UNL A   1      43.030  27.907  32.429  1.00  0.00     0.029 A 
ATOM     62  C   UNL A   1      42.438  28.963  33.103  1.00  0.00     0.049 A 
ATOM     63  H   UNL A   1      40.763  30.121  32.554  1.00  0.00     0.167 HD
ATOM     64  C   UNL A   1      42.184  30.585  34.962  1.00  0.00     0.074 A 
ATOM     65  C   UNL A   1      42.577  31.157  36.233  1.00  0.00     0.031 C 
ATOM     66  C   UNL A   1      42.814  29.542  34.368  1.00  0.00     0.031 A 
BRANCH  53  67
ATOM     67  C   UNL A   1      40.302  27.809  28.994  1.00  0.00    -0.014 A 
ATOM     68  C   UNL A   1      40.971  28.110  27.797  1.00  0.00     0.009 A 
ATOM     69  C   UNL A   1      39.652  26.571  29.113  1.00  0.00     0.009 A 
ATOM     70  C   UNL A   1      40.955  27.211  26.729  1.00  0.00     0.001 A 
ATOM     71  C   UNL A   1      39.664  25.658  28.056  1.00  0.00     0.001 A 
ATOM     72  C   UNL A   1      40.306  25.983  26.861  1.00  0.00     0.000 A 
ENDBRANCH  53  67
BRANCH  54  73
ATOM     73  C   UNL A   1      39.708  34.216  36.630  1.00  0.00    -0.014 A 
ATOM     74  C   UNL A   1      39.000  33.856  37.789  1.00  0.00     0.009 A 
ATOM     75  C   UNL A   1      40.323  35.475  36.576  1.00  0.00     0.009 A 
ATOM     76  C   UNL A   1      38.886  34.751  38.855  1.00  0.00     0.001 A 
ATOM     77  C   UNL A   1      40.234  36.356  37.657  1.00  0.00     0.001 A 
ATOM     78  C   UNL A   1      39.507  35.997  38.791  1.00  0.00     0.000 A 
ENDBRANCH  54  73
BRANCH  66  79
ATOM     79  C   UNL A   1      44.017  28.976  35.070  1.00  0.00    -0.014 A 
ATOM     80  C   UNL A   1      43.893  27.967  36.039  1.00  0.00     0.009 A 
ATOM     81  C   UNL A   1      45.299  29.437  34.730  1.00  0.00     0.009 A 
ATOM     82  C   UNL A   1      45.026  27.458  36.675  1.00  0.00     0.001 A 
ATOM     83  C   UNL A   1      46.432  28.903  35.345  1.00  0.00     0.001 A 
ATOM     84  C   UNL A   1      46.294  27.922  36.325  1.00  0.00     0.000 A 
ENDBRANCH  66  79
ENDBRANCH  40  41
ENDBRANCH  32  35
ENDBRANCH  30  31
ENDBRANCH  29  30
ENDBRANCH  28  29
ENDBRANCH   1  28
TORSDOF 18
ENDMDL
MODEL 2
REMARK VINA RESULT:     -11.1      4.534      9.873
REMARK SMILES CCC[C@H](CNC(=O)N1C[C@H]2CCC[N@H+]2C[C@@H]1C)C(=O)NCCCCCCNC(=O)c1ccc(-c2c3nc(c(-c4ccccc4)c4ccc([nH]4)c(-c4ccccc4)c4nc(c(-c5ccccc5)c5ccc2[nH]5)C=C4)C=C3)cc1
REMARK SMILES IDX 24 1 23 2 22 3 21 4 19 5 20 6 4 8 3 9 2 10 1 11 5 12 6 13
REMARK SMILES IDX 7 14 8 16 9 17 10 18 17 19 11 20 16 21 18 22 12 23 15 24
REMARK SMILES IDX 13 25 14 26 25 28 26 29 27 30 28 31 29 32 30 34 31 35 32 36
REMARK SMILES IDX 78 37 33 38 77 39 34 40 35 41 36 42 71 43 37 44 76 45 70 46
REMARK SMILES IDX 72 47 38 48 75 49 69 50 68 51 39 53 61 54 46 55 60 56 47 57
REMARK SMILES IDX 50 58 59 59 73 60 48 61 49 62 58 64 74 65 51 66 40 67 41 68
REMARK SMILES IDX 45 69 42 70 44 71 43 72 62 73 63 74 67 75 64 76 66 77 65 78
REMARK SMILES IDX 52 79 53 80 57 81 54 82 56 83 55 84
REMARK H PARENT 21 7 6 15 15 27 28 33 72 52 50 63
REMARK Flexibility Score: inf
ROOT
ATOM      1  C   UNL A   1      36.927  22.029  25.689  1.00  0.00     0.002 C 
ENDROOT
BRANCH   1   2
ATOM      2  C   UNL A   1      37.018  23.450  25.119  1.00  0.00     0.021 C 
BRANCH   2   3
ATOM      3  C   UNL A   1      35.664  24.135  24.997  1.00  0.00     0.116 C 
BRANCH   3   4
ATOM      4  N   UNL A   1      35.033  23.855  23.723  1.00  0.00    -0.356 N 
ATOM      5  C   UNL A   1      33.960  23.077  23.422  1.00  0.00     0.224 C 
ATOM      6  O   UNL A   1      33.575  23.060  22.251  1.00  0.00    -0.275 OA
ATOM      7  H   UNL A   1      35.450  24.300  22.949  1.00  0.00     0.163 HD
BRANCH   5   8
ATOM      8  C   UNL A   1      33.293  22.202  24.470  1.00  0.00     0.097 C 
BRANCH   8   9
ATOM      9  C   UNL A   1      32.896  20.759  24.094  1.00  0.00     0.015 C 
BRANCH   9  10
ATOM     10  C   UNL A   1      33.627  19.529  24.650  1.00  0.00    -0.003 C 
ATOM     11  C   UNL A   1      32.782  18.413  25.242  1.00  0.00     0.004 C 
ENDBRANCH   9  10
ENDBRANCH   8   9
BRANCH   8  12
ATOM     12  C   UNL A   1      32.237  23.096  25.148  1.00  0.00     0.131 C 
BRANCH  12  13
ATOM     13  N   UNL A   1      31.233  23.694  24.306  1.00  0.00    -0.337 N 
ATOM     14  C   UNL A   1      30.976  25.007  24.108  1.00  0.00     0.318 C 
ATOM     15  H   UNL A   1      30.657  23.066  23.811  1.00  0.00     0.165 HD
ATOM     16  O   UNL A   1      29.892  25.298  23.601  1.00  0.00    -0.249 OA
BRANCH  14  17
ATOM     17  N   UNL A   1      31.863  25.951  24.552  1.00  0.00    -0.311 N 
ATOM     18  C   UNL A   1      31.615  26.495  25.881  1.00  0.00     0.186 C 
ATOM     19  C   UNL A   1      33.010  26.545  23.810  1.00  0.00     0.139 C 
ATOM     20  C   UNL A   1      31.627  28.025  25.907  1.00  0.00     0.204 C 
ATOM     21  C   UNL A   1      33.687  27.710  24.600  1.00  0.00     0.287 C 
ATOM     22  C   UNL A   1      32.625  26.994  22.397  1.00  0.00     0.037 C 
ATOM     23  C   UNL A   1      31.674  28.548  27.342  1.00  0.00     0.073 C 
ATOM     24  N   UNL A   1      32.753  28.678  25.196  1.00  0.00    -0.329 N 
ATOM     25  C   UNL A   1      32.383  29.877  27.205  1.00  0.00     0.068 C 
ATOM     26  C   UNL A   1      33.421  29.588  26.135  1.00  0.00     0.262 C 
ATOM     27  H   UNL A   1      32.388  29.208  24.405  1.00  0.00     0.348 HD
ENDBRANCH  14  17
ENDBRANCH  12  13
ENDBRANCH   8  12
ENDBRANCH   5   8
ENDBRANCH   3   4
ENDBRANCH   2   3
ENDBRANCH   1   2
BRANCH   1  28
ATOM     28  C   UNL A   1      36.981  20.906  24.644  1.00  0.00     0.002 C 
BRANCH  28  29
ATOM     29  C   UNL A   1      38.023  19.817  24.917  1.00  0.00     0.021 C 
BRANCH  29  30
ATOM     30  C   UNL A   1      39.155  20.248  25.842  1.00  0.00     0.116 C 
BRANCH  30  31
ATOM     31  N   UNL A   1      40.238  19.279  25.864  1.00  0.00    -0.352 N 
ATOM     32  C   UNL A   1      41.576  19.479  26.087  1.00  0.00     0.251 C 
ATOM     33  H   UNL A   1      39.974  18.346  25.696  1.00  0.00     0.163 HD
ATOM     34  O   UNL A   1      42.380  18.577  25.884  1.00  0.00    -0.269 OA
BRANCH  32  35
ATOM     35  C   UNL A   1      42.048  20.797  26.558  1.00  0.00     0.039 A 
ATOM     36  C   UNL A   1      42.469  21.737  25.616  1.00  0.00     0.014 A 
ATOM     37  C   UNL A   1      42.082  21.100  27.923  1.00  0.00     0.014 A 
ATOM     38  C   UNL A   1      42.881  23.001  26.039  1.00  0.00     0.010 A 
ATOM     39  C   UNL A   1      42.421  22.384  28.337  1.00  0.00     0.010 A 
ATOM     40  C   UNL A   1      42.834  23.343  27.400  1.00  0.00    -0.014 A 
BRANCH  40  41
ATOM     41  C   UNL A   1      43.223  24.698  27.861  1.00  0.00     0.031 A 
ATOM     42  C   UNL A   1      42.170  25.734  28.138  1.00  0.00     0.074 A 
ATOM     43  C   UNL A   1      44.528  25.010  27.983  1.00  0.00     0.049 A 
ATOM     44  N   UNL A   1      42.317  26.980  28.513  1.00  0.00    -0.248 NA
ATOM     45  C   UNL A   1      40.769  25.326  27.942  1.00  0.00     0.031 C 
ATOM     46  C   UNL A   1      45.646  24.104  27.707  1.00  0.00     0.029 A 
ATOM     47  N   UNL A   1      45.134  26.179  28.368  1.00  0.00    -0.354 N 
ATOM     48  C   UNL A   1      41.033  27.505  28.584  1.00  0.00     0.074 A 
ATOM     49  C   UNL A   1      40.124  26.463  28.161  1.00  0.00     0.031 C 
ATOM     50  C   UNL A   1      46.800  24.742  27.962  1.00  0.00     0.029 A 
ATOM     51  C   UNL A   1      46.507  26.109  28.379  1.00  0.00     0.049 A 
ATOM     52  H   UNL A   1      44.633  26.990  28.612  1.00  0.00     0.167 HD
ATOM     53  C   UNL A   1      40.641  28.738  28.985  1.00  0.00     0.031 A 
ATOM     54  C   UNL A   1      47.425  27.043  28.686  1.00  0.00     0.031 A 
ATOM     55  C   UNL A   1      41.546  29.772  29.413  1.00  0.00     0.049 A 
ATOM     56  C   UNL A   1      46.967  28.410  29.112  1.00  0.00     0.074 A 
ATOM     57  C   UNL A   1      41.246  31.037  29.890  1.00  0.00     0.029 A 
ATOM     58  N   UNL A   1      42.928  29.662  29.410  1.00  0.00    -0.354 N 
ATOM     59  N   UNL A   1      45.745  28.869  29.243  1.00  0.00    -0.248 NA
ATOM     60  C   UNL A   1      48.016  29.383  29.446  1.00  0.00     0.031 C 
ATOM     61  C   UNL A   1      42.449  31.710  30.123  1.00  0.00     0.029 A 
ATOM     62  C   UNL A   1      43.496  30.844  29.851  1.00  0.00     0.049 A 
ATOM     63  H   UNL A   1      43.430  28.861  29.134  1.00  0.00     0.167 HD
ATOM     64  C   UNL A   1      45.878  30.172  29.701  1.00  0.00     0.074 A 
ATOM     65  C   UNL A   1      47.297  30.424  29.842  1.00  0.00     0.031 C 
ATOM     66  C   UNL A   1      44.910  31.080  29.983  1.00  0.00     0.031 A 
BRANCH  53  67
ATOM     67  C   UNL A   1      39.167  29.036  28.970  1.00  0.00    -0.014 A 
ATOM     68  C   UNL A   1      38.375  28.861  30.116  1.00  0.00     0.009 A 
ATOM     69  C   UNL A   1      38.566  29.528  27.801  1.00  0.00     0.009 A 
ATOM     70  C   UNL A   1      37.006  29.132  30.080  1.00  0.00     0.001 A 
ATOM     71  C   UNL A   1      37.203  29.829  27.776  1.00  0.00     0.001 A 
ATOM     72  C   UNL A   1      36.422  29.621  28.912  1.00  0.00     0.000 A 
ENDBRANCH  53  67
BRANCH  54  73
ATOM     73  C   UNL A   1      48.873  26.714  28.620  1.00  0.00    -0.014 A 
ATOM     74  C   UNL A   1      49.587  26.877  27.422  1.00  0.00     0.009 A 
ATOM     75  C   UNL A   1      49.548  26.231  29.751  1.00  0.00     0.009 A 
ATOM     76  C   UNL A   1      50.939  26.534  27.352  1.00  0.00     0.001 A 
ATOM     77  C   UNL A   1      50.908  25.920  29.687  1.00  0.00     0.001 A 
ATOM     78  C   UNL A   1      51.599  26.061  28.485  1.00  0.00     0.000 A 
ENDBRANCH  54  73
BRANCH  66  79
ATOM     79  C   UNL A   1      45.355  32.417  30.507  1.00  0.00    -0.014 A 
ATOM     80  C   UNL A   1      45.526  32.646  31.881  1.00  0.00     0.009 A 
ATOM     81  C   UNL A   1      45.641  33.454  29.604  1.00  0.00     0.009 A 
ATOM     82  C   UNL A   1      45.941  33.897  32.341  1.00  0.00     0.001 A 
ATOM     83  C   UNL A   1      46.086  34.693  30.065  1.00  0.00     0.001 A 
ATOM     84  C   UNL A   1      46.225  34.918  31.434  1.00  0.00     0.000 A 
ENDBRANCH  66  79
ENDBRANCH  40  41
ENDBRANCH  32  35
ENDBRANCH  30  31
ENDBRANCH  29  30
ENDBRANCH  28  29
ENDBRANCH   1  28
TORSDOF 18
ENDMDL
MODEL 3
REMARK VINA RESULT:     -11.0      4.018      9.275
REMARK SMILES CCC[C@H](CNC(=O)N1C[C@H]2CCC[N@H+]2C[C@@H]1C)C(=O)NCCCCCCNC(=O)c1ccc(-c2c3nc(c(-c4ccccc4)c4ccc([nH]4)c(-c4ccccc4)c4nc(c(-c5ccccc5)c5ccc2[nH]5)C=C4)C=C3)cc1
REMARK SMILES IDX 24 1 23 2 22 3 21 4 19 5 20 6 4 8 3 9 2 10 1 11 5 12 6 13
REMARK SMILES IDX 7 14 8 16 9 17 10 18 17 19 11 20 16 21 18 22 12 23 15 24
REMARK SMILES IDX 13 25 14 26 25 28 26 29 27 30 28 31 29 32 30 34 31 35 32 36
REMARK SMILES IDX 78 37 33 38 77 39 34 40 35 41 36 42 71 43 37 44 76 45 70 46
REMARK SMILES IDX 72 47 38 48 75 49 69 50 68 51 39 53 61 54 46 55 60 56 47 57
REMARK SMILES IDX 50 58 59 59 73 60 48 61 49 62 58 64 74 65 51 66 40 67 41 68
REMARK SMILES IDX 45 69 42 70 44 71 43 72 62 73 63 74 67 75 64 76 66 77 65 78
REMARK SMILES IDX 52 79 53 80 57 81 54 82 56 83 55 84
REMARK H PARENT 21 7 6 15 15 27 28 33 72 52 50 63
REMARK Flexibility Score: inf
ROOT
ATOM      1  C   UNL A   1      37.432  23.136  25.183  1.00  0.00     0.002 C 
ENDROOT
BRANCH   1   2
ATOM      2  C   UNL A   1      36.191  23.448  26.028  1.00  0.00     0.021 C 
BRANCH   2   3
ATOM      3  C   UNL A   1      35.262  24.464  25.378  1.00  0.00     0.116 C 
BRANCH   3   4
ATOM      4  N   UNL A   1      35.013  24.149  23.985  1.00  0.00    -0.356 N 
ATOM      5  C   UNL A   1      34.039  23.393  23.413  1.00  0.00     0.224 C 
ATOM      6  O   UNL A   1      34.006  23.338  22.182  1.00  0.00    -0.275 OA
ATOM      7  H   UNL A   1      35.653  24.547  23.351  1.00  0.00     0.163 HD
BRANCH   5   8
ATOM      8  C   UNL A   1      33.063  22.586  24.252  1.00  0.00     0.097 C 
BRANCH   8   9
ATOM      9  C   UNL A   1      33.238  21.054  24.331  1.00  0.00     0.015 C 
BRANCH   9  10
ATOM     10  C   UNL A   1      33.280  20.296  25.664  1.00  0.00    -0.003 C 
ATOM     11  C   UNL A   1      33.645  21.082  26.913  1.00  0.00     0.004 C 
ENDBRANCH   9  10
ENDBRANCH   8   9
BRANCH   8  12
ATOM     12  C   UNL A   1      31.667  23.144  23.917  1.00  0.00     0.131 C 
BRANCH  12  13
ATOM     13  N   UNL A   1      30.743  23.325  25.008  1.00  0.00    -0.337 N 
ATOM     14  C   UNL A   1      30.539  24.431  25.761  1.00  0.00     0.318 C 
ATOM     15  H   UNL A   1      30.190  22.543  25.237  1.00  0.00     0.165 HD
ATOM     16  O   UNL A   1      29.938  24.283  26.826  1.00  0.00    -0.249 OA
BRANCH  14  17
ATOM     17  N   UNL A   1      31.075  25.629  25.373  1.00  0.00    -0.311 N 
ATOM     18  C   UNL A   1      32.031  26.236  26.289  1.00  0.00     0.186 C 
ATOM     19  C   UNL A   1      30.741  26.426  24.159  1.00  0.00     0.139 C 
ATOM     20  C   UNL A   1      31.712  27.701  26.595  1.00  0.00     0.204 C 
ATOM     21  C   UNL A   1      31.449  27.819  24.153  1.00  0.00     0.287 C 
ATOM     22  C   UNL A   1      29.231  26.581  23.955  1.00  0.00     0.037 C 
ATOM     23  C   UNL A   1      32.885  28.382  27.298  1.00  0.00     0.073 C 
ATOM     24  N   UNL A   1      31.384  28.553  25.426  1.00  0.00    -0.329 N 
ATOM     25  C   UNL A   1      32.747  29.831  26.883  1.00  0.00     0.068 C 
ATOM     26  C   UNL A   1      32.279  29.717  25.443  1.00  0.00     0.262 C 
ATOM     27  H   UNL A   1      30.415  28.862  25.498  1.00  0.00     0.348 HD
ENDBRANCH  14  17
ENDBRANCH  12  13
ENDBRANCH   8  12
ENDBRANCH   5   8
ENDBRANCH   3   4
ENDBRANCH   2   3
ENDBRANCH   1   2
BRANCH   1  28
ATOM     28  C   UNL A   1      38.524  22.336  25.905  1.00  0.00     0.002 C 
BRANCH  28  29
ATOM     29  C   UNL A   1      38.784  20.937  25.338  1.00  0.00     0.021 C 
BRANCH  29  30
ATOM     30  C   UNL A   1      39.290  19.927  26.361  1.00  0.00     0.116 C 
BRANCH  30  31
ATOM     31  N   UNL A   1      40.495  19.252  25.911  1.00  0.00    -0.352 N 
ATOM     32  C   UNL A   1      41.775  19.734  25.817  1.00  0.00     0.251 C 
ATOM     33  H   UNL A   1      40.376  18.315  25.634  1.00  0.00     0.163 HD
ATOM     34  O   UNL A   1      42.640  19.087  25.238  1.00  0.00    -0.269 OA
BRANCH  32  35
ATOM     35  C   UNL A   1      42.105  21.050  26.402  1.00  0.00     0.039 A 
ATOM     36  C   UNL A   1      42.438  22.101  25.547  1.00  0.00     0.014 A 
ATOM     37  C   UNL A   1      42.092  21.240  27.787  1.00  0.00     0.014 A 
ATOM     38  C   UNL A   1      42.714  23.361  26.080  1.00  0.00     0.010 A 
ATOM     39  C   UNL A   1      42.293  22.514  28.311  1.00  0.00     0.010 A 
ATOM     40  C   UNL A   1      42.617  23.583  27.463  1.00  0.00    -0.014 A 
BRANCH  40  41
ATOM     41  C   UNL A   1      42.860  24.928  28.039  1.00  0.00     0.031 A 
ATOM     42  C   UNL A   1      44.240  25.319  28.490  1.00  0.00     0.074 A 
ATOM     43  C   UNL A   1      41.828  25.778  28.202  1.00  0.00     0.049 A 
ATOM     44  N   UNL A   1      44.640  26.433  29.048  1.00  0.00    -0.248 NA
ATOM     45  C   UNL A   1      45.305  24.317  28.315  1.00  0.00     0.031 C 
ATOM     46  C   UNL A   1      40.436  25.502  27.840  1.00  0.00     0.029 A 
ATOM     47  N   UNL A   1      41.792  27.049  28.718  1.00  0.00    -0.354 N 
ATOM     48  C   UNL A   1      45.995  26.261  29.303  1.00  0.00     0.074 A 
ATOM     49  C   UNL A   1      46.337  24.918  28.889  1.00  0.00     0.031 C 
ATOM     50  C   UNL A   1      39.689  26.583  28.117  1.00  0.00     0.029 A 
ATOM     51  C   UNL A   1      40.538  27.610  28.710  1.00  0.00     0.049 A 
ATOM     52  H   UNL A   1      42.589  27.514  29.061  1.00  0.00     0.167 HD
ATOM     53  C   UNL A   1      46.882  27.148  29.815  1.00  0.00     0.031 A 
ATOM     54  C   UNL A   1      40.118  28.815  29.137  1.00  0.00     0.031 A 
ATOM     55  C   UNL A   1      46.542  28.486  30.219  1.00  0.00     0.049 A 
ATOM     56  C   UNL A   1      41.118  29.776  29.718  1.00  0.00     0.074 A 
ATOM     57  C   UNL A   1      47.377  29.480  30.699  1.00  0.00     0.029 A 
ATOM     58  N   UNL A   1      45.261  29.016  30.195  1.00  0.00    -0.354 N 
ATOM     59  N   UNL A   1      42.410  29.624  29.886  1.00  0.00    -0.248 NA
ATOM     60  C   UNL A   1      40.602  31.080  30.156  1.00  0.00     0.031 C 
ATOM     61  C   UNL A   1      46.592  30.593  31.018  1.00  0.00     0.029 A 
ATOM     62  C   UNL A   1      45.279  30.314  30.676  1.00  0.00     0.049 A 
ATOM     63  H   UNL A   1      44.458  28.540  29.882  1.00  0.00     0.167 HD
ATOM     64  C   UNL A   1      42.866  30.821  30.421  1.00  0.00     0.074 A 
ATOM     65  C   UNL A   1      41.715  31.694  30.533  1.00  0.00     0.031 C 
ATOM     66  C   UNL A   1      44.125  31.168  30.784  1.00  0.00     0.031 A 
BRANCH  53  67
ATOM     67  C   UNL A   1      48.305  26.690  29.975  1.00  0.00    -0.014 A 
ATOM     68  C   UNL A   1      48.731  26.020  31.134  1.00  0.00     0.009 A 
ATOM     69  C   UNL A   1      49.228  26.904  28.940  1.00  0.00     0.009 A 
ATOM     70  C   UNL A   1      50.060  25.612  31.270  1.00  0.00     0.001 A 
ATOM     71  C   UNL A   1      50.549  26.467  29.063  1.00  0.00     0.001 A 
ATOM     72  C   UNL A   1      50.966  25.830  30.232  1.00  0.00     0.000 A 
ENDBRANCH  53  67
BRANCH  54  73
ATOM     73  C   UNL A   1      38.686  29.191  29.016  1.00  0.00    -0.014 A 
ATOM     74  C   UNL A   1      38.185  29.715  27.814  1.00  0.00     0.009 A 
ATOM     75  C   UNL A   1      37.812  29.034  30.103  1.00  0.00     0.009 A 
ATOM     76  C   UNL A   1      36.847  30.101  27.712  1.00  0.00     0.001 A 
ATOM     77  C   UNL A   1      36.466  29.391  29.988  1.00  0.00     0.001 A 
ATOM     78  C   UNL A   1      35.987  29.933  28.797  1.00  0.00     0.000 A 
ENDBRANCH  54  73
BRANCH  66  79
ATOM     79  C   UNL A   1      44.329  32.564  31.304  1.00  0.00    -0.014 A 
ATOM     80  C   UNL A   1      44.258  32.854  32.676  1.00  0.00     0.009 A 
ATOM     81  C   UNL A   1      44.635  33.600  30.406  1.00  0.00     0.009 A 
ATOM     82  C   UNL A   1      44.452  34.158  33.132  1.00  0.00     0.001 A 
ATOM     83  C   UNL A   1      44.861  34.896  30.869  1.00  0.00     0.001 A 
ATOM     84  C   UNL A   1      44.758  35.177  32.230  1.00  0.00     0.000 A 
ENDBRANCH  66  79
ENDBRANCH  40  41
ENDBRANCH  32  35
ENDBRANCH  30  31
ENDBRANCH  29  30
ENDBRANCH  28  29
ENDBRANCH   1  28
TORSDOF 18
ENDMDL
