MODEL 1
REMARK VINA RESULT:     -11.1      0.000      0.000
REMARK SMILES Cc1ccc([C@H](C)Nc2ccc(C(=O)NCCCCCCNC(=O)c3ccc(-c4c5nc(c(-c6ccccc6)c6ccc([nH]6)c(-c6ccccc6)c6nc(c(-c7ccccc7)c7ccc4[nH]7)C=C6)C=C5)cc3)cc2Cl)cc1F
REMARK SMILES IDX 18 1 17 2 16 3 15 4 13 5 14 6 12 8 9 9 10 10 74 11 11 12
REMARK SMILES IDX 73 13 75 14 8 15 6 17 7 18 5 19 1 20 2 21 3 22 77 23 4 24
REMARK SMILES IDX 76 25 78 26 19 27 20 28 21 29 22 30 23 31 24 33 25 34 26 35
REMARK SMILES IDX 72 36 27 37 71 38 28 39 29 40 30 41 65 42 31 43 70 44 64 45
REMARK SMILES IDX 66 46 32 47 69 48 63 49 62 50 33 52 55 53 40 54 54 55 41 56
REMARK SMILES IDX 44 57 53 58 67 59 42 60 43 61 52 63 68 64 45 65 34 66 35 67
REMARK SMILES IDX 39 68 36 69 38 70 37 71 56 72 57 73 61 74 58 75 60 76 59 77
REMARK SMILES IDX 46 78 47 79 51 80 48 81 50 82 49 83
REMARK H PARENT 15 7 8 16 22 32 66 51 44 62
REMARK Flexibility Score: inf
ROOT
ATOM      1  C   UNL A   1      34.320  25.539  25.707  1.00  0.00     0.002 C 
ENDROOT
BRANCH   1   2
ATOM      2  C   UNL A   1      34.105  24.022  25.635  1.00  0.00     0.021 C 
BRANCH   2   3
ATOM      3  C   UNL A   1      34.740  23.407  24.384  1.00  0.00     0.116 C 
BRANCH   3   4
ATOM      4  N   UNL A   1      33.789  22.532  23.725  1.00  0.00    -0.352 N 
ATOM      5  C   UNL A   1      32.555  22.733  23.164  1.00  0.00     0.251 C 
ATOM      6  O   UNL A   1      31.977  21.744  22.710  1.00  0.00    -0.269 OA
ATOM      7  H   UNL A   1      34.095  21.598  23.669  1.00  0.00     0.163 HD
BRANCH   5   8
ATOM      8  C   UNL A   1      31.911  24.069  23.022  1.00  0.00     0.041 A 
ATOM      9  C   UNL A   1      30.876  26.730  22.798  1.00  0.00     0.053 A 
ATOM     10  C   UNL A   1      32.040  26.322  22.120  1.00  0.00     0.028 A 
ATOM     11  C   UNL A   1      30.265  25.766  23.615  1.00  0.00     0.065 A 
ATOM     12  C   UNL A   1      32.570  25.032  22.254  1.00  0.00     0.016 A 
ATOM     13  C   UNL A   1      30.714  24.438  23.621  1.00  0.00     0.036 A 
ATOM     14  Cl  UNL A   1      28.925  26.045  24.677  1.00  0.00    -0.082 Cl
BRANCH   9  15
ATOM     15  N   UNL A   1      30.478  28.037  22.592  1.00  0.00    -0.377 N 
ATOM     16  H   UNL A   1      30.564  28.369  21.669  1.00  0.00     0.161 HD
BRANCH  15  17
ATOM     17  C   UNL A   1      29.951  28.991  23.560  1.00  0.00     0.106 C 
ATOM     18  C   UNL A   1      31.155  29.470  24.393  1.00  0.00     0.036 C 
BRANCH  17  19
ATOM     19  C   UNL A   1      29.133  30.069  22.848  1.00  0.00    -0.023 A 
ATOM     20  C   UNL A   1      27.548  33.435  20.603  1.00  0.00     0.047 C 
ATOM     21  C   UNL A   1      28.029  32.257  21.389  1.00  0.00    -0.015 A 
ATOM     22  C   UNL A   1      27.946  30.952  20.895  1.00  0.00     0.007 A 
ATOM     23  C   UNL A   1      28.619  32.451  22.631  1.00  0.00     0.126 A 
ATOM     24  C   UNL A   1      28.497  29.876  21.611  1.00  0.00     0.006 A 
ATOM     25  C   UNL A   1      29.129  31.381  23.358  1.00  0.00     0.045 A 
ATOM     26  F   UNL A   1      28.738  33.689  23.132  1.00  0.00    -0.207 F 
ENDBRANCH  17  19
ENDBRANCH  15  17
ENDBRANCH   9  15
ENDBRANCH   5   8
ENDBRANCH   3   4
ENDBRANCH   2   3
ENDBRANCH   1   2
BRANCH   1  27
ATOM     27  C   UNL A   1      33.030  26.345  25.918  1.00  0.00     0.002 C 
BRANCH  27  28
ATOM     28  C   UNL A   1      33.193  27.588  26.795  1.00  0.00     0.021 C 
BRANCH  28  29
ATOM     29  C   UNL A   1      34.198  28.596  26.251  1.00  0.00     0.116 C 
BRANCH  29  30
ATOM     30  N   UNL A   1      33.907  29.941  26.723  1.00  0.00    -0.352 N 
ATOM     31  C   UNL A   1      34.548  30.679  27.686  1.00  0.00     0.251 C 
ATOM     32  H   UNL A   1      33.142  30.384  26.292  1.00  0.00     0.163 HD
ATOM     33  O   UNL A   1      34.021  31.679  28.156  1.00  0.00    -0.269 OA
BRANCH  31  34
ATOM     34  C   UNL A   1      35.881  30.254  28.154  1.00  0.00     0.039 A 
ATOM     35  C   UNL A   1      36.006  29.682  29.423  1.00  0.00     0.014 A 
ATOM     36  C   UNL A   1      37.005  30.430  27.343  1.00  0.00     0.014 A 
ATOM     37  C   UNL A   1      37.256  29.238  29.856  1.00  0.00     0.010 A 
ATOM     38  C   UNL A   1      38.233  29.917  27.744  1.00  0.00     0.010 A 
ATOM     39  C   UNL A   1      38.372  29.324  29.007  1.00  0.00    -0.014 A 
BRANCH  39  40
ATOM     40  C   UNL A   1      39.696  28.801  29.422  1.00  0.00     0.031 A 
ATOM     41  C   UNL A   1      40.596  29.633  30.293  1.00  0.00     0.074 A 
ATOM     42  C   UNL A   1      40.112  27.604  28.964  1.00  0.00     0.049 A 
ATOM     43  N   UNL A   1      41.808  29.373  30.714  1.00  0.00    -0.248 NA
ATOM     44  C   UNL A   1      40.075  30.938  30.731  1.00  0.00     0.031 C 
ATOM     45  C   UNL A   1      39.345  26.719  28.086  1.00  0.00     0.029 A 
ATOM     46  N   UNL A   1      41.287  26.929  29.173  1.00  0.00    -0.354 N 
ATOM     47  C   UNL A   1      42.198  30.484  31.450  1.00  0.00     0.074 A 
ATOM     48  C   UNL A   1      41.118  31.443  31.374  1.00  0.00     0.031 C 
ATOM     49  C   UNL A   1      40.056  25.604  27.857  1.00  0.00     0.029 A 
ATOM     50  C   UNL A   1      41.345  25.715  28.533  1.00  0.00     0.049 A 
ATOM     51  H   UNL A   1      42.020  27.280  29.729  1.00  0.00     0.167 HD
ATOM     52  C   UNL A   1      43.343  30.681  32.145  1.00  0.00     0.031 A 
ATOM     53  C   UNL A   1      42.328  24.797  28.488  1.00  0.00     0.031 A 
ATOM     54  C   UNL A   1      44.416  29.725  32.219  1.00  0.00     0.049 A 
ATOM     55  C   UNL A   1      43.604  25.055  29.240  1.00  0.00     0.074 A 
ATOM     56  C   UNL A   1      45.598  29.810  32.934  1.00  0.00     0.029 A 
ATOM     57  N   UNL A   1      44.437  28.511  31.551  1.00  0.00    -0.354 N 
ATOM     58  N   UNL A   1      43.931  26.083  29.986  1.00  0.00    -0.248 NA
ATOM     59  C   UNL A   1      44.643  24.019  29.153  1.00  0.00     0.031 C 
ATOM     60  C   UNL A   1      46.360  28.672  32.653  1.00  0.00     0.029 A 
ATOM     61  C   UNL A   1      45.624  27.849  31.816  1.00  0.00     0.049 A 
ATOM     62  H   UNL A   1      43.716  28.169  30.975  1.00  0.00     0.167 HD
ATOM     63  C   UNL A   1      45.198  25.803  30.482  1.00  0.00     0.074 A 
ATOM     64  C   UNL A   1      45.572  24.503  29.965  1.00  0.00     0.031 C 
ATOM     65  C   UNL A   1      45.980  26.554  31.295  1.00  0.00     0.031 A 
BRANCH  52  66
ATOM     66  C   UNL A   1      43.496  31.988  32.873  1.00  0.00    -0.014 A 
ATOM     67  C   UNL A   1      44.072  33.107  32.250  1.00  0.00     0.009 A 
ATOM     68  C   UNL A   1      43.025  32.115  34.189  1.00  0.00     0.009 A 
ATOM     69  C   UNL A   1      44.209  34.312  32.941  1.00  0.00     0.001 A 
ATOM     70  C   UNL A   1      43.134  33.330  34.868  1.00  0.00     0.001 A 
ATOM     71  C   UNL A   1      43.734  34.424  34.247  1.00  0.00     0.000 A 
ENDBRANCH  52  66
BRANCH  53  72
ATOM     72  C   UNL A   1      42.143  23.541  27.715  1.00  0.00    -0.014 A 
ATOM     73  C   UNL A   1      41.566  22.413  28.319  1.00  0.00     0.009 A 
ATOM     74  C   UNL A   1      42.550  23.459  26.374  1.00  0.00     0.009 A 
ATOM     75  C   UNL A   1      41.428  21.220  27.606  1.00  0.00     0.001 A 
ATOM     76  C   UNL A   1      42.382  22.274  25.654  1.00  0.00     0.001 A 
ATOM     77  C   UNL A   1      41.832  21.153  26.273  1.00  0.00     0.000 A 
ENDBRANCH  53  72
BRANCH  65  78
ATOM     78  C   UNL A   1      47.303  25.970  31.710  1.00  0.00    -0.014 A 
ATOM     79  C   UNL A   1      48.433  26.054  30.884  1.00  0.00     0.009 A 
ATOM     80  C   UNL A   1      47.425  25.364  32.971  1.00  0.00     0.009 A 
ATOM     81  C   UNL A   1      49.651  25.511  31.298  1.00  0.00     0.001 A 
ATOM     82  C   UNL A   1      48.650  24.852  33.396  1.00  0.00     0.001 A 
ATOM     83  C   UNL A   1      49.760  24.916  32.555  1.00  0.00     0.000 A 
ENDBRANCH  65  78
ENDBRANCH  39  40
ENDBRANCH  31  34
ENDBRANCH  29  30
ENDBRANCH  28  29
ENDBRANCH  27  28
ENDBRANCH   1  27
TORSDOF 16
ENDMDL
MODEL 2
REMARK VINA RESULT:     -11.1      4.019      7.060
REMARK SMILES Cc1ccc([C@H](C)Nc2ccc(C(=O)NCCCCCCNC(=O)c3ccc(-c4c5nc(c(-c6ccccc6)c6ccc([nH]6)c(-c6ccccc6)c6nc(c(-c7ccccc7)c7ccc4[nH]7)C=C6)C=C5)cc3)cc2Cl)cc1F
REMARK SMILES IDX 18 1 17 2 16 3 15 4 13 5 14 6 12 8 9 9 10 10 74 11 11 12
REMARK SMILES IDX 73 13 75 14 8 15 6 17 7 18 5 19 1 20 2 21 3 22 77 23 4 24
REMARK SMILES IDX 76 25 78 26 19 27 20 28 21 29 22 30 23 31 24 33 25 34 26 35
REMARK SMILES IDX 72 36 27 37 71 38 28 39 29 40 30 41 65 42 31 43 70 44 64 45
REMARK SMILES IDX 66 46 32 47 69 48 63 49 62 50 33 52 55 53 40 54 54 55 41 56
REMARK SMILES IDX 44 57 53 58 67 59 42 60 43 61 52 63 68 64 45 65 34 66 35 67
REMARK SMILES IDX 39 68 36 69 38 70 37 71 56 72 57 73 61 74 58 75 60 76 59 77
REMARK SMILES IDX 46 78 47 79 51 80 48 81 50 82 49 83
REMARK H PARENT 15 7 8 16 22 32 66 51 44 62
REMARK Flexibility Score: inf
ROOT
ATOM      1  C   UNL A   1      34.818  32.947  28.913  1.00  0.00     0.002 C 
ENDROOT
BRANCH   1   2
ATOM      2  C   UNL A   1      35.520  31.960  27.973  1.00  0.00     0.021 C 
BRANCH   2   3
ATOM      3  C   UNL A   1      34.619  30.780  27.595  1.00  0.00     0.116 C 
BRANCH   3   4
ATOM      4  N   UNL A   1      33.275  31.251  27.318  1.00  0.00    -0.352 N 
ATOM      5  C   UNL A   1      32.214  30.721  26.632  1.00  0.00     0.251 C 
ATOM      6  O   UNL A   1      31.198  31.413  26.547  1.00  0.00    -0.269 OA
ATOM      7  H   UNL A   1      33.087  32.137  27.703  1.00  0.00     0.163 HD
BRANCH   5   8
ATOM      8  C   UNL A   1      32.201  29.351  26.045  1.00  0.00     0.041 A 
ATOM      9  C   UNL A   1      32.293  26.649  25.099  1.00  0.00     0.053 A 
ATOM     10  C   UNL A   1      31.865  26.971  26.401  1.00  0.00     0.028 A 
ATOM     11  C   UNL A   1      32.701  27.728  24.297  1.00  0.00     0.065 A 
ATOM     12  C   UNL A   1      31.852  28.287  26.880  1.00  0.00     0.016 A 
ATOM     13  C   UNL A   1      32.538  29.050  24.733  1.00  0.00     0.036 A 
ATOM     14  Cl  UNL A   1      33.418  27.603  22.725  1.00  0.00    -0.082 Cl
BRANCH   9  15
ATOM     15  N   UNL A   1      32.278  25.309  24.766  1.00  0.00    -0.377 N 
ATOM     16  H   UNL A   1      31.398  24.868  24.815  1.00  0.00     0.161 HD
BRANCH  15  17
ATOM     17  C   UNL A   1      33.389  24.460  24.353  1.00  0.00     0.106 C 
ATOM     18  C   UNL A   1      34.525  24.719  25.360  1.00  0.00     0.036 C 
BRANCH  17  19
ATOM     19  C   UNL A   1      32.919  23.013  24.201  1.00  0.00    -0.023 A 
ATOM     20  C   UNL A   1      32.275  18.806  23.323  1.00  0.00     0.047 C 
ATOM     21  C   UNL A   1      32.438  20.254  23.662  1.00  0.00    -0.015 A 
ATOM     22  C   UNL A   1      32.820  20.678  24.938  1.00  0.00     0.007 A 
ATOM     23  C   UNL A   1      32.252  21.218  22.680  1.00  0.00     0.126 A 
ATOM     24  C   UNL A   1      33.064  22.037  25.201  1.00  0.00     0.006 A 
ATOM     25  C   UNL A   1      32.454  22.567  22.950  1.00  0.00     0.045 A 
ATOM     26  F   UNL A   1      31.906  20.852  21.437  1.00  0.00    -0.207 F 
ENDBRANCH  17  19
ENDBRANCH  15  17
ENDBRANCH   9  15
ENDBRANCH   5   8
ENDBRANCH   3   4
ENDBRANCH   2   3
ENDBRANCH   1   2
BRANCH   1  27
ATOM     27  C   UNL A   1      35.228  34.411  28.704  1.00  0.00     0.002 C 
BRANCH  27  28
ATOM     28  C   UNL A   1      34.102  35.425  28.920  1.00  0.00     0.021 C 
BRANCH  28  29
ATOM     29  C   UNL A   1      32.887  34.850  29.640  1.00  0.00     0.116 C 
BRANCH  29  30
ATOM     30  N   UNL A   1      32.453  35.719  30.722  1.00  0.00    -0.352 N 
ATOM     31  C   UNL A   1      32.833  35.719  32.040  1.00  0.00     0.251 C 
ATOM     32  H   UNL A   1      31.793  36.405  30.474  1.00  0.00     0.163 HD
ATOM     33  O   UNL A   1      32.181  36.332  32.876  1.00  0.00    -0.269 OA
BRANCH  31  34
ATOM     34  C   UNL A   1      34.037  34.967  32.445  1.00  0.00     0.039 A 
ATOM     35  C   UNL A   1      33.897  33.661  32.919  1.00  0.00     0.014 A 
ATOM     36  C   UNL A   1      35.300  35.559  32.363  1.00  0.00     0.014 A 
ATOM     37  C   UNL A   1      35.034  32.929  33.264  1.00  0.00     0.010 A 
ATOM     38  C   UNL A   1      36.436  34.803  32.632  1.00  0.00     0.010 A 
ATOM     39  C   UNL A   1      36.313  33.484  33.092  1.00  0.00    -0.014 A 
BRANCH  39  40
ATOM     40  C   UNL A   1      37.536  32.702  33.391  1.00  0.00     0.031 A 
ATOM     41  C   UNL A   1      38.302  32.956  34.660  1.00  0.00     0.074 A 
ATOM     42  C   UNL A   1      37.991  31.808  32.492  1.00  0.00     0.049 A 
ATOM     43  N   UNL A   1      39.422  32.415  35.071  1.00  0.00    -0.248 NA
ATOM     44  C   UNL A   1      37.750  33.965  35.579  1.00  0.00     0.031 C 
ATOM     45  C   UNL A   1      37.356  31.498  31.209  1.00  0.00     0.029 A 
ATOM     46  N   UNL A   1      39.098  30.999  32.519  1.00  0.00    -0.354 N 
ATOM     47  C   UNL A   1      39.713  33.027  36.282  1.00  0.00     0.074 A 
ATOM     48  C   UNL A   1      38.686  34.018  36.515  1.00  0.00     0.031 C 
ATOM     49  C   UNL A   1      38.066  30.543  30.588  1.00  0.00     0.029 A 
ATOM     50  C   UNL A   1      39.229  30.209  31.404  1.00  0.00     0.049 A 
ATOM     51  H   UNL A   1      39.738  30.986  33.267  1.00  0.00     0.167 HD
ATOM     52  C   UNL A   1      40.733  32.774  37.136  1.00  0.00     0.031 A 
ATOM     53  C   UNL A   1      40.182  29.318  31.072  1.00  0.00     0.031 A 
ATOM     54  C   UNL A   1      41.754  31.788  36.902  1.00  0.00     0.049 A 
ATOM     55  C   UNL A   1      41.323  29.080  32.021  1.00  0.00     0.074 A 
ATOM     56  C   UNL A   1      42.804  31.422  37.726  1.00  0.00     0.029 A 
ATOM     57  N   UNL A   1      41.854  31.012  35.758  1.00  0.00    -0.354 N 
ATOM     58  N   UNL A   1      41.550  29.620  33.194  1.00  0.00    -0.248 NA
ATOM     59  C   UNL A   1      42.335  28.098  31.604  1.00  0.00     0.031 C 
ATOM     60  C   UNL A   1      43.573  30.466  37.055  1.00  0.00     0.029 A 
ATOM     61  C   UNL A   1      42.964  30.188  35.842  1.00  0.00     0.049 A 
ATOM     62  H   UNL A   1      41.229  31.042  34.998  1.00  0.00     0.167 HD
ATOM     63  C   UNL A   1      42.710  29.022  33.669  1.00  0.00     0.074 A 
ATOM     64  C   UNL A   1      43.130  28.068  32.664  1.00  0.00     0.031 C 
ATOM     65  C   UNL A   1      43.367  29.242  34.834  1.00  0.00     0.031 A 
BRANCH  52  66
ATOM     66  C   UNL A   1      40.798  33.587  38.400  1.00  0.00    -0.014 A 
ATOM     67  C   UNL A   1      40.256  33.109  39.603  1.00  0.00     0.009 A 
ATOM     68  C   UNL A   1      41.442  34.835  38.396  1.00  0.00     0.009 A 
ATOM     69  C   UNL A   1      40.323  33.878  40.766  1.00  0.00     0.001 A 
ATOM     70  C   UNL A   1      41.535  35.588  39.568  1.00  0.00     0.001 A 
ATOM     71  C   UNL A   1      40.967  35.115  40.749  1.00  0.00     0.000 A 
ENDBRANCH  52  66
BRANCH  53  72
ATOM     72  C   UNL A   1      40.094  28.574  29.788  1.00  0.00    -0.014 A 
ATOM     73  C   UNL A   1      39.493  27.306  29.740  1.00  0.00     0.009 A 
ATOM     74  C   UNL A   1      40.619  29.120  28.606  1.00  0.00     0.009 A 
ATOM     75  C   UNL A   1      39.446  26.589  28.543  1.00  0.00     0.001 A 
ATOM     76  C   UNL A   1      40.541  28.414  27.404  1.00  0.00     0.001 A 
ATOM     77  C   UNL A   1      39.966  27.145  27.375  1.00  0.00     0.000 A 
ENDBRANCH  53  72
BRANCH  65  78
ATOM     78  C   UNL A   1      44.588  28.406  35.104  1.00  0.00    -0.014 A 
ATOM     79  C   UNL A   1      44.494  27.153  35.728  1.00  0.00     0.009 A 
ATOM     80  C   UNL A   1      45.846  28.866  34.686  1.00  0.00     0.009 A 
ATOM     81  C   UNL A   1      45.643  26.392  35.959  1.00  0.00     0.001 A 
ATOM     82  C   UNL A   1      46.988  28.090  34.888  1.00  0.00     0.001 A 
ATOM     83  C   UNL A   1      46.887  26.859  35.534  1.00  0.00     0.000 A 
ENDBRANCH  65  78
ENDBRANCH  39  40
ENDBRANCH  31  34
ENDBRANCH  29  30
ENDBRANCH  28  29
ENDBRANCH  27  28
ENDBRANCH   1  27
TORSDOF 16
ENDMDL
MODEL 3
REMARK VINA RESULT:     -10.9      3.434      7.780
REMARK SMILES Cc1ccc([C@H](C)Nc2ccc(C(=O)NCCCCCCNC(=O)c3ccc(-c4c5nc(c(-c6ccccc6)c6ccc([nH]6)c(-c6ccccc6)c6nc(c(-c7ccccc7)c7ccc4[nH]7)C=C6)C=C5)cc3)cc2Cl)cc1F
REMARK SMILES IDX 18 1 17 2 16 3 15 4 13 5 14 6 12 8 9 9 10 10 74 11 11 12
REMARK SMILES IDX 73 13 75 14 8 15 6 17 7 18 5 19 1 20 2 21 3 22 77 23 4 24
REMARK SMILES IDX 76 25 78 26 19 27 20 28 21 29 22 30 23 31 24 33 25 34 26 35
REMARK SMILES IDX 72 36 27 37 71 38 28 39 29 40 30 41 65 42 31 43 70 44 64 45
REMARK SMILES IDX 66 46 32 47 69 48 63 49 62 50 33 52 55 53 40 54 54 55 41 56
REMARK SMILES IDX 44 57 53 58 67 59 42 60 43 61 52 63 68 64 45 65 34 66 35 67
REMARK SMILES IDX 39 68 36 69 38 70 37 71 56 72 57 73 61 74 58 75 60 76 59 77
REMARK SMILES IDX 46 78 47 79 51 80 48 81 50 82 49 83
REMARK H PARENT 15 7 8 16 22 32 66 51 44 62
REMARK Flexibility Score: inf
ROOT
ATOM      1  C   UNL A   1      40.200  22.467  26.211  1.00  0.00     0.002 C 
ENDROOT
BRANCH   1   2
ATOM      2  C   UNL A   1      38.715  22.847  26.265  1.00  0.00     0.021 C 
BRANCH   2   3
ATOM      3  C   UNL A   1      37.850  21.919  25.406  1.00  0.00     0.116 C 
BRANCH   3   4
ATOM      4  N   UNL A   1      36.643  21.559  26.127  1.00  0.00    -0.352 N 
ATOM      5  C   UNL A   1      35.360  22.040  26.116  1.00  0.00     0.251 C 
ATOM      6  O   UNL A   1      34.561  21.524  26.900  1.00  0.00    -0.269 OA
ATOM      7  H   UNL A   1      36.774  20.812  26.755  1.00  0.00     0.163 HD
BRANCH   5   8
ATOM      8  C   UNL A   1      34.873  23.093  25.181  1.00  0.00     0.041 A 
ATOM      9  C   UNL A   1      33.790  25.181  23.546  1.00  0.00     0.053 A 
ATOM     10  C   UNL A   1      34.229  25.414  24.863  1.00  0.00     0.028 A 
ATOM     11  C   UNL A   1      33.887  23.857  23.087  1.00  0.00     0.065 A 
ATOM     12  C   UNL A   1      34.725  24.389  25.679  1.00  0.00     0.016 A 
ATOM     13  C   UNL A   1      34.527  22.874  23.855  1.00  0.00     0.036 A 
ATOM     14  Cl  UNL A   1      33.277  23.265  21.578  1.00  0.00    -0.082 Cl
BRANCH   9  15
ATOM     15  N   UNL A   1      33.301  26.277  22.864  1.00  0.00    -0.377 N 
ATOM     16  H   UNL A   1      33.162  26.150  21.897  1.00  0.00     0.161 HD
BRANCH  15  17
ATOM     17  C   UNL A   1      32.965  27.597  23.383  1.00  0.00     0.106 C 
ATOM     18  C   UNL A   1      34.008  28.568  22.799  1.00  0.00     0.036 C 
BRANCH  17  19
ATOM     19  C   UNL A   1      31.495  27.915  23.104  1.00  0.00    -0.023 A 
ATOM     20  C   UNL A   1      27.275  28.949  23.125  1.00  0.00     0.047 C 
ATOM     21  C   UNL A   1      28.724  28.585  23.049  1.00  0.00    -0.015 A 
ATOM     22  C   UNL A   1      29.683  29.463  22.537  1.00  0.00     0.007 A 
ATOM     23  C   UNL A   1      29.153  27.359  23.539  1.00  0.00     0.126 A 
ATOM     24  C   UNL A   1      31.049  29.135  22.571  1.00  0.00     0.006 A 
ATOM     25  C   UNL A   1      30.501  27.017  23.536  1.00  0.00     0.045 A 
ATOM     26  F   UNL A   1      28.268  26.496  24.059  1.00  0.00    -0.207 F 
ENDBRANCH  17  19
ENDBRANCH  15  17
ENDBRANCH   9  15
ENDBRANCH   5   8
ENDBRANCH   3   4
ENDBRANCH   2   3
ENDBRANCH   1   2
BRANCH   1  27
ATOM     27  C   UNL A   1      40.569  21.259  27.084  1.00  0.00     0.002 C 
BRANCH  27  28
ATOM     28  C   UNL A   1      40.928  19.994  26.302  1.00  0.00     0.021 C 
BRANCH  28  29
ATOM     29  C   UNL A   1      42.234  19.346  26.749  1.00  0.00     0.116 C 
BRANCH  29  30
ATOM     30  N   UNL A   1      43.166  19.217  25.639  1.00  0.00    -0.352 N 
ATOM     31  C   UNL A   1      43.807  20.198  24.926  1.00  0.00     0.251 C 
ATOM     32  H   UNL A   1      43.365  18.294  25.360  1.00  0.00     0.163 HD
ATOM     33  O   UNL A   1      44.344  19.940  23.857  1.00  0.00    -0.269 OA
BRANCH  31  34
ATOM     34  C   UNL A   1      43.840  21.574  25.460  1.00  0.00     0.039 A 
ATOM     35  C   UNL A   1      44.197  21.778  26.795  1.00  0.00     0.014 A 
ATOM     36  C   UNL A   1      43.507  22.657  24.642  1.00  0.00     0.014 A 
ATOM     37  C   UNL A   1      44.271  23.079  27.295  1.00  0.00     0.010 A 
ATOM     38  C   UNL A   1      43.657  23.954  25.119  1.00  0.00     0.010 A 
ATOM     39  C   UNL A   1      44.033  24.177  26.451  1.00  0.00    -0.014 A 
BRANCH  39  40
ATOM     40  C   UNL A   1      44.168  25.568  26.945  1.00  0.00     0.031 A 
ATOM     41  C   UNL A   1      45.524  26.212  27.025  1.00  0.00     0.074 A 
ATOM     42  C   UNL A   1      43.077  26.228  27.380  1.00  0.00     0.049 A 
ATOM     43  N   UNL A   1      45.850  27.396  27.481  1.00  0.00    -0.248 NA
ATOM     44  C   UNL A   1      46.667  25.415  26.552  1.00  0.00     0.031 C 
ATOM     45  C   UNL A   1      41.711  25.699  27.386  1.00  0.00     0.029 A 
ATOM     46  N   UNL A   1      42.946  27.489  27.905  1.00  0.00    -0.354 N 
ATOM     47  C   UNL A   1      47.231  27.477  27.363  1.00  0.00     0.074 A 
ATOM     48  C   UNL A   1      47.688  26.206  26.845  1.00  0.00     0.031 C 
ATOM     49  C   UNL A   1      40.878  26.638  27.860  1.00  0.00     0.029 A 
ATOM     50  C   UNL A   1      41.654  27.817  28.234  1.00  0.00     0.049 A 
ATOM     51  H   UNL A   1      43.707  28.100  28.034  1.00  0.00     0.167 HD
ATOM     52  C   UNL A   1      48.045  28.522  27.640  1.00  0.00     0.031 A 
ATOM     53  C   UNL A   1      41.150  28.938  28.781  1.00  0.00     0.031 A 
ATOM     54  C   UNL A   1      47.588  29.786  28.155  1.00  0.00     0.049 A 
ATOM     55  C   UNL A   1      42.080  30.072  29.113  1.00  0.00     0.074 A 
ATOM     56  C   UNL A   1      48.327  30.924  28.425  1.00  0.00     0.029 A 
ATOM     57  N   UNL A   1      46.273  30.075  28.480  1.00  0.00    -0.354 N 
ATOM     58  N   UNL A   1      43.376  30.158  28.934  1.00  0.00    -0.248 NA
ATOM     59  C   UNL A   1      41.473  31.270  29.711  1.00  0.00     0.031 C 
ATOM     60  C   UNL A   1      47.467  31.883  28.968  1.00  0.00     0.029 A 
ATOM     61  C   UNL A   1      46.182  31.366  28.973  1.00  0.00     0.049 A 
ATOM     62  H   UNL A   1      45.514  29.456  28.375  1.00  0.00     0.167 HD
ATOM     63  C   UNL A   1      43.735  31.428  29.367  1.00  0.00     0.074 A 
ATOM     64  C   UNL A   1      42.518  32.081  29.802  1.00  0.00     0.031 C 
ATOM     65  C   UNL A   1      44.962  32.002  29.400  1.00  0.00     0.031 A 
BRANCH  52  66
ATOM     66  C   UNL A   1      49.519  28.336  27.401  1.00  0.00    -0.014 A 
ATOM     67  C   UNL A   1      50.373  27.889  28.421  1.00  0.00     0.009 A 
ATOM     68  C   UNL A   1      50.056  28.578  26.126  1.00  0.00     0.009 A 
ATOM     69  C   UNL A   1      51.738  27.725  28.182  1.00  0.00     0.001 A 
ATOM     70  C   UNL A   1      51.416  28.382  25.881  1.00  0.00     0.001 A 
ATOM     71  C   UNL A   1      52.258  27.966  26.911  1.00  0.00     0.000 A 
ENDBRANCH  52  66
BRANCH  53  72
ATOM     72  C   UNL A   1      39.691  29.052  29.041  1.00  0.00    -0.014 A 
ATOM     73  C   UNL A   1      38.832  29.569  28.058  1.00  0.00     0.009 A 
ATOM     74  C   UNL A   1      39.149  28.656  30.274  1.00  0.00     0.009 A 
ATOM     75  C   UNL A   1      37.467  29.714  28.314  1.00  0.00     0.001 A 
ATOM     76  C   UNL A   1      37.779  28.773  30.515  1.00  0.00     0.001 A 
ATOM     77  C   UNL A   1      36.941  29.312  29.541  1.00  0.00     0.000 A 
ENDBRANCH  53  72
BRANCH  65  78
ATOM     78  C   UNL A   1      45.044  33.424  29.884  1.00  0.00    -0.014 A 
ATOM     79  C   UNL A   1      44.893  34.507  29.006  1.00  0.00     0.009 A 
ATOM     80  C   UNL A   1      45.234  33.677  31.252  1.00  0.00     0.009 A 
ATOM     81  C   UNL A   1      44.964  35.818  29.484  1.00  0.00     0.001 A 
ATOM     82  C   UNL A   1      45.272  34.986  31.731  1.00  0.00     0.001 A 
ATOM     83  C   UNL A   1      45.148  36.056  30.846  1.00  0.00     0.000 A 
ENDBRANCH  65  78
ENDBRANCH  39  40
ENDBRANCH  31  34
ENDBRANCH  29  30
ENDBRANCH  28  29
ENDBRANCH  27  28
ENDBRANCH   1  27
TORSDOF 16
ENDMDL
