MODEL 1
REMARK VINA RESULT:      -8.5      0.000      0.000
REMARK SMILES COCC(=O)N[C@H]1C=C[C@@H](C(=O)NCCCCCCNC(=O)c2ccc(-c3c4nc(c(-c5ccccc5)c5ccc([nH]5)c(-c5ccccc5)c5nc(c(-c6ccccc6)c6ccc3[nH]6)C=C5)C=C4)cc2)C1
REMARK SMILES IDX 16 1 15 2 14 3 13 4 11 5 12 6 10 8 7 9 8 10 71 11 9 12 6 13
REMARK SMILES IDX 4 14 5 15 3 17 2 18 1 19 17 20 18 21 19 22 20 23 21 24 22 26
REMARK SMILES IDX 23 27 24 28 70 29 25 30 69 31 26 32 27 33 28 34 63 35 29 36
REMARK SMILES IDX 68 37 62 38 64 39 30 40 67 41 61 42 60 43 31 45 53 46 38 47
REMARK SMILES IDX 52 48 39 49 42 50 51 51 65 52 40 53 41 54 50 56 66 57 43 58
REMARK SMILES IDX 32 59 33 60 37 61 34 62 36 63 35 64 54 65 55 66 59 67 56 68
REMARK SMILES IDX 58 69 57 70 44 71 45 72 49 73 46 74 48 75 47 76
REMARK H PARENT 13 7 6 16 20 25 64 44 42 55
REMARK Flexibility Score: inf
ROOT
ATOM      1  C   UNL A   1      45.039  19.643  23.846  1.00  0.00     0.002 C 
ENDROOT
BRANCH   1   2
ATOM      2  C   UNL A   1      46.010  20.383  24.772  1.00  0.00     0.021 C 
BRANCH   2   3
ATOM      3  C   UNL A   1      45.583  21.807  25.119  1.00  0.00     0.116 C 
BRANCH   3   4
ATOM      4  N   UNL A   1      46.402  22.789  24.437  1.00  0.00    -0.356 N 
ATOM      5  C   UNL A   1      46.536  24.129  24.626  1.00  0.00     0.227 C 
ATOM      6  O   UNL A   1      47.334  24.722  23.895  1.00  0.00    -0.274 OA
ATOM      7  H   UNL A   1      46.956  22.422  23.711  1.00  0.00     0.163 HD
BRANCH   5   8
ATOM      8  C   UNL A   1      45.751  24.903  25.690  1.00  0.00     0.103 C 
ATOM      9  C   UNL A   1      45.306  27.264  26.235  1.00  0.00     0.106 C 
ATOM     10  C   UNL A   1      44.157  26.617  25.532  1.00  0.00    -0.006 C 
ATOM     11  C   UNL A   1      46.415  26.197  26.176  1.00  0.00     0.047 C 
ATOM     12  C   UNL A   1      44.391  25.334  25.239  1.00  0.00    -0.016 C 
BRANCH   9  13
ATOM     13  N   UNL A   1      45.678  28.463  25.516  1.00  0.00    -0.348 N 
ATOM     14  C   UNL A   1      46.131  29.646  26.026  1.00  0.00     0.246 C 
ATOM     15  O   UNL A   1      46.360  30.577  25.252  1.00  0.00    -0.272 OA
ATOM     16  H   UNL A   1      45.595  28.421  24.535  1.00  0.00     0.164 HD
BRANCH  14  17
ATOM     17  C   UNL A   1      46.350  29.778  27.537  1.00  0.00     0.259 C 
BRANCH  17  18
ATOM     18  O   UNL A   1      47.638  30.241  27.918  1.00  0.00    -0.375 OA
ATOM     19  C   UNL A   1      48.673  29.369  27.476  1.00  0.00     0.195 C 
ENDBRANCH  17  18
ENDBRANCH  14  17
ENDBRANCH   9  13
ENDBRANCH   5   8
ENDBRANCH   3   4
ENDBRANCH   2   3
ENDBRANCH   1   2
BRANCH   1  20
ATOM     20  C   UNL A   1      43.943  18.838  24.555  1.00  0.00     0.002 C 
BRANCH  20  21
ATOM     21  C   UNL A   1      44.154  18.628  26.056  1.00  0.00     0.021 C 
BRANCH  21  22
ATOM     22  C   UNL A   1      42.903  18.230  26.832  1.00  0.00     0.116 C 
BRANCH  22  23
ATOM     23  N   UNL A   1      41.684  18.486  26.081  1.00  0.00    -0.352 N 
ATOM     24  C   UNL A   1      40.905  19.613  26.046  1.00  0.00     0.251 C 
ATOM     25  H   UNL A   1      41.374  17.742  25.516  1.00  0.00     0.163 HD
ATOM     26  O   UNL A   1      39.808  19.588  25.487  1.00  0.00    -0.269 OA
BRANCH  24  27
ATOM     27  C   UNL A   1      41.366  20.856  26.697  1.00  0.00     0.039 A 
ATOM     28  C   UNL A   1      41.975  21.842  25.917  1.00  0.00     0.014 A 
ATOM     29  C   UNL A   1      41.212  21.046  28.074  1.00  0.00     0.014 A 
ATOM     30  C   UNL A   1      42.379  23.042  26.507  1.00  0.00     0.010 A 
ATOM     31  C   UNL A   1      41.554  22.267  28.648  1.00  0.00     0.010 A 
ATOM     32  C   UNL A   1      42.145  23.275  27.871  1.00  0.00    -0.014 A 
BRANCH  32  33
ATOM     33  C   UNL A   1      42.507  24.569  28.501  1.00  0.00     0.031 A 
ATOM     34  C   UNL A   1      41.488  25.669  28.615  1.00  0.00     0.074 A 
ATOM     35  C   UNL A   1      43.773  24.780  28.906  1.00  0.00     0.049 A 
ATOM     36  N   UNL A   1      41.634  26.883  29.084  1.00  0.00    -0.248 NA
ATOM     37  C   UNL A   1      40.136  25.375  28.113  1.00  0.00     0.031 C 
ATOM     38  C   UNL A   1      44.868  23.812  28.805  1.00  0.00     0.029 A 
ATOM     39  N   UNL A   1      44.356  25.885  29.474  1.00  0.00    -0.354 N 
ATOM     40  C   UNL A   1      40.402  27.502  28.913  1.00  0.00     0.074 A 
ATOM     41  C   UNL A   1      39.535  26.546  28.259  1.00  0.00     0.031 C 
ATOM     42  C   UNL A   1      45.985  24.361  29.310  1.00  0.00     0.029 A 
ATOM     43  C   UNL A   1      45.695  25.727  29.736  1.00  0.00     0.049 A 
ATOM     44  H   UNL A   1      43.862  26.713  29.673  1.00  0.00     0.167 HD
ATOM     45  C   UNL A   1      40.021  28.749  29.281  1.00  0.00     0.031 A 
ATOM     46  C   UNL A   1      46.593  26.586  30.254  1.00  0.00     0.031 A 
ATOM     47  C   UNL A   1      40.879  29.697  29.942  1.00  0.00     0.049 A 
ATOM     48  C   UNL A   1      46.146  27.961  30.660  1.00  0.00     0.074 A 
ATOM     49  C   UNL A   1      40.566  30.957  30.420  1.00  0.00     0.029 A 
ATOM     50  N   UNL A   1      42.223  29.488  30.210  1.00  0.00    -0.354 N 
ATOM     51  N   UNL A   1      44.956  28.503  30.570  1.00  0.00    -0.248 NA
ATOM     52  C   UNL A   1      47.165  28.839  31.254  1.00  0.00     0.031 C 
ATOM     53  C   UNL A   1      41.733  31.532  30.933  1.00  0.00     0.029 A 
ATOM     54  C   UNL A   1      42.760  30.608  30.823  1.00  0.00     0.049 A 
ATOM     55  H   UNL A   1      42.721  28.667  29.998  1.00  0.00     0.167 HD
ATOM     56  C   UNL A   1      45.077  29.775  31.113  1.00  0.00     0.074 A 
ATOM     57  C   UNL A   1      46.452  29.917  31.547  1.00  0.00     0.031 C 
ATOM     58  C   UNL A   1      44.132  30.739  31.242  1.00  0.00     0.031 A 
BRANCH  45  59
ATOM     59  C   UNL A   1      38.611  29.163  28.961  1.00  0.00    -0.014 A 
ATOM     60  C   UNL A   1      37.587  29.065  29.917  1.00  0.00     0.009 A 
ATOM     61  C   UNL A   1      38.307  29.678  27.691  1.00  0.00     0.009 A 
ATOM     62  C   UNL A   1      36.280  29.435  29.595  1.00  0.00     0.001 A 
ATOM     63  C   UNL A   1      37.004  30.074  27.381  1.00  0.00     0.001 A 
ATOM     64  C   UNL A   1      35.990  29.942  28.328  1.00  0.00     0.000 A 
ENDBRANCH  45  59
BRANCH  46  65
ATOM     65  C   UNL A   1      48.005  26.161  30.428  1.00  0.00    -0.014 A 
ATOM     66  C   UNL A   1      48.919  26.270  29.370  1.00  0.00     0.009 A 
ATOM     67  C   UNL A   1      48.449  25.654  31.660  1.00  0.00     0.009 A 
ATOM     68  C   UNL A   1      50.244  25.859  29.533  1.00  0.00     0.001 A 
ATOM     69  C   UNL A   1      49.781  25.269  31.829  1.00  0.00     0.001 A 
ATOM     70  C   UNL A   1      50.675  25.365  30.764  1.00  0.00     0.000 A 
ENDBRANCH  46  65
BRANCH  58  71
ATOM     71  C   UNL A   1      44.549  32.023  31.901  1.00  0.00    -0.014 A 
ATOM     72  C   UNL A   1      44.474  32.184  33.293  1.00  0.00     0.009 A 
ATOM     73  C   UNL A   1      45.060  33.070  31.120  1.00  0.00     0.009 A 
ATOM     74  C   UNL A   1      44.875  33.382  33.887  1.00  0.00     0.001 A 
ATOM     75  C   UNL A   1      45.486  34.257  31.719  1.00  0.00     0.001 A 
ATOM     76  C   UNL A   1      45.385  34.416  33.100  1.00  0.00     0.000 A 
ENDBRANCH  58  71
ENDBRANCH  32  33
ENDBRANCH  24  27
ENDBRANCH  22  23
ENDBRANCH  21  22
ENDBRANCH  20  21
ENDBRANCH   1  20
TORSDOF 16
ENDMDL
MODEL 2
REMARK VINA RESULT:      -8.4      5.390     11.718
REMARK SMILES COCC(=O)N[C@H]1C=C[C@@H](C(=O)NCCCCCCNC(=O)c2ccc(-c3c4nc(c(-c5ccccc5)c5ccc([nH]5)c(-c5ccccc5)c5nc(c(-c6ccccc6)c6ccc3[nH]6)C=C5)C=C4)cc2)C1
REMARK SMILES IDX 16 1 15 2 14 3 13 4 11 5 12 6 10 8 7 9 8 10 71 11 9 12 6 13
REMARK SMILES IDX 4 14 5 15 3 17 2 18 1 19 17 20 18 21 19 22 20 23 21 24 22 26
REMARK SMILES IDX 23 27 24 28 70 29 25 30 69 31 26 32 27 33 28 34 63 35 29 36
REMARK SMILES IDX 68 37 62 38 64 39 30 40 67 41 61 42 60 43 31 45 53 46 38 47
REMARK SMILES IDX 52 48 39 49 42 50 51 51 65 52 40 53 41 54 50 56 66 57 43 58
REMARK SMILES IDX 32 59 33 60 37 61 34 62 36 63 35 64 54 65 55 66 59 67 56 68
REMARK SMILES IDX 58 69 57 70 44 71 45 72 49 73 46 74 48 75 47 76
REMARK H PARENT 13 7 6 16 20 25 64 44 42 55
REMARK Flexibility Score: inf
ROOT
ATOM      1  C   UNL A   1      32.479  29.339  26.887  1.00  0.00     0.002 C 
ENDROOT
BRANCH   1   2
ATOM      2  C   UNL A   1      31.802  28.059  27.388  1.00  0.00     0.021 C 
BRANCH   2   3
ATOM      3  C   UNL A   1      32.007  26.846  26.482  1.00  0.00     0.116 C 
BRANCH   3   4
ATOM      4  N   UNL A   1      31.102  25.768  26.825  1.00  0.00    -0.356 N 
ATOM      5  C   UNL A   1      31.251  24.419  26.753  1.00  0.00     0.227 C 
ATOM      6  O   UNL A   1      30.301  23.728  27.135  1.00  0.00    -0.274 OA
ATOM      7  H   UNL A   1      30.228  26.064  27.169  1.00  0.00     0.163 HD
BRANCH   5   8
ATOM      8  C   UNL A   1      32.524  23.747  26.228  1.00  0.00     0.103 C 
ATOM      9  C   UNL A   1      33.331  21.446  25.876  1.00  0.00     0.106 C 
ATOM     10  C   UNL A   1      32.874  22.089  24.606  1.00  0.00    -0.006 C 
ATOM     11  C   UNL A   1      32.932  22.464  26.961  1.00  0.00     0.047 C 
ATOM     12  C   UNL A   1      32.440  23.340  24.791  1.00  0.00    -0.016 C 
BRANCH   9  13
ATOM     13  N   UNL A   1      32.634  20.188  26.040  1.00  0.00    -0.348 N 
ATOM     14  C   UNL A   1      32.895  18.995  25.430  1.00  0.00     0.246 C 
ATOM     15  O   UNL A   1      32.160  18.035  25.668  1.00  0.00    -0.272 OA
ATOM     16  H   UNL A   1      31.877  20.193  26.670  1.00  0.00     0.164 HD
BRANCH  14  17
ATOM     17  C   UNL A   1      34.094  18.882  24.482  1.00  0.00     0.259 C 
BRANCH  17  18
ATOM     18  O   UNL A   1      34.650  17.579  24.372  1.00  0.00    -0.375 OA
ATOM     19  C   UNL A   1      34.134  16.869  23.251  1.00  0.00     0.195 C 
ENDBRANCH  17  18
ENDBRANCH  14  17
ENDBRANCH   9  13
ENDBRANCH   5   8
ENDBRANCH   3   4
ENDBRANCH   2   3
ENDBRANCH   1   2
BRANCH   1  20
ATOM     20  C   UNL A   1      31.617  30.223  25.979  1.00  0.00     0.002 C 
BRANCH  20  21
ATOM     21  C   UNL A   1      31.430  31.666  26.456  1.00  0.00     0.021 C 
BRANCH  21  22
ATOM     22  C   UNL A   1      32.640  32.272  27.160  1.00  0.00     0.116 C 
BRANCH  22  23
ATOM     23  N   UNL A   1      32.411  33.651  27.561  1.00  0.00    -0.352 N 
ATOM     24  C   UNL A   1      33.104  34.423  28.455  1.00  0.00     0.251 C 
ATOM     25  H   UNL A   1      31.647  34.094  27.125  1.00  0.00     0.163 HD
ATOM     26  O   UNL A   1      32.658  35.518  28.801  1.00  0.00    -0.269 OA
BRANCH  24  27
ATOM     27  C   UNL A   1      34.377  33.938  29.027  1.00  0.00     0.039 A 
ATOM     28  C   UNL A   1      34.341  33.122  30.160  1.00  0.00     0.014 A 
ATOM     29  C   UNL A   1      35.604  34.297  28.458  1.00  0.00     0.014 A 
ATOM     30  C   UNL A   1      35.532  32.620  30.691  1.00  0.00     0.010 A 
ATOM     31  C   UNL A   1      36.783  33.742  28.946  1.00  0.00     0.010 A 
ATOM     32  C   UNL A   1      36.759  32.902  30.070  1.00  0.00    -0.014 A 
BRANCH  32  33
ATOM     33  C   UNL A   1      38.026  32.322  30.580  1.00  0.00     0.031 A 
ATOM     34  C   UNL A   1      38.565  31.045  29.999  1.00  0.00     0.074 A 
ATOM     35  C   UNL A   1      38.657  32.910  31.615  1.00  0.00     0.049 A 
ATOM     36  N   UNL A   1      39.625  30.361  30.351  1.00  0.00    -0.248 NA
ATOM     37  C   UNL A   1      37.798  30.442  28.898  1.00  0.00     0.031 C 
ATOM     38  C   UNL A   1      38.211  34.125  32.300  1.00  0.00     0.029 A 
ATOM     39  N   UNL A   1      39.803  32.554  32.279  1.00  0.00    -0.354 N 
ATOM     40  C   UNL A   1      39.639  29.240  29.530  1.00  0.00     0.074 A 
ATOM     41  C   UNL A   1      38.460  29.313  28.695  1.00  0.00     0.031 C 
ATOM     42  C   UNL A   1      39.084  34.422  33.277  1.00  0.00     0.029 A 
ATOM     43  C   UNL A   1      40.127  33.402  33.310  1.00  0.00     0.049 A 
ATOM     44  H   UNL A   1      40.342  31.765  32.042  1.00  0.00     0.167 HD
ATOM     45  C   UNL A   1      40.558  28.247  29.467  1.00  0.00     0.031 A 
ATOM     46  C   UNL A   1      41.145  33.361  34.190  1.00  0.00     0.031 A 
ATOM     47  C   UNL A   1      41.736  28.179  30.289  1.00  0.00     0.049 A 
ATOM     48  C   UNL A   1      42.155  32.253  34.096  1.00  0.00     0.074 A 
ATOM     49  C   UNL A   1      42.763  27.253  30.250  1.00  0.00     0.029 A 
ATOM     50  N   UNL A   1      42.039  29.071  31.305  1.00  0.00    -0.354 N 
ATOM     51  N   UNL A   1      42.200  31.246  33.258  1.00  0.00    -0.248 NA
ATOM     52  C   UNL A   1      43.264  32.286  35.061  1.00  0.00     0.031 C 
ATOM     53  C   UNL A   1      43.664  27.555  31.276  1.00  0.00     0.029 A 
ATOM     54  C   UNL A   1      43.225  28.701  31.919  1.00  0.00     0.049 A 
ATOM     55  H   UNL A   1      41.494  29.851  31.554  1.00  0.00     0.167 HD
ATOM     56  C   UNL A   1      43.350  30.537  33.580  1.00  0.00     0.074 A 
ATOM     57  C   UNL A   1      43.983  31.239  34.678  1.00  0.00     0.031 C 
ATOM     58  C   UNL A   1      43.839  29.405  33.015  1.00  0.00     0.031 A 
BRANCH  45  59
ATOM     59  C   UNL A   1      40.312  27.142  28.476  1.00  0.00    -0.014 A 
ATOM     60  C   UNL A   1      39.550  26.013  28.816  1.00  0.00     0.009 A 
ATOM     61  C   UNL A   1      40.832  27.243  27.176  1.00  0.00     0.009 A 
ATOM     62  C   UNL A   1      39.349  24.988  27.888  1.00  0.00     0.001 A 
ATOM     63  C   UNL A   1      40.606  26.231  26.241  1.00  0.00     0.001 A 
ATOM     64  C   UNL A   1      39.874  25.099  26.601  1.00  0.00     0.000 A 
ENDBRANCH  45  59
BRANCH  46  65
ATOM     65  C   UNL A   1      41.265  34.414  35.231  1.00  0.00    -0.014 A 
ATOM     66  C   UNL A   1      40.653  34.252  36.483  1.00  0.00     0.009 A 
ATOM     67  C   UNL A   1      42.000  35.583  34.979  1.00  0.00     0.009 A 
ATOM     68  C   UNL A   1      40.757  35.249  37.455  1.00  0.00     0.001 A 
ATOM     69  C   UNL A   1      42.125  36.566  35.963  1.00  0.00     0.001 A 
ATOM     70  C   UNL A   1      41.497  36.402  37.197  1.00  0.00     0.000 A 
ENDBRANCH  46  65
BRANCH  58  71
ATOM     71  C   UNL A   1      45.133  28.872  33.559  1.00  0.00    -0.014 A 
ATOM     72  C   UNL A   1      46.369  29.305  33.054  1.00  0.00     0.009 A 
ATOM     73  C   UNL A   1      45.115  27.952  34.619  1.00  0.00     0.009 A 
ATOM     74  C   UNL A   1      47.561  28.803  33.581  1.00  0.00     0.001 A 
ATOM     75  C   UNL A   1      46.308  27.473  35.162  1.00  0.00     0.001 A 
ATOM     76  C   UNL A   1      47.530  27.892  34.636  1.00  0.00     0.000 A 
ENDBRANCH  58  71
ENDBRANCH  32  33
ENDBRANCH  24  27
ENDBRANCH  22  23
ENDBRANCH  21  22
ENDBRANCH  20  21
ENDBRANCH   1  20
TORSDOF 16
ENDMDL
MODEL 3
REMARK VINA RESULT:      -8.1      6.644     12.570
REMARK SMILES COCC(=O)N[C@H]1C=C[C@@H](C(=O)NCCCCCCNC(=O)c2ccc(-c3c4nc(c(-c5ccccc5)c5ccc([nH]5)c(-c5ccccc5)c5nc(c(-c6ccccc6)c6ccc3[nH]6)C=C5)C=C4)cc2)C1
REMARK SMILES IDX 16 1 15 2 14 3 13 4 11 5 12 6 10 8 7 9 8 10 71 11 9 12 6 13
REMARK SMILES IDX 4 14 5 15 3 17 2 18 1 19 17 20 18 21 19 22 20 23 21 24 22 26
REMARK SMILES IDX 23 27 24 28 70 29 25 30 69 31 26 32 27 33 28 34 63 35 29 36
REMARK SMILES IDX 68 37 62 38 64 39 30 40 67 41 61 42 60 43 31 45 53 46 38 47
REMARK SMILES IDX 52 48 39 49 42 50 51 51 65 52 40 53 41 54 50 56 66 57 43 58
REMARK SMILES IDX 32 59 33 60 37 61 34 62 36 63 35 64 54 65 55 66 59 67 56 68
REMARK SMILES IDX 58 69 57 70 44 71 45 72 49 73 46 74 48 75 47 76
REMARK H PARENT 13 7 6 16 20 25 64 44 42 55
REMARK Flexibility Score: inf
ROOT
ATOM      1  C   UNL A   1      34.654  33.701  29.030  1.00  0.00     0.002 C 
ENDROOT
BRANCH   1   2
ATOM      2  C   UNL A   1      35.663  32.820  28.286  1.00  0.00     0.021 C 
BRANCH   2   3
ATOM      3  C   UNL A   1      35.148  31.421  27.954  1.00  0.00     0.116 C 
BRANCH   3   4
ATOM      4  N   UNL A   1      33.853  31.472  27.306  1.00  0.00    -0.356 N 
ATOM      5  C   UNL A   1      32.953  30.492  27.029  1.00  0.00     0.227 C 
ATOM      6  O   UNL A   1      31.905  30.833  26.471  1.00  0.00    -0.274 OA
ATOM      7  H   UNL A   1      33.579  32.371  27.015  1.00  0.00     0.163 HD
BRANCH   5   8
ATOM      8  C   UNL A   1      33.189  29.019  27.379  1.00  0.00     0.103 C 
ATOM      9  C   UNL A   1      32.213  26.843  26.761  1.00  0.00     0.106 C 
ATOM     10  C   UNL A   1      33.496  27.114  26.044  1.00  0.00    -0.006 C 
ATOM     11  C   UNL A   1      31.921  28.165  27.495  1.00  0.00     0.047 C 
ATOM     12  C   UNL A   1      34.033  28.291  26.379  1.00  0.00    -0.016 C 
BRANCH   9  13
ATOM     13  N   UNL A   1      31.189  26.534  25.786  1.00  0.00    -0.348 N 
ATOM     14  C   UNL A   1      30.770  25.305  25.365  1.00  0.00     0.246 C 
ATOM     15  O   UNL A   1      29.906  25.241  24.489  1.00  0.00    -0.272 OA
ATOM     16  H   UNL A   1      30.737  27.307  25.376  1.00  0.00     0.164 HD
BRANCH  14  17
ATOM     17  C   UNL A   1      31.377  24.047  25.997  1.00  0.00     0.259 C 
BRANCH  17  18
ATOM     18  O   UNL A   1      30.823  23.680  27.252  1.00  0.00    -0.375 OA
ATOM     19  C   UNL A   1      29.631  22.914  27.109  1.00  0.00     0.195 C 
ENDBRANCH  17  18
ENDBRANCH  14  17
ENDBRANCH   9  13
ENDBRANCH   5   8
ENDBRANCH   3   4
ENDBRANCH   2   3
ENDBRANCH   1   2
BRANCH   1  20
ATOM     20  C   UNL A   1      34.306  35.025  28.338  1.00  0.00     0.002 C 
BRANCH  20  21
ATOM     21  C   UNL A   1      33.054  35.729  28.865  1.00  0.00     0.021 C 
BRANCH  21  22
ATOM     22  C   UNL A   1      33.289  36.654  30.055  1.00  0.00     0.116 C 
BRANCH  22  23
ATOM     23  N   UNL A   1      32.364  36.394  31.147  1.00  0.00    -0.352 N 
ATOM     24  C   UNL A   1      32.487  35.531  32.203  1.00  0.00     0.251 C 
ATOM     25  H   UNL A   1      31.529  36.915  31.123  1.00  0.00     0.163 HD
ATOM     26  O   UNL A   1      31.522  35.313  32.938  1.00  0.00    -0.269 OA
BRANCH  24  27
ATOM     27  C   UNL A   1      33.768  34.839  32.454  1.00  0.00     0.039 A 
ATOM     28  C   UNL A   1      34.961  35.548  32.296  1.00  0.00     0.014 A 
ATOM     29  C   UNL A   1      33.795  33.491  32.828  1.00  0.00     0.014 A 
ATOM     30  C   UNL A   1      36.180  34.923  32.569  1.00  0.00     0.010 A 
ATOM     31  C   UNL A   1      35.005  32.890  33.164  1.00  0.00     0.010 A 
ATOM     32  C   UNL A   1      36.210  33.598  33.033  1.00  0.00    -0.014 A 
BRANCH  32  33
ATOM     33  C   UNL A   1      37.490  32.940  33.391  1.00  0.00     0.031 A 
ATOM     34  C   UNL A   1      38.111  31.933  32.464  1.00  0.00     0.074 A 
ATOM     35  C   UNL A   1      38.059  33.197  34.584  1.00  0.00     0.049 A 
ATOM     36  N   UNL A   1      39.196  31.217  32.630  1.00  0.00    -0.248 NA
ATOM     37  C   UNL A   1      37.409  31.677  31.196  1.00  0.00     0.031 C 
ATOM     38  C   UNL A   1      37.531  34.116  35.595  1.00  0.00     0.029 A 
ATOM     39  N   UNL A   1      39.203  32.697  35.153  1.00  0.00    -0.354 N 
ATOM     40  C   UNL A   1      39.291  30.413  31.501  1.00  0.00     0.074 A 
ATOM     41  C   UNL A   1      38.135  30.697  30.680  1.00  0.00     0.031 C 
ATOM     42  C   UNL A   1      38.358  34.126  36.653  1.00  0.00     0.029 A 
ATOM     43  C   UNL A   1      39.452  33.190  36.411  1.00  0.00     0.049 A 
ATOM     44  H   UNL A   1      39.789  32.046  34.705  1.00  0.00     0.167 HD
ATOM     45  C   UNL A   1      40.263  29.528  31.170  1.00  0.00     0.031 A 
ATOM     46  C   UNL A   1      40.445  32.916  37.277  1.00  0.00     0.031 A 
ATOM     47  C   UNL A   1      41.419  29.253  31.981  1.00  0.00     0.049 A 
ATOM     48  C   UNL A   1      41.514  31.937  36.886  1.00  0.00     0.074 A 
ATOM     49  C   UNL A   1      42.494  28.429  31.699  1.00  0.00     0.029 A 
ATOM     50  N   UNL A   1      41.645  29.792  33.238  1.00  0.00    -0.354 N 
ATOM     51  N   UNL A   1      41.636  31.246  35.778  1.00  0.00    -0.248 NA
ATOM     52  C   UNL A   1      42.591  31.709  37.861  1.00  0.00     0.031 C 
ATOM     53  C   UNL A   1      43.348  28.429  32.807  1.00  0.00     0.029 A 
ATOM     54  C   UNL A   1      42.830  29.296  33.756  1.00  0.00     0.049 A 
ATOM     55  H   UNL A   1      41.053  30.431  33.694  1.00  0.00     0.167 HD
ATOM     56  C   UNL A   1      42.811  30.520  35.912  1.00  0.00     0.074 A 
ATOM     57  C   UNL A   1      43.375  30.866  37.201  1.00  0.00     0.031 C 
ATOM     58  C   UNL A   1      43.375  29.644  35.043  1.00  0.00     0.031 A 
BRANCH  45  59
ATOM     59  C   UNL A   1      40.104  28.782  29.874  1.00  0.00    -0.014 A 
ATOM     60  C   UNL A   1      39.530  27.501  29.835  1.00  0.00     0.009 A 
ATOM     61  C   UNL A   1      40.514  29.379  28.671  1.00  0.00     0.009 A 
ATOM     62  C   UNL A   1      39.409  26.816  28.624  1.00  0.00     0.001 A 
ATOM     63  C   UNL A   1      40.366  28.704  27.458  1.00  0.00     0.001 A 
ATOM     64  C   UNL A   1      39.823  27.419  27.436  1.00  0.00     0.000 A 
ENDBRANCH  45  59
BRANCH  46  65
ATOM     65  C   UNL A   1      40.479  33.592  38.600  1.00  0.00    -0.014 A 
ATOM     66  C   UNL A   1      39.846  33.018  39.712  1.00  0.00     0.009 A 
ATOM     67  C   UNL A   1      41.155  34.813  38.758  1.00  0.00     0.009 A 
ATOM     68  C   UNL A   1      39.870  33.661  40.951  1.00  0.00     0.001 A 
ATOM     69  C   UNL A   1      41.200  35.441  40.004  1.00  0.00     0.001 A 
ATOM     70  C   UNL A   1      40.551  34.869  41.097  1.00  0.00     0.000 A 
ENDBRANCH  46  65
BRANCH  58  71
ATOM     71  C   UNL A   1      44.679  29.020  35.449  1.00  0.00    -0.014 A 
ATOM     72  C   UNL A   1      45.904  29.636  35.154  1.00  0.00     0.009 A 
ATOM     73  C   UNL A   1      44.678  27.817  36.172  1.00  0.00     0.009 A 
ATOM     74  C   UNL A   1      47.106  29.043  35.549  1.00  0.00     0.001 A 
ATOM     75  C   UNL A   1      45.879  27.240  36.589  1.00  0.00     0.001 A 
ATOM     76  C   UNL A   1      47.092  27.849  36.269  1.00  0.00     0.000 A 
ENDBRANCH  58  71
ENDBRANCH  32  33
ENDBRANCH  24  27
ENDBRANCH  22  23
ENDBRANCH  21  22
ENDBRANCH  20  21
ENDBRANCH   1  20
TORSDOF 16
ENDMDL
