MODEL 1
REMARK VINA RESULT:     -10.8      0.000      0.000
REMARK SMILES NC(=O)COc1ccc(/C=C2\SC(=S)N(CCC(=O)NCCCCCCNC(=O)c3ccc(-c4c5nc(c(-c6ccccc6)c6ccc([nH]6)c(-c6ccccc6)c6nc(c(-c7ccccc7)c7ccc4[nH]7)C=C6)C=C5)cc3)C2=O)cc1
REMARK SMILES IDX 21 1 20 2 18 3 19 4 17 6 16 7 15 8 10 9 11 10 12 11 78 12
REMARK SMILES IDX 13 13 79 14 14 15 9 16 6 17 7 18 81 19 8 20 80 21 5 22 4 23
REMARK SMILES IDX 2 24 1 25 3 28 22 29 23 30 24 31 25 32 26 33 27 34 28 35
REMARK SMILES IDX 29 37 30 38 31 39 77 40 32 41 76 42 33 43 34 44 35 45 70 46
REMARK SMILES IDX 36 47 75 48 69 49 71 50 37 51 74 52 68 53 67 54 38 56 60 57
REMARK SMILES IDX 45 58 59 59 46 60 49 61 58 62 72 63 47 64 48 65 57 67 73 68
REMARK SMILES IDX 50 69 39 70 40 71 44 72 41 73 43 74 42 75 61 76 62 77 66 78
REMARK SMILES IDX 63 79 65 80 64 81 51 82 52 83 56 84 53 85 55 86 54 87
REMARK H PARENT 20 5 1 26 1 27 27 36 71 55 49 66
REMARK Flexibility Score: inf
ROOT
ATOM      1  C   UNL A   1      32.756  25.841  22.052  1.00  0.00     0.116 C 
ENDROOT
BRANCH   1   2
ATOM      2  N   UNL A   1      33.598  26.898  22.588  1.00  0.00    -0.356 N 
ATOM      3  C   UNL A   1      33.394  28.246  22.637  1.00  0.00     0.221 C 
ATOM      4  O   UNL A   1      34.353  28.975  22.897  1.00  0.00    -0.275 OA
ATOM      5  H   UNL A   1      34.449  26.593  22.978  1.00  0.00     0.163 HD
BRANCH   3   6
ATOM      6  C   UNL A   1      32.017  28.838  22.420  1.00  0.00     0.122 C 
BRANCH   6   7
ATOM      7  C   UNL A   1      31.410  29.463  23.684  1.00  0.00     0.137 C 
BRANCH   7   8
ATOM      8  N   UNL A   1      31.359  28.485  24.783  1.00  0.00    -0.292 N 
ATOM      9  C   UNL A   1      30.948  25.023  25.332  1.00  0.00     0.029 C 
ATOM     10  C   UNL A   1      31.086  26.320  25.609  1.00  0.00     0.081 C 
ATOM     11  S   UNL A   1      31.945  27.075  26.872  1.00  0.00    -0.054 SA
ATOM     12  C   UNL A   1      30.628  27.329  24.621  1.00  0.00     0.266 C 
ATOM     13  C   UNL A   1      32.024  28.603  25.988  1.00  0.00     0.148 C 
ATOM     14  O   UNL A   1      29.759  27.122  23.787  1.00  0.00    -0.268 OA
ATOM     15  S   UNL A   1      32.849  29.924  26.580  1.00  0.00    -0.052 S 
BRANCH   9  16
ATOM     16  C   UNL A   1      31.401  23.830  26.050  1.00  0.00    -0.024 A 
ATOM     17  C   UNL A   1      32.716  21.401  25.890  1.00  0.00     0.120 A 
ATOM     18  C   UNL A   1      33.413  22.518  26.348  1.00  0.00     0.047 A 
ATOM     19  C   UNL A   1      31.312  21.447  25.998  1.00  0.00     0.047 A 
ATOM     20  C   UNL A   1      32.735  23.737  26.460  1.00  0.00     0.012 A 
ATOM     21  C   UNL A   1      30.652  22.673  25.972  1.00  0.00     0.012 A 
BRANCH  17  22
ATOM     22  O   UNL A   1      33.521  20.465  25.104  1.00  0.00    -0.484 OA
BRANCH  22  23
ATOM     23  C   UNL A   1      34.048  18.658  24.410  1.00  0.00     0.329 C 
BRANCH  23  24
ATOM     24  C   UNL A   1      33.393  17.627  23.205  1.00  0.00     0.255 C 
ATOM     25  N   UNL A   1      32.123  17.844  22.738  1.00  0.00    -0.367 N 
ATOM     26  H   UNL A   1      31.745  17.253  22.047  1.00  0.00     0.159 HD
ATOM     27  H   UNL A   1      31.588  18.589  23.095  1.00  0.00     0.159 HD
ATOM     28  O   UNL A   1      34.010  16.658  22.760  1.00  0.00    -0.271 OA
ENDBRANCH  23  24
ENDBRANCH  22  23
ENDBRANCH  17  22
ENDBRANCH   9  16
ENDBRANCH   7   8
ENDBRANCH   6   7
ENDBRANCH   3   6
ENDBRANCH   1   2
BRANCH   1  29
ATOM     29  C   UNL A   1      33.260  24.474  22.514  1.00  0.00     0.021 C 
BRANCH  29  30
ATOM     30  C   UNL A   1      34.516  24.450  23.390  1.00  0.00     0.002 C 
BRANCH  30  31
ATOM     31  C   UNL A   1      35.484  23.274  23.176  1.00  0.00     0.002 C 
BRANCH  31  32
ATOM     32  C   UNL A   1      36.140  22.673  24.431  1.00  0.00     0.021 C 
BRANCH  32  33
ATOM     33  C   UNL A   1      37.350  23.412  25.028  1.00  0.00     0.116 C 
BRANCH  33  34
ATOM     34  N   UNL A   1      38.486  22.537  25.212  1.00  0.00    -0.352 N 
ATOM     35  C   UNL A   1      39.671  22.728  25.870  1.00  0.00     0.251 C 
ATOM     36  H   UNL A   1      38.392  21.651  24.793  1.00  0.00     0.163 HD
ATOM     37  O   UNL A   1      40.561  21.886  25.748  1.00  0.00    -0.269 OA
BRANCH  35  38
ATOM     38  C   UNL A   1      40.006  23.937  26.648  1.00  0.00     0.039 A 
ATOM     39  C   UNL A   1      39.150  24.024  28.232  1.00  0.00     0.014 A 
ATOM     40  C   UNL A   1      40.848  25.399  26.003  1.00  0.00     0.014 A 
ATOM     41  C   UNL A   1      39.139  25.536  29.185  1.00  0.00     0.010 A 
ATOM     42  C   UNL A   1      40.808  26.965  26.973  1.00  0.00     0.010 A 
ATOM     43  C   UNL A   1      39.996  27.011  28.602  1.00  0.00    -0.014 A 
BRANCH  43  44
ATOM     44  C   UNL A   1      40.015  28.196  29.503  1.00  0.00     0.031 A 
ATOM     45  C   UNL A   1      41.101  28.369  30.514  1.00  0.00     0.074 A 
ATOM     46  C   UNL A   1      39.090  29.171  29.386  1.00  0.00     0.049 A 
ATOM     47  N   UNL A   1      41.114  29.054  31.627  1.00  0.00    -0.248 NA
ATOM     48  C   UNL A   1      42.339  27.635  30.260  1.00  0.00     0.031 C 
ATOM     49  C   UNL A   1      38.021  29.231  28.389  1.00  0.00     0.029 A 
ATOM     50  N   UNL A   1      38.919  30.321  30.119  1.00  0.00    -0.354 N 
ATOM     51  C   UNL A   1      42.289  28.689  32.275  1.00  0.00     0.074 A 
ATOM     52  C   UNL A   1      42.956  27.727  31.428  1.00  0.00     0.031 C 
ATOM     53  C   UNL A   1      37.335  30.376  28.544  1.00  0.00     0.029 A 
ATOM     54  C   UNL A   1      37.856  31.090  29.703  1.00  0.00     0.049 A 
ATOM     55  H   UNL A   1      39.503  30.572  30.870  1.00  0.00     0.167 HD
ATOM     56  C   UNL A   1      42.777  29.143  33.453  1.00  0.00     0.031 A 
ATOM     57  C   UNL A   1      37.347  32.223  30.222  1.00  0.00     0.031 A 
ATOM     58  C   UNL A   1      42.237  30.288  34.137  1.00  0.00     0.049 A 
ATOM     59  C   UNL A   1      37.966  32.793  31.471  1.00  0.00     0.074 A 
ATOM     60  C   UNL A   1      42.682  30.895  35.299  1.00  0.00     0.029 A 
ATOM     61  N   UNL A   1      41.187  31.058  33.659  1.00  0.00    -0.354 N 
ATOM     62  N   UNL A   1      38.967  32.329  32.183  1.00  0.00    -0.248 NA
ATOM     63  C   UNL A   1      37.384  34.037  31.993  1.00  0.00     0.031 C 
ATOM     64  C   UNL A   1      41.904  32.036  35.519  1.00  0.00     0.029 A 
ATOM     65  C   UNL A   1      40.997  32.156  34.475  1.00  0.00     0.049 A 
ATOM     66  H   UNL A   1      40.655  30.852  32.855  1.00  0.00     0.167 HD
ATOM     67  C   UNL A   1      39.149  33.237  33.217  1.00  0.00     0.074 A 
ATOM     68  C   UNL A   1      38.171  34.289  33.029  1.00  0.00     0.031 C 
ATOM     69  C   UNL A   1      40.038  33.202  34.240  1.00  0.00     0.031 A 
BRANCH  56  70
ATOM     70  C   UNL A   1      43.928  28.398  34.078  1.00  0.00    -0.014 A 
ATOM     71  C   UNL A   1      43.760  27.229  34.833  1.00  0.00     0.009 A 
ATOM     72  C   UNL A   1      45.230  28.896  33.893  1.00  0.00     0.009 A 
ATOM     73  C   UNL A   1      44.856  26.617  35.448  1.00  0.00     0.001 A 
ATOM     74  C   UNL A   1      46.330  28.257  34.469  1.00  0.00     0.001 A 
ATOM     75  C   UNL A   1      46.140  27.129  35.263  1.00  0.00     0.000 A 
ENDBRANCH  56  70
BRANCH  57  76
ATOM     76  C   UNL A   1      36.181  32.892  29.580  1.00  0.00    -0.014 A 
ATOM     77  C   UNL A   1      34.883  32.389  29.761  1.00  0.00     0.009 A 
ATOM     78  C   UNL A   1      36.357  34.024  28.770  1.00  0.00     0.009 A 
ATOM     79  C   UNL A   1      33.792  32.987  29.123  1.00  0.00     0.001 A 
ATOM     80  C   UNL A   1      35.261  34.640  28.158  1.00  0.00     0.001 A 
ATOM     81  C   UNL A   1      33.982  34.114  28.326  1.00  0.00     0.000 A 
ENDBRANCH  57  76
BRANCH  69  82
ATOM     82  C   UNL A   1      40.038  34.365  35.191  1.00  0.00    -0.014 A 
ATOM     83  C   UNL A   1      39.317  34.322  36.393  1.00  0.00     0.009 A 
ATOM     84  C   UNL A   1      40.818  35.494  34.900  1.00  0.00     0.009 A 
ATOM     85  C   UNL A   1      39.359  35.402  37.275  1.00  0.00     0.001 A 
ATOM     86  C   UNL A   1      40.878  36.561  35.796  1.00  0.00     0.001 A 
ATOM     87  C   UNL A   1      40.143  36.517  36.979  1.00  0.00     0.000 A 
ENDBRANCH  69  82
ENDBRANCH  43  44
ENDBRANCH  35  38
ENDBRANCH  33  34
ENDBRANCH  32  33
ENDBRANCH  31  32
ENDBRANCH  30  31
ENDBRANCH  29  30
ENDBRANCH   1  29
TORSDOF 19
ENDMDL
MODEL 2
REMARK VINA RESULT:     -10.7      4.229      7.954
REMARK SMILES NC(=O)COc1ccc(/C=C2\SC(=S)N(CCC(=O)NCCCCCCNC(=O)c3ccc(-c4c5nc(c(-c6ccccc6)c6ccc([nH]6)c(-c6ccccc6)c6nc(c(-c7ccccc7)c7ccc4[nH]7)C=C6)C=C5)cc3)C2=O)cc1
REMARK SMILES IDX 21 1 20 2 18 3 19 4 17 6 16 7 15 8 10 9 11 10 12 11 78 12
REMARK SMILES IDX 13 13 79 14 14 15 9 16 6 17 7 18 81 19 8 20 80 21 5 22 4 23
REMARK SMILES IDX 2 24 1 25 3 28 22 29 23 30 24 31 25 32 26 33 27 34 28 35
REMARK SMILES IDX 29 37 30 38 31 39 77 40 32 41 76 42 33 43 34 44 35 45 70 46
REMARK SMILES IDX 36 47 75 48 69 49 71 50 37 51 74 52 68 53 67 54 38 56 60 57
REMARK SMILES IDX 45 58 59 59 46 60 49 61 58 62 72 63 47 64 48 65 57 67 73 68
REMARK SMILES IDX 50 69 39 70 40 71 44 72 41 73 43 74 42 75 61 76 62 77 66 78
REMARK SMILES IDX 63 79 65 80 64 81 51 82 52 83 56 84 53 85 55 86 54 87
REMARK H PARENT 20 5 1 26 1 27 27 36 71 55 49 66
REMARK Flexibility Score: inf
ROOT
ATOM      1  C   UNL A   1      32.256  21.813  25.866  1.00  0.00     0.116 C 
ENDROOT
BRANCH   1   2
ATOM      2  N   UNL A   1      31.021  22.300  26.459  1.00  0.00    -0.356 N 
ATOM      3  C   UNL A   1      30.496  23.559  26.490  1.00  0.00     0.221 C 
ATOM      4  O   UNL A   1      29.571  23.789  27.271  1.00  0.00    -0.275 OA
ATOM      5  H   UNL A   1      30.477  21.612  26.908  1.00  0.00     0.163 HD
BRANCH   3   6
ATOM      6  C   UNL A   1      31.002  24.641  25.560  1.00  0.00     0.122 C 
BRANCH   6   7
ATOM      7  C   UNL A   1      32.332  25.265  26.008  1.00  0.00     0.137 C 
BRANCH   7   8
ATOM      8  N   UNL A   1      32.377  26.698  25.678  1.00  0.00    -0.292 N 
ATOM      9  C   UNL A   1      32.569  29.851  27.254  1.00  0.00     0.029 C 
ATOM     10  C   UNL A   1      32.444  28.953  26.276  1.00  0.00     0.081 C 
ATOM     11  S   UNL A   1      33.049  28.991  24.684  1.00  0.00    -0.054 SA
ATOM     12  C   UNL A   1      31.885  27.613  26.584  1.00  0.00     0.266 C 
ATOM     13  C   UNL A   1      32.914  27.236  24.524  1.00  0.00     0.148 C 
ATOM     14  O   UNL A   1      31.137  27.385  27.522  1.00  0.00    -0.268 OA
ATOM     15  S   UNL A   1      33.434  26.431  23.162  1.00  0.00    -0.052 S 
BRANCH   9  16
ATOM     16  C   UNL A   1      33.177  31.183  27.268  1.00  0.00    -0.024 A 
ATOM     17  C   UNL A   1      33.780  33.428  28.769  1.00  0.00     0.120 A 
ATOM     18  C   UNL A   1      34.767  32.463  28.568  1.00  0.00     0.047 A 
ATOM     19  C   UNL A   1      32.728  33.458  27.832  1.00  0.00     0.047 A 
ATOM     20  C   UNL A   1      34.468  31.347  27.780  1.00  0.00     0.012 A 
ATOM     21  C   UNL A   1      32.364  32.295  27.158  1.00  0.00     0.012 A 
BRANCH  17  22
ATOM     22  O   UNL A   1      33.828  34.079  30.079  1.00  0.00    -0.484 OA
BRANCH  22  23
ATOM     23  C   UNL A   1      33.663  35.625  31.347  1.00  0.00     0.329 C 
BRANCH  23  24
ATOM     24  C   UNL A   1      34.420  36.005  32.839  1.00  0.00     0.255 C 
ATOM     25  N   UNL A   1      33.739  36.724  33.786  1.00  0.00    -0.367 N 
ATOM     26  H   UNL A   1      34.172  36.944  34.642  1.00  0.00     0.159 HD
ATOM     27  H   UNL A   1      32.818  37.022  33.610  1.00  0.00     0.159 HD
ATOM     28  O   UNL A   1      35.585  35.689  33.086  1.00  0.00    -0.271 OA
ENDBRANCH  23  24
ENDBRANCH  22  23
ENDBRANCH  17  22
ENDBRANCH   9  16
ENDBRANCH   7   8
ENDBRANCH   6   7
ENDBRANCH   3   6
ENDBRANCH   1   2
BRANCH   1  29
ATOM     29  C   UNL A   1      31.977  21.173  24.506  1.00  0.00     0.021 C 
BRANCH  29  30
ATOM     30  C   UNL A   1      32.663  19.836  24.209  1.00  0.00     0.002 C 
BRANCH  30  31
ATOM     31  C   UNL A   1      34.047  19.614  24.843  1.00  0.00     0.002 C 
BRANCH  31  32
ATOM     32  C   UNL A   1      35.152  20.619  24.477  1.00  0.00     0.021 C 
BRANCH  32  33
ATOM     33  C   UNL A   1      36.249  20.885  25.522  1.00  0.00     0.116 C 
BRANCH  33  34
ATOM     34  N   UNL A   1      37.362  19.971  25.388  1.00  0.00    -0.352 N 
ATOM     35  C   UNL A   1      38.692  20.127  25.669  1.00  0.00     0.251 C 
ATOM     36  H   UNL A   1      37.122  19.084  25.034  1.00  0.00     0.163 HD
ATOM     37  O   UNL A   1      39.482  19.252  25.314  1.00  0.00    -0.269 OA
BRANCH  35  38
ATOM     38  C   UNL A   1      39.276  21.332  26.290  1.00  0.00     0.039 A 
ATOM     39  C   UNL A   1      38.534  22.866  25.705  1.00  0.00     0.014 A 
ATOM     40  C   UNL A   1      40.817  21.384  27.232  1.00  0.00     0.014 A 
ATOM     41  C   UNL A   1      39.294  24.445  26.059  1.00  0.00     0.010 A 
ATOM     42  C   UNL A   1      41.615  23.011  27.568  1.00  0.00     0.010 A 
ATOM     43  C   UNL A   1      40.812  24.552  27.026  1.00  0.00    -0.014 A 
BRANCH  43  44
ATOM     44  C   UNL A   1      41.324  25.911  27.354  1.00  0.00     0.031 A 
ATOM     45  C   UNL A   1      42.574  26.429  26.720  1.00  0.00     0.074 A 
ATOM     46  C   UNL A   1      40.640  26.729  28.179  1.00  0.00     0.049 A 
ATOM     47  N   UNL A   1      43.403  27.354  27.127  1.00  0.00    -0.248 NA
ATOM     48  C   UNL A   1      42.974  25.788  25.469  1.00  0.00     0.031 C 
ATOM     49  C   UNL A   1      39.349  26.443  28.804  1.00  0.00     0.029 A 
ATOM     50  N   UNL A   1      40.942  27.996  28.620  1.00  0.00    -0.354 N 
ATOM     51  C   UNL A   1      44.497  27.275  26.272  1.00  0.00     0.074 A 
ATOM     52  C   UNL A   1      44.219  26.216  25.329  1.00  0.00     0.031 C 
ATOM     53  C   UNL A   1      38.950  27.514  29.511  1.00  0.00     0.029 A 
ATOM     54  C   UNL A   1      39.994  28.530  29.462  1.00  0.00     0.049 A 
ATOM     55  H   UNL A   1      41.760  28.476  28.359  1.00  0.00     0.167 HD
ATOM     56  C   UNL A   1      45.613  28.043  26.258  1.00  0.00     0.031 A 
ATOM     57  C   UNL A   1      39.988  29.695  30.139  1.00  0.00     0.031 A 
ATOM     58  C   UNL A   1      45.741  29.254  27.025  1.00  0.00     0.049 A 
ATOM     59  C   UNL A   1      41.184  30.603  30.031  1.00  0.00     0.074 A 
ATOM     60  C   UNL A   1      46.787  30.159  27.047  1.00  0.00     0.029 A 
ATOM     61  N   UNL A   1      44.740  29.776  27.831  1.00  0.00    -0.354 N 
ATOM     62  N   UNL A   1      42.299  30.426  29.360  1.00  0.00    -0.248 NA
ATOM     63  C   UNL A   1      41.127  31.868  30.777  1.00  0.00     0.031 C 
ATOM     64  C   UNL A   1      46.415  31.233  27.863  1.00  0.00     0.029 A 
ATOM     65  C   UNL A   1      45.125  31.010  28.320  1.00  0.00     0.049 A 
ATOM     66  H   UNL A   1      43.882  29.333  28.025  1.00  0.00     0.167 HD
ATOM     67  C   UNL A   1      43.060  31.566  29.582  1.00  0.00     0.074 A 
ATOM     68  C   UNL A   1      42.273  32.437  30.432  1.00  0.00     0.031 C 
ATOM     69  C   UNL A   1      44.304  31.865  29.135  1.00  0.00     0.031 A 
BRANCH  56  70
ATOM     70  C   UNL A   1      46.774  27.589  25.413  1.00  0.00    -0.014 A 
ATOM     71  C   UNL A   1      46.899  27.907  24.053  1.00  0.00     0.009 A 
ATOM     72  C   UNL A   1      47.780  26.813  26.015  1.00  0.00     0.009 A 
ATOM     73  C   UNL A   1      47.961  27.401  23.300  1.00  0.00     0.001 A 
ATOM     74  C   UNL A   1      48.866  26.347  25.272  1.00  0.00     0.001 A 
ATOM     75  C   UNL A   1      48.946  26.625  23.910  1.00  0.00     0.000 A 
ENDBRANCH  56  70
BRANCH  57  76
ATOM     76  C   UNL A   1      38.825  30.069  30.991  1.00  0.00    -0.014 A 
ATOM     77  C   UNL A   1      38.907  29.972  32.389  1.00  0.00     0.009 A 
ATOM     78  C   UNL A   1      37.623  30.507  30.415  1.00  0.00     0.009 A 
ATOM     79  C   UNL A   1      37.802  30.280  33.189  1.00  0.00     0.001 A 
ATOM     80  C   UNL A   1      36.530  30.844  31.218  1.00  0.00     0.001 A 
ATOM     81  C   UNL A   1      36.616  30.719  32.603  1.00  0.00     0.000 A 
ENDBRANCH  57  76
BRANCH  69  82
ATOM     82  C   UNL A   1      44.860  33.212  29.498  1.00  0.00    -0.014 A 
ATOM     83  C   UNL A   1      44.590  34.345  28.717  1.00  0.00     0.009 A 
ATOM     84  C   UNL A   1      45.616  33.353  30.672  1.00  0.00     0.009 A 
ATOM     85  C   UNL A   1      45.091  35.593  29.093  1.00  0.00     0.001 A 
ATOM     86  C   UNL A   1      46.093  34.606  31.058  1.00  0.00     0.001 A 
ATOM     87  C   UNL A   1      45.836  35.722  30.265  1.00  0.00     0.000 A 
ENDBRANCH  69  82
ENDBRANCH  43  44
ENDBRANCH  35  38
ENDBRANCH  33  34
ENDBRANCH  32  33
ENDBRANCH  31  32
ENDBRANCH  30  31
ENDBRANCH  29  30
ENDBRANCH   1  29
TORSDOF 19
ENDMDL
MODEL 3
REMARK VINA RESULT:     -10.5      4.902     10.065
REMARK SMILES NC(=O)COc1ccc(/C=C2\SC(=S)N(CCC(=O)NCCCCCCNC(=O)c3ccc(-c4c5nc(c(-c6ccccc6)c6ccc([nH]6)c(-c6ccccc6)c6nc(c(-c7ccccc7)c7ccc4[nH]7)C=C6)C=C5)cc3)C2=O)cc1
REMARK SMILES IDX 21 1 20 2 18 3 19 4 17 6 16 7 15 8 10 9 11 10 12 11 78 12
REMARK SMILES IDX 13 13 79 14 14 15 9 16 6 17 7 18 81 19 8 20 80 21 5 22 4 23
REMARK SMILES IDX 2 24 1 25 3 28 22 29 23 30 24 31 25 32 26 33 27 34 28 35
REMARK SMILES IDX 29 37 30 38 31 39 77 40 32 41 76 42 33 43 34 44 35 45 70 46
REMARK SMILES IDX 36 47 75 48 69 49 71 50 37 51 74 52 68 53 67 54 38 56 60 57
REMARK SMILES IDX 45 58 59 59 46 60 49 61 58 62 72 63 47 64 48 65 57 67 73 68
REMARK SMILES IDX 50 69 39 70 40 71 44 72 41 73 43 74 42 75 61 76 62 77 66 78
REMARK SMILES IDX 63 79 65 80 64 81 51 82 52 83 56 84 53 85 55 86 54 87
REMARK H PARENT 20 5 1 26 1 27 27 36 71 55 49 66
REMARK Flexibility Score: inf
ROOT
ATOM      1  C   UNL A   1      32.551  21.805  25.948  1.00  0.00     0.116 C 
ENDROOT
BRANCH   1   2
ATOM      2  N   UNL A   1      31.257  22.174  26.500  1.00  0.00    -0.356 N 
ATOM      3  C   UNL A   1      30.629  23.385  26.540  1.00  0.00     0.221 C 
ATOM      4  O   UNL A   1      29.658  23.517  27.287  1.00  0.00    -0.275 OA
ATOM      5  H   UNL A   1      30.754  21.432  26.908  1.00  0.00     0.163 HD
BRANCH   3   6
ATOM      6  C   UNL A   1      31.082  24.530  25.660  1.00  0.00     0.122 C 
BRANCH   6   7
ATOM      7  C   UNL A   1      32.392  25.183  26.123  1.00  0.00     0.137 C 
BRANCH   7   8
ATOM      8  N   UNL A   1      32.427  26.608  25.758  1.00  0.00    -0.292 N 
ATOM      9  C   UNL A   1      32.673  29.798  27.249  1.00  0.00     0.029 C 
ATOM     10  C   UNL A   1      32.515  28.876  26.298  1.00  0.00     0.081 C 
ATOM     11  S   UNL A   1      33.068  28.875  24.687  1.00  0.00    -0.054 SA
ATOM     12  C   UNL A   1      31.966  27.545  26.657  1.00  0.00     0.266 C 
ATOM     13  C   UNL A   1      32.926  27.117  24.574  1.00  0.00     0.148 C 
ATOM     14  O   UNL A   1      31.249  27.341  27.625  1.00  0.00    -0.268 OA
ATOM     15  S   UNL A   1      33.400  26.278  23.215  1.00  0.00    -0.052 S 
BRANCH   9  16
ATOM     16  C   UNL A   1      33.282  31.129  27.211  1.00  0.00    -0.024 A 
ATOM     17  C   UNL A   1      33.996  33.382  28.650  1.00  0.00     0.120 A 
ATOM     18  C   UNL A   1      34.964  32.414  28.384  1.00  0.00     0.047 A 
ATOM     19  C   UNL A   1      32.878  33.408  27.792  1.00  0.00     0.047 A 
ATOM     20  C   UNL A   1      34.607  31.294  27.626  1.00  0.00     0.012 A 
ATOM     21  C   UNL A   1      32.464  32.241  27.154  1.00  0.00     0.012 A 
BRANCH  17  22
ATOM     22  O   UNL A   1      34.140  34.041  29.949  1.00  0.00    -0.484 OA
BRANCH  22  23
ATOM     23  C   UNL A   1      33.631  35.330  31.400  1.00  0.00     0.329 C 
BRANCH  23  24
ATOM     24  C   UNL A   1      33.599  37.043  31.489  1.00  0.00     0.255 C 
ATOM     25  N   UNL A   1      34.363  37.691  32.424  1.00  0.00    -0.367 N 
ATOM     26  H   UNL A   1      34.346  38.674  32.477  1.00  0.00     0.159 HD
ATOM     27  H   UNL A   1      34.927  37.174  33.043  1.00  0.00     0.159 HD
ATOM     28  O   UNL A   1      32.878  37.728  30.763  1.00  0.00    -0.271 OA
ENDBRANCH  23  24
ENDBRANCH  22  23
ENDBRANCH  17  22
ENDBRANCH   9  16
ENDBRANCH   7   8
ENDBRANCH   6   7
ENDBRANCH   3   6
ENDBRANCH   1   2
BRANCH   1  29
ATOM     29  C   UNL A   1      32.372  20.892  24.735  1.00  0.00     0.021 C 
BRANCH  29  30
ATOM     30  C   UNL A   1      33.584  20.064  24.299  1.00  0.00     0.002 C 
BRANCH  30  31
ATOM     31  C   UNL A   1      34.688  19.850  25.349  1.00  0.00     0.002 C 
BRANCH  31  32
ATOM     32  C   UNL A   1      36.095  19.518  24.824  1.00  0.00     0.021 C 
BRANCH  32  33
ATOM     33  C   UNL A   1      37.173  20.610  24.934  1.00  0.00     0.116 C 
BRANCH  33  34
ATOM     34  N   UNL A   1      36.600  21.923  25.136  1.00  0.00    -0.352 N 
ATOM     35  C   UNL A   1      37.100  23.038  25.752  1.00  0.00     0.251 C 
ATOM     36  H   UNL A   1      35.693  22.034  24.767  1.00  0.00     0.163 HD
ATOM     37  O   UNL A   1      36.352  23.997  25.945  1.00  0.00    -0.269 OA
BRANCH  35  38
ATOM     38  C   UNL A   1      38.466  23.143  26.301  1.00  0.00     0.039 A 
ATOM     39  C   UNL A   1      38.900  24.813  26.818  1.00  0.00     0.014 A 
ATOM     40  C   UNL A   1      39.757  21.889  26.145  1.00  0.00     0.014 A 
ATOM     41  C   UNL A   1      40.593  25.244  27.197  1.00  0.00     0.010 A 
ATOM     42  C   UNL A   1      41.506  22.344  26.507  1.00  0.00     0.010 A 
ATOM     43  C   UNL A   1      41.912  24.019  27.092  1.00  0.00    -0.014 A 
BRANCH  43  44
ATOM     44  C   UNL A   1      43.276  24.439  27.517  1.00  0.00     0.031 A 
ATOM     45  C   UNL A   1      43.748  24.197  28.914  1.00  0.00     0.074 A 
ATOM     46  C   UNL A   1      44.137  24.989  26.638  1.00  0.00     0.049 A 
ATOM     47  N   UNL A   1      44.677  24.803  29.604  1.00  0.00    -0.248 NA
ATOM     48  C   UNL A   1      43.051  23.148  29.656  1.00  0.00     0.031 C 
ATOM     49  C   UNL A   1      43.895  25.203  25.211  1.00  0.00     0.029 A 
ATOM     50  N   UNL A   1      45.416  25.457  26.826  1.00  0.00    -0.354 N 
ATOM     51  C   UNL A   1      44.547  24.323  30.904  1.00  0.00     0.074 A 
ATOM     52  C   UNL A   1      43.455  23.378  30.896  1.00  0.00     0.031 C 
ATOM     53  C   UNL A   1      45.000  25.718  24.646  1.00  0.00     0.029 A 
ATOM     54  C   UNL A   1      45.998  25.952  25.682  1.00  0.00     0.049 A 
ATOM     55  H   UNL A   1      45.872  25.439  27.697  1.00  0.00     0.167 HD
ATOM     56  C   UNL A   1      45.297  24.622  31.991  1.00  0.00     0.031 A 
ATOM     57  C   UNL A   1      47.189  26.555  25.502  1.00  0.00     0.031 A 
ATOM     58  C   UNL A   1      46.536  25.349  31.914  1.00  0.00     0.049 A 
ATOM     59  C   UNL A   1      48.075  26.784  26.698  1.00  0.00     0.074 A 
ATOM     60  C   UNL A   1      47.427  25.656  32.928  1.00  0.00     0.029 A 
ATOM     61  N   UNL A   1      47.106  25.795  30.730  1.00  0.00    -0.354 N 
ATOM     62  N   UNL A   1      47.854  26.488  27.959  1.00  0.00    -0.248 NA
ATOM     63  C   UNL A   1      49.370  27.433  26.452  1.00  0.00     0.031 C 
ATOM     64  C   UNL A   1      48.538  26.283  32.355  1.00  0.00     0.029 A 
ATOM     65  C   UNL A   1      48.353  26.335  30.981  1.00  0.00     0.049 A 
ATOM     66  H   UNL A   1      46.684  25.735  29.842  1.00  0.00     0.167 HD
ATOM     67  C   UNL A   1      48.991  26.892  28.647  1.00  0.00     0.074 A 
ATOM     68  C   UNL A   1      49.908  27.432  27.663  1.00  0.00     0.031 C 
ATOM     69  C   UNL A   1      49.253  26.832  29.976  1.00  0.00     0.031 A 
BRANCH  56  70
ATOM     70  C   UNL A   1      44.792  24.185  33.341  1.00  0.00    -0.014 A 
ATOM     71  C   UNL A   1      43.701  24.790  33.981  1.00  0.00     0.009 A 
ATOM     72  C   UNL A   1      45.443  23.120  33.989  1.00  0.00     0.009 A 
ATOM     73  C   UNL A   1      43.318  24.390  35.264  1.00  0.00     0.001 A 
ATOM     74  C   UNL A   1      45.030  22.690  35.252  1.00  0.00     0.001 A 
ATOM     75  C   UNL A   1      43.980  23.339  35.897  1.00  0.00     0.000 A 
ENDBRANCH  56  70
BRANCH  57  76
ATOM     76  C   UNL A   1      47.615  27.001  24.146  1.00  0.00    -0.014 A 
ATOM     77  C   UNL A   1      48.617  26.305  23.451  1.00  0.00     0.009 A 
ATOM     78  C   UNL A   1      47.038  28.129  23.545  1.00  0.00     0.009 A 
ATOM     79  C   UNL A   1      49.050  26.747  22.197  1.00  0.00     0.001 A 
ATOM     80  C   UNL A   1      47.450  28.551  22.278  1.00  0.00     0.001 A 
ATOM     81  C   UNL A   1      48.464  27.867  21.610  1.00  0.00     0.000 A 
ENDBRANCH  57  76
BRANCH  69  82
ATOM     82  C   UNL A   1      50.606  27.300  30.431  1.00  0.00    -0.014 A 
ATOM     83  C   UNL A   1      51.690  26.415  30.519  1.00  0.00     0.009 A 
ATOM     84  C   UNL A   1      50.805  28.659  30.719  1.00  0.00     0.009 A 
ATOM     85  C   UNL A   1      52.945  26.881  30.914  1.00  0.00     0.001 A 
ATOM     86  C   UNL A   1      52.067  29.125  31.088  1.00  0.00     0.001 A 
ATOM     87  C   UNL A   1      53.134  28.234  31.191  1.00  0.00     0.000 A 
ENDBRANCH  69  82
ENDBRANCH  43  44
ENDBRANCH  35  38
ENDBRANCH  33  34
ENDBRANCH  32  33
ENDBRANCH  31  32
ENDBRANCH  30  31
ENDBRANCH  29  30
ENDBRANCH   1  29
TORSDOF 19
ENDMDL
