MODEL 1
REMARK VINA RESULT:     -10.5      0.000      0.000
REMARK SMILES C[C@H]1[C@H](C(=O)NCCCCCCNC(=O)c2ccc(-c3c4nc(c(-c5ccccc5)c5ccc([nH]5)c(-c5ccccc5)c5nc(c(-c6ccccc6)c6ccc3[nH]6)C=C5)C=C4)cc2)CCN1C(=O)[C@](C)([NH3+])C1CC1
REMARK SMILES IDX 9 1 8 2 7 3 6 4 4 5 5 6 3 8 1 9 2 10 66 11 64 12 65 13 67 14
REMARK SMILES IDX 68 15 69 16 70 17 71 18 72 22 73 23 74 24 10 25 11 26 12 27
REMARK SMILES IDX 13 28 14 29 15 31 16 32 17 33 63 34 18 35 62 36 19 37 20 38
REMARK SMILES IDX 21 39 56 40 22 41 61 42 55 43 57 44 23 45 60 46 54 47 53 48
REMARK SMILES IDX 24 50 46 51 31 52 45 53 32 54 35 55 44 56 58 57 33 58 34 59
REMARK SMILES IDX 43 61 59 62 36 63 25 64 26 65 30 66 27 67 29 68 28 69 47 70
REMARK SMILES IDX 48 71 52 72 49 73 51 74 50 75 37 76 38 77 42 78 39 79 41 80
REMARK SMILES IDX 40 81
REMARK H PARENT 6 7 71 19 71 20 71 21 13 30 57 49 35 60
REMARK Flexibility Score: inf
ROOT
ATOM      1  C   UNL A   1      32.735  30.100  27.160  1.00  0.00     0.002 C 
ENDROOT
BRANCH   1   2
ATOM      2  C   UNL A   1      32.486  28.614  27.427  1.00  0.00     0.021 C 
BRANCH   2   3
ATOM      3  C   UNL A   1      33.530  27.680  26.826  1.00  0.00     0.116 C 
BRANCH   3   4
ATOM      4  N   UNL A   1      34.077  28.214  25.595  1.00  0.00    -0.356 N 
ATOM      5  C   UNL A   1      33.669  28.096  24.306  1.00  0.00     0.225 C 
ATOM      6  O   UNL A   1      34.355  28.656  23.445  1.00  0.00    -0.275 OA
ATOM      7  H   UNL A   1      34.888  28.759  25.715  1.00  0.00     0.163 HD
BRANCH   5   8
ATOM      8  C   UNL A   1      32.435  27.308  23.894  1.00  0.00     0.102 C 
ATOM      9  C   UNL A   1      30.167  27.285  24.968  1.00  0.00     0.032 C 
ATOM     10  C   UNL A   1      31.121  28.094  24.084  1.00  0.00     0.094 C 
ATOM     11  N   UNL A   1      30.571  28.239  22.741  1.00  0.00    -0.334 N 
ATOM     12  C   UNL A   1      32.452  26.822  22.445  1.00  0.00     0.037 C 
ATOM     13  C   UNL A   1      31.080  27.169  21.893  1.00  0.00     0.121 C 
BRANCH  11  14
ATOM     14  C   UNL A   1      29.754  29.201  22.194  1.00  0.00     0.284 C 
ATOM     15  O   UNL A   1      30.205  29.864  21.238  1.00  0.00    -0.268 OA
BRANCH  14  16
ATOM     16  C   UNL A   1      28.271  29.534  22.630  1.00  0.00     0.174 C 
ATOM     17  C   UNL A   1      27.628  28.226  23.111  1.00  0.00     0.090 C 
BRANCH  16  18
ATOM     18  N   UNL A   1      27.564  29.863  21.338  1.00  0.00    -0.345 N 
ATOM     19  H   UNL A   1      26.937  30.653  21.484  1.00  0.00     0.345 HD
ATOM     20  H   UNL A   1      27.024  29.053  21.031  1.00  0.00     0.345 HD
ATOM     21  H   UNL A   1      28.252  30.102  20.625  1.00  0.00     0.345 HD
ENDBRANCH  16  18
BRANCH  16  22
ATOM     22  C   UNL A   1      27.921  30.760  23.467  1.00  0.00     0.060 C 
ATOM     23  C   UNL A   1      29.033  31.646  24.028  1.00  0.00     0.011 C 
ATOM     24  C   UNL A   1      28.026  32.227  23.097  1.00  0.00     0.011 C 
ENDBRANCH  16  22
ENDBRANCH  14  16
ENDBRANCH  11  14
ENDBRANCH   5   8
ENDBRANCH   3   4
ENDBRANCH   2   3
ENDBRANCH   1   2
BRANCH   1  25
ATOM     25  C   UNL A   1      31.630  30.812  26.374  1.00  0.00     0.002 C 
BRANCH  25  26
ATOM     26  C   UNL A   1      31.469  32.302  26.685  1.00  0.00     0.021 C 
BRANCH  26  27
ATOM     27  C   UNL A   1      32.710  32.968  27.269  1.00  0.00     0.116 C 
BRANCH  27  28
ATOM     28  N   UNL A   1      32.458  34.343  27.665  1.00  0.00    -0.352 N 
ATOM     29  C   UNL A   1      33.027  35.078  28.675  1.00  0.00     0.251 C 
ATOM     30  H   UNL A   1      31.780  34.816  27.131  1.00  0.00     0.163 HD
ATOM     31  O   UNL A   1      32.550  36.161  28.994  1.00  0.00    -0.269 OA
BRANCH  29  32
ATOM     32  C   UNL A   1      34.209  34.553  29.391  1.00  0.00     0.039 A 
ATOM     33  C   UNL A   1      34.028  33.956  30.642  1.00  0.00     0.014 A 
ATOM     34  C   UNL A   1      35.489  34.658  28.840  1.00  0.00     0.014 A 
ATOM     35  C   UNL A   1      35.125  33.413  31.313  1.00  0.00     0.010 A 
ATOM     36  C   UNL A   1      36.567  34.049  29.475  1.00  0.00     0.010 A 
ATOM     37  C   UNL A   1      36.398  33.424  30.719  1.00  0.00    -0.014 A 
BRANCH  37  38
ATOM     38  C   UNL A   1      37.561  32.785  31.386  1.00  0.00     0.031 A 
ATOM     39  C   UNL A   1      38.221  31.582  30.772  1.00  0.00     0.074 A 
ATOM     40  C   UNL A   1      37.987  33.256  32.574  1.00  0.00     0.049 A 
ATOM     41  N   UNL A   1      39.218  30.866  31.227  1.00  0.00    -0.248 NA
ATOM     42  C   UNL A   1      37.677  31.108  29.490  1.00  0.00     0.031 C 
ATOM     43  C   UNL A   1      37.409  34.393  33.293  1.00  0.00     0.029 A 
ATOM     44  N   UNL A   1      39.005  32.830  33.389  1.00  0.00    -0.354 N 
ATOM     45  C   UNL A   1      39.410  29.852  30.298  1.00  0.00     0.074 A 
ATOM     46  C   UNL A   1      38.394  30.014  29.280  1.00  0.00     0.031 C 
ATOM     47  C   UNL A   1      38.101  34.593  34.426  1.00  0.00     0.029 A 
ATOM     48  C   UNL A   1      39.139  33.575  34.535  1.00  0.00     0.049 A 
ATOM     49  H   UNL A   1      39.585  32.064  33.173  1.00  0.00     0.167 HD
ATOM     50  C   UNL A   1      40.357  28.883  30.281  1.00  0.00     0.031 A 
ATOM     51  C   UNL A   1      39.999  33.449  35.565  1.00  0.00     0.031 A 
ATOM     52  C   UNL A   1      41.368  28.722  31.292  1.00  0.00     0.049 A 
ATOM     53  C   UNL A   1      41.022  32.348  35.536  1.00  0.00     0.074 A 
ATOM     54  C   UNL A   1      42.403  27.806  31.337  1.00  0.00     0.029 A 
ATOM     55  N   UNL A   1      41.464  29.493  32.440  1.00  0.00    -0.354 N 
ATOM     56  N   UNL A   1      41.235  31.441  34.614  1.00  0.00    -0.248 NA
ATOM     57  C   UNL A   1      41.929  32.261  36.690  1.00  0.00     0.031 C 
ATOM     58  C   UNL A   1      43.093  27.985  32.540  1.00  0.00     0.029 A 
ATOM     59  C   UNL A   1      42.525  29.054  33.215  1.00  0.00     0.049 A 
ATOM     60  H   UNL A   1      40.868  30.242  32.670  1.00  0.00     0.167 HD
ATOM     61  C   UNL A   1      42.316  30.693  35.063  1.00  0.00     0.074 A 
ATOM     62  C   UNL A   1      42.725  31.264  36.329  1.00  0.00     0.031 C 
ATOM     63  C   UNL A   1      42.917  29.629  34.477  1.00  0.00     0.031 A 
BRANCH  50  64
ATOM     64  C   UNL A   1      40.333  27.913  29.131  1.00  0.00    -0.014 A 
ATOM     65  C   UNL A   1      39.612  26.710  29.209  1.00  0.00     0.009 A 
ATOM     66  C   UNL A   1      41.013  28.220  27.943  1.00  0.00     0.009 A 
ATOM     67  C   UNL A   1      39.609  25.816  28.135  1.00  0.00     0.001 A 
ATOM     68  C   UNL A   1      40.982  27.339  26.860  1.00  0.00     0.001 A 
ATOM     69  C   UNL A   1      40.290  26.133  26.961  1.00  0.00     0.000 A 
ENDBRANCH  50  64
BRANCH  51  70
ATOM     70  C   UNL A   1      39.938  34.400  36.706  1.00  0.00    -0.014 A 
ATOM     71  C   UNL A   1      40.654  35.606  36.665  1.00  0.00     0.009 A 
ATOM     72  C   UNL A   1      39.172  34.104  37.843  1.00  0.00     0.009 A 
ATOM     73  C   UNL A   1      40.626  36.484  37.752  1.00  0.00     0.001 A 
ATOM     74  C   UNL A   1      39.120  34.998  38.915  1.00  0.00     0.001 A 
ATOM     75  C   UNL A   1      39.854  36.182  38.873  1.00  0.00     0.000 A 
ENDBRANCH  51  70
BRANCH  63  76
ATOM     76  C   UNL A   1      44.101  29.031  35.185  1.00  0.00    -0.014 A 
ATOM     77  C   UNL A   1      45.404  29.489  34.942  1.00  0.00     0.009 A 
ATOM     78  C   UNL A   1      43.902  28.019  36.136  1.00  0.00     0.009 A 
ATOM     79  C   UNL A   1      46.489  28.922  35.615  1.00  0.00     0.001 A 
ATOM     80  C   UNL A   1      44.984  27.475  36.829  1.00  0.00     0.001 A 
ATOM     81  C   UNL A   1      46.277  27.919  36.561  1.00  0.00     0.000 A 
ENDBRANCH  63  76
ENDBRANCH  37  38
ENDBRANCH  29  32
ENDBRANCH  27  28
ENDBRANCH  26  27
ENDBRANCH  25  26
ENDBRANCH   1  25
TORSDOF 17
ENDMDL
MODEL 2
REMARK VINA RESULT:     -10.3      1.691      6.179
REMARK SMILES C[C@H]1[C@H](C(=O)NCCCCCCNC(=O)c2ccc(-c3c4nc(c(-c5ccccc5)c5ccc([nH]5)c(-c5ccccc5)c5nc(c(-c6ccccc6)c6ccc3[nH]6)C=C5)C=C4)cc2)CCN1C(=O)[C@](C)([NH3+])C1CC1
REMARK SMILES IDX 9 1 8 2 7 3 6 4 4 5 5 6 3 8 1 9 2 10 66 11 64 12 65 13 67 14
REMARK SMILES IDX 68 15 69 16 70 17 71 18 72 22 73 23 74 24 10 25 11 26 12 27
REMARK SMILES IDX 13 28 14 29 15 31 16 32 17 33 63 34 18 35 62 36 19 37 20 38
REMARK SMILES IDX 21 39 56 40 22 41 61 42 55 43 57 44 23 45 60 46 54 47 53 48
REMARK SMILES IDX 24 50 46 51 31 52 45 53 32 54 35 55 44 56 58 57 33 58 34 59
REMARK SMILES IDX 43 61 59 62 36 63 25 64 26 65 30 66 27 67 29 68 28 69 47 70
REMARK SMILES IDX 48 71 52 72 49 73 51 74 50 75 37 76 38 77 42 78 39 79 41 80
REMARK SMILES IDX 40 81
REMARK H PARENT 6 7 71 19 71 20 71 21 13 30 57 49 35 60
REMARK Flexibility Score: inf
ROOT
ATOM      1  C   UNL A   1      34.214  30.648  27.673  1.00  0.00     0.002 C 
ENDROOT
BRANCH   1   2
ATOM      2  C   UNL A   1      34.990  29.386  27.291  1.00  0.00     0.021 C 
BRANCH   2   3
ATOM      3  C   UNL A   1      34.241  28.441  26.359  1.00  0.00     0.116 C 
BRANCH   3   4
ATOM      4  N   UNL A   1      34.587  28.675  24.972  1.00  0.00    -0.356 N 
ATOM      5  C   UNL A   1      33.965  28.322  23.819  1.00  0.00     0.225 C 
ATOM      6  O   UNL A   1      34.512  28.649  22.761  1.00  0.00    -0.275 OA
ATOM      7  H   UNL A   1      35.423  29.180  24.843  1.00  0.00     0.163 HD
BRANCH   5   8
ATOM      8  C   UNL A   1      32.657  27.547  23.785  1.00  0.00     0.102 C 
ATOM      9  C   UNL A   1      30.617  27.864  25.212  1.00  0.00     0.032 C 
ATOM     10  C   UNL A   1      31.419  28.432  24.039  1.00  0.00     0.094 C 
ATOM     11  N   UNL A   1      30.641  28.356  22.806  1.00  0.00    -0.334 N 
ATOM     12  C   UNL A   1      32.401  26.797  22.478  1.00  0.00     0.037 C 
ATOM     13  C   UNL A   1      30.962  27.118  22.110  1.00  0.00     0.121 C 
BRANCH  11  14
ATOM     14  C   UNL A   1      29.766  29.246  22.229  1.00  0.00     0.284 C 
ATOM     15  O   UNL A   1      30.142  29.836  21.196  1.00  0.00    -0.268 OA
BRANCH  14  16
ATOM     16  C   UNL A   1      28.300  29.576  22.721  1.00  0.00     0.174 C 
ATOM     17  C   UNL A   1      27.702  28.280  23.287  1.00  0.00     0.090 C 
BRANCH  16  18
ATOM     18  N   UNL A   1      27.527  29.839  21.452  1.00  0.00    -0.345 N 
ATOM     19  H   UNL A   1      26.677  30.355  21.672  1.00  0.00     0.345 HD
ATOM     20  H   UNL A   1      27.282  28.951  21.013  1.00  0.00     0.345 HD
ATOM     21  H   UNL A   1      28.102  30.387  20.811  1.00  0.00     0.345 HD
ENDBRANCH  16  18
BRANCH  16  22
ATOM     22  C   UNL A   1      27.970  30.832  23.521  1.00  0.00     0.060 C 
ATOM     23  C   UNL A   1      29.096  31.676  24.119  1.00  0.00     0.011 C 
ATOM     24  C   UNL A   1      28.159  32.285  23.134  1.00  0.00     0.011 C 
ENDBRANCH  16  22
ENDBRANCH  14  16
ENDBRANCH  11  14
ENDBRANCH   5   8
ENDBRANCH   3   4
ENDBRANCH   2   3
ENDBRANCH   1   2
BRANCH   1  25
ATOM     25  C   UNL A   1      32.724  30.626  27.319  1.00  0.00     0.002 C 
BRANCH  25  26
ATOM     26  C   UNL A   1      32.091  32.000  27.084  1.00  0.00     0.021 C 
BRANCH  26  27
ATOM     27  C   UNL A   1      33.073  33.166  27.124  1.00  0.00     0.116 C 
BRANCH  27  28
ATOM     28  N   UNL A   1      32.664  34.192  28.070  1.00  0.00    -0.352 N 
ATOM     29  C   UNL A   1      33.220  34.538  29.275  1.00  0.00     0.251 C 
ATOM     30  H   UNL A   1      31.873  34.714  27.806  1.00  0.00     0.163 HD
ATOM     31  O   UNL A   1      32.625  35.294  30.036  1.00  0.00    -0.269 OA
BRANCH  29  32
ATOM     32  C   UNL A   1      34.533  33.984  29.667  1.00  0.00     0.039 A 
ATOM     33  C   UNL A   1      34.601  33.123  30.765  1.00  0.00     0.014 A 
ATOM     34  C   UNL A   1      35.694  34.318  28.962  1.00  0.00     0.014 A 
ATOM     35  C   UNL A   1      35.825  32.552  31.121  1.00  0.00     0.010 A 
ATOM     36  C   UNL A   1      36.896  33.690  29.271  1.00  0.00     0.010 A 
ATOM     37  C   UNL A   1      36.975  32.804  30.356  1.00  0.00    -0.014 A 
BRANCH  37  38
ATOM     38  C   UNL A   1      38.269  32.148  30.676  1.00  0.00     0.031 A 
ATOM     39  C   UNL A   1      39.240  32.803  31.618  1.00  0.00     0.074 A 
ATOM     40  C   UNL A   1      38.591  30.987  30.072  1.00  0.00     0.049 A 
ATOM     41  N   UNL A   1      40.432  32.404  31.982  1.00  0.00    -0.248 NA
ATOM     42  C   UNL A   1      38.829  34.085  32.210  1.00  0.00     0.031 C 
ATOM     43  C   UNL A   1      37.753  30.268  29.112  1.00  0.00     0.029 A 
ATOM     44  N   UNL A   1      39.718  30.211  30.177  1.00  0.00    -0.354 N 
ATOM     45  C   UNL A   1      40.916  33.389  32.833  1.00  0.00     0.074 A 
ATOM     46  C   UNL A   1      39.913  34.430  32.889  1.00  0.00     0.031 C 
ATOM     47  C   UNL A   1      38.381  29.141  28.739  1.00  0.00     0.029 A 
ATOM     48  C   UNL A   1      39.681  29.080  29.398  1.00  0.00     0.049 A 
ATOM     49  H   UNL A   1      40.481  30.442  30.756  1.00  0.00     0.167 HD
ATOM     50  C   UNL A   1      42.083  33.419  33.521  1.00  0.00     0.031 A 
ATOM     51  C   UNL A   1      40.595  28.106  29.226  1.00  0.00     0.031 A 
ATOM     52  C   UNL A   1      43.081  32.384  33.467  1.00  0.00     0.049 A 
ATOM     53  C   UNL A   1      41.894  28.176  29.979  1.00  0.00     0.074 A 
ATOM     54  C   UNL A   1      44.271  32.297  34.168  1.00  0.00     0.029 A 
ATOM     55  N   UNL A   1      43.008  31.259  32.659  1.00  0.00    -0.354 N 
ATOM     56  N   UNL A   1      42.305  29.080  30.835  1.00  0.00    -0.248 NA
ATOM     57  C   UNL A   1      42.850  27.085  29.747  1.00  0.00     0.031 C 
ATOM     58  C   UNL A   1      44.945  31.147  33.742  1.00  0.00     0.029 A 
ATOM     59  C   UNL A   1      44.146  30.487  32.823  1.00  0.00     0.049 A 
ATOM     60  H   UNL A   1      42.258  31.042  32.060  1.00  0.00     0.167 HD
ATOM     61  C   UNL A   1      43.556  28.653  31.263  1.00  0.00     0.074 A 
ATOM     62  C   UNL A   1      43.826  27.400  30.588  1.00  0.00     0.031 C 
ATOM     63  C   UNL A   1      44.403  29.245  32.139  1.00  0.00     0.031 A 
BRANCH  50  64
ATOM     64  C   UNL A   1      42.345  34.622  34.386  1.00  0.00    -0.014 A 
ATOM     65  C   UNL A   1      43.033  35.741  33.888  1.00  0.00     0.009 A 
ATOM     66  C   UNL A   1      41.870  34.651  35.706  1.00  0.00     0.009 A 
ATOM     67  C   UNL A   1      43.277  36.845  34.708  1.00  0.00     0.001 A 
ATOM     68  C   UNL A   1      42.087  35.770  36.514  1.00  0.00     0.001 A 
ATOM     69  C   UNL A   1      42.800  36.860  36.017  1.00  0.00     0.000 A 
ENDBRANCH  50  64
BRANCH  51  70
ATOM     70  C   UNL A   1      40.308  26.969  28.311  1.00  0.00    -0.014 A 
ATOM     71  C   UNL A   1      40.744  27.002  26.978  1.00  0.00     0.009 A 
ATOM     72  C   UNL A   1      39.592  25.850  28.763  1.00  0.00     0.009 A 
ATOM     73  C   UNL A   1      40.445  25.950  26.108  1.00  0.00     0.001 A 
ATOM     74  C   UNL A   1      39.321  24.786  27.900  1.00  0.00     0.001 A 
ATOM     75  C   UNL A   1      39.739  24.841  26.572  1.00  0.00     0.000 A 
ENDBRANCH  51  70
BRANCH  63  76
ATOM     76  C   UNL A   1      45.691  28.530  32.441  1.00  0.00    -0.014 A 
ATOM     77  C   UNL A   1      45.773  27.574  33.465  1.00  0.00     0.009 A 
ATOM     78  C   UNL A   1      46.830  28.792  31.663  1.00  0.00     0.009 A 
ATOM     79  C   UNL A   1      46.979  26.919  33.724  1.00  0.00     0.001 A 
ATOM     80  C   UNL A   1      48.024  28.114  31.905  1.00  0.00     0.001 A 
ATOM     81  C   UNL A   1      48.101  27.185  32.941  1.00  0.00     0.000 A 
ENDBRANCH  63  76
ENDBRANCH  37  38
ENDBRANCH  29  32
ENDBRANCH  27  28
ENDBRANCH  26  27
ENDBRANCH  25  26
ENDBRANCH   1  25
TORSDOF 17
ENDMDL
MODEL 3
REMARK VINA RESULT:     -10.3      4.809      9.476
REMARK SMILES C[C@H]1[C@H](C(=O)NCCCCCCNC(=O)c2ccc(-c3c4nc(c(-c5ccccc5)c5ccc([nH]5)c(-c5ccccc5)c5nc(c(-c6ccccc6)c6ccc3[nH]6)C=C5)C=C4)cc2)CCN1C(=O)[C@](C)([NH3+])C1CC1
REMARK SMILES IDX 9 1 8 2 7 3 6 4 4 5 5 6 3 8 1 9 2 10 66 11 64 12 65 13 67 14
REMARK SMILES IDX 68 15 69 16 70 17 71 18 72 22 73 23 74 24 10 25 11 26 12 27
REMARK SMILES IDX 13 28 14 29 15 31 16 32 17 33 63 34 18 35 62 36 19 37 20 38
REMARK SMILES IDX 21 39 56 40 22 41 61 42 55 43 57 44 23 45 60 46 54 47 53 48
REMARK SMILES IDX 24 50 46 51 31 52 45 53 32 54 35 55 44 56 58 57 33 58 34 59
REMARK SMILES IDX 43 61 59 62 36 63 25 64 26 65 30 66 27 67 29 68 28 69 47 70
REMARK SMILES IDX 48 71 52 72 49 73 51 74 50 75 37 76 38 77 42 78 39 79 41 80
REMARK SMILES IDX 40 81
REMARK H PARENT 6 7 71 19 71 20 71 21 13 30 57 49 35 60
REMARK Flexibility Score: inf
ROOT
ATOM      1  C   UNL A   1      36.569  22.262  24.770  1.00  0.00     0.002 C 
ENDROOT
BRANCH   1   2
ATOM      2  C   UNL A   1      35.737  23.148  25.700  1.00  0.00     0.021 C 
BRANCH   2   3
ATOM      3  C   UNL A   1      35.055  24.323  25.009  1.00  0.00     0.116 C 
BRANCH   3   4
ATOM      4  N   UNL A   1      33.772  24.623  25.611  1.00  0.00    -0.356 N 
ATOM      5  C   UNL A   1      33.093  25.790  25.744  1.00  0.00     0.225 C 
ATOM      6  O   UNL A   1      32.007  25.746  26.330  1.00  0.00    -0.275 OA
ATOM      7  H   UNL A   1      33.310  23.840  25.991  1.00  0.00     0.163 HD
BRANCH   5   8
ATOM      8  C   UNL A   1      33.616  27.119  25.221  1.00  0.00     0.102 C 
ATOM      9  C   UNL A   1      33.693  27.942  22.851  1.00  0.00     0.032 C 
ATOM     10  C   UNL A   1      32.780  27.683  24.053  1.00  0.00     0.094 C 
ATOM     11  N   UNL A   1      32.230  28.938  24.554  1.00  0.00    -0.334 N 
ATOM     12  C   UNL A   1      33.701  28.223  26.275  1.00  0.00     0.037 C 
ATOM     13  C   UNL A   1      33.083  29.446  25.620  1.00  0.00     0.121 C 
BRANCH  11  14
ATOM     14  C   UNL A   1      31.081  29.619  24.228  1.00  0.00     0.284 C 
ATOM     15  O   UNL A   1      30.699  30.513  25.011  1.00  0.00    -0.268 OA
BRANCH  14  16
ATOM     16  C   UNL A   1      30.202  29.413  22.930  1.00  0.00     0.174 C 
ATOM     17  C   UNL A   1      29.970  27.904  22.766  1.00  0.00     0.090 C 
BRANCH  16  18
ATOM     18  N   UNL A   1      31.116  29.792  21.791  1.00  0.00    -0.345 N 
ATOM     19  H   UNL A   1      31.399  30.766  21.891  1.00  0.00     0.345 HD
ATOM     20  H   UNL A   1      30.625  29.669  20.905  1.00  0.00     0.345 HD
ATOM     21  H   UNL A   1      31.943  29.195  21.806  1.00  0.00     0.345 HD
ENDBRANCH  16  18
BRANCH  16  22
ATOM     22  C   UNL A   1      28.986  30.280  22.620  1.00  0.00     0.060 C 
ATOM     23  C   UNL A   1      27.609  29.889  23.158  1.00  0.00     0.011 C 
ATOM     24  C   UNL A   1      28.208  31.196  23.545  1.00  0.00     0.011 C 
ENDBRANCH  16  22
ENDBRANCH  14  16
ENDBRANCH  11  14
ENDBRANCH   5   8
ENDBRANCH   3   4
ENDBRANCH   2   3
ENDBRANCH   1   2
BRANCH   1  25
ATOM     25  C   UNL A   1      36.464  20.758  25.041  1.00  0.00     0.002 C 
BRANCH  25  26
ATOM     26  C   UNL A   1      37.767  19.974  24.868  1.00  0.00     0.021 C 
BRANCH  26  27
ATOM     27  C   UNL A   1      38.884  20.381  25.823  1.00  0.00     0.116 C 
BRANCH  27  28
ATOM     28  N   UNL A   1      39.954  19.397  25.863  1.00  0.00    -0.352 N 
ATOM     29  C   UNL A   1      41.291  19.572  26.116  1.00  0.00     0.251 C 
ATOM     30  H   UNL A   1      39.678  18.470  25.683  1.00  0.00     0.163 HD
ATOM     31  O   UNL A   1      42.083  18.659  25.911  1.00  0.00    -0.269 OA
BRANCH  29  32
ATOM     32  C   UNL A   1      41.781  20.873  26.619  1.00  0.00     0.039 A 
ATOM     33  C   UNL A   1      42.259  21.814  25.703  1.00  0.00     0.014 A 
ATOM     34  C   UNL A   1      41.779  21.161  27.987  1.00  0.00     0.014 A 
ATOM     35  C   UNL A   1      42.682  23.066  26.155  1.00  0.00     0.010 A 
ATOM     36  C   UNL A   1      42.129  22.434  28.427  1.00  0.00     0.010 A 
ATOM     37  C   UNL A   1      42.588  23.398  27.516  1.00  0.00    -0.014 A 
BRANCH  37  38
ATOM     38  C   UNL A   1      42.963  24.749  28.004  1.00  0.00     0.031 A 
ATOM     39  C   UNL A   1      41.906  25.791  28.244  1.00  0.00     0.074 A 
ATOM     40  C   UNL A   1      44.264  25.055  28.175  1.00  0.00     0.049 A 
ATOM     41  N   UNL A   1      42.045  27.035  28.626  1.00  0.00    -0.248 NA
ATOM     42  C   UNL A   1      40.511  25.389  28.002  1.00  0.00     0.031 C 
ATOM     43  C   UNL A   1      45.388  24.147  27.942  1.00  0.00     0.029 A 
ATOM     44  N   UNL A   1      44.859  26.223  28.584  1.00  0.00    -0.354 N 
ATOM     45  C   UNL A   1      40.763  27.566  28.657  1.00  0.00     0.074 A 
ATOM     46  C   UNL A   1      39.863  26.527  28.204  1.00  0.00     0.031 C 
ATOM     47  C   UNL A   1      46.534  24.781  28.240  1.00  0.00     0.029 A 
ATOM     48  C   UNL A   1      46.229  26.150  28.641  1.00  0.00     0.049 A 
ATOM     49  H   UNL A   1      44.352  27.035  28.813  1.00  0.00     0.167 HD
ATOM     50  C   UNL A   1      40.364  28.802  29.044  1.00  0.00     0.031 A 
ATOM     51  C   UNL A   1      47.142  27.083  28.974  1.00  0.00     0.031 A 
ATOM     52  C   UNL A   1      41.258  29.836  29.495  1.00  0.00     0.049 A 
ATOM     53  C   UNL A   1      46.676  28.456  29.372  1.00  0.00     0.074 A 
ATOM     54  C   UNL A   1      40.946  31.102  29.959  1.00  0.00     0.029 A 
ATOM     55  N   UNL A   1      42.639  29.724  29.532  1.00  0.00    -0.354 N 
ATOM     56  N   UNL A   1      45.454  28.920  29.464  1.00  0.00    -0.248 NA
ATOM     57  C   UNL A   1      47.720  29.430  29.721  1.00  0.00     0.031 C 
ATOM     58  C   UNL A   1      42.143  31.776  30.223  1.00  0.00     0.029 A 
ATOM     59  C   UNL A   1      43.196  30.909  29.983  1.00  0.00     0.049 A 
ATOM     60  H   UNL A   1      43.148  28.921  29.276  1.00  0.00     0.167 HD
ATOM     61  C   UNL A   1      45.579  30.231  29.906  1.00  0.00     0.074 A 
ATOM     62  C   UNL A   1      46.995  30.481  30.082  1.00  0.00     0.031 C 
ATOM     63  C   UNL A   1      44.608  31.145  30.147  1.00  0.00     0.031 A 
BRANCH  50  64
ATOM     64  C   UNL A   1      38.892  29.104  28.983  1.00  0.00    -0.014 A 
ATOM     65  C   UNL A   1      38.068  28.944  30.110  1.00  0.00     0.009 A 
ATOM     66  C   UNL A   1      38.325  29.586  27.793  1.00  0.00     0.009 A 
ATOM     67  C   UNL A   1      36.701  29.220  30.033  1.00  0.00     0.001 A 
ATOM     68  C   UNL A   1      36.964  29.891  27.728  1.00  0.00     0.001 A 
ATOM     69  C   UNL A   1      36.152  29.697  28.843  1.00  0.00     0.000 A 
ENDBRANCH  50  64
BRANCH  51  70
ATOM     70  C   UNL A   1      48.590  26.748  28.958  1.00  0.00    -0.014 A 
ATOM     71  C   UNL A   1      49.241  26.352  30.136  1.00  0.00     0.009 A 
ATOM     72  C   UNL A   1      49.330  26.829  27.768  1.00  0.00     0.009 A 
ATOM     73  C   UNL A   1      50.610  26.069  30.129  1.00  0.00     0.001 A 
ATOM     74  C   UNL A   1      50.691  26.516  27.757  1.00  0.00     0.001 A 
ATOM     75  C   UNL A   1      51.332  26.146  28.938  1.00  0.00     0.000 A 
ENDBRANCH  51  70
BRANCH  63  76
ATOM     76  C   UNL A   1      45.042  32.492  30.656  1.00  0.00    -0.014 A 
ATOM     77  C   UNL A   1      45.167  32.747  32.030  1.00  0.00     0.009 A 
ATOM     78  C   UNL A   1      45.365  33.507  29.743  1.00  0.00     0.009 A 
ATOM     79  C   UNL A   1      45.576  34.005  32.479  1.00  0.00     0.001 A 
ATOM     80  C   UNL A   1      45.802  34.753  30.194  1.00  0.00     0.001 A 
ATOM     81  C   UNL A   1      45.898  35.004  31.561  1.00  0.00     0.000 A 
ENDBRANCH  63  76
ENDBRANCH  37  38
ENDBRANCH  29  32
ENDBRANCH  27  28
ENDBRANCH  26  27
ENDBRANCH  25  26
ENDBRANCH   1  25
TORSDOF 17
ENDMDL
