MODEL 1
REMARK VINA RESULT:     -11.8      0.000      0.000
REMARK SMILES O=C1NC(=S)S/C1=C\c1ccc(OCc2cn(-c3ccc(C(=O)NCCCCCCNC(=O)c4ccc(-c5c6nc(c(-c7ccccc7)c7ccc([nH]7)c(-c7ccccc7)c7nc(c(-c8ccccc8)c8ccc5[nH]8)C=C7)C=C6)cc4)cc3)nn2)cc1
REMARK SMILES IDX 26 1 25 2 24 3 22 4 23 5 21 7 18 8 19 9 83 10 20 11 82 12
REMARK SMILES IDX 17 13 15 14 16 15 85 16 84 17 14 18 13 19 12 20 9 21 10 22
REMARK SMILES IDX 87 23 11 24 86 25 8 26 1 27 2 28 3 29 7 30 4 31 6 33 5 34
REMARK SMILES IDX 27 35 28 36 29 37 30 38 31 39 32 40 33 42 34 43 35 44 81 45
REMARK SMILES IDX 36 46 80 47 37 48 38 49 39 50 74 51 40 52 79 53 73 54 75 55
REMARK SMILES IDX 41 56 78 57 72 58 71 59 42 61 64 62 49 63 63 64 50 65 53 66
REMARK SMILES IDX 62 67 76 68 51 69 52 70 61 72 77 73 54 74 43 75 44 76 48 77
REMARK SMILES IDX 45 78 47 79 46 80 65 81 66 82 70 83 67 84 69 85 68 86 55 87
REMARK SMILES IDX 56 88 60 89 57 90 59 91 58 92
REMARK H PARENT 24 6 3 32 31 41 75 60 53 71
REMARK Flexibility Score: inf
ROOT
ATOM      1  C   UNL A   1      36.462  34.444  33.046  1.00  0.00     0.021 C 
ENDROOT
BRANCH   1   2
ATOM      2  C   UNL A   1      35.752  34.087  31.739  1.00  0.00     0.116 C 
BRANCH   2   3
ATOM      3  N   UNL A   1      36.643  34.322  30.622  1.00  0.00    -0.352 N 
ATOM      4  C   UNL A   1      36.800  33.709  29.408  1.00  0.00     0.251 C 
ATOM      5  O   UNL A   1      37.711  34.113  28.684  1.00  0.00    -0.269 OA
ATOM      6  H   UNL A   1      37.261  35.075  30.765  1.00  0.00     0.163 HD
BRANCH   4   7
ATOM      7  C   UNL A   1      35.881  32.653  28.899  1.00  0.00     0.039 A 
ATOM      8  C   UNL A   1      34.402  30.573  27.742  1.00  0.00     0.066 A 
ATOM      9  C   UNL A   1      35.602  30.288  28.402  1.00  0.00     0.029 A 
ATOM     10  C   UNL A   1      33.896  31.873  27.731  1.00  0.00     0.029 A 
ATOM     11  C   UNL A   1      36.353  31.333  28.942  1.00  0.00     0.016 A 
ATOM     12  C   UNL A   1      34.605  32.888  28.377  1.00  0.00     0.016 A 
BRANCH   8  13
ATOM     13  N   UNL A   1      33.687  29.534  27.122  1.00  0.00    -0.220 N 
ATOM     14  C   UNL A   1      33.057  27.752  26.037  1.00  0.00     0.120 A 
ATOM     15  C   UNL A   1      34.173  28.384  26.542  1.00  0.00     0.144 A 
ATOM     16  N   UNL A   1      31.954  28.497  26.364  1.00  0.00    -0.131 NA
ATOM     17  N   UNL A   1      32.342  29.553  27.054  1.00  0.00    -0.062 NA
BRANCH  14  18
ATOM     18  C   UNL A   1      32.900  26.431  25.354  1.00  0.00     0.289 C 
BRANCH  18  19
ATOM     19  O   UNL A   1      33.127  25.272  26.176  1.00  0.00    -0.487 OA
BRANCH  19  20
ATOM     20  C   UNL A   1      32.901  24.035  25.637  1.00  0.00     0.119 A 
ATOM     21  C   UNL A   1      32.635  21.657  24.166  1.00  0.00    -0.024 A 
ATOM     22  C   UNL A   1      33.898  22.216  24.369  1.00  0.00     0.012 A 
ATOM     23  C   UNL A   1      31.527  22.233  24.790  1.00  0.00     0.012 A 
ATOM     24  C   UNL A   1      34.026  23.405  25.097  1.00  0.00     0.047 A 
ATOM     25  C   UNL A   1      31.669  23.394  25.551  1.00  0.00     0.047 A 
BRANCH  21  26
ATOM     26  C   UNL A   1      32.454  20.488  23.302  1.00  0.00     0.029 C 
ATOM     27  O   UNL A   1      32.255  18.165  21.562  1.00  0.00    -0.268 OA
ATOM     28  C   UNL A   1      32.450  18.074  22.757  1.00  0.00     0.263 C 
ATOM     29  N   UNL A   1      32.622  16.898  23.436  1.00  0.00    -0.307 N 
ATOM     30  C   UNL A   1      32.554  19.215  23.709  1.00  0.00     0.080 C 
ATOM     31  C   UNL A   1      32.830  16.952  24.780  1.00  0.00     0.145 C 
ATOM     32  H   UNL A   1      32.595  16.034  22.964  1.00  0.00     0.171 HD
ATOM     33  S   UNL A   1      32.830  18.618  25.308  1.00  0.00    -0.055 SA
ATOM     34  S   UNL A   1      33.040  15.613  25.730  1.00  0.00    -0.052 S 
ENDBRANCH  21  26
ENDBRANCH  19  20
ENDBRANCH  18  19
ENDBRANCH  14  18
ENDBRANCH   8  13
ENDBRANCH   4   7
ENDBRANCH   2   3
ENDBRANCH   1   2
BRANCH   1  35
ATOM     35  C   UNL A   1      36.853  33.204  33.861  1.00  0.00     0.002 C 
BRANCH  35  36
ATOM     36  C   UNL A   1      38.309  33.188  34.356  1.00  0.00     0.002 C 
BRANCH  36  37
ATOM     37  C   UNL A   1      39.180  34.369  33.902  1.00  0.00     0.021 C 
BRANCH  37  38
ATOM     38  C   UNL A   1      40.327  33.943  33.002  1.00  0.00     0.116 C 
BRANCH  38  39
ATOM     39  N   UNL A   1      40.133  34.409  31.628  1.00  0.00    -0.352 N 
ATOM     40  C   UNL A   1      40.601  33.857  30.455  1.00  0.00     0.251 C 
ATOM     41  H   UNL A   1      39.595  35.227  31.529  1.00  0.00     0.163 HD
ATOM     42  O   UNL A   1      40.683  34.520  29.432  1.00  0.00    -0.269 OA
BRANCH  40  43
ATOM     43  C   UNL A   1      40.987  32.438  30.455  1.00  0.00     0.039 A 
ATOM     44  C   UNL A   1      40.030  31.420  30.484  1.00  0.00     0.014 A 
ATOM     45  C   UNL A   1      42.346  32.143  30.408  1.00  0.00     0.014 A 
ATOM     46  C   UNL A   1      40.457  30.098  30.396  1.00  0.00     0.010 A 
ATOM     47  C   UNL A   1      42.752  30.865  30.145  1.00  0.00     0.010 A 
ATOM     48  C   UNL A   1      41.822  29.834  30.212  1.00  0.00    -0.014 A 
BRANCH  48  49
ATOM     49  C   UNL A   1      42.312  28.485  29.967  1.00  0.00     0.031 A 
ATOM     50  C   UNL A   1      43.032  27.877  31.116  1.00  0.00     0.074 A 
ATOM     51  C   UNL A   1      41.913  27.771  28.892  1.00  0.00     0.049 A 
ATOM     52  N   UNL A   1      44.269  27.516  31.153  1.00  0.00    -0.248 NA
ATOM     53  C   UNL A   1      42.346  27.780  32.417  1.00  0.00     0.031 C 
ATOM     54  C   UNL A   1      40.962  28.167  27.843  1.00  0.00     0.029 A 
ATOM     55  N   UNL A   1      42.153  26.469  28.589  1.00  0.00    -0.354 N 
ATOM     56  C   UNL A   1      44.471  26.953  32.408  1.00  0.00     0.074 A 
ATOM     57  C   UNL A   1      43.321  27.311  33.199  1.00  0.00     0.031 C 
ATOM     58  C   UNL A   1      40.512  27.065  27.204  1.00  0.00     0.029 A 
ATOM     59  C   UNL A   1      41.253  25.914  27.684  1.00  0.00     0.049 A 
ATOM     60  H   UNL A   1      42.902  25.960  28.976  1.00  0.00     0.167 HD
ATOM     61  C   UNL A   1      45.442  26.020  32.610  1.00  0.00     0.031 A 
ATOM     62  C   UNL A   1      41.096  24.598  27.391  1.00  0.00     0.031 A 
ATOM     63  C   UNL A   1      46.360  25.966  31.500  1.00  0.00     0.049 A 
ATOM     64  C   UNL A   1      42.334  23.905  27.823  1.00  0.00     0.074 A 
ATOM     65  C   UNL A   1      47.189  26.882  30.884  1.00  0.00     0.029 A 
ATOM     66  N   UNL A   1      46.184  24.944  30.596  1.00  0.00    -0.354 N 
ATOM     67  N   UNL A   1      43.488  24.094  27.248  1.00  0.00    -0.248 NA
ATOM     68  C   UNL A   1      42.392  23.393  29.185  1.00  0.00     0.031 C 
ATOM     69  C   UNL A   1      47.056  26.611  29.491  1.00  0.00     0.029 A 
ATOM     70  C   UNL A   1      46.238  25.490  29.341  1.00  0.00     0.049 A 
ATOM     71  H   UNL A   1      46.044  23.994  30.812  1.00  0.00     0.167 HD
ATOM     72  C   UNL A   1      44.387  24.190  28.300  1.00  0.00     0.074 A 
ATOM     73  C   UNL A   1      43.677  23.643  29.458  1.00  0.00     0.031 C 
ATOM     74  C   UNL A   1      45.495  24.984  28.209  1.00  0.00     0.031 A 
BRANCH  61  75
ATOM     75  C   UNL A   1      45.314  24.868  33.576  1.00  0.00    -0.014 A 
ATOM     76  C   UNL A   1      44.345  23.883  33.314  1.00  0.00     0.009 A 
ATOM     77  C   UNL A   1      45.882  24.872  34.863  1.00  0.00     0.009 A 
ATOM     78  C   UNL A   1      43.903  23.012  34.316  1.00  0.00     0.001 A 
ATOM     79  C   UNL A   1      45.472  23.976  35.854  1.00  0.00     0.001 A 
ATOM     80  C   UNL A   1      44.459  23.068  35.589  1.00  0.00     0.000 A 
ENDBRANCH  61  75
BRANCH  62  81
ATOM     81  C   UNL A   1      39.867  23.863  27.005  1.00  0.00    -0.014 A 
ATOM     82  C   UNL A   1      38.656  24.545  26.800  1.00  0.00     0.009 A 
ATOM     83  C   UNL A   1      39.937  22.525  26.576  1.00  0.00     0.009 A 
ATOM     84  C   UNL A   1      37.579  23.928  26.146  1.00  0.00     0.001 A 
ATOM     85  C   UNL A   1      38.861  21.906  25.929  1.00  0.00     0.001 A 
ATOM     86  C   UNL A   1      37.687  22.614  25.697  1.00  0.00     0.000 A 
ENDBRANCH  62  81
BRANCH  74  87
ATOM     87  C   UNL A   1      45.830  25.593  26.867  1.00  0.00    -0.014 A 
ATOM     88  C   UNL A   1      45.251  26.786  26.392  1.00  0.00     0.009 A 
ATOM     89  C   UNL A   1      46.889  25.037  26.136  1.00  0.00     0.009 A 
ATOM     90  C   UNL A   1      45.701  27.382  25.210  1.00  0.00     0.001 A 
ATOM     91  C   UNL A   1      47.354  25.645  24.969  1.00  0.00     0.001 A 
ATOM     92  C   UNL A   1      46.756  26.814  24.501  1.00  0.00     0.000 A 
ENDBRANCH  74  87
ENDBRANCH  48  49
ENDBRANCH  40  43
ENDBRANCH  38  39
ENDBRANCH  37  38
ENDBRANCH  36  37
ENDBRANCH  35  36
ENDBRANCH   1  35
TORSDOF 18
ENDMDL
MODEL 2
REMARK VINA RESULT:     -11.6      2.977      4.945
REMARK SMILES O=C1NC(=S)S/C1=C\c1ccc(OCc2cn(-c3ccc(C(=O)NCCCCCCNC(=O)c4ccc(-c5c6nc(c(-c7ccccc7)c7ccc([nH]7)c(-c7ccccc7)c7nc(c(-c8ccccc8)c8ccc5[nH]8)C=C7)C=C6)cc4)cc3)nn2)cc1
REMARK SMILES IDX 26 1 25 2 24 3 22 4 23 5 21 7 18 8 19 9 83 10 20 11 82 12
REMARK SMILES IDX 17 13 15 14 16 15 85 16 84 17 14 18 13 19 12 20 9 21 10 22
REMARK SMILES IDX 87 23 11 24 86 25 8 26 1 27 2 28 3 29 7 30 4 31 6 33 5 34
REMARK SMILES IDX 27 35 28 36 29 37 30 38 31 39 32 40 33 42 34 43 35 44 81 45
REMARK SMILES IDX 36 46 80 47 37 48 38 49 39 50 74 51 40 52 79 53 73 54 75 55
REMARK SMILES IDX 41 56 78 57 72 58 71 59 42 61 64 62 49 63 63 64 50 65 53 66
REMARK SMILES IDX 62 67 76 68 51 69 52 70 61 72 77 73 54 74 43 75 44 76 48 77
REMARK SMILES IDX 45 78 47 79 46 80 65 81 66 82 70 83 67 84 69 85 68 86 55 87
REMARK SMILES IDX 56 88 60 89 57 90 59 91 58 92
REMARK H PARENT 24 6 3 32 31 41 75 60 53 71
REMARK Flexibility Score: inf
ROOT
ATOM      1  C   UNL A   1      39.990  34.791  37.257  1.00  0.00     0.021 C 
ENDROOT
BRANCH   1   2
ATOM      2  C   UNL A   1      40.421  33.330  37.105  1.00  0.00     0.116 C 
BRANCH   2   3
ATOM      3  N   UNL A   1      39.419  32.466  37.694  1.00  0.00    -0.352 N 
ATOM      4  C   UNL A   1      38.179  32.058  37.281  1.00  0.00     0.251 C 
ATOM      5  O   UNL A   1      37.530  31.353  38.055  1.00  0.00    -0.269 OA
ATOM      6  H   UNL A   1      39.683  32.098  38.569  1.00  0.00     0.163 HD
BRANCH   4   7
ATOM      7  C   UNL A   1      37.630  32.351  35.929  1.00  0.00     0.039 A 
ATOM      8  C   UNL A   1      36.296  32.914  33.530  1.00  0.00     0.066 A 
ATOM      9  C   UNL A   1      36.196  33.803  34.604  1.00  0.00     0.029 A 
ATOM     10  C   UNL A   1      37.121  31.793  33.617  1.00  0.00     0.029 A 
ATOM     11  C   UNL A   1      36.831  33.499  35.809  1.00  0.00     0.016 A 
ATOM     12  C   UNL A   1      37.841  31.564  34.791  1.00  0.00     0.016 A 
BRANCH   8  13
ATOM     13  N   UNL A   1      35.586  33.175  32.344  1.00  0.00    -0.220 N 
ATOM     14  C   UNL A   1      34.908  33.365  30.281  1.00  0.00     0.120 A 
ATOM     15  C   UNL A   1      35.900  32.802  31.056  1.00  0.00     0.144 A 
ATOM     16  N   UNL A   1      34.022  34.002  31.111  1.00  0.00    -0.131 NA
ATOM     17  N   UNL A   1      34.419  33.847  32.359  1.00  0.00    -0.062 NA
BRANCH  14  18
ATOM     18  C   UNL A   1      34.638  33.276  28.814  1.00  0.00     0.289 C 
BRANCH  18  19
ATOM     19  O   UNL A   1      35.339  32.233  28.112  1.00  0.00    -0.487 OA
BRANCH  19  20
ATOM     20  C   UNL A   1      34.626  31.155  27.662  1.00  0.00     0.119 A 
ATOM     21  C   UNL A   1      32.879  29.037  27.067  1.00  0.00    -0.024 A 
ATOM     22  C   UNL A   1      32.406  30.351  27.086  1.00  0.00     0.012 A 
ATOM     23  C   UNL A   1      34.244  28.804  27.240  1.00  0.00     0.012 A 
ATOM     24  C   UNL A   1      33.278  31.403  27.390  1.00  0.00     0.047 A 
ATOM     25  C   UNL A   1      35.116  29.863  27.499  1.00  0.00     0.047 A 
BRANCH  21  26
ATOM     26  C   UNL A   1      31.967  27.906  26.881  1.00  0.00     0.029 C 
ATOM     27  O   UNL A   1      30.045  25.764  26.462  1.00  0.00    -0.268 OA
ATOM     28  C   UNL A   1      30.780  26.166  25.584  1.00  0.00     0.263 C 
ATOM     29  N   UNL A   1      30.794  25.696  24.298  1.00  0.00    -0.307 N 
ATOM     30  C   UNL A   1      31.793  27.249  25.727  1.00  0.00     0.080 C 
ATOM     31  C   UNL A   1      31.679  26.243  23.421  1.00  0.00     0.145 C 
ATOM     32  H   UNL A   1      30.180  24.980  24.015  1.00  0.00     0.171 HD
ATOM     33  S   UNL A   1      32.613  27.484  24.222  1.00  0.00    -0.055 SA
ATOM     34  S   UNL A   1      31.817  25.766  21.841  1.00  0.00    -0.052 S 
ENDBRANCH  21  26
ENDBRANCH  19  20
ENDBRANCH  18  19
ENDBRANCH  14  18
ENDBRANCH   8  13
ENDBRANCH   4   7
ENDBRANCH   2   3
ENDBRANCH   1   2
BRANCH   1  35
ATOM     35  C   UNL A   1      40.728  35.725  36.288  1.00  0.00     0.002 C 
BRANCH  35  36
ATOM     36  C   UNL A   1      40.275  35.624  34.822  1.00  0.00     0.002 C 
BRANCH  36  37
ATOM     37  C   UNL A   1      41.198  34.821  33.894  1.00  0.00     0.021 C 
BRANCH  37  38
ATOM     38  C   UNL A   1      40.505  33.624  33.266  1.00  0.00     0.116 C 
BRANCH  38  39
ATOM     39  N   UNL A   1      39.566  34.033  32.221  1.00  0.00    -0.352 N 
ATOM     40  C   UNL A   1      39.527  33.651  30.897  1.00  0.00     0.251 C 
ATOM     41  H   UNL A   1      38.868  34.667  32.502  1.00  0.00     0.163 HD
ATOM     42  O   UNL A   1      38.942  34.323  30.061  1.00  0.00    -0.269 OA
BRANCH  40  43
ATOM     43  C   UNL A   1      40.195  32.400  30.510  1.00  0.00     0.039 A 
ATOM     44  C   UNL A   1      41.559  32.363  30.206  1.00  0.00     0.014 A 
ATOM     45  C   UNL A   1      39.422  31.244  30.472  1.00  0.00     0.014 A 
ATOM     46  C   UNL A   1      42.150  31.133  29.929  1.00  0.00     0.010 A 
ATOM     47  C   UNL A   1      40.031  30.025  30.374  1.00  0.00     0.010 A 
ATOM     48  C   UNL A   1      41.377  29.968  30.030  1.00  0.00    -0.014 A 
BRANCH  48  49
ATOM     49  C   UNL A   1      41.969  28.645  29.897  1.00  0.00     0.031 A 
ATOM     50  C   UNL A   1      42.636  28.146  31.128  1.00  0.00     0.074 A 
ATOM     51  C   UNL A   1      41.700  27.852  28.837  1.00  0.00     0.049 A 
ATOM     52  N   UNL A   1      43.887  27.872  31.275  1.00  0.00    -0.248 NA
ATOM     53  C   UNL A   1      41.860  28.069  32.378  1.00  0.00     0.031 C 
ATOM     54  C   UNL A   1      40.810  28.129  27.701  1.00  0.00     0.029 A 
ATOM     55  N   UNL A   1      42.046  26.556  28.626  1.00  0.00    -0.354 N 
ATOM     56  C   UNL A   1      44.028  27.389  32.571  1.00  0.00     0.074 A 
ATOM     57  C   UNL A   1      42.800  27.707  33.255  1.00  0.00     0.031 C 
ATOM     58  C   UNL A   1      40.481  26.968  27.093  1.00  0.00     0.029 A 
ATOM     59  C   UNL A   1      41.255  25.896  27.689  1.00  0.00     0.049 A 
ATOM     60  H   UNL A   1      42.793  26.118  29.094  1.00  0.00     0.167 HD
ATOM     61  C   UNL A   1      45.038  26.535  32.895  1.00  0.00     0.031 A 
ATOM     62  C   UNL A   1      41.205  24.559  27.459  1.00  0.00     0.031 A 
ATOM     63  C   UNL A   1      46.040  26.487  31.859  1.00  0.00     0.049 A 
ATOM     64  C   UNL A   1      42.447  23.974  28.019  1.00  0.00     0.074 A 
ATOM     65  C   UNL A   1      46.854  27.425  31.256  1.00  0.00     0.029 A 
ATOM     66  N   UNL A   1      45.999  25.410  31.003  1.00  0.00    -0.354 N 
ATOM     67  N   UNL A   1      43.627  24.211  27.520  1.00  0.00    -0.248 NA
ATOM     68  C   UNL A   1      42.433  23.537  29.407  1.00  0.00     0.031 C 
ATOM     69  C   UNL A   1      46.846  27.075  29.875  1.00  0.00     0.029 A 
ATOM     70  C   UNL A   1      46.115  25.895  29.728  1.00  0.00     0.049 A 
ATOM     71  H   UNL A   1      45.904  24.466  31.261  1.00  0.00     0.167 HD
ATOM     72  C   UNL A   1      44.435  24.421  28.628  1.00  0.00     0.074 A 
ATOM     73  C   UNL A   1      43.676  23.887  29.759  1.00  0.00     0.031 C 
ATOM     74  C   UNL A   1      45.494  25.283  28.574  1.00  0.00     0.031 A 
BRANCH  61  75
ATOM     75  C   UNL A   1      44.910  25.427  33.912  1.00  0.00    -0.014 A 
ATOM     76  C   UNL A   1      44.084  24.331  33.604  1.00  0.00     0.009 A 
ATOM     77  C   UNL A   1      45.315  25.559  35.253  1.00  0.00     0.009 A 
ATOM     78  C   UNL A   1      43.613  23.471  34.602  1.00  0.00     0.001 A 
ATOM     79  C   UNL A   1      44.879  24.677  36.245  1.00  0.00     0.001 A 
ATOM     80  C   UNL A   1      44.002  23.652  35.924  1.00  0.00     0.000 A 
ENDBRANCH  61  75
BRANCH  62  81
ATOM     81  C   UNL A   1      40.058  23.724  27.026  1.00  0.00    -0.014 A 
ATOM     82  C   UNL A   1      38.827  24.312  26.689  1.00  0.00     0.009 A 
ATOM     83  C   UNL A   1      40.245  22.372  26.684  1.00  0.00     0.009 A 
ATOM     84  C   UNL A   1      37.846  23.589  25.994  1.00  0.00     0.001 A 
ATOM     85  C   UNL A   1      39.264  21.649  25.995  1.00  0.00     0.001 A 
ATOM     86  C   UNL A   1      38.071  22.263  25.634  1.00  0.00     0.000 A 
ENDBRANCH  62  81
BRANCH  74  87
ATOM     87  C   UNL A   1      45.891  25.844  27.228  1.00  0.00    -0.014 A 
ATOM     88  C   UNL A   1      46.882  25.266  26.411  1.00  0.00     0.009 A 
ATOM     89  C   UNL A   1      45.120  26.886  26.694  1.00  0.00     0.009 A 
ATOM     90  C   UNL A   1      47.109  25.738  25.114  1.00  0.00     0.001 A 
ATOM     91  C   UNL A   1      45.331  27.342  25.392  1.00  0.00     0.001 A 
ATOM     92  C   UNL A   1      46.330  26.773  24.603  1.00  0.00     0.000 A 
ENDBRANCH  74  87
ENDBRANCH  48  49
ENDBRANCH  40  43
ENDBRANCH  38  39
ENDBRANCH  37  38
ENDBRANCH  36  37
ENDBRANCH  35  36
ENDBRANCH   1  35
TORSDOF 18
ENDMDL
MODEL 3
REMARK VINA RESULT:     -11.3      3.817     10.335
REMARK SMILES O=C1NC(=S)S/C1=C\c1ccc(OCc2cn(-c3ccc(C(=O)NCCCCCCNC(=O)c4ccc(-c5c6nc(c(-c7ccccc7)c7ccc([nH]7)c(-c7ccccc7)c7nc(c(-c8ccccc8)c8ccc5[nH]8)C=C7)C=C6)cc4)cc3)nn2)cc1
REMARK SMILES IDX 26 1 25 2 24 3 22 4 23 5 21 7 18 8 19 9 83 10 20 11 82 12
REMARK SMILES IDX 17 13 15 14 16 15 85 16 84 17 14 18 13 19 12 20 9 21 10 22
REMARK SMILES IDX 87 23 11 24 86 25 8 26 1 27 2 28 3 29 7 30 4 31 6 33 5 34
REMARK SMILES IDX 27 35 28 36 29 37 30 38 31 39 32 40 33 42 34 43 35 44 81 45
REMARK SMILES IDX 36 46 80 47 37 48 38 49 39 50 74 51 40 52 79 53 73 54 75 55
REMARK SMILES IDX 41 56 78 57 72 58 71 59 42 61 64 62 49 63 63 64 50 65 53 66
REMARK SMILES IDX 62 67 76 68 51 69 52 70 61 72 77 73 54 74 43 75 44 76 48 77
REMARK SMILES IDX 45 78 47 79 46 80 65 81 66 82 70 83 67 84 69 85 68 86 55 87
REMARK SMILES IDX 56 88 60 89 57 90 59 91 58 92
REMARK H PARENT 24 6 3 32 31 41 75 60 53 71
REMARK Flexibility Score: inf
ROOT
ATOM      1  C   UNL A   1      45.808  20.227  25.175  1.00  0.00     0.021 C 
ENDROOT
BRANCH   1   2
ATOM      2  C   UNL A   1      44.740  19.245  24.689  1.00  0.00     0.116 C 
BRANCH   2   3
ATOM      3  N   UNL A   1      44.246  18.471  25.810  1.00  0.00    -0.352 N 
ATOM      4  C   UNL A   1      43.137  18.584  26.605  1.00  0.00     0.251 C 
ATOM      5  O   UNL A   1      43.028  17.789  27.539  1.00  0.00    -0.269 OA
ATOM      6  H   UNL A   1      44.826  17.713  26.049  1.00  0.00     0.163 HD
BRANCH   4   7
ATOM      7  C   UNL A   1      42.035  19.550  26.340  1.00  0.00     0.039 A 
ATOM      8  C   UNL A   1      39.984  21.451  26.165  1.00  0.00     0.066 A 
ATOM      9  C   UNL A   1      41.259  21.842  26.587  1.00  0.00     0.029 A 
ATOM     10  C   UNL A   1      39.750  20.140  25.751  1.00  0.00     0.029 A 
ATOM     11  C   UNL A   1      42.265  20.884  26.709  1.00  0.00     0.016 A 
ATOM     12  C   UNL A   1      40.801  19.220  25.771  1.00  0.00     0.016 A 
BRANCH   8  13
ATOM     13  N   UNL A   1      38.944  22.397  26.124  1.00  0.00    -0.220 N 
ATOM     14  C   UNL A   1      37.119  23.521  25.729  1.00  0.00     0.120 A 
ATOM     15  C   UNL A   1      37.716  22.298  25.510  1.00  0.00     0.144 A 
ATOM     16  N   UNL A   1      37.965  24.284  26.492  1.00  0.00    -0.131 NA
ATOM     17  N   UNL A   1      39.049  23.580  26.759  1.00  0.00    -0.062 NA
BRANCH  14  18
ATOM     18  C   UNL A   1      35.757  24.026  25.378  1.00  0.00     0.289 C 
BRANCH  18  19
ATOM     19  O   UNL A   1      34.660  23.171  25.746  1.00  0.00    -0.487 OA
BRANCH  19  20
ATOM     20  C   UNL A   1      33.390  23.679  25.695  1.00  0.00     0.119 A 
ATOM     21  C   UNL A   1      30.843  24.731  25.150  1.00  0.00    -0.024 A 
ATOM     22  C   UNL A   1      31.240  23.524  24.572  1.00  0.00     0.012 A 
ATOM     23  C   UNL A   1      31.683  25.349  26.079  1.00  0.00     0.012 A 
ATOM     24  C   UNL A   1      32.512  23.005  24.841  1.00  0.00     0.047 A 
ATOM     25  C   UNL A   1      32.932  24.803  26.376  1.00  0.00     0.047 A 
BRANCH  21  26
ATOM     26  C   UNL A   1      29.573  25.364  24.788  1.00  0.00     0.029 C 
ATOM     27  O   UNL A   1      27.065  26.714  24.199  1.00  0.00    -0.268 OA
ATOM     28  C   UNL A   1      28.138  27.126  23.810  1.00  0.00     0.263 C 
ATOM     29  N   UNL A   1      28.320  28.268  23.076  1.00  0.00    -0.307 N 
ATOM     30  C   UNL A   1      29.458  26.485  24.064  1.00  0.00     0.080 C 
ATOM     31  C   UNL A   1      29.586  28.604  22.707  1.00  0.00     0.145 C 
ATOM     32  H   UNL A   1      27.553  28.832  22.821  1.00  0.00     0.171 HD
ATOM     33  S   UNL A   1      30.712  27.415  23.317  1.00  0.00    -0.055 SA
ATOM     34  S   UNL A   1      29.954  29.945  21.810  1.00  0.00    -0.052 S 
ENDBRANCH  21  26
ENDBRANCH  19  20
ENDBRANCH  18  19
ENDBRANCH  14  18
ENDBRANCH   8  13
ENDBRANCH   4   7
ENDBRANCH   2   3
ENDBRANCH   1   2
BRANCH   1  35
ATOM     35  C   UNL A   1      45.439  21.688  24.884  1.00  0.00     0.002 C 
BRANCH  35  36
ATOM     36  C   UNL A   1      44.960  22.489  26.106  1.00  0.00     0.002 C 
BRANCH  36  37
ATOM     37  C   UNL A   1      45.567  23.891  26.263  1.00  0.00     0.021 C 
BRANCH  37  38
ATOM     38  C   UNL A   1      45.754  24.292  27.717  1.00  0.00     0.116 C 
BRANCH  38  39
ATOM     39  N   UNL A   1      44.962  23.448  28.613  1.00  0.00    -0.352 N 
ATOM     40  C   UNL A   1      44.069  23.829  29.591  1.00  0.00     0.251 C 
ATOM     41  H   UNL A   1      45.085  22.478  28.502  1.00  0.00     0.163 HD
ATOM     42  O   UNL A   1      43.759  23.067  30.496  1.00  0.00    -0.269 OA
BRANCH  40  43
ATOM     43  C   UNL A   1      43.480  25.173  29.517  1.00  0.00     0.039 A 
ATOM     44  C   UNL A   1      42.507  25.493  28.565  1.00  0.00     0.014 A 
ATOM     45  C   UNL A   1      43.914  26.117  30.443  1.00  0.00     0.014 A 
ATOM     46  C   UNL A   1      41.927  26.759  28.601  1.00  0.00     0.010 A 
ATOM     47  C   UNL A   1      43.225  27.288  30.589  1.00  0.00     0.010 A 
ATOM     48  C   UNL A   1      42.285  27.643  29.628  1.00  0.00    -0.014 A 
BRANCH  48  49
ATOM     49  C   UNL A   1      41.609  28.920  29.805  1.00  0.00     0.031 A 
ATOM     50  C   UNL A   1      42.409  30.100  29.385  1.00  0.00     0.074 A 
ATOM     51  C   UNL A   1      40.288  28.990  30.077  1.00  0.00     0.049 A 
ATOM     52  N   UNL A   1      42.822  31.064  30.135  1.00  0.00    -0.248 NA
ATOM     53  C   UNL A   1      42.928  30.155  28.007  1.00  0.00     0.031 C 
ATOM     54  C   UNL A   1      39.331  27.883  30.218  1.00  0.00     0.029 A 
ATOM     55  N   UNL A   1      39.479  30.080  30.131  1.00  0.00    -0.354 N 
ATOM     56  C   UNL A   1      43.475  31.957  29.292  1.00  0.00     0.074 A 
ATOM     57  C   UNL A   1      43.671  31.263  28.045  1.00  0.00     0.031 C 
ATOM     58  C   UNL A   1      38.073  28.351  30.065  1.00  0.00     0.029 A 
ATOM     59  C   UNL A   1      38.125  29.799  29.977  1.00  0.00     0.049 A 
ATOM     60  H   UNL A   1      39.822  30.994  30.268  1.00  0.00     0.167 HD
ATOM     61  C   UNL A   1      43.563  33.279  29.605  1.00  0.00     0.031 A 
ATOM     62  C   UNL A   1      37.127  30.689  29.744  1.00  0.00     0.031 A 
ATOM     63  C   UNL A   1      43.203  33.520  30.980  1.00  0.00     0.049 A 
ATOM     64  C   UNL A   1      37.631  32.024  30.146  1.00  0.00     0.074 A 
ATOM     65  C   UNL A   1      43.674  33.069  32.197  1.00  0.00     0.029 A 
ATOM     66  N   UNL A   1      41.936  34.002  31.217  1.00  0.00    -0.354 N 
ATOM     67  N   UNL A   1      37.885  32.340  31.384  1.00  0.00    -0.248 NA
ATOM     68  C   UNL A   1      38.316  32.828  29.144  1.00  0.00     0.031 C 
ATOM     69  C   UNL A   1      42.502  32.843  32.977  1.00  0.00     0.029 A 
ATOM     70  C   UNL A   1      41.397  33.260  32.234  1.00  0.00     0.049 A 
ATOM     71  H   UNL A   1      41.498  34.744  30.742  1.00  0.00     0.167 HD
ATOM     72  C   UNL A   1      39.089  33.027  31.326  1.00  0.00     0.074 A 
ATOM     73  C   UNL A   1      39.251  33.392  29.918  1.00  0.00     0.031 C 
ATOM     74  C   UNL A   1      39.987  32.963  32.355  1.00  0.00     0.031 A 
BRANCH  61  75
ATOM     75  C   UNL A   1      43.536  34.389  28.583  1.00  0.00    -0.014 A 
ATOM     76  C   UNL A   1      42.510  35.347  28.665  1.00  0.00     0.009 A 
ATOM     77  C   UNL A   1      44.281  34.359  27.390  1.00  0.00     0.009 A 
ATOM     78  C   UNL A   1      42.187  36.163  27.575  1.00  0.00     0.001 A 
ATOM     79  C   UNL A   1      43.987  35.201  26.315  1.00  0.00     0.001 A 
ATOM     80  C   UNL A   1      42.919  36.081  26.396  1.00  0.00     0.000 A 
ENDBRANCH  61  75
BRANCH  62  81
ATOM     81  C   UNL A   1      35.876  30.513  28.967  1.00  0.00    -0.014 A 
ATOM     82  C   UNL A   1      34.946  31.561  28.854  1.00  0.00     0.009 A 
ATOM     83  C   UNL A   1      35.713  29.409  28.111  1.00  0.00     0.009 A 
ATOM     84  C   UNL A   1      33.928  31.524  27.889  1.00  0.00     0.001 A 
ATOM     85  C   UNL A   1      34.694  29.368  27.153  1.00  0.00     0.001 A 
ATOM     86  C   UNL A   1      33.811  30.435  27.030  1.00  0.00     0.000 A 
ENDBRANCH  62  81
BRANCH  74  87
ATOM     87  C   UNL A   1      39.553  32.299  33.641  1.00  0.00    -0.014 A 
ATOM     88  C   UNL A   1      39.508  32.967  34.880  1.00  0.00     0.009 A 
ATOM     89  C   UNL A   1      39.010  31.009  33.567  1.00  0.00     0.009 A 
ATOM     90  C   UNL A   1      38.963  32.349  36.010  1.00  0.00     0.001 A 
ATOM     91  C   UNL A   1      38.444  30.401  34.689  1.00  0.00     0.001 A 
ATOM     92  C   UNL A   1      38.427  31.068  35.913  1.00  0.00     0.000 A 
ENDBRANCH  74  87
ENDBRANCH  48  49
ENDBRANCH  40  43
ENDBRANCH  38  39
ENDBRANCH  37  38
ENDBRANCH  36  37
ENDBRANCH  35  36
ENDBRANCH   1  35
TORSDOF 18
ENDMDL
