MODEL 1
REMARK VINA RESULT:     -11.4      0.000      0.000
REMARK SMILES O=C(NCCCCCCNC(=O)[C@H]1CSCN1C(=O)c1cnc2ccccn2c1=O)c1ccc(-c2c3nc(c(-c4ccccc4)c4ccc([nH]4)c(-c4ccccc4)c4nc(c(-c5ccccc5)c5ccc2[nH]5)C=C4)C=C3)cc1
REMARK SMILES IDX 6 1 5 2 4 3 3 4 1 5 2 6 31 8 32 9 78 10 33 11 77 12 34 13
REMARK SMILES IDX 35 14 36 15 71 16 37 17 76 18 70 19 72 20 38 21 75 22 69 23
REMARK SMILES IDX 68 24 39 26 61 27 46 28 60 29 47 30 50 31 59 32 73 33 48 34
REMARK SMILES IDX 49 35 58 37 74 38 51 39 40 40 41 41 45 42 42 43 44 44 43 45
REMARK SMILES IDX 62 46 63 47 67 48 64 49 66 50 65 51 52 52 53 53 57 54 54 55
REMARK SMILES IDX 56 56 55 57 7 58 8 59 9 60 10 61 11 62 12 64 13 65 14 66
REMARK SMILES IDX 17 67 15 68 16 69 18 70 19 71 20 72 21 73 29 74 22 75 28 76
REMARK SMILES IDX 30 77 23 78 27 79 24 80 26 81 25 82
REMARK H PARENT 3 7 72 25 50 36 10 63
REMARK Flexibility Score: inf
ROOT
ATOM      1  C   UNL A   1      31.400  30.810  26.170  1.00  0.00     0.002 C 
ENDROOT
BRANCH   1   2
ATOM      2  C   UNL A   1      31.327  32.286  26.563  1.00  0.00     0.021 C 
BRANCH   2   3
ATOM      3  C   UNL A   1      32.618  32.850  27.143  1.00  0.00     0.116 C 
BRANCH   3   4
ATOM      4  N   UNL A   1      32.424  34.156  27.754  1.00  0.00    -0.352 N 
ATOM      5  O   UNL A   1      32.708  35.778  29.298  1.00  0.00    -0.269 OA
ATOM      6  C   UNL A   1      33.117  34.742  28.784  1.00  0.00     0.251 C 
ATOM      7  H   UNL A   1      31.693  34.695  27.374  1.00  0.00     0.163 HD
BRANCH   6   8
ATOM      8  C   UNL A   1      34.354  34.107  29.288  1.00  0.00     0.039 A 
ATOM      9  C   UNL A   1      35.586  34.380  28.689  1.00  0.00     0.014 A 
ATOM     10  C   UNL A   1      34.279  33.240  30.381  1.00  0.00     0.014 A 
ATOM     11  C   UNL A   1      36.719  33.685  29.096  1.00  0.00     0.010 A 
ATOM     12  C   UNL A   1      35.436  32.608  30.845  1.00  0.00     0.010 A 
ATOM     13  C   UNL A   1      36.660  32.807  30.191  1.00  0.00    -0.014 A 
BRANCH  13  14
ATOM     14  C   UNL A   1      37.911  32.173  30.679  1.00  0.00     0.031 A 
ATOM     15  C   UNL A   1      38.672  32.741  31.843  1.00  0.00     0.074 A 
ATOM     16  C   UNL A   1      38.345  31.056  30.066  1.00  0.00     0.049 A 
ATOM     17  N   UNL A   1      39.767  32.291  32.405  1.00  0.00    -0.248 NA
ATOM     18  C   UNL A   1      38.144  33.969  32.455  1.00  0.00     0.031 C 
ATOM     19  C   UNL A   1      37.694  30.417  28.919  1.00  0.00     0.029 A 
ATOM     20  N   UNL A   1      39.423  30.251  30.327  1.00  0.00    -0.354 N 
ATOM     21  C   UNL A   1      40.070  33.190  33.420  1.00  0.00     0.074 A 
ATOM     22  C   UNL A   1      39.057  34.223  33.385  1.00  0.00     0.031 C 
ATOM     23  C   UNL A   1      38.358  29.294  28.606  1.00  0.00     0.029 A 
ATOM     24  C   UNL A   1      39.515  29.171  29.484  1.00  0.00     0.049 A 
ATOM     25  H   UNL A   1      40.069  30.430  31.048  1.00  0.00     0.167 HD
ATOM     26  C   UNL A   1      41.099  33.154  34.302  1.00  0.00     0.031 A 
ATOM     27  C   UNL A   1      40.438  28.195  29.408  1.00  0.00     0.031 A 
ATOM     28  C   UNL A   1      42.109  32.126  34.331  1.00  0.00     0.049 A 
ATOM     29  C   UNL A   1      41.586  28.203  30.374  1.00  0.00     0.074 A 
ATOM     30  C   UNL A   1      43.170  31.985  35.208  1.00  0.00     0.029 A 
ATOM     31  N   UNL A   1      42.188  31.071  33.435  1.00  0.00    -0.354 N 
ATOM     32  N   UNL A   1      41.833  29.035  31.355  1.00  0.00    -0.248 NA
ATOM     33  C   UNL A   1      42.581  27.133  30.221  1.00  0.00     0.031 C 
ATOM     34  C   UNL A   1      43.924  30.875  34.809  1.00  0.00     0.029 A 
ATOM     35  C   UNL A   1      43.298  30.291  33.720  1.00  0.00     0.049 A 
ATOM     36  H   UNL A   1      41.551  30.900  32.704  1.00  0.00     0.167 HD
ATOM     37  C   UNL A   1      43.003  28.583  31.948  1.00  0.00     0.074 A 
ATOM     38  C   UNL A   1      43.402  27.389  31.230  1.00  0.00     0.031 C 
ATOM     39  C   UNL A   1      43.686  29.111  32.991  1.00  0.00     0.031 A 
BRANCH  26  40
ATOM     40  C   UNL A   1      41.203  34.277  35.297  1.00  0.00    -0.014 A 
ATOM     41  C   UNL A   1      41.924  35.446  35.009  1.00  0.00     0.009 A 
ATOM     42  C   UNL A   1      40.526  34.183  36.524  1.00  0.00     0.009 A 
ATOM     43  C   UNL A   1      41.990  36.484  35.941  1.00  0.00     0.001 A 
ATOM     44  C   UNL A   1      40.573  35.234  37.443  1.00  0.00     0.001 A 
ATOM     45  C   UNL A   1      41.311  36.380  37.155  1.00  0.00     0.000 A 
ENDBRANCH  26  40
BRANCH  27  46
ATOM     46  C   UNL A   1      40.317  27.144  28.365  1.00  0.00    -0.014 A 
ATOM     47  C   UNL A   1      40.905  27.317  27.104  1.00  0.00     0.009 A 
ATOM     48  C   UNL A   1      39.624  25.954  28.636  1.00  0.00     0.009 A 
ATOM     49  C   UNL A   1      40.784  26.325  26.128  1.00  0.00     0.001 A 
ATOM     50  C   UNL A   1      39.531  24.953  27.670  1.00  0.00     0.001 A 
ATOM     51  C   UNL A   1      40.102  25.142  26.413  1.00  0.00     0.000 A 
ENDBRANCH  27  46
BRANCH  39  52
ATOM     52  C   UNL A   1      44.922  28.380  33.434  1.00  0.00    -0.014 A 
ATOM     53  C   UNL A   1      46.184  28.700  32.910  1.00  0.00     0.009 A 
ATOM     54  C   UNL A   1      44.822  27.373  34.406  1.00  0.00     0.009 A 
ATOM     55  C   UNL A   1      47.318  27.999  33.325  1.00  0.00     0.001 A 
ATOM     56  C   UNL A   1      45.962  26.695  34.841  1.00  0.00     0.001 A 
ATOM     57  C   UNL A   1      47.206  27.001  34.293  1.00  0.00     0.000 A 
ENDBRANCH  39  52
ENDBRANCH  13  14
ENDBRANCH   6   8
ENDBRANCH   3   4
ENDBRANCH   2   3
ENDBRANCH   1   2
BRANCH   1  58
ATOM     58  C   UNL A   1      32.617  30.051  26.712  1.00  0.00     0.002 C 
BRANCH  58  59
ATOM     59  C   UNL A   1      32.320  28.660  27.289  1.00  0.00     0.021 C 
BRANCH  59  60
ATOM     60  C   UNL A   1      31.211  27.904  26.559  1.00  0.00     0.116 C 
BRANCH  60  61
ATOM     61  N   UNL A   1      31.143  26.519  26.984  1.00  0.00    -0.354 N 
ATOM     62  C   UNL A   1      31.657  25.401  26.384  1.00  0.00     0.243 C 
ATOM     63  H   UNL A   1      30.657  26.360  27.825  1.00  0.00     0.163 HD
ATOM     64  O   UNL A   1      31.420  24.306  26.897  1.00  0.00    -0.273 OA
BRANCH  62  65
ATOM     65  C   UNL A   1      32.609  25.576  25.186  1.00  0.00     0.185 C 
ATOM     66  C   UNL A   1      34.027  25.327  25.704  1.00  0.00     0.106 C 
ATOM     67  N   UNL A   1      32.295  24.691  24.063  1.00  0.00    -0.316 N 
ATOM     68  S   UNL A   1      34.808  24.105  24.632  1.00  0.00    -0.138 SA
ATOM     69  C   UNL A   1      33.438  24.028  23.477  1.00  0.00     0.190 C 
BRANCH  67  70
ATOM     70  C   UNL A   1      31.072  24.861  23.438  1.00  0.00     0.262 C 
ATOM     71  O   UNL A   1      30.324  23.901  23.226  1.00  0.00    -0.269 OA
BRANCH  70  72
ATOM     72  C   UNL A   1      30.599  26.229  23.118  1.00  0.00     0.124 A 
ATOM     73  C   UNL A   1      31.420  27.008  22.403  1.00  0.00     0.133 A 
ATOM     74  C   UNL A   1      29.329  26.825  23.579  1.00  0.00     0.270 A 
ATOM     75  N   UNL A   1      31.145  28.281  21.988  1.00  0.00    -0.237 NA
ATOM     76  N   UNL A   1      29.038  28.087  23.065  1.00  0.00    -0.267 N 
ATOM     77  O   UNL A   1      28.597  26.218  24.359  1.00  0.00    -0.268 OA
ATOM     78  C   UNL A   1      29.985  28.768  22.309  1.00  0.00     0.139 A 
ATOM     79  C   UNL A   1      27.801  28.662  23.341  1.00  0.00     0.096 A 
ATOM     80  C   UNL A   1      29.625  30.136  21.840  1.00  0.00     0.048 A 
ATOM     81  C   UNL A   1      27.472  29.878  22.892  1.00  0.00     0.019 A 
ATOM     82  C   UNL A   1      28.418  30.641  22.123  1.00  0.00     0.005 A 
ENDBRANCH  70  72
ENDBRANCH  67  70
ENDBRANCH  62  65
ENDBRANCH  60  61
ENDBRANCH  59  60
ENDBRANCH  58  59
ENDBRANCH   1  58
TORSDOF 15
ENDMDL
MODEL 2
REMARK VINA RESULT:     -11.3      3.696      8.795
REMARK SMILES O=C(NCCCCCCNC(=O)[C@H]1CSCN1C(=O)c1cnc2ccccn2c1=O)c1ccc(-c2c3nc(c(-c4ccccc4)c4ccc([nH]4)c(-c4ccccc4)c4nc(c(-c5ccccc5)c5ccc2[nH]5)C=C4)C=C3)cc1
REMARK SMILES IDX 6 1 5 2 4 3 3 4 1 5 2 6 31 8 32 9 78 10 33 11 77 12 34 13
REMARK SMILES IDX 35 14 36 15 71 16 37 17 76 18 70 19 72 20 38 21 75 22 69 23
REMARK SMILES IDX 68 24 39 26 61 27 46 28 60 29 47 30 50 31 59 32 73 33 48 34
REMARK SMILES IDX 49 35 58 37 74 38 51 39 40 40 41 41 45 42 42 43 44 44 43 45
REMARK SMILES IDX 62 46 63 47 67 48 64 49 66 50 65 51 52 52 53 53 57 54 54 55
REMARK SMILES IDX 56 56 55 57 7 58 8 59 9 60 10 61 11 62 12 64 13 65 14 66
REMARK SMILES IDX 17 67 15 68 16 69 18 70 19 71 20 72 21 73 29 74 22 75 28 76
REMARK SMILES IDX 30 77 23 78 27 79 24 80 26 81 25 82
REMARK H PARENT 3 7 72 25 50 36 10 63
REMARK Flexibility Score: inf
ROOT
ATOM      1  C   UNL A   1      36.596  20.579  24.753  1.00  0.00     0.002 C 
ENDROOT
BRANCH   1   2
ATOM      2  C   UNL A   1      37.790  19.638  24.910  1.00  0.00     0.021 C 
BRANCH   2   3
ATOM      3  C   UNL A   1      38.942  20.209  25.727  1.00  0.00     0.116 C 
BRANCH   3   4
ATOM      4  N   UNL A   1      40.092  19.320  25.756  1.00  0.00    -0.352 N 
ATOM      5  O   UNL A   1      42.281  18.772  25.851  1.00  0.00    -0.269 OA
ATOM      6  C   UNL A   1      41.402  19.606  26.048  1.00  0.00     0.251 C 
ATOM      7  H   UNL A   1      39.904  18.378  25.535  1.00  0.00     0.163 HD
BRANCH   6   8
ATOM      8  C   UNL A   1      41.757  20.937  26.587  1.00  0.00     0.039 A 
ATOM      9  C   UNL A   1      41.706  21.184  27.960  1.00  0.00     0.014 A 
ATOM     10  C   UNL A   1      42.158  21.945  25.705  1.00  0.00     0.014 A 
ATOM     11  C   UNL A   1      41.926  22.471  28.439  1.00  0.00     0.010 A 
ATOM     12  C   UNL A   1      42.462  23.217  26.198  1.00  0.00     0.010 A 
ATOM     13  C   UNL A   1      42.325  23.495  27.566  1.00  0.00    -0.014 A 
BRANCH  13  14
ATOM     14  C   UNL A   1      42.671  24.828  28.122  1.00  0.00     0.031 A 
ATOM     15  C   UNL A   1      44.087  25.185  28.472  1.00  0.00     0.074 A 
ATOM     16  C   UNL A   1      41.684  25.728  28.291  1.00  0.00     0.049 A 
ATOM     17  N   UNL A   1      44.555  26.314  28.945  1.00  0.00    -0.248 NA
ATOM     18  C   UNL A   1      45.110  24.148  28.272  1.00  0.00     0.031 C 
ATOM     19  C   UNL A   1      40.267  25.491  27.995  1.00  0.00     0.029 A 
ATOM     20  N   UNL A   1      41.718  27.023  28.736  1.00  0.00    -0.354 N 
ATOM     21  C   UNL A   1      45.920  26.118  29.117  1.00  0.00     0.074 A 
ATOM     22  C   UNL A   1      46.202  24.755  28.719  1.00  0.00     0.031 C 
ATOM     23  C   UNL A   1      39.577  26.618  28.221  1.00  0.00     0.029 A 
ATOM     24  C   UNL A   1      40.486  27.632  28.740  1.00  0.00     0.049 A 
ATOM     25  H   UNL A   1      42.544  27.474  29.026  1.00  0.00     0.167 HD
ATOM     26  C   UNL A   1      46.851  26.996  29.564  1.00  0.00     0.031 A 
ATOM     27  C   UNL A   1      40.121  28.865  29.134  1.00  0.00     0.031 A 
ATOM     28  C   UNL A   1      46.564  28.350  29.964  1.00  0.00     0.049 A 
ATOM     29  C   UNL A   1      41.167  29.802  29.660  1.00  0.00     0.074 A 
ATOM     30  C   UNL A   1      47.446  29.325  30.397  1.00  0.00     0.029 A 
ATOM     31  N   UNL A   1      45.299  28.916  29.989  1.00  0.00    -0.354 N 
ATOM     32  N   UNL A   1      42.459  29.614  29.774  1.00  0.00    -0.248 NA
ATOM     33  C   UNL A   1      40.704  31.122  30.108  1.00  0.00     0.031 C 
ATOM     34  C   UNL A   1      46.707  30.464  30.738  1.00  0.00     0.029 A 
ATOM     35  C   UNL A   1      45.372  30.218  30.459  1.00  0.00     0.049 A 
ATOM     36  H   UNL A   1      44.470  28.461  29.714  1.00  0.00     0.167 HD
ATOM     37  C   UNL A   1      42.967  30.797  30.294  1.00  0.00     0.074 A 
ATOM     38  C   UNL A   1      41.846  31.702  30.448  1.00  0.00     0.031 C 
ATOM     39  C   UNL A   1      44.247  31.103  30.615  1.00  0.00     0.031 A 
BRANCH  26  40
ATOM     40  C   UNL A   1      48.270  26.510  29.672  1.00  0.00    -0.014 A 
ATOM     41  C   UNL A   1      48.739  25.872  30.831  1.00  0.00     0.009 A 
ATOM     42  C   UNL A   1      49.138  26.650  28.577  1.00  0.00     0.009 A 
ATOM     43  C   UNL A   1      50.057  25.412  30.901  1.00  0.00     0.001 A 
ATOM     44  C   UNL A   1      50.446  26.165  28.641  1.00  0.00     0.001 A 
ATOM     45  C   UNL A   1      50.908  25.555  29.806  1.00  0.00     0.000 A 
ENDBRANCH  26  40
BRANCH  27  46
ATOM     46  C   UNL A   1      38.693  29.270  29.060  1.00  0.00    -0.014 A 
ATOM     47  C   UNL A   1      38.159  29.795  27.875  1.00  0.00     0.009 A 
ATOM     48  C   UNL A   1      37.854  29.114  30.175  1.00  0.00     0.009 A 
ATOM     49  C   UNL A   1      36.816  30.175  27.815  1.00  0.00     0.001 A 
ATOM     50  C   UNL A   1      36.507  29.467  30.102  1.00  0.00     0.001 A 
ATOM     51  C   UNL A   1      35.990  30.005  28.926  1.00  0.00     0.000 A 
ENDBRANCH  27  46
BRANCH  39  52
ATOM     52  C   UNL A   1      44.503  32.487  31.141  1.00  0.00    -0.014 A 
ATOM     53  C   UNL A   1      44.505  32.754  32.519  1.00  0.00     0.009 A 
ATOM     54  C   UNL A   1      44.767  33.533  30.244  1.00  0.00     0.009 A 
ATOM     55  C   UNL A   1      44.731  34.051  32.986  1.00  0.00     0.001 A 
ATOM     56  C   UNL A   1      45.022  34.821  30.714  1.00  0.00     0.001 A 
ATOM     57  C   UNL A   1      44.994  35.081  32.083  1.00  0.00     0.000 A 
ENDBRANCH  39  52
ENDBRANCH  13  14
ENDBRANCH   6   8
ENDBRANCH   3   4
ENDBRANCH   2   3
ENDBRANCH   1   2
BRANCH   1  58
ATOM     58  C   UNL A   1      36.942  21.999  24.290  1.00  0.00     0.002 C 
BRANCH  58  59
ATOM     59  C   UNL A   1      36.282  23.131  25.090  1.00  0.00     0.021 C 
BRANCH  59  60
ATOM     60  C   UNL A   1      34.789  23.306  24.812  1.00  0.00     0.116 C 
BRANCH  60  61
ATOM     61  N   UNL A   1      34.540  23.587  23.411  1.00  0.00    -0.354 N 
ATOM     62  C   UNL A   1      33.579  23.076  22.581  1.00  0.00     0.243 C 
ATOM     63  H   UNL A   1      35.149  24.241  22.998  1.00  0.00     0.163 HD
ATOM     64  O   UNL A   1      33.596  23.415  21.396  1.00  0.00    -0.273 OA
BRANCH  62  65
ATOM     65  C   UNL A   1      32.457  22.215  23.190  1.00  0.00     0.185 C 
ATOM     66  C   UNL A   1      33.101  20.906  23.651  1.00  0.00     0.106 C 
ATOM     67  N   UNL A   1      31.755  22.874  24.292  1.00  0.00    -0.316 N 
ATOM     68  S   UNL A   1      32.631  20.626  25.369  1.00  0.00    -0.138 SA
ATOM     69  C   UNL A   1      31.532  22.041  25.452  1.00  0.00     0.190 C 
BRANCH  67  70
ATOM     70  C   UNL A   1      31.053  24.031  24.003  1.00  0.00     0.262 C 
ATOM     71  O   UNL A   1      30.162  24.041  23.149  1.00  0.00    -0.269 OA
BRANCH  70  72
ATOM     72  C   UNL A   1      31.294  25.253  24.808  1.00  0.00     0.124 A 
ATOM     73  C   UNL A   1      30.513  25.441  25.880  1.00  0.00     0.133 A 
ATOM     74  C   UNL A   1      32.273  26.311  24.489  1.00  0.00     0.270 A 
ATOM     75  N   UNL A   1      30.606  26.487  26.756  1.00  0.00    -0.237 NA
ATOM     76  N   UNL A   1      32.405  27.314  25.446  1.00  0.00    -0.267 N 
ATOM     77  O   UNL A   1      32.917  26.274  23.442  1.00  0.00    -0.268 OA
ATOM     78  C   UNL A   1      31.536  27.364  26.530  1.00  0.00     0.139 A 
ATOM     79  C   UNL A   1      33.401  28.274  25.288  1.00  0.00     0.096 A 
ATOM     80  C   UNL A   1      31.702  28.497  27.482  1.00  0.00     0.048 A 
ATOM     81  C   UNL A   1      33.565  29.272  26.164  1.00  0.00     0.019 A 
ATOM     82  C   UNL A   1      32.681  29.389  27.293  1.00  0.00     0.005 A 
ENDBRANCH  70  72
ENDBRANCH  67  70
ENDBRANCH  62  65
ENDBRANCH  60  61
ENDBRANCH  59  60
ENDBRANCH  58  59
ENDBRANCH   1  58
TORSDOF 15
ENDMDL
MODEL 3
REMARK VINA RESULT:     -11.3      0.337      5.820
REMARK SMILES O=C(NCCCCCCNC(=O)[C@H]1CSCN1C(=O)c1cnc2ccccn2c1=O)c1ccc(-c2c3nc(c(-c4ccccc4)c4ccc([nH]4)c(-c4ccccc4)c4nc(c(-c5ccccc5)c5ccc2[nH]5)C=C4)C=C3)cc1
REMARK SMILES IDX 6 1 5 2 4 3 3 4 1 5 2 6 31 8 32 9 78 10 33 11 77 12 34 13
REMARK SMILES IDX 35 14 36 15 71 16 37 17 76 18 70 19 72 20 38 21 75 22 69 23
REMARK SMILES IDX 68 24 39 26 61 27 46 28 60 29 47 30 50 31 59 32 73 33 48 34
REMARK SMILES IDX 49 35 58 37 74 38 51 39 40 40 41 41 45 42 42 43 44 44 43 45
REMARK SMILES IDX 62 46 63 47 67 48 64 49 66 50 65 51 52 52 53 53 57 54 54 55
REMARK SMILES IDX 56 56 55 57 7 58 8 59 9 60 10 61 11 62 12 64 13 65 14 66
REMARK SMILES IDX 17 67 15 68 16 69 18 70 19 71 20 72 21 73 29 74 22 75 28 76
REMARK SMILES IDX 30 77 23 78 27 79 24 80 26 81 25 82
REMARK H PARENT 3 7 72 25 50 36 10 63
REMARK Flexibility Score: inf
ROOT
ATOM      1  C   UNL A   1      31.421  30.813  26.148  1.00  0.00     0.002 C 
ENDROOT
BRANCH   1   2
ATOM      2  C   UNL A   1      31.339  32.276  26.582  1.00  0.00     0.021 C 
BRANCH   2   3
ATOM      3  C   UNL A   1      32.631  32.834  27.166  1.00  0.00     0.116 C 
BRANCH   3   4
ATOM      4  N   UNL A   1      32.445  34.147  27.764  1.00  0.00    -0.352 N 
ATOM      5  O   UNL A   1      32.751  35.789  29.283  1.00  0.00    -0.269 OA
ATOM      6  C   UNL A   1      33.153  34.748  28.774  1.00  0.00     0.251 C 
ATOM      7  H   UNL A   1      31.705  34.679  27.391  1.00  0.00     0.163 HD
BRANCH   6   8
ATOM      8  C   UNL A   1      34.401  34.123  29.264  1.00  0.00     0.039 A 
ATOM      9  C   UNL A   1      35.616  34.365  28.620  1.00  0.00     0.014 A 
ATOM     10  C   UNL A   1      34.354  33.297  30.390  1.00  0.00     0.014 A 
ATOM     11  C   UNL A   1      36.757  33.678  29.017  1.00  0.00     0.010 A 
ATOM     12  C   UNL A   1      35.521  32.674  30.841  1.00  0.00     0.010 A 
ATOM     13  C   UNL A   1      36.726  32.840  30.144  1.00  0.00    -0.014 A 
BRANCH  13  14
ATOM     14  C   UNL A   1      37.987  32.216  30.618  1.00  0.00     0.031 A 
ATOM     15  C   UNL A   1      38.513  30.952  29.999  1.00  0.00     0.074 A 
ATOM     16  C   UNL A   1      38.668  32.819  31.610  1.00  0.00     0.049 A 
ATOM     17  N   UNL A   1      39.610  30.295  30.284  1.00  0.00    -0.248 NA
ATOM     18  C   UNL A   1      37.709  30.343  28.930  1.00  0.00     0.031 C 
ATOM     19  C   UNL A   1      38.251  34.046  32.294  1.00  0.00     0.029 A 
ATOM     20  N   UNL A   1      39.860  32.496  32.205  1.00  0.00    -0.354 N 
ATOM     21  C   UNL A   1      39.619  29.187  29.446  1.00  0.00     0.074 A 
ATOM     22  C   UNL A   1      38.407  29.248  28.656  1.00  0.00     0.031 C 
ATOM     23  C   UNL A   1      39.194  34.397  33.181  1.00  0.00     0.029 A 
ATOM     24  C   UNL A   1      40.245  33.389  33.175  1.00  0.00     0.049 A 
ATOM     25  H   UNL A   1      40.388  31.702  31.961  1.00  0.00     0.167 HD
ATOM     26  C   UNL A   1      40.554  28.211  29.343  1.00  0.00     0.031 A 
ATOM     27  C   UNL A   1      41.318  33.390  33.988  1.00  0.00     0.031 A 
ATOM     28  C   UNL A   1      41.756  28.152  30.135  1.00  0.00     0.049 A 
ATOM     29  C   UNL A   1      42.316  32.276  33.877  1.00  0.00     0.074 A 
ATOM     30  C   UNL A   1      42.780  27.222  30.079  1.00  0.00     0.029 A 
ATOM     31  N   UNL A   1      42.091  29.054  31.133  1.00  0.00    -0.354 N 
ATOM     32  N   UNL A   1      42.330  31.261  33.049  1.00  0.00    -0.248 NA
ATOM     33  C   UNL A   1      43.447  32.311  34.813  1.00  0.00     0.031 C 
ATOM     34  C   UNL A   1      43.707  27.529  31.081  1.00  0.00     0.029 A 
ATOM     35  C   UNL A   1      43.290  28.685  31.722  1.00  0.00     0.049 A 
ATOM     36  H   UNL A   1      41.556  29.839  31.388  1.00  0.00     0.167 HD
ATOM     37  C   UNL A   1      43.478  30.543  33.352  1.00  0.00     0.074 A 
ATOM     38  C   UNL A   1      44.146  31.254  34.424  1.00  0.00     0.031 C 
ATOM     39  C   UNL A   1      43.937  29.397  32.793  1.00  0.00     0.031 A 
BRANCH  26  40
ATOM     40  C   UNL A   1      40.301  27.106  28.355  1.00  0.00    -0.014 A 
ATOM     41  C   UNL A   1      40.802  27.166  27.045  1.00  0.00     0.009 A 
ATOM     42  C   UNL A   1      39.591  25.963  28.757  1.00  0.00     0.009 A 
ATOM     43  C   UNL A   1      40.570  26.118  26.150  1.00  0.00     0.001 A 
ATOM     44  C   UNL A   1      39.384  24.906  27.868  1.00  0.00     0.001 A 
ATOM     45  C   UNL A   1      39.866  24.987  26.563  1.00  0.00     0.000 A 
ENDBRANCH  26  40
BRANCH  27  46
ATOM     46  C   UNL A   1      41.484  34.476  34.987  1.00  0.00    -0.014 A 
ATOM     47  C   UNL A   1      40.906  34.372  36.260  1.00  0.00     0.009 A 
ATOM     48  C   UNL A   1      42.240  35.617  34.675  1.00  0.00     0.009 A 
ATOM     49  C   UNL A   1      41.065  35.399  37.193  1.00  0.00     0.001 A 
ATOM     50  C   UNL A   1      42.423  36.627  35.619  1.00  0.00     0.001 A 
ATOM     51  C   UNL A   1      41.828  36.522  36.874  1.00  0.00     0.000 A 
ENDBRANCH  27  46
BRANCH  39  52
ATOM     52  C   UNL A   1      45.238  28.859  33.318  1.00  0.00    -0.014 A 
ATOM     53  C   UNL A   1      45.270  27.915  34.355  1.00  0.00     0.009 A 
ATOM     54  C   UNL A   1      46.447  29.288  32.748  1.00  0.00     0.009 A 
ATOM     55  C   UNL A   1      46.491  27.438  34.837  1.00  0.00     0.001 A 
ATOM     56  C   UNL A   1      47.664  28.787  33.211  1.00  0.00     0.001 A 
ATOM     57  C   UNL A   1      47.685  27.870  34.261  1.00  0.00     0.000 A 
ENDBRANCH  39  52
ENDBRANCH  13  14
ENDBRANCH   6   8
ENDBRANCH   3   4
ENDBRANCH   2   3
ENDBRANCH   1   2
BRANCH   1  58
ATOM     58  C   UNL A   1      32.673  30.062  26.617  1.00  0.00     0.002 C 
BRANCH  58  59
ATOM     59  C   UNL A   1      32.421  28.660  27.191  1.00  0.00     0.021 C 
BRANCH  59  60
ATOM     60  C   UNL A   1      31.246  27.923  26.550  1.00  0.00     0.116 C 
BRANCH  60  61
ATOM     61  N   UNL A   1      31.185  26.541  26.985  1.00  0.00    -0.354 N 
ATOM     62  C   UNL A   1      31.696  25.420  26.387  1.00  0.00     0.243 C 
ATOM     63  H   UNL A   1      30.708  26.386  27.832  1.00  0.00     0.163 HD
ATOM     64  O   UNL A   1      31.466  24.328  26.910  1.00  0.00    -0.273 OA
BRANCH  62  65
ATOM     65  C   UNL A   1      32.635  25.588  25.178  1.00  0.00     0.185 C 
ATOM     66  C   UNL A   1      34.060  25.352  25.685  1.00  0.00     0.106 C 
ATOM     67  N   UNL A   1      32.316  24.691  24.067  1.00  0.00    -0.316 N 
ATOM     68  S   UNL A   1      34.837  24.125  24.617  1.00  0.00    -0.138 SA
ATOM     69  C   UNL A   1      33.456  24.029  23.476  1.00  0.00     0.190 C 
BRANCH  67  70
ATOM     70  C   UNL A   1      31.086  24.849  23.451  1.00  0.00     0.262 C 
ATOM     71  O   UNL A   1      30.345  23.882  23.248  1.00  0.00    -0.269 OA
BRANCH  70  72
ATOM     72  C   UNL A   1      30.597  26.212  23.133  1.00  0.00     0.124 A 
ATOM     73  C   UNL A   1      31.401  26.993  22.401  1.00  0.00     0.133 A 
ATOM     74  C   UNL A   1      29.331  26.801  23.611  1.00  0.00     0.270 A 
ATOM     75  N   UNL A   1      31.110  28.263  21.984  1.00  0.00    -0.237 NA
ATOM     76  N   UNL A   1      29.022  28.058  23.097  1.00  0.00    -0.267 N 
ATOM     77  O   UNL A   1      28.616  26.192  24.406  1.00  0.00    -0.268 OA
ATOM     78  C   UNL A   1      29.952  28.742  22.321  1.00  0.00     0.139 A 
ATOM     79  C   UNL A   1      27.785  28.625  23.390  1.00  0.00     0.096 A 
ATOM     80  C   UNL A   1      29.574  30.105  21.853  1.00  0.00     0.048 A 
ATOM     81  C   UNL A   1      27.440  29.837  22.940  1.00  0.00     0.019 A 
ATOM     82  C   UNL A   1      28.368  30.603  22.152  1.00  0.00     0.005 A 
ENDBRANCH  70  72
ENDBRANCH  67  70
ENDBRANCH  62  65
ENDBRANCH  60  61
ENDBRANCH  59  60
ENDBRANCH  58  59
ENDBRANCH   1  58
TORSDOF 15
ENDMDL
