MODEL 1
REMARK VINA RESULT:      -9.2      0.000      0.000
REMARK SMILES CCNC(=O)C[NH2+][C@@H](C)[C@@H](C)C(=O)NCCCCCCNC(=O)c1ccc(-c2c3nc(c(-c4ccccc4)c4ccc([nH]4)c(-c4ccccc4)c4nc(c(-c5ccccc5)c5ccc2[nH]5)C=C4)C=C3)cc1
REMARK SMILES IDX 16 1 15 2 14 3 12 4 13 5 10 7 11 8 8 9 9 10 7 11 6 14 4 15
REMARK SMILES IDX 3 16 5 18 2 19 1 20 17 21 18 22 19 23 20 24 21 25 22 26
REMARK SMILES IDX 23 28 24 29 25 30 71 31 26 32 70 33 27 34 28 35 29 36 64 37
REMARK SMILES IDX 30 38 69 39 63 40 65 41 31 42 68 43 62 44 61 45 32 47 54 48
REMARK SMILES IDX 39 49 53 50 40 51 43 52 52 53 66 54 41 55 42 56 51 58 67 59
REMARK SMILES IDX 44 60 33 61 34 62 38 63 35 64 37 65 36 66 55 67 56 68 60 69
REMARK SMILES IDX 57 70 59 71 58 72 45 73 46 74 50 75 47 76 49 77 48 78
REMARK H PARENT 14 6 7 12 7 13 3 17 21 27 65 46 43 57
REMARK Flexibility Score: inf
ROOT
ATOM      1  C   UNL A   1      39.307  21.281  25.872  1.00  0.00     0.021 C 
ENDROOT
BRANCH   1   2
ATOM      2  C   UNL A   1      37.991  22.054  25.795  1.00  0.00     0.116 C 
BRANCH   2   3
ATOM      3  N   UNL A   1      37.712  22.480  24.438  1.00  0.00    -0.356 N 
ATOM      4  C   UNL A   1      36.564  22.900  23.843  1.00  0.00     0.228 C 
ATOM      5  O   UNL A   1      36.612  23.141  22.633  1.00  0.00    -0.275 OA
ATOM      6  H   UNL A   1      38.493  22.460  23.840  1.00  0.00     0.163 HD
BRANCH   4   7
ATOM      7  C   UNL A   1      35.263  23.095  24.617  1.00  0.00     0.133 C 
ATOM      8  C   UNL A   1      34.327  21.910  24.352  1.00  0.00     0.024 C 
BRANCH   7   9
ATOM      9  C   UNL A   1      34.644  24.502  24.413  1.00  0.00     0.191 C 
ATOM     10  C   UNL A   1      33.738  24.867  25.599  1.00  0.00     0.076 C 
BRANCH   9  11
ATOM     11  N   UNL A   1      33.905  24.554  23.140  1.00  0.00    -0.336 N 
ATOM     12  H   UNL A   1      34.364  23.937  22.469  1.00  0.00     0.346 HD
ATOM     13  H   UNL A   1      32.947  24.260  23.327  1.00  0.00     0.346 HD
BRANCH  11  14
ATOM     14  C   UNL A   1      33.850  25.911  22.569  1.00  0.00     0.362 C 
BRANCH  14  15
ATOM     15  C   UNL A   1      32.828  25.968  21.432  1.00  0.00     0.275 C 
ATOM     16  N   UNL A   1      31.625  26.584  21.634  1.00  0.00    -0.351 N 
ATOM     17  H   UNL A   1      30.975  26.504  20.899  1.00  0.00     0.163 HD
ATOM     18  O   UNL A   1      33.056  25.449  20.337  1.00  0.00    -0.269 OA
BRANCH  16  19
ATOM     19  C   UNL A   1      31.180  27.338  22.789  1.00  0.00     0.112 C 
ATOM     20  C   UNL A   1      30.252  28.465  22.372  1.00  0.00     0.027 C 
ENDBRANCH  16  19
ENDBRANCH  14  15
ENDBRANCH  11  14
ENDBRANCH   9  11
ENDBRANCH   7   9
ENDBRANCH   4   7
ENDBRANCH   2   3
ENDBRANCH   1   2
BRANCH   1  21
ATOM     21  C   UNL A   1      40.499  22.121  26.346  1.00  0.00     0.002 C 
BRANCH  21  22
ATOM     22  C   UNL A   1      41.821  21.356  26.476  1.00  0.00     0.002 C 
BRANCH  22  23
ATOM     23  C   UNL A   1      41.816  19.949  25.874  1.00  0.00     0.021 C 
BRANCH  23  24
ATOM     24  C   UNL A   1      43.016  19.092  26.260  1.00  0.00     0.116 C 
BRANCH  24  25
ATOM     25  N   UNL A   1      43.824  18.735  25.105  1.00  0.00    -0.352 N 
ATOM     26  C   UNL A   1      44.586  19.540  24.298  1.00  0.00     0.251 C 
ATOM     27  H   UNL A   1      43.826  17.779  24.869  1.00  0.00     0.163 HD
ATOM     28  O   UNL A   1      45.043  19.107  23.243  1.00  0.00    -0.269 OA
BRANCH  26  29
ATOM     29  C   UNL A   1      44.839  20.942  24.689  1.00  0.00     0.039 A 
ATOM     30  C   UNL A   1      44.417  21.969  23.842  1.00  0.00     0.014 A 
ATOM     31  C   UNL A   1      45.494  21.241  25.887  1.00  0.00     0.014 A 
ATOM     32  C   UNL A   1      44.598  23.300  24.226  1.00  0.00     0.010 A 
ATOM     33  C   UNL A   1      45.608  22.565  26.301  1.00  0.00     0.010 A 
ATOM     34  C   UNL A   1      45.164  23.608  25.473  1.00  0.00    -0.014 A 
BRANCH  34  35
ATOM     35  C   UNL A   1      45.298  25.014  25.933  1.00  0.00     0.031 A 
ATOM     36  C   UNL A   1      46.638  25.699  25.888  1.00  0.00     0.074 A 
ATOM     37  C   UNL A   1      44.233  25.649  26.460  1.00  0.00     0.049 A 
ATOM     38  N   UNL A   1      46.969  26.891  26.319  1.00  0.00    -0.248 NA
ATOM     39  C   UNL A   1      47.758  24.940  25.306  1.00  0.00     0.031 C 
ATOM     40  C   UNL A   1      42.888  25.082  26.598  1.00  0.00     0.029 A 
ATOM     41  N   UNL A   1      44.114  26.909  26.992  1.00  0.00    -0.354 N 
ATOM     42  C   UNL A   1      48.333  27.011  26.084  1.00  0.00     0.074 A 
ATOM     43  C   UNL A   1      48.778  25.761  25.508  1.00  0.00     0.031 C 
ATOM     44  C   UNL A   1      42.080  25.996  27.160  1.00  0.00     0.029 A 
ATOM     45  C   UNL A   1      42.854  27.195  27.462  1.00  0.00     0.049 A 
ATOM     46  H   UNL A   1      44.862  27.548  27.034  1.00  0.00     0.167 HD
ATOM     47  C   UNL A   1      49.140  28.072  26.317  1.00  0.00     0.031 A 
ATOM     48  C   UNL A   1      42.381  28.292  28.085  1.00  0.00     0.031 A 
ATOM     49  C   UNL A   1      48.693  29.325  26.863  1.00  0.00     0.049 A 
ATOM     50  C   UNL A   1      43.306  29.452  28.334  1.00  0.00     0.074 A 
ATOM     51  C   UNL A   1      49.422  30.487  27.057  1.00  0.00     0.029 A 
ATOM     52  N   UNL A   1      47.405  29.580  27.304  1.00  0.00    -0.354 N 
ATOM     53  N   UNL A   1      44.572  29.581  28.023  1.00  0.00    -0.248 NA
ATOM     54  C   UNL A   1      42.732  30.623  29.013  1.00  0.00     0.031 C 
ATOM     55  C   UNL A   1      48.591  31.425  27.675  1.00  0.00     0.029 A 
ATOM     56  C   UNL A   1      47.328  30.869  27.803  1.00  0.00     0.049 A 
ATOM     57  H   UNL A   1      46.658  28.941  27.269  1.00  0.00     0.167 HD
ATOM     58  C   UNL A   1      44.935  30.857  28.433  1.00  0.00     0.074 A 
ATOM     59  C   UNL A   1      43.752  31.469  29.000  1.00  0.00     0.031 C 
ATOM     60  C   UNL A   1      46.140  31.469  28.351  1.00  0.00     0.031 A 
BRANCH  47  61
ATOM     61  C   UNL A   1      50.602  27.934  25.993  1.00  0.00    -0.014 A 
ATOM     62  C   UNL A   1      51.517  27.453  26.941  1.00  0.00     0.009 A 
ATOM     63  C   UNL A   1      51.052  28.207  24.692  1.00  0.00     0.009 A 
ATOM     64  C   UNL A   1      52.858  27.265  26.597  1.00  0.00     0.001 A 
ATOM     65  C   UNL A   1      52.386  27.994  24.343  1.00  0.00     0.001 A 
ATOM     66  C   UNL A   1      53.289  27.528  25.296  1.00  0.00     0.000 A 
ENDBRANCH  47  61
BRANCH  48  67
ATOM     67  C   UNL A   1      40.963  28.354  28.534  1.00  0.00    -0.014 A 
ATOM     68  C   UNL A   1      40.575  27.791  29.761  1.00  0.00     0.009 A 
ATOM     69  C   UNL A   1      39.980  28.930  27.714  1.00  0.00     0.009 A 
ATOM     70  C   UNL A   1      39.229  27.762  30.132  1.00  0.00     0.001 A 
ATOM     71  C   UNL A   1      38.639  28.929  28.105  1.00  0.00     0.001 A 
ATOM     72  C   UNL A   1      38.262  28.332  29.305  1.00  0.00     0.000 A 
ENDBRANCH  48  67
BRANCH  60  73
ATOM     73  C   UNL A   1      46.232  32.888  28.836  1.00  0.00    -0.014 A 
ATOM     74  C   UNL A   1      45.957  33.972  27.989  1.00  0.00     0.009 A 
ATOM     75  C   UNL A   1      46.551  33.139  30.180  1.00  0.00     0.009 A 
ATOM     76  C   UNL A   1      46.034  35.280  28.470  1.00  0.00     0.001 A 
ATOM     77  C   UNL A   1      46.595  34.446  30.667  1.00  0.00     0.001 A 
ATOM     78  C   UNL A   1      46.345  35.515  29.810  1.00  0.00     0.000 A 
ENDBRANCH  60  73
ENDBRANCH  34  35
ENDBRANCH  26  29
ENDBRANCH  24  25
ENDBRANCH  23  24
ENDBRANCH  22  23
ENDBRANCH  21  22
ENDBRANCH   1  21
TORSDOF 18
ENDMDL
MODEL 2
REMARK VINA RESULT:      -9.2      5.789     10.425
REMARK SMILES CCNC(=O)C[NH2+][C@@H](C)[C@@H](C)C(=O)NCCCCCCNC(=O)c1ccc(-c2c3nc(c(-c4ccccc4)c4ccc([nH]4)c(-c4ccccc4)c4nc(c(-c5ccccc5)c5ccc2[nH]5)C=C4)C=C3)cc1
REMARK SMILES IDX 16 1 15 2 14 3 12 4 13 5 10 7 11 8 8 9 9 10 7 11 6 14 4 15
REMARK SMILES IDX 3 16 5 18 2 19 1 20 17 21 18 22 19 23 20 24 21 25 22 26
REMARK SMILES IDX 23 28 24 29 25 30 71 31 26 32 70 33 27 34 28 35 29 36 64 37
REMARK SMILES IDX 30 38 69 39 63 40 65 41 31 42 68 43 62 44 61 45 32 47 54 48
REMARK SMILES IDX 39 49 53 50 40 51 43 52 52 53 66 54 41 55 42 56 51 58 67 59
REMARK SMILES IDX 44 60 33 61 34 62 38 63 35 64 37 65 36 66 55 67 56 68 60 69
REMARK SMILES IDX 57 70 59 71 58 72 45 73 46 74 50 75 47 76 49 77 48 78
REMARK H PARENT 14 6 7 12 7 13 3 17 21 27 65 46 43 57
REMARK Flexibility Score: inf
ROOT
ATOM      1  C   UNL A   1      31.570  28.215  27.375  1.00  0.00     0.021 C 
ENDROOT
BRANCH   1   2
ATOM      2  C   UNL A   1      31.372  27.153  26.295  1.00  0.00     0.116 C 
BRANCH   2   3
ATOM      3  N   UNL A   1      32.412  26.144  26.355  1.00  0.00    -0.356 N 
ATOM      4  C   UNL A   1      32.400  24.819  26.056  1.00  0.00     0.228 C 
ATOM      5  O   UNL A   1      33.437  24.183  26.269  1.00  0.00    -0.275 OA
ATOM      6  H   UNL A   1      33.282  26.480  26.669  1.00  0.00     0.163 HD
BRANCH   4   7
ATOM      7  C   UNL A   1      31.179  24.123  25.461  1.00  0.00     0.133 C 
ATOM      8  C   UNL A   1      30.661  23.067  26.445  1.00  0.00     0.024 C 
BRANCH   7   9
ATOM      9  C   UNL A   1      31.410  23.634  24.008  1.00  0.00     0.191 C 
ATOM     10  C   UNL A   1      31.939  22.191  24.004  1.00  0.00     0.076 C 
BRANCH   9  11
ATOM     11  N   UNL A   1      32.331  24.543  23.304  1.00  0.00    -0.336 N 
ATOM     12  H   UNL A   1      32.905  25.027  23.995  1.00  0.00     0.346 HD
ATOM     13  H   UNL A   1      32.897  23.979  22.671  1.00  0.00     0.346 HD
BRANCH  11  14
ATOM     14  C   UNL A   1      31.626  25.550  22.492  1.00  0.00     0.362 C 
BRANCH  14  15
ATOM     15  C   UNL A   1      32.605  26.618  22.002  1.00  0.00     0.275 C 
ATOM     16  N   UNL A   1      32.311  27.940  22.183  1.00  0.00    -0.351 N 
ATOM     17  H   UNL A   1      32.931  28.578  21.761  1.00  0.00     0.163 HD
ATOM     18  O   UNL A   1      33.651  26.314  21.423  1.00  0.00    -0.269 OA
BRANCH  16  19
ATOM     19  C   UNL A   1      31.203  28.526  22.911  1.00  0.00     0.112 C 
ATOM     20  C   UNL A   1      30.364  29.404  22.000  1.00  0.00     0.027 C 
ENDBRANCH  16  19
ENDBRANCH  14  15
ENDBRANCH  11  14
ENDBRANCH   9  11
ENDBRANCH   7   9
ENDBRANCH   4   7
ENDBRANCH   2   3
ENDBRANCH   1   2
BRANCH   1  21
ATOM     21  C   UNL A   1      32.390  29.428  26.916  1.00  0.00     0.002 C 
BRANCH  21  22
ATOM     22  C   UNL A   1      31.658  30.384  25.968  1.00  0.00     0.002 C 
BRANCH  22  23
ATOM     23  C   UNL A   1      31.411  31.786  26.527  1.00  0.00     0.021 C 
BRANCH  23  24
ATOM     24  C   UNL A   1      32.610  32.407  27.234  1.00  0.00     0.116 C 
BRANCH  24  25
ATOM     25  N   UNL A   1      32.371  33.794  27.599  1.00  0.00    -0.352 N 
ATOM     26  C   UNL A   1      33.035  34.578  28.506  1.00  0.00     0.251 C 
ATOM     27  H   UNL A   1      31.627  34.233  27.127  1.00  0.00     0.163 HD
ATOM     28  O   UNL A   1      32.574  35.668  28.840  1.00  0.00    -0.269 OA
BRANCH  26  29
ATOM     29  C   UNL A   1      34.300  34.101  29.102  1.00  0.00     0.039 A 
ATOM     30  C   UNL A   1      34.254  33.333  30.267  1.00  0.00     0.014 A 
ATOM     31  C   UNL A   1      35.529  34.414  28.513  1.00  0.00     0.014 A 
ATOM     32  C   UNL A   1      35.437  32.827  30.809  1.00  0.00     0.010 A 
ATOM     33  C   UNL A   1      36.699  33.850  29.012  1.00  0.00     0.010 A 
ATOM     34  C   UNL A   1      36.666  33.053  30.167  1.00  0.00    -0.014 A 
BRANCH  34  35
ATOM     35  C   UNL A   1      37.927  32.463  30.684  1.00  0.00     0.031 A 
ATOM     36  C   UNL A   1      38.490  31.216  30.058  1.00  0.00     0.074 A 
ATOM     37  C   UNL A   1      38.524  33.005  31.764  1.00  0.00     0.049 A 
ATOM     38  N   UNL A   1      39.531  30.509  30.420  1.00  0.00    -0.248 NA
ATOM     39  C   UNL A   1      37.777  30.675  28.887  1.00  0.00     0.031 C 
ATOM     40  C   UNL A   1      38.058  34.191  32.488  1.00  0.00     0.029 A 
ATOM     41  N   UNL A   1      39.650  32.622  32.451  1.00  0.00    -0.354 N 
ATOM     42  C   UNL A   1      39.581  29.433  29.541  1.00  0.00     0.074 A 
ATOM     43  C   UNL A   1      38.448  29.557  28.652  1.00  0.00     0.031 C 
ATOM     44  C   UNL A   1      38.899  34.446  33.505  1.00  0.00     0.029 A 
ATOM     45  C   UNL A   1      39.936  33.421  33.532  1.00  0.00     0.049 A 
ATOM     46  H   UNL A   1      40.200  31.847  32.193  1.00  0.00     0.167 HD
ATOM     47  C   UNL A   1      40.497  28.439  29.475  1.00  0.00     0.031 A 
ATOM     48  C   UNL A   1      40.914  33.327  34.455  1.00  0.00     0.031 A 
ATOM     49  C   UNL A   1      41.640  28.332  30.340  1.00  0.00     0.049 A 
ATOM     50  C   UNL A   1      41.912  32.205  34.355  1.00  0.00     0.074 A 
ATOM     51  C   UNL A   1      42.668  27.405  30.294  1.00  0.00     0.029 A 
ATOM     52  N   UNL A   1      41.906  29.174  31.407  1.00  0.00    -0.354 N 
ATOM     53  N   UNL A   1      41.996  31.250  33.463  1.00  0.00    -0.248 NA
ATOM     54  C   UNL A   1      42.959  32.157  35.387  1.00  0.00     0.031 C 
ATOM     55  C   UNL A   1      43.522  27.648  31.373  1.00  0.00     0.029 A 
ATOM     56  C   UNL A   1      43.062  28.766  32.049  1.00  0.00     0.049 A 
ATOM     57  H   UNL A   1      41.354  29.946  31.670  1.00  0.00     0.167 HD
ATOM     58  C   UNL A   1      43.122  30.511  33.803  1.00  0.00     0.074 A 
ATOM     59  C   UNL A   1      43.698  31.138  34.973  1.00  0.00     0.031 C 
ATOM     60  C   UNL A   1      43.632  29.409  33.203  1.00  0.00     0.031 A 
BRANCH  47  61
ATOM     61  C   UNL A   1      40.306  27.370  28.435  1.00  0.00    -0.014 A 
ATOM     62  C   UNL A   1      40.910  27.464  27.172  1.00  0.00     0.009 A 
ATOM     63  C   UNL A   1      39.584  26.211  28.758  1.00  0.00     0.009 A 
ATOM     64  C   UNL A   1      40.778  26.425  26.247  1.00  0.00     0.001 A 
ATOM     65  C   UNL A   1      39.476  25.163  27.843  1.00  0.00     0.001 A 
ATOM     66  C   UNL A   1      40.069  25.273  26.586  1.00  0.00     0.000 A 
ENDBRANCH  47  61
BRANCH  48  67
ATOM     67  C   UNL A   1      41.000  34.311  35.569  1.00  0.00    -0.014 A 
ATOM     68  C   UNL A   1      40.299  34.100  36.767  1.00  0.00     0.009 A 
ATOM     69  C   UNL A   1      41.743  35.493  35.419  1.00  0.00     0.009 A 
ATOM     70  C   UNL A   1      40.301  35.073  37.769  1.00  0.00     0.001 A 
ATOM     71  C   UNL A   1      41.771  36.448  36.437  1.00  0.00     0.001 A 
ATOM     72  C   UNL A   1      41.038  36.245  37.604  1.00  0.00     0.000 A 
ENDBRANCH  48  67
BRANCH  60  73
ATOM     73  C   UNL A   1      44.904  28.840  33.766  1.00  0.00    -0.014 A 
ATOM     74  C   UNL A   1      44.887  27.821  34.731  1.00  0.00     0.009 A 
ATOM     75  C   UNL A   1      46.139  29.300  33.283  1.00  0.00     0.009 A 
ATOM     76  C   UNL A   1      46.083  27.299  35.225  1.00  0.00     0.001 A 
ATOM     77  C   UNL A   1      47.333  28.752  33.754  1.00  0.00     0.001 A 
ATOM     78  C   UNL A   1      47.305  27.759  34.731  1.00  0.00     0.000 A 
ENDBRANCH  60  73
ENDBRANCH  34  35
ENDBRANCH  26  29
ENDBRANCH  24  25
ENDBRANCH  23  24
ENDBRANCH  22  23
ENDBRANCH  21  22
ENDBRANCH   1  21
TORSDOF 18
ENDMDL
MODEL 3
REMARK VINA RESULT:      -9.1      5.406     10.358
REMARK SMILES CCNC(=O)C[NH2+][C@@H](C)[C@@H](C)C(=O)NCCCCCCNC(=O)c1ccc(-c2c3nc(c(-c4ccccc4)c4ccc([nH]4)c(-c4ccccc4)c4nc(c(-c5ccccc5)c5ccc2[nH]5)C=C4)C=C3)cc1
REMARK SMILES IDX 16 1 15 2 14 3 12 4 13 5 10 7 11 8 8 9 9 10 7 11 6 14 4 15
REMARK SMILES IDX 3 16 5 18 2 19 1 20 17 21 18 22 19 23 20 24 21 25 22 26
REMARK SMILES IDX 23 28 24 29 25 30 71 31 26 32 70 33 27 34 28 35 29 36 64 37
REMARK SMILES IDX 30 38 69 39 63 40 65 41 31 42 68 43 62 44 61 45 32 47 54 48
REMARK SMILES IDX 39 49 53 50 40 51 43 52 52 53 66 54 41 55 42 56 51 58 67 59
REMARK SMILES IDX 44 60 33 61 34 62 38 63 35 64 37 65 36 66 55 67 56 68 60 69
REMARK SMILES IDX 57 70 59 71 58 72 45 73 46 74 50 75 47 76 49 77 48 78
REMARK H PARENT 14 6 7 12 7 13 3 17 21 27 65 46 43 57
REMARK Flexibility Score: inf
ROOT
ATOM      1  C   UNL A   1      30.990  27.604  25.418  1.00  0.00     0.021 C 
ENDROOT
BRANCH   1   2
ATOM      2  C   UNL A   1      32.082  27.022  26.315  1.00  0.00     0.116 C 
BRANCH   2   3
ATOM      3  N   UNL A   1      31.641  25.794  26.947  1.00  0.00    -0.356 N 
ATOM      4  C   UNL A   1      31.604  24.512  26.499  1.00  0.00     0.228 C 
ATOM      5  O   UNL A   1      31.109  23.666  27.249  1.00  0.00    -0.275 OA
ATOM      6  H   UNL A   1      31.309  25.910  27.867  1.00  0.00     0.163 HD
BRANCH   4   7
ATOM      7  C   UNL A   1      32.162  24.102  25.138  1.00  0.00     0.133 C 
ATOM      8  C   UNL A   1      31.027  23.568  24.258  1.00  0.00     0.024 C 
BRANCH   7   9
ATOM      9  C   UNL A   1      33.414  23.194  25.248  1.00  0.00     0.191 C 
ATOM     10  C   UNL A   1      34.651  23.913  24.687  1.00  0.00     0.076 C 
BRANCH   9  11
ATOM     11  N   UNL A   1      33.179  21.915  24.555  1.00  0.00    -0.336 N 
ATOM     12  H   UNL A   1      32.229  21.914  24.184  1.00  0.00     0.346 HD
ATOM     13  H   UNL A   1      33.873  21.834  23.813  1.00  0.00     0.346 HD
BRANCH  11  14
ATOM     14  C   UNL A   1      33.339  20.750  25.442  1.00  0.00     0.362 C 
BRANCH  14  15
ATOM     15  C   UNL A   1      34.537  19.907  25.001  1.00  0.00     0.275 C 
ATOM     16  N   UNL A   1      34.347  18.610  24.615  1.00  0.00    -0.351 N 
ATOM     17  H   UNL A   1      35.165  18.093  24.436  1.00  0.00     0.163 HD
ATOM     18  O   UNL A   1      35.682  20.365  25.008  1.00  0.00    -0.269 OA
BRANCH  16  19
ATOM     19  C   UNL A   1      33.098  17.896  24.437  1.00  0.00     0.112 C 
ATOM     20  C   UNL A   1      32.593  18.041  23.012  1.00  0.00     0.027 C 
ENDBRANCH  16  19
ENDBRANCH  14  15
ENDBRANCH  11  14
ENDBRANCH   9  11
ENDBRANCH   7   9
ENDBRANCH   4   7
ENDBRANCH   2   3
ENDBRANCH   1   2
BRANCH   1  21
ATOM     21  C   UNL A   1      31.456  28.776  24.546  1.00  0.00     0.002 C 
BRANCH  21  22
ATOM     22  C   UNL A   1      32.383  29.776  25.245  1.00  0.00     0.002 C 
BRANCH  22  23
ATOM     23  C   UNL A   1      31.671  30.878  26.031  1.00  0.00     0.021 C 
BRANCH  23  24
ATOM     24  C   UNL A   1      32.478  31.453  27.190  1.00  0.00     0.116 C 
BRANCH  24  25
ATOM     25  N   UNL A   1      32.256  32.881  27.354  1.00  0.00    -0.352 N 
ATOM     26  C   UNL A   1      32.972  33.789  28.090  1.00  0.00     0.251 C 
ATOM     27  H   UNL A   1      31.482  33.246  26.869  1.00  0.00     0.163 HD
ATOM     28  O   UNL A   1      32.528  34.919  28.283  1.00  0.00    -0.269 OA
BRANCH  26  29
ATOM     29  C   UNL A   1      34.274  33.401  28.671  1.00  0.00     0.039 A 
ATOM     30  C   UNL A   1      34.298  32.744  29.903  1.00  0.00     0.014 A 
ATOM     31  C   UNL A   1      35.467  33.689  28.002  1.00  0.00     0.014 A 
ATOM     32  C   UNL A   1      35.517  32.321  30.436  1.00  0.00     0.010 A 
ATOM     33  C   UNL A   1      36.673  33.203  28.498  1.00  0.00     0.010 A 
ATOM     34  C   UNL A   1      36.711  32.516  29.722  1.00  0.00    -0.014 A 
BRANCH  34  35
ATOM     35  C   UNL A   1      38.009  32.008  30.236  1.00  0.00     0.031 A 
ATOM     36  C   UNL A   1      38.587  30.729  29.694  1.00  0.00     0.074 A 
ATOM     37  C   UNL A   1      38.630  32.657  31.241  1.00  0.00     0.049 A 
ATOM     38  N   UNL A   1      39.663  30.085  30.071  1.00  0.00    -0.248 NA
ATOM     39  C   UNL A   1      37.848  30.071  28.603  1.00  0.00     0.031 C 
ATOM     40  C   UNL A   1      38.154  33.887  31.881  1.00  0.00     0.029 A 
ATOM     41  N   UNL A   1      39.792  32.366  31.911  1.00  0.00    -0.354 N 
ATOM     42  C   UNL A   1      39.714  28.941  29.285  1.00  0.00     0.074 A 
ATOM     43  C   UNL A   1      38.544  28.956  28.435  1.00  0.00     0.031 C 
ATOM     44  C   UNL A   1      39.024  34.251  32.838  1.00  0.00     0.029 A 
ATOM     45  C   UNL A   1      40.094  33.262  32.909  1.00  0.00     0.049 A 
ATOM     46  H   UNL A   1      40.356  31.589  31.698  1.00  0.00     0.167 HD
ATOM     47  C   UNL A   1      40.657  27.971  29.265  1.00  0.00     0.031 A 
ATOM     48  C   UNL A   1      41.108  33.275  33.796  1.00  0.00     0.031 A 
ATOM     49  C   UNL A   1      41.836  27.970  30.090  1.00  0.00     0.049 A 
ATOM     50  C   UNL A   1      42.137  32.178  33.750  1.00  0.00     0.074 A 
ATOM     51  C   UNL A   1      42.890  27.073  30.080  1.00  0.00     0.029 A 
ATOM     52  N   UNL A   1      42.115  28.908  31.070  1.00  0.00    -0.354 N 
ATOM     53  N   UNL A   1      42.217  31.152  32.939  1.00  0.00    -0.248 NA
ATOM     54  C   UNL A   1      43.223  32.248  34.740  1.00  0.00     0.031 C 
ATOM     55  C   UNL A   1      43.777  27.430  31.099  1.00  0.00     0.029 A 
ATOM     56  C   UNL A   1      43.307  28.589  31.696  1.00  0.00     0.049 A 
ATOM     57  H   UNL A   1      41.550  29.683  31.289  1.00  0.00     0.167 HD
ATOM     58  C   UNL A   1      43.378  30.477  33.294  1.00  0.00     0.074 A 
ATOM     59  C   UNL A   1      43.978  31.219  34.383  1.00  0.00     0.031 C 
ATOM     60  C   UNL A   1      43.900  29.344  32.769  1.00  0.00     0.031 A 
BRANCH  47  61
ATOM     61  C   UNL A   1      40.461  26.812  28.327  1.00  0.00    -0.014 A 
ATOM     62  C   UNL A   1      39.645  25.725  28.672  1.00  0.00     0.009 A 
ATOM     63  C   UNL A   1      41.033  26.854  27.046  1.00  0.00     0.009 A 
ATOM     64  C   UNL A   1      39.420  24.693  27.757  1.00  0.00     0.001 A 
ATOM     65  C   UNL A   1      40.785  25.835  26.125  1.00  0.00     0.001 A 
ATOM     66  C   UNL A   1      39.983  24.753  26.482  1.00  0.00     0.000 A 
ENDBRANCH  47  61
BRANCH  48  67
ATOM     67  C   UNL A   1      41.206  34.353  34.819  1.00  0.00    -0.014 A 
ATOM     68  C   UNL A   1      40.568  34.220  36.062  1.00  0.00     0.009 A 
ATOM     69  C   UNL A   1      41.894  35.543  34.536  1.00  0.00     0.009 A 
ATOM     70  C   UNL A   1      40.577  35.274  36.979  1.00  0.00     0.001 A 
ATOM     71  C   UNL A   1      41.930  36.581  35.468  1.00  0.00     0.001 A 
ATOM     72  C   UNL A   1      41.259  36.453  36.682  1.00  0.00     0.000 A 
ENDBRANCH  48  67
BRANCH  60  73
ATOM     73  C   UNL A   1      45.210  28.861  33.325  1.00  0.00    -0.014 A 
ATOM     74  C   UNL A   1      45.263  27.895  34.342  1.00  0.00     0.009 A 
ATOM     75  C   UNL A   1      46.411  29.348  32.785  1.00  0.00     0.009 A 
ATOM     76  C   UNL A   1      46.493  27.452  34.829  1.00  0.00     0.001 A 
ATOM     77  C   UNL A   1      47.639  28.878  33.251  1.00  0.00     0.001 A 
ATOM     78  C   UNL A   1      47.680  27.938  34.279  1.00  0.00     0.000 A 
ENDBRANCH  60  73
ENDBRANCH  34  35
ENDBRANCH  26  29
ENDBRANCH  24  25
ENDBRANCH  23  24
ENDBRANCH  22  23
ENDBRANCH  21  22
ENDBRANCH   1  21
TORSDOF 18
ENDMDL
