MODEL 1
REMARK VINA RESULT:     -10.2      0.000      0.000
REMARK SMILES N#Cc1nccnc1N(CC(=O)NCCCCCCNC(=O)c1ccc(-c2c3nc(c(-c4ccccc4)c4ccc([nH]4)c(-c4ccccc4)c4nc(c(-c5ccccc5)c5ccc2[nH]5)C=C4)C=C3)cc1)CC(F)(F)F
REMARK SMILES IDX 16 1 15 2 14 3 13 4 11 5 12 6 10 8 9 9 8 10 3 11 4 12 5 13
REMARK SMILES IDX 7 14 6 15 2 16 1 17 71 18 72 19 73 20 74 21 75 22 17 23
REMARK SMILES IDX 18 24 19 25 20 26 21 27 22 29 23 30 24 31 70 32 25 33 69 34
REMARK SMILES IDX 26 35 27 36 28 37 63 38 29 39 68 40 62 41 64 42 30 43 67 44
REMARK SMILES IDX 61 45 60 46 31 48 53 49 38 50 52 51 39 52 42 53 51 54 65 55
REMARK SMILES IDX 40 56 41 57 50 59 66 60 43 61 32 62 33 63 37 64 34 65 36 66
REMARK SMILES IDX 35 67 54 68 55 69 59 70 56 71 58 72 57 73 44 74 45 75 49 76
REMARK SMILES IDX 46 77 48 78 47 79
REMARK H PARENT 13 7 20 28 64 47 42 58
REMARK Flexibility Score: inf
ROOT
ATOM      1  C   UNL A   1      35.447  20.566  24.979  1.00  0.00     0.002 C 
ENDROOT
BRANCH   1   2
ATOM      2  C   UNL A   1      34.441  21.045  26.032  1.00  0.00     0.021 C 
BRANCH   2   3
ATOM      3  C   UNL A   1      32.987  20.882  25.598  1.00  0.00     0.116 C 
BRANCH   3   4
ATOM      4  N   UNL A   1      32.868  20.904  24.155  1.00  0.00    -0.355 N 
ATOM      5  C   UNL A   1      32.221  21.816  23.371  1.00  0.00     0.239 C 
ATOM      6  O   UNL A   1      32.128  21.599  22.162  1.00  0.00    -0.273 OA
ATOM      7  H   UNL A   1      33.310  20.166  23.677  1.00  0.00     0.163 HD
BRANCH   5   8
ATOM      8  C   UNL A   1      31.640  23.089  23.995  1.00  0.00     0.218 C 
BRANCH   8   9
ATOM      9  N   UNL A   1      32.452  24.305  23.714  1.00  0.00    -0.336 N 
BRANCH   9  10
ATOM     10  C   UNL A   1      31.776  25.468  23.374  1.00  0.00     0.166 A 
ATOM     11  C   UNL A   1      31.693  26.106  22.119  1.00  0.00     0.183 A 
ATOM     12  N   UNL A   1      30.951  27.238  21.878  1.00  0.00    -0.240 NA
ATOM     13  C   UNL A   1      30.288  27.754  22.926  1.00  0.00     0.133 A 
ATOM     14  N   UNL A   1      31.090  26.058  24.394  1.00  0.00    -0.235 NA
ATOM     15  C   UNL A   1      30.361  27.176  24.167  1.00  0.00     0.133 A 
BRANCH  11  16
ATOM     16  C   UNL A   1      32.404  25.686  20.948  1.00  0.00     0.123 C 
ATOM     17  N   UNL A   1      32.990  25.373  19.995  1.00  0.00    -0.191 NA
ENDBRANCH  11  16
ENDBRANCH   9  10
BRANCH   9  18
ATOM     18  C   UNL A   1      33.905  24.185  24.037  1.00  0.00     0.234 C 
BRANCH  18  19
ATOM     19  C   UNL A   1      34.351  24.680  25.426  1.00  0.00     0.405 C 
ATOM     20  F   UNL A   1      34.403  26.030  25.493  1.00  0.00    -0.169 F 
ATOM     21  F   UNL A   1      33.492  24.259  26.383  1.00  0.00    -0.169 F 
ATOM     22  F   UNL A   1      35.575  24.212  25.756  1.00  0.00    -0.169 F 
ENDBRANCH  18  19
ENDBRANCH   9  18
ENDBRANCH   8   9
ENDBRANCH   5   8
ENDBRANCH   3   4
ENDBRANCH   2   3
ENDBRANCH   1   2
BRANCH   1  23
ATOM     23  C   UNL A   1      36.826  21.221  25.096  1.00  0.00     0.002 C 
BRANCH  23  24
ATOM     24  C   UNL A   1      37.994  20.255  24.902  1.00  0.00     0.021 C 
BRANCH  24  25
ATOM     25  C   UNL A   1      39.165  20.517  25.838  1.00  0.00     0.116 C 
BRANCH  25  26
ATOM     26  N   UNL A   1      40.088  19.391  25.884  1.00  0.00    -0.352 N 
ATOM     27  C   UNL A   1      41.446  19.400  26.091  1.00  0.00     0.251 C 
ATOM     28  H   UNL A   1      39.683  18.503  25.749  1.00  0.00     0.163 HD
ATOM     29  O   UNL A   1      42.122  18.397  25.889  1.00  0.00    -0.269 OA
BRANCH  27  30
ATOM     30  C   UNL A   1      42.086  20.658  26.524  1.00  0.00     0.039 A 
ATOM     31  C   UNL A   1      42.138  20.977  27.882  1.00  0.00     0.014 A 
ATOM     32  C   UNL A   1      42.554  21.557  25.565  1.00  0.00     0.014 A 
ATOM     33  C   UNL A   1      42.458  22.271  28.264  1.00  0.00     0.010 A 
ATOM     34  C   UNL A   1      42.989  22.822  25.967  1.00  0.00     0.010 A 
ATOM     35  C   UNL A   1      42.887  23.211  27.313  1.00  0.00    -0.014 A 
BRANCH  35  36
ATOM     36  C   UNL A   1      43.217  24.592  27.748  1.00  0.00     0.031 A 
ATOM     37  C   UNL A   1      44.647  25.057  27.830  1.00  0.00     0.074 A 
ATOM     38  C   UNL A   1      42.214  25.448  28.025  1.00  0.00     0.049 A 
ATOM     39  N   UNL A   1      45.108  26.231  28.184  1.00  0.00    -0.248 NA
ATOM     40  C   UNL A   1      45.697  24.087  27.477  1.00  0.00     0.031 C 
ATOM     41  C   UNL A   1      40.788  25.122  27.950  1.00  0.00     0.029 A 
ATOM     42  N   UNL A   1      42.232  26.769  28.397  1.00  0.00    -0.354 N 
ATOM     43  C   UNL A   1      46.493  26.133  28.114  1.00  0.00     0.074 A 
ATOM     44  C   UNL A   1      46.803  24.777  27.721  1.00  0.00     0.031 C 
ATOM     45  C   UNL A   1      40.071  26.223  28.209  1.00  0.00     0.029 A 
ATOM     46  C   UNL A   1      40.980  27.310  28.556  1.00  0.00     0.049 A 
ATOM     47  H   UNL A   1      43.063  27.278  28.536  1.00  0.00     0.167 HD
ATOM     48  C   UNL A   1      47.418  27.095  28.342  1.00  0.00     0.031 A 
ATOM     49  C   UNL A   1      40.593  28.536  28.959  1.00  0.00     0.031 A 
ATOM     50  C   UNL A   1      47.098  28.448  28.722  1.00  0.00     0.049 A 
ATOM     51  C   UNL A   1      41.643  29.563  29.276  1.00  0.00     0.074 A 
ATOM     52  C   UNL A   1      47.969  29.500  28.946  1.00  0.00     0.029 A 
ATOM     53  N   UNL A   1      45.818  28.935  28.935  1.00  0.00    -0.354 N 
ATOM     54  N   UNL A   1      42.946  29.464  29.172  1.00  0.00    -0.248 NA
ATOM     55  C   UNL A   1      41.174  30.869  29.755  1.00  0.00     0.031 C 
ATOM     56  C   UNL A   1      47.226  30.594  29.386  1.00  0.00     0.029 A 
ATOM     57  C   UNL A   1      45.882  30.262  29.332  1.00  0.00     0.049 A 
ATOM     58  H   UNL A   1      44.988  28.417  28.822  1.00  0.00     0.167 HD
ATOM     59  C   UNL A   1      43.452  30.701  29.551  1.00  0.00     0.074 A 
ATOM     60  C   UNL A   1      42.314  31.541  29.861  1.00  0.00     0.031 C 
ATOM     61  C   UNL A   1      44.745  31.097  29.636  1.00  0.00     0.031 A 
BRANCH  48  62
ATOM     62  C   UNL A   1      48.877  26.742  28.201  1.00  0.00    -0.014 A 
ATOM     63  C   UNL A   1      49.482  26.780  26.933  1.00  0.00     0.009 A 
ATOM     64  C   UNL A   1      49.618  26.245  29.285  1.00  0.00     0.009 A 
ATOM     65  C   UNL A   1      50.780  26.301  26.746  1.00  0.00     0.001 A 
ATOM     66  C   UNL A   1      50.931  25.801  29.103  1.00  0.00     0.001 A 
ATOM     67  C   UNL A   1      51.504  25.814  27.831  1.00  0.00     0.000 A 
ENDBRANCH  48  62
BRANCH  49  68
ATOM     68  C   UNL A   1      39.140  28.838  29.072  1.00  0.00    -0.014 A 
ATOM     69  C   UNL A   1      38.434  29.373  27.979  1.00  0.00     0.009 A 
ATOM     70  C   UNL A   1      38.465  28.667  30.288  1.00  0.00     0.009 A 
ATOM     71  C   UNL A   1      37.103  29.772  28.116  1.00  0.00     0.001 A 
ATOM     72  C   UNL A   1      37.120  29.026  30.410  1.00  0.00     0.001 A 
ATOM     73  C   UNL A   1      36.446  29.596  29.329  1.00  0.00     0.000 A 
ENDBRANCH  49  68
BRANCH  61  74
ATOM     74  C   UNL A   1      45.032  32.512  30.067  1.00  0.00    -0.014 A 
ATOM     75  C   UNL A   1      45.143  32.815  31.435  1.00  0.00     0.009 A 
ATOM     76  C   UNL A   1      45.059  33.564  29.138  1.00  0.00     0.009 A 
ATOM     77  C   UNL A   1      45.238  34.138  31.866  1.00  0.00     0.001 A 
ATOM     78  C   UNL A   1      45.197  34.885  29.571  1.00  0.00     0.001 A 
ATOM     79  C   UNL A   1      45.269  35.172  30.934  1.00  0.00     0.000 A 
ENDBRANCH  61  74
ENDBRANCH  35  36
ENDBRANCH  27  30
ENDBRANCH  25  26
ENDBRANCH  24  25
ENDBRANCH  23  24
ENDBRANCH   1  23
TORSDOF 18
ENDMDL
MODEL 2
REMARK VINA RESULT:      -9.8      1.996      2.920
REMARK SMILES N#Cc1nccnc1N(CC(=O)NCCCCCCNC(=O)c1ccc(-c2c3nc(c(-c4ccccc4)c4ccc([nH]4)c(-c4ccccc4)c4nc(c(-c5ccccc5)c5ccc2[nH]5)C=C4)C=C3)cc1)CC(F)(F)F
REMARK SMILES IDX 16 1 15 2 14 3 13 4 11 5 12 6 10 8 9 9 8 10 3 11 4 12 5 13
REMARK SMILES IDX 7 14 6 15 2 16 1 17 71 18 72 19 73 20 74 21 75 22 17 23
REMARK SMILES IDX 18 24 19 25 20 26 21 27 22 29 23 30 24 31 70 32 25 33 69 34
REMARK SMILES IDX 26 35 27 36 28 37 63 38 29 39 68 40 62 41 64 42 30 43 67 44
REMARK SMILES IDX 61 45 60 46 31 48 53 49 38 50 52 51 39 52 42 53 51 54 65 55
REMARK SMILES IDX 40 56 41 57 50 59 66 60 43 61 32 62 33 63 37 64 34 65 36 66
REMARK SMILES IDX 35 67 54 68 55 69 59 70 56 71 58 72 57 73 44 74 45 75 49 76
REMARK SMILES IDX 46 77 48 78 47 79
REMARK H PARENT 13 7 20 28 64 47 42 58
REMARK Flexibility Score: inf
ROOT
ATOM      1  C   UNL A   1      35.867  22.717  24.103  1.00  0.00     0.002 C 
ENDROOT
BRANCH   1   2
ATOM      2  C   UNL A   1      34.372  23.051  24.081  1.00  0.00     0.021 C 
BRANCH   2   3
ATOM      3  C   UNL A   1      34.086  24.548  24.154  1.00  0.00     0.116 C 
BRANCH   3   4
ATOM      4  N   UNL A   1      34.112  25.149  22.837  1.00  0.00    -0.355 N 
ATOM      5  C   UNL A   1      33.066  25.625  22.101  1.00  0.00     0.239 C 
ATOM      6  O   UNL A   1      33.274  25.993  20.944  1.00  0.00    -0.273 OA
ATOM      7  H   UNL A   1      35.000  25.225  22.419  1.00  0.00     0.163 HD
BRANCH   5   8
ATOM      8  C   UNL A   1      31.666  25.707  22.719  1.00  0.00     0.218 C 
BRANCH   8   9
ATOM      9  N   UNL A   1      31.338  27.058  23.253  1.00  0.00    -0.336 N 
BRANCH   9  10
ATOM     10  C   UNL A   1      31.937  27.444  24.443  1.00  0.00     0.166 A 
ATOM     11  C   UNL A   1      31.647  27.019  25.756  1.00  0.00     0.183 A 
ATOM     12  N   UNL A   1      32.337  27.433  26.870  1.00  0.00    -0.240 NA
ATOM     13  C   UNL A   1      33.335  28.308  26.666  1.00  0.00     0.133 A 
ATOM     14  N   UNL A   1      32.952  28.346  24.315  1.00  0.00    -0.235 NA
ATOM     15  C   UNL A   1      33.633  28.763  25.408  1.00  0.00     0.133 A 
BRANCH  11  16
ATOM     16  C   UNL A   1      30.569  26.140  26.103  1.00  0.00     0.123 C 
ATOM     17  N   UNL A   1      29.715  25.413  26.403  1.00  0.00    -0.191 NA
ENDBRANCH  11  16
ENDBRANCH   9  10
BRANCH   9  18
ATOM     18  C   UNL A   1      30.558  27.932  22.327  1.00  0.00     0.234 C 
BRANCH  18  19
ATOM     19  C   UNL A   1      29.300  28.607  22.906  1.00  0.00     0.405 C 
ATOM     20  F   UNL A   1      28.528  29.160  21.941  1.00  0.00    -0.169 F 
ATOM     21  F   UNL A   1      28.537  27.710  23.572  1.00  0.00    -0.169 F 
ATOM     22  F   UNL A   1      29.615  29.588  23.781  1.00  0.00    -0.169 F 
ENDBRANCH  18  19
ENDBRANCH   9  18
ENDBRANCH   8   9
ENDBRANCH   5   8
ENDBRANCH   3   4
ENDBRANCH   2   3
ENDBRANCH   1   2
BRANCH   1  23
ATOM     23  C   UNL A   1      36.265  21.725  25.201  1.00  0.00     0.002 C 
BRANCH  23  24
ATOM     24  C   UNL A   1      37.442  20.825  24.831  1.00  0.00     0.021 C 
BRANCH  24  25
ATOM     25  C   UNL A   1      38.692  21.081  25.660  1.00  0.00     0.116 C 
BRANCH  25  26
ATOM     26  N   UNL A   1      39.567  19.918  25.702  1.00  0.00    -0.352 N 
ATOM     27  C   UNL A   1      40.904  19.856  26.014  1.00  0.00     0.251 C 
ATOM     28  H   UNL A   1      39.143  19.057  25.476  1.00  0.00     0.163 HD
ATOM     29  O   UNL A   1      41.557  18.842  25.799  1.00  0.00    -0.269 OA
BRANCH  27  30
ATOM     30  C   UNL A   1      41.551  21.056  26.581  1.00  0.00     0.039 A 
ATOM     31  C   UNL A   1      41.542  21.262  27.961  1.00  0.00     0.014 A 
ATOM     32  C   UNL A   1      42.091  22.016  25.723  1.00  0.00     0.014 A 
ATOM     33  C   UNL A   1      41.874  22.511  28.464  1.00  0.00     0.010 A 
ATOM     34  C   UNL A   1      42.536  23.231  26.249  1.00  0.00     0.010 A 
ATOM     35  C   UNL A   1      42.374  23.512  27.616  1.00  0.00    -0.014 A 
BRANCH  35  36
ATOM     36  C   UNL A   1      42.715  24.844  28.180  1.00  0.00     0.031 A 
ATOM     37  C   UNL A   1      44.138  25.195  28.528  1.00  0.00     0.074 A 
ATOM     38  C   UNL A   1      41.739  25.759  28.333  1.00  0.00     0.049 A 
ATOM     39  N   UNL A   1      44.609  26.314  29.021  1.00  0.00    -0.248 NA
ATOM     40  C   UNL A   1      45.166  24.166  28.300  1.00  0.00     0.031 C 
ATOM     41  C   UNL A   1      40.328  25.545  28.001  1.00  0.00     0.029 A 
ATOM     42  N   UNL A   1      41.781  27.057  28.779  1.00  0.00    -0.354 N 
ATOM     43  C   UNL A   1      45.975  26.116  29.179  1.00  0.00     0.074 A 
ATOM     44  C   UNL A   1      46.257  24.759  28.766  1.00  0.00     0.031 C 
ATOM     45  C   UNL A   1      39.653  26.684  28.199  1.00  0.00     0.029 A 
ATOM     46  C   UNL A   1      40.559  27.683  28.756  1.00  0.00     0.049 A 
ATOM     47  H   UNL A   1      42.607  27.495  29.084  1.00  0.00     0.167 HD
ATOM     48  C   UNL A   1      46.910  26.993  29.615  1.00  0.00     0.031 A 
ATOM     49  C   UNL A   1      40.191  28.914  29.158  1.00  0.00     0.031 A 
ATOM     50  C   UNL A   1      46.620  28.348  30.012  1.00  0.00     0.049 A 
ATOM     51  C   UNL A   1      41.237  29.844  29.706  1.00  0.00     0.074 A 
ATOM     52  C   UNL A   1      47.507  29.320  30.440  1.00  0.00     0.029 A 
ATOM     53  N   UNL A   1      45.357  28.920  30.036  1.00  0.00    -0.354 N 
ATOM     54  N   UNL A   1      42.529  29.653  29.816  1.00  0.00    -0.248 NA
ATOM     55  C   UNL A   1      40.780  31.159  30.174  1.00  0.00     0.031 C 
ATOM     56  C   UNL A   1      46.774  30.446  30.812  1.00  0.00     0.029 A 
ATOM     57  C   UNL A   1      45.440  30.218  30.513  1.00  0.00     0.049 A 
ATOM     58  H   UNL A   1      44.527  28.471  29.755  1.00  0.00     0.167 HD
ATOM     59  C   UNL A   1      43.043  30.829  30.346  1.00  0.00     0.074 A 
ATOM     60  C   UNL A   1      41.927  31.737  30.508  1.00  0.00     0.031 C 
ATOM     61  C   UNL A   1      44.326  31.123  30.670  1.00  0.00     0.031 A 
BRANCH  48  62
ATOM     62  C   UNL A   1      48.344  26.538  29.700  1.00  0.00    -0.014 A 
ATOM     63  C   UNL A   1      48.819  25.955  30.888  1.00  0.00     0.009 A 
ATOM     64  C   UNL A   1      49.259  26.803  28.669  1.00  0.00     0.009 A 
ATOM     65  C   UNL A   1      50.177  25.678  31.054  1.00  0.00     0.001 A 
ATOM     66  C   UNL A   1      50.612  26.489  28.823  1.00  0.00     0.001 A 
ATOM     67  C   UNL A   1      51.072  25.942  30.021  1.00  0.00     0.000 A 
ENDBRANCH  48  62
BRANCH  49  68
ATOM     68  C   UNL A   1      38.763  29.319  29.042  1.00  0.00    -0.014 A 
ATOM     69  C   UNL A   1      37.901  29.229  30.150  1.00  0.00     0.009 A 
ATOM     70  C   UNL A   1      38.232  29.726  27.810  1.00  0.00     0.009 A 
ATOM     71  C   UNL A   1      36.537  29.489  30.016  1.00  0.00     0.001 A 
ATOM     72  C   UNL A   1      36.873  30.029  27.689  1.00  0.00     0.001 A 
ATOM     73  C   UNL A   1      36.024  29.893  28.787  1.00  0.00     0.000 A 
ENDBRANCH  49  68
BRANCH  61  74
ATOM     74  C   UNL A   1      44.628  32.491  31.224  1.00  0.00    -0.014 A 
ATOM     75  C   UNL A   1      44.519  32.722  32.605  1.00  0.00     0.009 A 
ATOM     76  C   UNL A   1      44.886  33.578  30.375  1.00  0.00     0.009 A 
ATOM     77  C   UNL A   1      44.627  34.013  33.122  1.00  0.00     0.001 A 
ATOM     78  C   UNL A   1      45.035  34.864  30.900  1.00  0.00     0.001 A 
ATOM     79  C   UNL A   1      44.889  35.083  32.269  1.00  0.00     0.000 A 
ENDBRANCH  61  74
ENDBRANCH  35  36
ENDBRANCH  27  30
ENDBRANCH  25  26
ENDBRANCH  24  25
ENDBRANCH  23  24
ENDBRANCH   1  23
TORSDOF 18
ENDMDL
MODEL 3
REMARK VINA RESULT:      -9.7      4.511      8.954
REMARK SMILES N#Cc1nccnc1N(CC(=O)NCCCCCCNC(=O)c1ccc(-c2c3nc(c(-c4ccccc4)c4ccc([nH]4)c(-c4ccccc4)c4nc(c(-c5ccccc5)c5ccc2[nH]5)C=C4)C=C3)cc1)CC(F)(F)F
REMARK SMILES IDX 16 1 15 2 14 3 13 4 11 5 12 6 10 8 9 9 8 10 3 11 4 12 5 13
REMARK SMILES IDX 7 14 6 15 2 16 1 17 71 18 72 19 73 20 74 21 75 22 17 23
REMARK SMILES IDX 18 24 19 25 20 26 21 27 22 29 23 30 24 31 70 32 25 33 69 34
REMARK SMILES IDX 26 35 27 36 28 37 63 38 29 39 68 40 62 41 64 42 30 43 67 44
REMARK SMILES IDX 61 45 60 46 31 48 53 49 38 50 52 51 39 52 42 53 51 54 65 55
REMARK SMILES IDX 40 56 41 57 50 59 66 60 43 61 32 62 33 63 37 64 34 65 36 66
REMARK SMILES IDX 35 67 54 68 55 69 59 70 56 71 58 72 57 73 44 74 45 75 49 76
REMARK SMILES IDX 46 77 48 78 47 79
REMARK H PARENT 13 7 20 28 64 47 42 58
REMARK Flexibility Score: inf
ROOT
ATOM      1  C   UNL A   1      33.011  29.670  25.994  1.00  0.00     0.002 C 
ENDROOT
BRANCH   1   2
ATOM      2  C   UNL A   1      32.650  28.391  25.230  1.00  0.00     0.021 C 
BRANCH   2   3
ATOM      3  C   UNL A   1      33.464  27.176  25.666  1.00  0.00     0.116 C 
BRANCH   3   4
ATOM      4  N   UNL A   1      32.680  26.297  26.508  1.00  0.00    -0.355 N 
ATOM      5  C   UNL A   1      32.183  25.060  26.213  1.00  0.00     0.239 C 
ATOM      6  O   UNL A   1      31.432  24.514  27.023  1.00  0.00    -0.273 OA
ATOM      7  H   UNL A   1      32.478  26.636  27.410  1.00  0.00     0.163 HD
BRANCH   5   8
ATOM      8  C   UNL A   1      32.573  24.369  24.902  1.00  0.00     0.218 C 
BRANCH   8   9
ATOM      9  N   UNL A   1      31.458  24.309  23.917  1.00  0.00    -0.336 N 
BRANCH   9  10
ATOM     10  C   UNL A   1      30.887  25.507  23.513  1.00  0.00     0.166 A 
ATOM     11  C   UNL A   1      31.339  26.414  22.533  1.00  0.00     0.183 A 
ATOM     12  N   UNL A   1      30.668  27.559  22.175  1.00  0.00    -0.240 NA
ATOM     13  C   UNL A   1      29.522  27.811  22.828  1.00  0.00     0.133 A 
ATOM     14  N   UNL A   1      29.725  25.837  24.146  1.00  0.00    -0.235 NA
ATOM     15  C   UNL A   1      29.061  26.966  23.804  1.00  0.00     0.133 A 
BRANCH  11  16
ATOM     16  C   UNL A   1      32.573  26.284  21.816  1.00  0.00     0.123 C 
ATOM     17  N   UNL A   1      33.559  26.168  21.212  1.00  0.00    -0.191 NA
ENDBRANCH  11  16
ENDBRANCH   9  10
BRANCH   9  18
ATOM     18  C   UNL A   1      31.219  22.964  23.313  1.00  0.00     0.234 C 
BRANCH  18  19
ATOM     19  C   UNL A   1      32.443  22.245  22.712  1.00  0.00     0.405 C 
ATOM     20  F   UNL A   1      33.304  23.109  22.128  1.00  0.00    -0.169 F 
ATOM     21  F   UNL A   1      33.124  21.578  23.671  1.00  0.00    -0.169 F 
ATOM     22  F   UNL A   1      32.082  21.339  21.777  1.00  0.00    -0.169 F 
ENDBRANCH  18  19
ENDBRANCH   9  18
ENDBRANCH   8   9
ENDBRANCH   5   8
ENDBRANCH   3   4
ENDBRANCH   2   3
ENDBRANCH   1   2
BRANCH   1  23
ATOM     23  C   UNL A   1      31.887  30.194  26.893  1.00  0.00     0.002 C 
BRANCH  23  24
ATOM     24  C   UNL A   1      31.687  31.707  26.823  1.00  0.00     0.021 C 
BRANCH  24  25
ATOM     25  C   UNL A   1      32.880  32.505  27.330  1.00  0.00     0.116 C 
BRANCH  25  26
ATOM     26  N   UNL A   1      32.532  33.893  27.598  1.00  0.00    -0.352 N 
ATOM     27  C   UNL A   1      33.076  34.755  28.520  1.00  0.00     0.251 C 
ATOM     28  H   UNL A   1      31.808  34.266  27.043  1.00  0.00     0.163 HD
ATOM     29  O   UNL A   1      32.538  35.825  28.778  1.00  0.00    -0.269 OA
BRANCH  27  30
ATOM     30  C   UNL A   1      34.307  34.347  29.225  1.00  0.00     0.039 A 
ATOM     31  C   UNL A   1      35.549  34.525  28.612  1.00  0.00     0.014 A 
ATOM     32  C   UNL A   1      34.211  33.707  30.462  1.00  0.00     0.014 A 
ATOM     33  C   UNL A   1      36.661  33.878  29.131  1.00  0.00     0.010 A 
ATOM     34  C   UNL A   1      35.358  33.158  31.040  1.00  0.00     0.010 A 
ATOM     35  C   UNL A   1      36.581  33.186  30.349  1.00  0.00    -0.014 A 
BRANCH  35  36
ATOM     36  C   UNL A   1      37.786  32.497  30.878  1.00  0.00     0.031 A 
ATOM     37  C   UNL A   1      38.326  31.261  30.209  1.00  0.00     0.074 A 
ATOM     38  C   UNL A   1      38.425  33.019  31.944  1.00  0.00     0.049 A 
ATOM     39  N   UNL A   1      39.372  30.542  30.536  1.00  0.00    -0.248 NA
ATOM     40  C   UNL A   1      37.608  30.761  29.025  1.00  0.00     0.031 C 
ATOM     41  C   UNL A   1      38.013  34.231  32.657  1.00  0.00     0.029 A 
ATOM     42  N   UNL A   1      39.564  32.622  32.596  1.00  0.00    -0.354 N 
ATOM     43  C   UNL A   1      39.422  29.502  29.616  1.00  0.00     0.074 A 
ATOM     44  C   UNL A   1      38.284  29.657  28.738  1.00  0.00     0.031 C 
ATOM     45  C   UNL A   1      38.915  34.508  33.607  1.00  0.00     0.029 A 
ATOM     46  C   UNL A   1      39.918  33.450  33.633  1.00  0.00     0.049 A 
ATOM     47  H   UNL A   1      40.077  31.820  32.345  1.00  0.00     0.167 HD
ATOM     48  C   UNL A   1      40.345  28.517  29.507  1.00  0.00     0.031 A 
ATOM     49  C   UNL A   1      40.923  33.366  34.526  1.00  0.00     0.031 A 
ATOM     50  C   UNL A   1      41.483  28.378  30.380  1.00  0.00     0.049 A 
ATOM     51  C   UNL A   1      41.891  32.221  34.426  1.00  0.00     0.074 A 
ATOM     52  C   UNL A   1      42.487  27.427  30.327  1.00  0.00     0.029 A 
ATOM     53  N   UNL A   1      41.767  29.203  31.458  1.00  0.00    -0.354 N 
ATOM     54  N   UNL A   1      41.944  31.266  33.530  1.00  0.00    -0.248 NA
ATOM     55  C   UNL A   1      42.942  32.146  35.449  1.00  0.00     0.031 C 
ATOM     56  C   UNL A   1      43.325  27.618  31.426  1.00  0.00     0.029 A 
ATOM     57  C   UNL A   1      42.908  28.753  32.103  1.00  0.00     0.049 A 
ATOM     58  H   UNL A   1      41.238  29.988  31.725  1.00  0.00     0.167 HD
ATOM     59  C   UNL A   1      43.044  30.489  33.868  1.00  0.00     0.074 A 
ATOM     60  C   UNL A   1      43.646  31.100  35.035  1.00  0.00     0.031 C 
ATOM     61  C   UNL A   1      43.508  29.368  33.263  1.00  0.00     0.031 A 
BRANCH  48  62
ATOM     62  C   UNL A   1      40.181  27.491  28.414  1.00  0.00    -0.014 A 
ATOM     63  C   UNL A   1      39.503  26.290  28.683  1.00  0.00     0.009 A 
ATOM     64  C   UNL A   1      40.805  27.646  27.166  1.00  0.00     0.009 A 
ATOM     65  C   UNL A   1      39.482  25.256  27.745  1.00  0.00     0.001 A 
ATOM     66  C   UNL A   1      40.750  26.625  26.213  1.00  0.00     0.001 A 
ATOM     67  C   UNL A   1      40.102  25.425  26.510  1.00  0.00     0.000 A 
ENDBRANCH  48  62
BRANCH  49  68
ATOM     68  C   UNL A   1      41.047  34.410  35.580  1.00  0.00    -0.014 A 
ATOM     69  C   UNL A   1      40.333  34.297  36.786  1.00  0.00     0.009 A 
ATOM     70  C   UNL A   1      41.816  35.561  35.359  1.00  0.00     0.009 A 
ATOM     71  C   UNL A   1      40.349  35.331  37.724  1.00  0.00     0.001 A 
ATOM     72  C   UNL A   1      41.866  36.576  36.319  1.00  0.00     0.001 A 
ATOM     73  C   UNL A   1      41.118  36.468  37.492  1.00  0.00     0.000 A 
ENDBRANCH  49  68
BRANCH  61  74
ATOM     74  C   UNL A   1      44.742  28.711  33.825  1.00  0.00    -0.014 A 
ATOM     75  C   UNL A   1      44.618  27.758  34.850  1.00  0.00     0.009 A 
ATOM     76  C   UNL A   1      46.025  29.127  33.440  1.00  0.00     0.009 A 
ATOM     77  C   UNL A   1      45.748  27.262  35.502  1.00  0.00     0.001 A 
ATOM     78  C   UNL A   1      47.157  28.597  34.066  1.00  0.00     0.001 A 
ATOM     79  C   UNL A   1      47.016  27.679  35.106  1.00  0.00     0.000 A 
ENDBRANCH  61  74
ENDBRANCH  35  36
ENDBRANCH  27  30
ENDBRANCH  25  26
ENDBRANCH  24  25
ENDBRANCH  23  24
ENDBRANCH   1  23
TORSDOF 18
ENDMDL
