MODEL 1
REMARK VINA RESULT:     -11.0      0.000      0.000
REMARK SMILES O=C(NCCCCCCNC(=O)c1cccnc1NC[C@H](c1ccccc1)[NH+]1CCOCC1)c1ccc(-c2c3nc(c(-c4ccccc4)c4ccc([nH]4)c(-c4ccccc4)c4nc(c(-c5ccccc5)c5ccc2[nH]5)C=C4)C=C3)cc1
REMARK SMILES IDX 7 1 6 2 5 3 4 4 3 5 1 6 2 7 34 9 35 10 81 11 36 12 80 13
REMARK SMILES IDX 37 14 38 15 39 16 74 17 40 18 79 19 73 20 75 21 41 22 78 23
REMARK SMILES IDX 72 24 71 25 42 27 64 28 49 29 63 30 50 31 53 32 62 33 76 34
REMARK SMILES IDX 51 35 52 36 61 38 77 39 54 40 43 41 44 42 48 43 45 44 47 45
REMARK SMILES IDX 46 46 65 47 66 48 70 49 67 50 69 51 68 52 55 53 56 54 60 55
REMARK SMILES IDX 57 56 59 57 58 58 8 59 9 60 10 61 11 62 12 64 13 65 14 66
REMARK SMILES IDX 18 67 15 68 17 69 16 70 19 71 20 73 21 74 28 75 29 76 33 77
REMARK SMILES IDX 30 79 32 80 31 81 22 82 23 83 27 84 24 85 26 86 25 87
REMARK H PARENT 3 8 75 26 53 37 10 63 19 72 28 78
REMARK Flexibility Score: inf
ROOT
ATOM      1  C   UNL A   1      37.833  22.025  25.682  1.00  0.00     0.002 C 
ENDROOT
BRANCH   1   2
ATOM      2  C   UNL A   1      37.560  20.898  24.684  1.00  0.00     0.002 C 
BRANCH   2   3
ATOM      3  C   UNL A   1      38.343  19.607  24.928  1.00  0.00     0.021 C 
BRANCH   3   4
ATOM      4  C   UNL A   1      39.276  19.652  26.130  1.00  0.00     0.116 C 
BRANCH   4   5
ATOM      5  N   UNL A   1      40.533  18.968  25.876  1.00  0.00    -0.352 N 
ATOM      6  O   UNL A   1      42.753  18.812  25.490  1.00  0.00    -0.269 OA
ATOM      7  C   UNL A   1      41.807  19.474  25.910  1.00  0.00     0.251 C 
ATOM      8  H   UNL A   1      40.459  18.014  25.648  1.00  0.00     0.163 HD
BRANCH   7   9
ATOM      9  C   UNL A   1      42.037  20.832  26.445  1.00  0.00     0.039 A 
ATOM     10  C   UNL A   1      42.076  21.052  27.825  1.00  0.00     0.014 A 
ATOM     11  C   UNL A   1      42.243  21.890  25.556  1.00  0.00     0.014 A 
ATOM     12  C   UNL A   1      42.214  22.344  28.316  1.00  0.00     0.010 A 
ATOM     13  C   UNL A   1      42.463  23.176  26.053  1.00  0.00     0.010 A 
ATOM     14  C   UNL A   1      42.443  23.413  27.436  1.00  0.00    -0.014 A 
BRANCH  14  15
ATOM     15  C   UNL A   1      42.789  24.746  27.985  1.00  0.00     0.031 A 
ATOM     16  C   UNL A   1      41.734  25.775  28.269  1.00  0.00     0.074 A 
ATOM     17  C   UNL A   1      44.090  25.022  28.204  1.00  0.00     0.049 A 
ATOM     18  N   UNL A   1      41.883  26.998  28.713  1.00  0.00    -0.248 NA
ATOM     19  C   UNL A   1      40.336  25.392  28.020  1.00  0.00     0.031 C 
ATOM     20  C   UNL A   1      45.203  24.100  27.951  1.00  0.00     0.029 A 
ATOM     21  N   UNL A   1      44.700  26.153  28.683  1.00  0.00    -0.354 N 
ATOM     22  C   UNL A   1      40.604  27.539  28.773  1.00  0.00     0.074 A 
ATOM     23  C   UNL A   1      39.692  26.516  28.310  1.00  0.00     0.031 C 
ATOM     24  C   UNL A   1      46.353  24.691  28.300  1.00  0.00     0.029 A 
ATOM     25  C   UNL A   1      46.070  26.054  28.731  1.00  0.00     0.049 A 
ATOM     26  H   UNL A   1      44.205  26.956  28.965  1.00  0.00     0.167 HD
ATOM     27  C   UNL A   1      40.235  28.778  29.175  1.00  0.00     0.031 A 
ATOM     28  C   UNL A   1      47.002  26.971  29.046  1.00  0.00     0.031 A 
ATOM     29  C   UNL A   1      41.154  29.788  29.635  1.00  0.00     0.049 A 
ATOM     30  C   UNL A   1      46.560  28.350  29.438  1.00  0.00     0.074 A 
ATOM     31  C   UNL A   1      40.867  31.050  30.127  1.00  0.00     0.029 A 
ATOM     32  N   UNL A   1      42.534  29.659  29.643  1.00  0.00    -0.354 N 
ATOM     33  N   UNL A   1      45.343  28.819  29.563  1.00  0.00    -0.248 NA
ATOM     34  C   UNL A   1      47.619  29.326  29.724  1.00  0.00     0.031 C 
ATOM     35  C   UNL A   1      42.076  31.711  30.365  1.00  0.00     0.029 A 
ATOM     36  C   UNL A   1      43.114  30.838  30.083  1.00  0.00     0.049 A 
ATOM     37  H   UNL A   1      43.028  28.851  29.375  1.00  0.00     0.167 HD
ATOM     38  C   UNL A   1      45.489  30.142  29.956  1.00  0.00     0.074 A 
ATOM     39  C   UNL A   1      46.912  30.391  30.075  1.00  0.00     0.031 C 
ATOM     40  C   UNL A   1      44.531  31.070  30.189  1.00  0.00     0.031 A 
BRANCH  27  41
ATOM     41  C   UNL A   1      38.778  29.141  29.106  1.00  0.00    -0.014 A 
ATOM     42  C   UNL A   1      37.924  28.963  30.205  1.00  0.00     0.009 A 
ATOM     43  C   UNL A   1      38.274  29.755  27.947  1.00  0.00     0.009 A 
ATOM     44  C   UNL A   1      36.590  29.376  30.137  1.00  0.00     0.001 A 
ATOM     45  C   UNL A   1      36.947  30.188  27.891  1.00  0.00     0.001 A 
ATOM     46  C   UNL A   1      36.106  29.994  28.983  1.00  0.00     0.000 A 
ENDBRANCH  27  41
BRANCH  28  47
ATOM     47  C   UNL A   1      48.445  26.627  28.949  1.00  0.00    -0.014 A 
ATOM     48  C   UNL A   1      49.132  26.086  30.045  1.00  0.00     0.009 A 
ATOM     49  C   UNL A   1      49.146  26.849  27.752  1.00  0.00     0.009 A 
ATOM     50  C   UNL A   1      50.497  25.803  29.953  1.00  0.00     0.001 A 
ATOM     51  C   UNL A   1      50.501  26.532  27.652  1.00  0.00     0.001 A 
ATOM     52  C   UNL A   1      51.178  26.021  28.756  1.00  0.00     0.000 A 
ENDBRANCH  28  47
BRANCH  40  53
ATOM     53  C   UNL A   1      44.990  32.435  30.612  1.00  0.00    -0.014 A 
ATOM     54  C   UNL A   1      45.215  33.448  29.668  1.00  0.00     0.009 A 
ATOM     55  C   UNL A   1      45.156  32.724  31.976  1.00  0.00     0.009 A 
ATOM     56  C   UNL A   1      45.624  34.718  30.081  1.00  0.00     0.001 A 
ATOM     57  C   UNL A   1      45.536  34.002  32.386  1.00  0.00     0.001 A 
ATOM     58  C   UNL A   1      45.777  34.995  31.438  1.00  0.00     0.000 A 
ENDBRANCH  40  53
ENDBRANCH  14  15
ENDBRANCH   7   9
ENDBRANCH   4   5
ENDBRANCH   3   4
ENDBRANCH   2   3
ENDBRANCH   1   2
BRANCH   1  59
ATOM     59  C   UNL A   1      37.374  23.421  25.243  1.00  0.00     0.021 C 
BRANCH  59  60
ATOM     60  C   UNL A   1      35.921  23.752  25.573  1.00  0.00     0.116 C 
BRANCH  60  61
ATOM     61  N   UNL A   1      35.511  23.158  26.833  1.00  0.00    -0.352 N 
ATOM     62  C   UNL A   1      34.404  22.390  27.094  1.00  0.00     0.255 C 
ATOM     63  H   UNL A   1      36.104  23.329  27.599  1.00  0.00     0.163 HD
ATOM     64  O   UNL A   1      34.053  22.194  28.256  1.00  0.00    -0.269 OA
BRANCH  62  65
ATOM     65  C   UNL A   1      33.635  21.804  25.978  1.00  0.00     0.082 A 
ATOM     66  C   UNL A   1      34.138  20.678  25.313  1.00  0.00     0.019 A 
ATOM     67  C   UNL A   1      32.380  22.320  25.627  1.00  0.00     0.139 A 
ATOM     68  C   UNL A   1      33.417  20.138  24.260  1.00  0.00     0.021 A 
ATOM     69  N   UNL A   1      31.695  21.799  24.581  1.00  0.00    -0.239 NA
ATOM     70  C   UNL A   1      32.216  20.735  23.930  1.00  0.00     0.113 A 
BRANCH  67  71
ATOM     71  N   UNL A   1      31.857  23.429  26.280  1.00  0.00    -0.363 N 
ATOM     72  H   UNL A   1      32.002  23.542  27.247  1.00  0.00     0.162 HD
BRANCH  71  73
ATOM     73  C   UNL A   1      31.090  24.432  25.539  1.00  0.00     0.184 C 
BRANCH  73  74
ATOM     74  C   UNL A   1      32.031  25.494  24.869  1.00  0.00     0.234 C 
BRANCH  74  75
ATOM     75  N   UNL A   1      31.558  25.788  23.489  1.00  0.00    -0.323 N 
ATOM     76  C   UNL A   1      31.692  24.665  22.545  1.00  0.00     0.291 C 
ATOM     77  C   UNL A   1      32.024  27.027  22.843  1.00  0.00     0.291 C 
ATOM     78  H   UNL A   1      30.572  25.949  23.696  1.00  0.00     0.348 HD
ATOM     79  C   UNL A   1      33.053  24.585  21.844  1.00  0.00     0.221 C 
ATOM     80  C   UNL A   1      33.365  26.903  22.088  1.00  0.00     0.221 C 
ATOM     81  O   UNL A   1      33.348  25.808  21.160  1.00  0.00    -0.370 OA
ENDBRANCH  74  75
BRANCH  74  82
ATOM     82  C   UNL A   1      32.342  26.700  25.754  1.00  0.00     0.011 A 
ATOM     83  C   UNL A   1      33.633  27.246  25.853  1.00  0.00     0.010 A 
ATOM     84  C   UNL A   1      31.321  27.279  26.527  1.00  0.00     0.010 A 
ATOM     85  C   UNL A   1      33.912  28.275  26.755  1.00  0.00     0.001 A 
ATOM     86  C   UNL A   1      31.597  28.316  27.420  1.00  0.00     0.001 A 
ATOM     87  C   UNL A   1      32.896  28.799  27.548  1.00  0.00     0.000 A 
ENDBRANCH  74  82
ENDBRANCH  73  74
ENDBRANCH  71  73
ENDBRANCH  67  71
ENDBRANCH  62  65
ENDBRANCH  60  61
ENDBRANCH  59  60
ENDBRANCH   1  59
TORSDOF 18
ENDMDL
MODEL 2
REMARK VINA RESULT:     -10.9      0.541      5.727
REMARK SMILES O=C(NCCCCCCNC(=O)c1cccnc1NC[C@H](c1ccccc1)[NH+]1CCOCC1)c1ccc(-c2c3nc(c(-c4ccccc4)c4ccc([nH]4)c(-c4ccccc4)c4nc(c(-c5ccccc5)c5ccc2[nH]5)C=C4)C=C3)cc1
REMARK SMILES IDX 7 1 6 2 5 3 4 4 3 5 1 6 2 7 34 9 35 10 81 11 36 12 80 13
REMARK SMILES IDX 37 14 38 15 39 16 74 17 40 18 79 19 73 20 75 21 41 22 78 23
REMARK SMILES IDX 72 24 71 25 42 27 64 28 49 29 63 30 50 31 53 32 62 33 76 34
REMARK SMILES IDX 51 35 52 36 61 38 77 39 54 40 43 41 44 42 48 43 45 44 47 45
REMARK SMILES IDX 46 46 65 47 66 48 70 49 67 50 69 51 68 52 55 53 56 54 60 55
REMARK SMILES IDX 57 56 59 57 58 58 8 59 9 60 10 61 11 62 12 64 13 65 14 66
REMARK SMILES IDX 18 67 15 68 17 69 16 70 19 71 20 73 21 74 28 75 29 76 33 77
REMARK SMILES IDX 30 79 32 80 31 81 22 82 23 83 27 84 24 85 26 86 25 87
REMARK H PARENT 3 8 75 26 53 37 10 63 19 72 28 78
REMARK Flexibility Score: inf
ROOT
ATOM      1  C   UNL A   1      38.377  22.538  25.442  1.00  0.00     0.002 C 
ENDROOT
BRANCH   1   2
ATOM      2  C   UNL A   1      37.585  21.385  24.821  1.00  0.00     0.002 C 
BRANCH   2   3
ATOM      3  C   UNL A   1      38.247  20.011  24.922  1.00  0.00     0.021 C 
BRANCH   3   4
ATOM      4  C   UNL A   1      39.075  19.799  26.182  1.00  0.00     0.116 C 
BRANCH   4   5
ATOM      5  N   UNL A   1      40.318  19.097  25.911  1.00  0.00    -0.352 N 
ATOM      6  O   UNL A   1      42.530  18.909  25.493  1.00  0.00    -0.269 OA
ATOM      7  C   UNL A   1      41.599  19.584  25.925  1.00  0.00     0.251 C 
ATOM      8  H   UNL A   1      40.228  18.143  25.687  1.00  0.00     0.163 HD
BRANCH   7   9
ATOM      9  C   UNL A   1      41.856  20.940  26.453  1.00  0.00     0.039 A 
ATOM     10  C   UNL A   1      41.764  21.195  27.825  1.00  0.00     0.014 A 
ATOM     11  C   UNL A   1      42.220  21.960  25.570  1.00  0.00     0.014 A 
ATOM     12  C   UNL A   1      41.929  22.490  28.302  1.00  0.00     0.010 A 
ATOM     13  C   UNL A   1      42.467  23.243  26.061  1.00  0.00     0.010 A 
ATOM     14  C   UNL A   1      42.316  23.519  27.429  1.00  0.00    -0.014 A 
BRANCH  14  15
ATOM     15  C   UNL A   1      42.685  24.843  27.984  1.00  0.00     0.031 A 
ATOM     16  C   UNL A   1      44.094  25.156  28.394  1.00  0.00     0.074 A 
ATOM     17  C   UNL A   1      41.709  25.761  28.133  1.00  0.00     0.049 A 
ATOM     18  N   UNL A   1      44.564  26.254  28.932  1.00  0.00    -0.248 NA
ATOM     19  C   UNL A   1      45.105  24.108  28.185  1.00  0.00     0.031 C 
ATOM     20  C   UNL A   1      40.300  25.559  27.779  1.00  0.00     0.029 A 
ATOM     21  N   UNL A   1      41.746  27.041  28.622  1.00  0.00    -0.354 N 
ATOM     22  C   UNL A   1      45.917  26.023  29.146  1.00  0.00     0.074 A 
ATOM     23  C   UNL A   1      46.192  24.677  28.693  1.00  0.00     0.031 C 
ATOM     24  C   UNL A   1      39.616  26.681  28.038  1.00  0.00     0.029 A 
ATOM     25  C   UNL A   1      40.517  27.653  28.642  1.00  0.00     0.049 A 
ATOM     26  H   UNL A   1      42.574  27.478  28.929  1.00  0.00     0.167 HD
ATOM     27  C   UNL A   1      46.838  26.861  29.679  1.00  0.00     0.031 A 
ATOM     28  C   UNL A   1      40.144  28.850  29.131  1.00  0.00     0.031 A 
ATOM     29  C   UNL A   1      46.552  28.200  30.126  1.00  0.00     0.049 A 
ATOM     30  C   UNL A   1      41.180  29.732  29.760  1.00  0.00     0.074 A 
ATOM     31  C   UNL A   1      47.434  29.149  30.616  1.00  0.00     0.029 A 
ATOM     32  N   UNL A   1      45.290  28.774  30.155  1.00  0.00    -0.354 N 
ATOM     33  N   UNL A   1      42.469  29.528  29.885  1.00  0.00    -0.248 NA
ATOM     34  C   UNL A   1      40.711  31.005  30.321  1.00  0.00     0.031 C 
ATOM     35  C   UNL A   1      46.696  30.269  31.009  1.00  0.00     0.029 A 
ATOM     36  C   UNL A   1      45.363  30.044  30.703  1.00  0.00     0.049 A 
ATOM     37  H   UNL A   1      44.466  28.342  29.834  1.00  0.00     0.167 HD
ATOM     38  C   UNL A   1      42.967  30.652  30.527  1.00  0.00     0.074 A 
ATOM     39  C   UNL A   1      41.847  31.546  30.740  1.00  0.00     0.031 C 
ATOM     40  C   UNL A   1      44.238  30.917  30.913  1.00  0.00     0.031 A 
BRANCH  27  41
ATOM     41  C   UNL A   1      48.244  26.355  29.848  1.00  0.00    -0.014 A 
ATOM     42  C   UNL A   1      49.221  26.559  28.863  1.00  0.00     0.009 A 
ATOM     43  C   UNL A   1      48.614  25.740  31.056  1.00  0.00     0.009 A 
ATOM     44  C   UNL A   1      50.538  26.141  29.077  1.00  0.00     0.001 A 
ATOM     45  C   UNL A   1      49.936  25.346  31.277  1.00  0.00     0.001 A 
ATOM     46  C   UNL A   1      50.895  25.542  30.286  1.00  0.00     0.000 A 
ENDBRANCH  27  41
BRANCH  28  47
ATOM     47  C   UNL A   1      38.713  29.254  29.093  1.00  0.00    -0.014 A 
ATOM     48  C   UNL A   1      37.882  29.065  30.205  1.00  0.00     0.009 A 
ATOM     49  C   UNL A   1      38.171  29.825  27.930  1.00  0.00     0.009 A 
ATOM     50  C   UNL A   1      36.530  29.413  30.145  1.00  0.00     0.001 A 
ATOM     51  C   UNL A   1      36.829  30.205  27.884  1.00  0.00     0.001 A 
ATOM     52  C   UNL A   1      36.007  29.987  28.987  1.00  0.00     0.000 A 
ENDBRANCH  28  47
BRANCH  40  53
ATOM     53  C   UNL A   1      44.486  32.233  31.590  1.00  0.00    -0.014 A 
ATOM     54  C   UNL A   1      44.777  33.387  30.846  1.00  0.00     0.009 A 
ATOM     55  C   UNL A   1      44.383  32.330  32.987  1.00  0.00     0.009 A 
ATOM     56  C   UNL A   1      44.987  34.607  31.491  1.00  0.00     0.001 A 
ATOM     57  C   UNL A   1      44.564  33.558  33.625  1.00  0.00     0.001 A 
ATOM     58  C   UNL A   1      44.873  34.692  32.878  1.00  0.00     0.000 A 
ENDBRANCH  40  53
ENDBRANCH  14  15
ENDBRANCH   7   9
ENDBRANCH   4   5
ENDBRANCH   3   4
ENDBRANCH   2   3
ENDBRANCH   1   2
BRANCH   1  59
ATOM     59  C   UNL A   1      37.537  23.623  26.125  1.00  0.00     0.021 C 
BRANCH  59  60
ATOM     60  C   UNL A   1      36.029  23.491  25.921  1.00  0.00     0.116 C 
BRANCH  60  61
ATOM     61  N   UNL A   1      35.363  23.051  27.133  1.00  0.00    -0.352 N 
ATOM     62  C   UNL A   1      34.155  22.412  27.259  1.00  0.00     0.255 C 
ATOM     63  H   UNL A   1      35.839  23.235  27.975  1.00  0.00     0.163 HD
ATOM     64  O   UNL A   1      33.604  22.353  28.356  1.00  0.00    -0.269 OA
BRANCH  62  65
ATOM     65  C   UNL A   1      33.519  21.801  26.075  1.00  0.00     0.082 A 
ATOM     66  C   UNL A   1      34.125  20.699  25.461  1.00  0.00     0.019 A 
ATOM     67  C   UNL A   1      32.283  22.270  25.607  1.00  0.00     0.139 A 
ATOM     68  C   UNL A   1      33.529  20.135  24.344  1.00  0.00     0.021 A 
ATOM     69  N   UNL A   1      31.721  21.727  24.501  1.00  0.00    -0.239 NA
ATOM     70  C   UNL A   1      32.343  20.686  23.902  1.00  0.00     0.113 A 
BRANCH  67  71
ATOM     71  N   UNL A   1      31.658  23.356  26.208  1.00  0.00    -0.363 N 
ATOM     72  H   UNL A   1      31.682  23.454  27.187  1.00  0.00     0.162 HD
BRANCH  71  73
ATOM     73  C   UNL A   1      30.962  24.354  25.394  1.00  0.00     0.184 C 
BRANCH  73  74
ATOM     74  C   UNL A   1      31.959  25.419  24.818  1.00  0.00     0.234 C 
BRANCH  74  75
ATOM     75  N   UNL A   1      31.537  25.816  23.447  1.00  0.00    -0.323 N 
ATOM     76  C   UNL A   1      31.638  24.744  22.442  1.00  0.00     0.291 C 
ATOM     77  C   UNL A   1      32.082  27.064  22.886  1.00  0.00     0.291 C 
ATOM     78  H   UNL A   1      30.556  26.017  23.640  1.00  0.00     0.348 HD
ATOM     79  C   UNL A   1      33.011  24.633  21.768  1.00  0.00     0.221 C 
ATOM     80  C   UNL A   1      33.434  26.914  22.155  1.00  0.00     0.221 C 
ATOM     81  O   UNL A   1      33.385  25.877  21.164  1.00  0.00    -0.370 OA
ENDBRANCH  74  75
BRANCH  74  82
ATOM     82  C   UNL A   1      32.287  26.556  25.785  1.00  0.00     0.011 A 
ATOM     83  C   UNL A   1      31.301  27.194  26.557  1.00  0.00     0.010 A 
ATOM     84  C   UNL A   1      33.611  27.014  25.899  1.00  0.00     0.010 A 
ATOM     85  C   UNL A   1      31.612  28.303  27.347  1.00  0.00     0.001 A 
ATOM     86  C   UNL A   1      33.924  28.115  26.698  1.00  0.00     0.001 A 
ATOM     87  C   UNL A   1      32.920  28.772  27.405  1.00  0.00     0.000 A 
ENDBRANCH  74  82
ENDBRANCH  73  74
ENDBRANCH  71  73
ENDBRANCH  67  71
ENDBRANCH  62  65
ENDBRANCH  60  61
ENDBRANCH  59  60
ENDBRANCH   1  59
TORSDOF 18
ENDMDL
MODEL 3
REMARK VINA RESULT:     -10.8      4.048      9.260
REMARK SMILES O=C(NCCCCCCNC(=O)c1cccnc1NC[C@H](c1ccccc1)[NH+]1CCOCC1)c1ccc(-c2c3nc(c(-c4ccccc4)c4ccc([nH]4)c(-c4ccccc4)c4nc(c(-c5ccccc5)c5ccc2[nH]5)C=C4)C=C3)cc1
REMARK SMILES IDX 7 1 6 2 5 3 4 4 3 5 1 6 2 7 34 9 35 10 81 11 36 12 80 13
REMARK SMILES IDX 37 14 38 15 39 16 74 17 40 18 79 19 73 20 75 21 41 22 78 23
REMARK SMILES IDX 72 24 71 25 42 27 64 28 49 29 63 30 50 31 53 32 62 33 76 34
REMARK SMILES IDX 51 35 52 36 61 38 77 39 54 40 43 41 44 42 48 43 45 44 47 45
REMARK SMILES IDX 46 46 65 47 66 48 70 49 67 50 69 51 68 52 55 53 56 54 60 55
REMARK SMILES IDX 57 56 59 57 58 58 8 59 9 60 10 61 11 62 12 64 13 65 14 66
REMARK SMILES IDX 18 67 15 68 17 69 16 70 19 71 20 73 21 74 28 75 29 76 33 77
REMARK SMILES IDX 30 79 32 80 31 81 22 82 23 83 27 84 24 85 26 86 25 87
REMARK H PARENT 3 8 75 26 53 37 10 63 19 72 28 78
REMARK Flexibility Score: inf
ROOT
ATOM      1  C   UNL A   1      32.291  29.611  27.141  1.00  0.00     0.002 C 
ENDROOT
BRANCH   1   2
ATOM      2  C   UNL A   1      31.575  30.550  26.167  1.00  0.00     0.002 C 
BRANCH   2   3
ATOM      3  C   UNL A   1      31.394  31.986  26.660  1.00  0.00     0.021 C 
BRANCH   3   4
ATOM      4  C   UNL A   1      32.648  32.613  27.253  1.00  0.00     0.116 C 
BRANCH   4   5
ATOM      5  N   UNL A   1      32.440  33.999  27.638  1.00  0.00    -0.352 N 
ATOM      6  O   UNL A   1      32.696  35.844  28.915  1.00  0.00    -0.269 OA
ATOM      7  C   UNL A   1      33.112  34.739  28.575  1.00  0.00     0.251 C 
ATOM      8  H   UNL A   1      31.718  34.469  27.161  1.00  0.00     0.163 HD
BRANCH   7   9
ATOM      9  C   UNL A   1      34.342  34.194  29.188  1.00  0.00     0.039 A 
ATOM     10  C   UNL A   1      34.270  33.418  30.348  1.00  0.00     0.014 A 
ATOM     11  C   UNL A   1      35.575  34.440  28.579  1.00  0.00     0.014 A 
ATOM     12  C   UNL A   1      35.438  32.978  30.960  1.00  0.00     0.010 A 
ATOM     13  C   UNL A   1      36.741  33.927  29.150  1.00  0.00     0.010 A 
ATOM     14  C   UNL A   1      36.681  33.199  30.348  1.00  0.00    -0.014 A 
BRANCH  14  15
ATOM     15  C   UNL A   1      37.892  32.550  30.906  1.00  0.00     0.031 A 
ATOM     16  C   UNL A   1      38.466  31.305  30.294  1.00  0.00     0.074 A 
ATOM     17  C   UNL A   1      38.457  33.098  32.000  1.00  0.00     0.049 A 
ATOM     18  N   UNL A   1      39.496  30.600  30.691  1.00  0.00    -0.248 NA
ATOM     19  C   UNL A   1      37.803  30.778  29.092  1.00  0.00     0.031 C 
ATOM     20  C   UNL A   1      37.974  34.302  32.685  1.00  0.00     0.029 A 
ATOM     21  N   UNL A   1      39.553  32.719  32.731  1.00  0.00    -0.354 N 
ATOM     22  C   UNL A   1      39.590  29.534  29.804  1.00  0.00     0.074 A 
ATOM     23  C   UNL A   1      38.507  29.677  28.856  1.00  0.00     0.031 C 
ATOM     24  C   UNL A   1      38.783  34.574  33.718  1.00  0.00     0.029 A 
ATOM     25  C   UNL A   1      39.794  33.530  33.813  1.00  0.00     0.049 A 
ATOM     26  H   UNL A   1      40.112  31.941  32.502  1.00  0.00     0.167 HD
ATOM     27  C   UNL A   1      40.498  28.529  29.793  1.00  0.00     0.031 A 
ATOM     28  C   UNL A   1      40.703  33.426  34.799  1.00  0.00     0.031 A 
ATOM     29  C   UNL A   1      41.573  28.398  30.743  1.00  0.00     0.049 A 
ATOM     30  C   UNL A   1      41.661  32.271  34.784  1.00  0.00     0.074 A 
ATOM     31  C   UNL A   1      42.583  27.451  30.772  1.00  0.00     0.029 A 
ATOM     32  N   UNL A   1      41.767  29.224  31.839  1.00  0.00    -0.354 N 
ATOM     33  N   UNL A   1      41.784  31.316  33.895  1.00  0.00    -0.248 NA
ATOM     34  C   UNL A   1      42.599  32.177  35.909  1.00  0.00     0.031 C 
ATOM     35  C   UNL A   1      43.346  27.661  31.925  1.00  0.00     0.029 A 
ATOM     36  C   UNL A   1      42.850  28.777  32.579  1.00  0.00     0.049 A 
ATOM     37  H   UNL A   1      41.217  30.010  32.059  1.00  0.00     0.167 HD
ATOM     38  C   UNL A   1      42.822  30.514  34.347  1.00  0.00     0.074 A 
ATOM     39  C   UNL A   1      43.311  31.111  35.573  1.00  0.00     0.031 C 
ATOM     40  C   UNL A   1      43.319  29.380  33.800  1.00  0.00     0.031 A 
BRANCH  27  41
ATOM     41  C   UNL A   1      40.360  27.460  28.745  1.00  0.00    -0.014 A 
ATOM     42  C   UNL A   1      39.568  26.322  28.957  1.00  0.00     0.009 A 
ATOM     43  C   UNL A   1      40.964  27.644  27.490  1.00  0.00     0.009 A 
ATOM     44  C   UNL A   1      39.400  25.379  27.938  1.00  0.00     0.001 A 
ATOM     45  C   UNL A   1      40.774  26.712  26.467  1.00  0.00     0.001 A 
ATOM     46  C   UNL A   1      39.997  25.579  26.693  1.00  0.00     0.000 A 
ENDBRANCH  27  41
BRANCH  28  47
ATOM     47  C   UNL A   1      40.709  34.413  35.911  1.00  0.00    -0.014 A 
ATOM     48  C   UNL A   1      39.939  34.204  37.063  1.00  0.00     0.009 A 
ATOM     49  C   UNL A   1      41.485  35.580  35.815  1.00  0.00     0.009 A 
ATOM     50  C   UNL A   1      39.923  35.157  38.084  1.00  0.00     0.001 A 
ATOM     51  C   UNL A   1      41.495  36.513  36.853  1.00  0.00     0.001 A 
ATOM     52  C   UNL A   1      40.704  36.307  37.980  1.00  0.00     0.000 A 
ENDBRANCH  28  47
BRANCH  40  53
ATOM     53  C   UNL A   1      44.463  28.720  34.515  1.00  0.00    -0.014 A 
ATOM     54  C   UNL A   1      45.792  29.069  34.231  1.00  0.00     0.009 A 
ATOM     55  C   UNL A   1      44.205  27.771  35.516  1.00  0.00     0.009 A 
ATOM     56  C   UNL A   1      46.843  28.459  34.919  1.00  0.00     0.001 A 
ATOM     57  C   UNL A   1      45.256  27.186  36.223  1.00  0.00     0.001 A 
ATOM     58  C   UNL A   1      46.573  27.524  35.918  1.00  0.00     0.000 A 
ENDBRANCH  40  53
ENDBRANCH  14  15
ENDBRANCH   7   9
ENDBRANCH   4   5
ENDBRANCH   3   4
ENDBRANCH   2   3
ENDBRANCH   1   2
BRANCH   1  59
ATOM     59  C   UNL A   1      31.570  28.291  27.436  1.00  0.00     0.021 C 
BRANCH  59  60
ATOM     60  C   UNL A   1      31.864  27.164  26.448  1.00  0.00     0.116 C 
BRANCH  60  61
ATOM     61  N   UNL A   1      30.737  26.920  25.566  1.00  0.00    -0.352 N 
ATOM     62  C   UNL A   1      30.640  27.157  24.218  1.00  0.00     0.255 C 
ATOM     63  H   UNL A   1      29.937  26.535  25.991  1.00  0.00     0.163 HD
ATOM     64  O   UNL A   1      29.539  27.156  23.672  1.00  0.00    -0.269 OA
BRANCH  62  65
ATOM     65  C   UNL A   1      31.860  27.417  23.428  1.00  0.00     0.082 A 
ATOM     66  C   UNL A   1      32.495  28.661  23.533  1.00  0.00     0.019 A 
ATOM     67  C   UNL A   1      32.424  26.411  22.631  1.00  0.00     0.139 A 
ATOM     68  C   UNL A   1      33.634  28.904  22.783  1.00  0.00     0.021 A 
ATOM     69  N   UNL A   1      33.524  26.666  21.884  1.00  0.00    -0.239 NA
ATOM     70  C   UNL A   1      34.100  27.886  21.974  1.00  0.00     0.113 A 
BRANCH  67  71
ATOM     71  N   UNL A   1      31.817  25.166  22.520  1.00  0.00    -0.363 N 
ATOM     72  H   UNL A   1      30.852  25.106  22.335  1.00  0.00     0.162 HD
BRANCH  71  73
ATOM     73  C   UNL A   1      32.603  23.941  22.677  1.00  0.00     0.184 C 
BRANCH  73  74
ATOM     74  C   UNL A   1      33.064  23.742  24.163  1.00  0.00     0.234 C 
BRANCH  74  75
ATOM     75  N   UNL A   1      32.257  22.667  24.802  1.00  0.00    -0.323 N 
ATOM     76  C   UNL A   1      30.872  23.053  25.126  1.00  0.00     0.291 C 
ATOM     77  C   UNL A   1      32.842  21.942  25.943  1.00  0.00     0.291 C 
ATOM     78  H   UNL A   1      32.257  21.997  24.033  1.00  0.00     0.348 HD
ATOM     79  C   UNL A   1      30.704  23.716  26.499  1.00  0.00     0.221 C 
ATOM     80  C   UNL A   1      32.601  22.597  27.322  1.00  0.00     0.221 C 
ATOM     81  O   UNL A   1      31.210  22.871  27.539  1.00  0.00    -0.370 OA
ENDBRANCH  74  75
BRANCH  74  82
ATOM     82  C   UNL A   1      34.579  23.653  24.342  1.00  0.00     0.011 A 
ATOM     83  C   UNL A   1      35.401  22.950  23.445  1.00  0.00     0.010 A 
ATOM     84  C   UNL A   1      35.186  24.264  25.452  1.00  0.00     0.010 A 
ATOM     85  C   UNL A   1      36.766  22.790  23.695  1.00  0.00     0.001 A 
ATOM     86  C   UNL A   1      36.553  24.115  25.696  1.00  0.00     0.001 A 
ATOM     87  C   UNL A   1      37.338  23.361  24.828  1.00  0.00     0.000 A 
ENDBRANCH  74  82
ENDBRANCH  73  74
ENDBRANCH  71  73
ENDBRANCH  67  71
ENDBRANCH  62  65
ENDBRANCH  60  61
ENDBRANCH  59  60
ENDBRANCH   1  59
TORSDOF 18
ENDMDL
