MODEL 1
REMARK VINA RESULT:     -10.3      0.000      0.000
REMARK SMILES CCNS(=O)(=O)c1ccc(CC(=O)NCCCCCCNC(=O)c2ccc(-c3c4nc(c(-c5ccccc5)c5ccc([nH]5)c(-c5ccccc5)c5nc(c(-c6ccccc6)c6ccc3[nH]6)C=C5)C=C4)cc2)cc1
REMARK SMILES IDX 16 1 15 2 14 3 12 4 13 5 11 7 10 8 7 9 8 10 73 11 9 12 72 13
REMARK SMILES IDX 4 14 5 15 6 16 3 17 2 19 1 20 17 21 18 22 19 23 20 24 21 25
REMARK SMILES IDX 22 26 23 28 24 29 25 30 71 31 26 32 70 33 27 34 28 35 29 36
REMARK SMILES IDX 64 37 30 38 69 39 63 40 65 41 31 42 68 43 62 44 61 45 32 47
REMARK SMILES IDX 54 48 39 49 53 50 40 51 43 52 52 53 66 54 41 55 42 56 51 58
REMARK SMILES IDX 67 59 44 60 33 61 34 62 38 63 35 64 37 65 36 66 55 67 56 68
REMARK SMILES IDX 60 69 57 70 59 71 58 72 45 73 46 74 50 75 47 76 49 77 48 78
REMARK H PARENT 14 6 3 18 21 27 65 46 43 57
REMARK Flexibility Score: inf
ROOT
ATOM      1  C   UNL A   1      33.242  29.100  27.135  1.00  0.00     0.021 C 
ENDROOT
BRANCH   1   2
ATOM      2  C   UNL A   1      34.053  28.312  26.105  1.00  0.00     0.116 C 
BRANCH   2   3
ATOM      3  N   UNL A   1      33.711  26.903  26.123  1.00  0.00    -0.356 N 
ATOM      4  C   UNL A   1      33.204  26.126  25.121  1.00  0.00     0.224 C 
ATOM      5  O   UNL A   1      32.889  24.963  25.384  1.00  0.00    -0.275 OA
ATOM      6  H   UNL A   1      33.865  26.442  26.978  1.00  0.00     0.163 HD
BRANCH   4   7
ATOM      7  C   UNL A   1      33.082  26.679  23.711  1.00  0.00     0.135 C 
BRANCH   7   8
ATOM      8  C   UNL A   1      31.819  27.470  23.452  1.00  0.00    -0.039 A 
ATOM      9  C   UNL A   1      29.459  28.870  22.917  1.00  0.00     0.082 A 
ATOM     10  C   UNL A   1      30.679  29.360  22.443  1.00  0.00     0.022 A 
ATOM     11  C   UNL A   1      29.411  27.707  23.689  1.00  0.00     0.022 A 
ATOM     12  C   UNL A   1      31.857  28.667  22.723  1.00  0.00     0.005 A 
ATOM     13  C   UNL A   1      30.591  27.015  23.958  1.00  0.00     0.005 A 
BRANCH   9  14
ATOM     14  S   UNL A   1      27.965  29.701  22.457  1.00  0.00     0.240 S 
ATOM     15  O   UNL A   1      26.848  28.988  23.035  1.00  0.00    -0.207 OA
ATOM     16  O   UNL A   1      28.049  29.986  21.041  1.00  0.00    -0.207 OA
BRANCH  14  17
ATOM     17  N   UNL A   1      28.069  31.190  23.241  1.00  0.00    -0.211 NA
ATOM     18  H   UNL A   1      27.233  31.288  23.817  1.00  0.00     0.141 HD
BRANCH  17  19
ATOM     19  C   UNL A   1      28.177  32.399  22.423  1.00  0.00     0.095 C 
ATOM     20  C   UNL A   1      29.069  33.400  23.137  1.00  0.00     0.022 C 
ENDBRANCH  17  19
ENDBRANCH  14  17
ENDBRANCH   9  14
ENDBRANCH   7   8
ENDBRANCH   4   7
ENDBRANCH   2   3
ENDBRANCH   1   2
BRANCH   1  21
ATOM     21  C   UNL A   1      31.777  29.335  26.740  1.00  0.00     0.002 C 
BRANCH  21  22
ATOM     22  C   UNL A   1      31.517  30.572  25.871  1.00  0.00     0.002 C 
BRANCH  22  23
ATOM     23  C   UNL A   1      31.361  31.890  26.635  1.00  0.00     0.021 C 
BRANCH  23  24
ATOM     24  C   UNL A   1      32.670  32.537  27.082  1.00  0.00     0.116 C 
BRANCH  24  25
ATOM     25  N   UNL A   1      32.471  33.864  27.640  1.00  0.00    -0.352 N 
ATOM     26  C   UNL A   1      33.193  34.526  28.602  1.00  0.00     0.251 C 
ATOM     27  H   UNL A   1      31.704  34.362  27.274  1.00  0.00     0.163 HD
ATOM     28  O   UNL A   1      32.775  35.582  29.069  1.00  0.00    -0.269 OA
BRANCH  26  29
ATOM     29  C   UNL A   1      34.467  33.960  29.099  1.00  0.00     0.039 A 
ATOM     30  C   UNL A   1      34.444  33.150  30.238  1.00  0.00     0.014 A 
ATOM     31  C   UNL A   1      35.679  34.243  28.464  1.00  0.00     0.014 A 
ATOM     32  C   UNL A   1      35.627  32.574  30.705  1.00  0.00     0.010 A 
ATOM     33  C   UNL A   1      36.850  33.623  28.896  1.00  0.00     0.010 A 
ATOM     34  C   UNL A   1      36.835  32.781  30.019  1.00  0.00    -0.014 A 
BRANCH  34  35
ATOM     35  C   UNL A   1      38.090  32.118  30.455  1.00  0.00     0.031 A 
ATOM     36  C   UNL A   1      38.981  32.772  31.474  1.00  0.00     0.074 A 
ATOM     37  C   UNL A   1      38.462  30.957  29.882  1.00  0.00     0.049 A 
ATOM     38  N   UNL A   1      40.146  32.378  31.923  1.00  0.00    -0.248 NA
ATOM     39  C   UNL A   1      38.514  34.044  32.044  1.00  0.00     0.031 C 
ATOM     40  C   UNL A   1      37.707  30.237  28.854  1.00  0.00     0.029 A 
ATOM     41  N   UNL A   1      39.579  30.184  30.077  1.00  0.00    -0.354 N 
ATOM     42  C   UNL A   1      40.560  33.362  32.811  1.00  0.00     0.074 A 
ATOM     43  C   UNL A   1      39.540  34.389  32.808  1.00  0.00     0.031 C 
ATOM     44  C   UNL A   1      38.373  29.118  28.524  1.00  0.00     0.029 A 
ATOM     45  C   UNL A   1      39.614  29.059  29.289  1.00  0.00     0.049 A 
ATOM     46  H   UNL A   1      40.288  30.414  30.721  1.00  0.00     0.167 HD
ATOM     47  C   UNL A   1      41.681  33.402  33.570  1.00  0.00     0.031 A 
ATOM     48  C   UNL A   1      40.544  28.091  29.189  1.00  0.00     0.031 A 
ATOM     49  C   UNL A   1      42.688  32.377  33.590  1.00  0.00     0.049 A 
ATOM     50  C   UNL A   1      41.776  28.157  30.045  1.00  0.00     0.074 A 
ATOM     51  C   UNL A   1      43.827  32.300  34.374  1.00  0.00     0.029 A 
ATOM     52  N   UNL A   1      42.676  31.245  32.790  1.00  0.00    -0.354 N 
ATOM     53  N   UNL A   1      42.122  29.066  30.922  1.00  0.00    -0.248 NA
ATOM     54  C   UNL A   1      42.739  27.055  29.902  1.00  0.00     0.031 C 
ATOM     55  C   UNL A   1      44.526  31.141  34.020  1.00  0.00     0.029 A 
ATOM     56  C   UNL A   1      43.799  30.475  33.046  1.00  0.00     0.049 A 
ATOM     57  H   UNL A   1      41.975  31.022  32.136  1.00  0.00     0.167 HD
ATOM     58  C   UNL A   1      43.331  28.636  31.454  1.00  0.00     0.074 A 
ATOM     59  C   UNL A   1      43.651  27.379  30.809  1.00  0.00     0.031 C 
ATOM     60  C   UNL A   1      44.105  29.230  32.394  1.00  0.00     0.031 A 
BRANCH  47  61
ATOM     61  C   UNL A   1      41.879  34.611  34.441  1.00  0.00    -0.014 A 
ATOM     62  C   UNL A   1      41.439  34.626  35.775  1.00  0.00     0.009 A 
ATOM     63  C   UNL A   1      42.544  35.737  33.932  1.00  0.00     0.009 A 
ATOM     64  C   UNL A   1      41.629  35.758  36.568  1.00  0.00     0.001 A 
ATOM     65  C   UNL A   1      42.755  36.858  34.736  1.00  0.00     0.001 A 
ATOM     66  C   UNL A   1      42.289  36.872  36.050  1.00  0.00     0.000 A 
ENDBRANCH  47  61
BRANCH  48  67
ATOM     67  C   UNL A   1      40.336  26.961  28.247  1.00  0.00    -0.014 A 
ATOM     68  C   UNL A   1      40.853  27.021  26.944  1.00  0.00     0.009 A 
ATOM     69  C   UNL A   1      39.624  25.820  28.646  1.00  0.00     0.009 A 
ATOM     70  C   UNL A   1      40.642  25.968  26.052  1.00  0.00     0.001 A 
ATOM     71  C   UNL A   1      39.435  24.759  27.759  1.00  0.00     0.001 A 
ATOM     72  C   UNL A   1      39.937  24.837  26.461  1.00  0.00     0.000 A 
ENDBRANCH  48  67
BRANCH  60  73
ATOM     73  C   UNL A   1      45.360  28.512  32.800  1.00  0.00    -0.014 A 
ATOM     74  C   UNL A   1      45.351  27.563  33.834  1.00  0.00     0.009 A 
ATOM     75  C   UNL A   1      46.558  28.763  32.114  1.00  0.00     0.009 A 
ATOM     76  C   UNL A   1      46.527  26.900  34.191  1.00  0.00     0.001 A 
ATOM     77  C   UNL A   1      47.726  28.082  32.457  1.00  0.00     0.001 A 
ATOM     78  C   UNL A   1      47.712  27.157  33.500  1.00  0.00     0.000 A 
ENDBRANCH  60  73
ENDBRANCH  34  35
ENDBRANCH  26  29
ENDBRANCH  24  25
ENDBRANCH  23  24
ENDBRANCH  22  23
ENDBRANCH  21  22
ENDBRANCH   1  21
TORSDOF 17
ENDMDL
MODEL 2
REMARK VINA RESULT:     -10.3      0.957      6.043
REMARK SMILES CCNS(=O)(=O)c1ccc(CC(=O)NCCCCCCNC(=O)c2ccc(-c3c4nc(c(-c5ccccc5)c5ccc([nH]5)c(-c5ccccc5)c5nc(c(-c6ccccc6)c6ccc3[nH]6)C=C5)C=C4)cc2)cc1
REMARK SMILES IDX 16 1 15 2 14 3 12 4 13 5 11 7 10 8 7 9 8 10 73 11 9 12 72 13
REMARK SMILES IDX 4 14 5 15 6 16 3 17 2 19 1 20 17 21 18 22 19 23 20 24 21 25
REMARK SMILES IDX 22 26 23 28 24 29 25 30 71 31 26 32 70 33 27 34 28 35 29 36
REMARK SMILES IDX 64 37 30 38 69 39 63 40 65 41 31 42 68 43 62 44 61 45 32 47
REMARK SMILES IDX 54 48 39 49 53 50 40 51 43 52 52 53 66 54 41 55 42 56 51 58
REMARK SMILES IDX 67 59 44 60 33 61 34 62 38 63 35 64 37 65 36 66 55 67 56 68
REMARK SMILES IDX 60 69 57 70 59 71 58 72 45 73 46 74 50 75 47 76 49 77 48 78
REMARK H PARENT 14 6 3 18 21 27 65 46 43 57
REMARK Flexibility Score: inf
ROOT
ATOM      1  C   UNL A   1      33.219  28.883  27.250  1.00  0.00     0.021 C 
ENDROOT
BRANCH   1   2
ATOM      2  C   UNL A   1      34.026  28.159  26.171  1.00  0.00     0.116 C 
BRANCH   2   3
ATOM      3  N   UNL A   1      33.680  26.752  26.103  1.00  0.00    -0.356 N 
ATOM      4  C   UNL A   1      33.190  26.036  25.050  1.00  0.00     0.224 C 
ATOM      5  O   UNL A   1      32.867  24.861  25.240  1.00  0.00    -0.275 OA
ATOM      6  H   UNL A   1      33.817  26.243  26.933  1.00  0.00     0.163 HD
BRANCH   4   7
ATOM      7  C   UNL A   1      33.095  26.669  23.671  1.00  0.00     0.135 C 
BRANCH   7   8
ATOM      8  C   UNL A   1      31.828  27.458  23.427  1.00  0.00    -0.039 A 
ATOM      9  C   UNL A   1      29.459  28.854  22.921  1.00  0.00     0.082 A 
ATOM     10  C   UNL A   1      30.669  29.335  22.414  1.00  0.00     0.022 A 
ATOM     11  C   UNL A   1      29.425  27.703  23.710  1.00  0.00     0.022 A 
ATOM     12  C   UNL A   1      31.852  28.644  22.680  1.00  0.00     0.005 A 
ATOM     13  C   UNL A   1      30.610  27.013  23.965  1.00  0.00     0.005 A 
BRANCH   9  14
ATOM     14  S   UNL A   1      27.957  29.682  22.479  1.00  0.00     0.240 S 
ATOM     15  O   UNL A   1      26.846  28.936  23.028  1.00  0.00    -0.207 OA
ATOM     16  O   UNL A   1      28.045  30.014  21.075  1.00  0.00    -0.207 OA
BRANCH  14  17
ATOM     17  N   UNL A   1      28.038  31.145  23.313  1.00  0.00    -0.211 NA
ATOM     18  H   UNL A   1      27.231  31.183  23.936  1.00  0.00     0.141 HD
BRANCH  17  19
ATOM     19  C   UNL A   1      28.047  32.386  22.537  1.00  0.00     0.095 C 
ATOM     20  C   UNL A   1      29.096  33.321  23.114  1.00  0.00     0.022 C 
ENDBRANCH  17  19
ENDBRANCH  14  17
ENDBRANCH   9  14
ENDBRANCH   7   8
ENDBRANCH   4   7
ENDBRANCH   2   3
ENDBRANCH   1   2
BRANCH   1  21
ATOM     21  C   UNL A   1      31.776  29.215  26.846  1.00  0.00     0.002 C 
BRANCH  21  22
ATOM     22  C   UNL A   1      31.613  30.418  25.909  1.00  0.00     0.002 C 
BRANCH  22  23
ATOM     23  C   UNL A   1      31.376  31.763  26.602  1.00  0.00     0.021 C 
BRANCH  23  24
ATOM     24  C   UNL A   1      32.639  32.477  27.077  1.00  0.00     0.116 C 
BRANCH  24  25
ATOM     25  N   UNL A   1      32.380  33.846  27.491  1.00  0.00    -0.352 N 
ATOM     26  C   UNL A   1      33.021  34.611  28.433  1.00  0.00     0.251 C 
ATOM     27  H   UNL A   1      31.634  34.290  27.027  1.00  0.00     0.163 HD
ATOM     28  O   UNL A   1      32.555  35.697  28.767  1.00  0.00    -0.269 OA
BRANCH  26  29
ATOM     29  C   UNL A   1      34.265  34.123  29.069  1.00  0.00     0.039 A 
ATOM     30  C   UNL A   1      34.168  33.337  30.221  1.00  0.00     0.014 A 
ATOM     31  C   UNL A   1      35.520  34.455  28.551  1.00  0.00     0.014 A 
ATOM     32  C   UNL A   1      35.325  32.833  30.819  1.00  0.00     0.010 A 
ATOM     33  C   UNL A   1      36.670  33.905  29.114  1.00  0.00     0.010 A 
ATOM     34  C   UNL A   1      36.583  33.087  30.251  1.00  0.00    -0.014 A 
BRANCH  34  35
ATOM     35  C   UNL A   1      37.819  32.499  30.828  1.00  0.00     0.031 A 
ATOM     36  C   UNL A   1      38.440  31.278  30.209  1.00  0.00     0.074 A 
ATOM     37  C   UNL A   1      38.344  33.025  31.951  1.00  0.00     0.049 A 
ATOM     38  N   UNL A   1      39.475  30.586  30.613  1.00  0.00    -0.248 NA
ATOM     39  C   UNL A   1      37.802  30.754  28.992  1.00  0.00     0.031 C 
ATOM     40  C   UNL A   1      37.817  34.185  32.673  1.00  0.00     0.029 A 
ATOM     41  N   UNL A   1      39.436  32.642  32.689  1.00  0.00    -0.354 N 
ATOM     42  C   UNL A   1      39.599  29.534  29.714  1.00  0.00     0.074 A 
ATOM     43  C   UNL A   1      38.512  29.658  28.766  1.00  0.00     0.031 C 
ATOM     44  C   UNL A   1      38.597  34.431  33.738  1.00  0.00     0.029 A 
ATOM     45  C   UNL A   1      39.656  33.428  33.794  1.00  0.00     0.049 A 
ATOM     46  H   UNL A   1      40.007  31.876  32.449  1.00  0.00     0.167 HD
ATOM     47  C   UNL A   1      40.540  28.561  29.672  1.00  0.00     0.031 A 
ATOM     48  C   UNL A   1      40.602  33.349  34.749  1.00  0.00     0.031 A 
ATOM     49  C   UNL A   1      41.632  28.444  30.599  1.00  0.00     0.049 A 
ATOM     50  C   UNL A   1      41.636  32.262  34.677  1.00  0.00     0.074 A 
ATOM     51  C   UNL A   1      42.671  27.528  30.599  1.00  0.00     0.029 A 
ATOM     52  N   UNL A   1      41.830  29.272  31.693  1.00  0.00    -0.354 N 
ATOM     53  N   UNL A   1      41.772  31.311  33.786  1.00  0.00    -0.248 NA
ATOM     54  C   UNL A   1      42.653  32.246  35.739  1.00  0.00     0.031 C 
ATOM     55  C   UNL A   1      43.475  27.777  31.716  1.00  0.00     0.029 A 
ATOM     56  C   UNL A   1      42.961  28.874  32.387  1.00  0.00     0.049 A 
ATOM     57  H   UNL A   1      41.251  30.028  31.941  1.00  0.00     0.167 HD
ATOM     58  C   UNL A   1      42.902  30.599  34.165  1.00  0.00     0.074 A 
ATOM     59  C   UNL A   1      43.420  31.234  35.359  1.00  0.00     0.031 C 
ATOM     60  C   UNL A   1      43.461  29.514  33.575  1.00  0.00     0.031 A 
BRANCH  47  61
ATOM     61  C   UNL A   1      40.419  27.533  28.582  1.00  0.00    -0.014 A 
ATOM     62  C   UNL A   1      40.969  27.756  27.309  1.00  0.00     0.009 A 
ATOM     63  C   UNL A   1      39.777  26.313  28.841  1.00  0.00     0.009 A 
ATOM     64  C   UNL A   1      40.844  26.792  26.308  1.00  0.00     0.001 A 
ATOM     65  C   UNL A   1      39.677  25.340  27.845  1.00  0.00     0.001 A 
ATOM     66  C   UNL A   1      40.201  25.583  26.577  1.00  0.00     0.000 A 
ENDBRANCH  47  61
BRANCH  48  67
ATOM     67  C   UNL A   1      40.623  34.342  35.853  1.00  0.00    -0.014 A 
ATOM     68  C   UNL A   1      41.390  35.511  35.738  1.00  0.00     0.009 A 
ATOM     69  C   UNL A   1      39.879  34.126  37.022  1.00  0.00     0.009 A 
ATOM     70  C   UNL A   1      41.426  36.436  36.784  1.00  0.00     0.001 A 
ATOM     71  C   UNL A   1      39.900  35.064  38.057  1.00  0.00     0.001 A 
ATOM     72  C   UNL A   1      40.679  36.214  37.939  1.00  0.00     0.000 A 
ENDBRANCH  48  67
BRANCH  60  73
ATOM     73  C   UNL A   1      44.712  28.965  34.197  1.00  0.00    -0.014 A 
ATOM     74  C   UNL A   1      45.978  29.443  33.825  1.00  0.00     0.009 A 
ATOM     75  C   UNL A   1      44.619  27.982  35.195  1.00  0.00     0.009 A 
ATOM     76  C   UNL A   1      47.129  28.925  34.421  1.00  0.00     0.001 A 
ATOM     77  C   UNL A   1      45.770  27.483  35.805  1.00  0.00     0.001 A 
ATOM     78  C   UNL A   1      47.024  27.949  35.413  1.00  0.00     0.000 A 
ENDBRANCH  60  73
ENDBRANCH  34  35
ENDBRANCH  26  29
ENDBRANCH  24  25
ENDBRANCH  23  24
ENDBRANCH  22  23
ENDBRANCH  21  22
ENDBRANCH   1  21
TORSDOF 17
ENDMDL
MODEL 3
REMARK VINA RESULT:      -9.9      4.582      9.524
REMARK SMILES CCNS(=O)(=O)c1ccc(CC(=O)NCCCCCCNC(=O)c2ccc(-c3c4nc(c(-c5ccccc5)c5ccc([nH]5)c(-c5ccccc5)c5nc(c(-c6ccccc6)c6ccc3[nH]6)C=C5)C=C4)cc2)cc1
REMARK SMILES IDX 16 1 15 2 14 3 12 4 13 5 11 7 10 8 7 9 8 10 73 11 9 12 72 13
REMARK SMILES IDX 4 14 5 15 6 16 3 17 2 19 1 20 17 21 18 22 19 23 20 24 21 25
REMARK SMILES IDX 22 26 23 28 24 29 25 30 71 31 26 32 70 33 27 34 28 35 29 36
REMARK SMILES IDX 64 37 30 38 69 39 63 40 65 41 31 42 68 43 62 44 61 45 32 47
REMARK SMILES IDX 54 48 39 49 53 50 40 51 43 52 52 53 66 54 41 55 42 56 51 58
REMARK SMILES IDX 67 59 44 60 33 61 34 62 38 63 35 64 37 65 36 66 55 67 56 68
REMARK SMILES IDX 60 69 57 70 59 71 58 72 45 73 46 74 50 75 47 76 49 77 48 78
REMARK H PARENT 14 6 3 18 21 27 65 46 43 57
REMARK Flexibility Score: inf
ROOT
ATOM      1  C   UNL A   1      35.742  23.933  25.009  1.00  0.00     0.021 C 
ENDROOT
BRANCH   1   2
ATOM      2  C   UNL A   1      34.412  24.513  25.492  1.00  0.00     0.116 C 
BRANCH   2   3
ATOM      3  N   UNL A   1      33.695  25.169  24.415  1.00  0.00    -0.356 N 
ATOM      4  C   UNL A   1      32.457  24.894  23.911  1.00  0.00     0.224 C 
ATOM      5  O   UNL A   1      32.077  25.518  22.918  1.00  0.00    -0.275 OA
ATOM      6  H   UNL A   1      34.168  25.917  23.987  1.00  0.00     0.163 HD
BRANCH   4   7
ATOM      7  C   UNL A   1      31.560  23.875  24.596  1.00  0.00     0.135 C 
BRANCH   7   8
ATOM      8  C   UNL A   1      31.964  22.434  24.377  1.00  0.00    -0.039 A 
ATOM      9  C   UNL A   1      32.628  19.752  23.949  1.00  0.00     0.082 A 
ATOM     10  C   UNL A   1      32.562  20.251  25.253  1.00  0.00     0.022 A 
ATOM     11  C   UNL A   1      32.403  20.589  22.855  1.00  0.00     0.022 A 
ATOM     12  C   UNL A   1      32.244  21.593  25.464  1.00  0.00     0.005 A 
ATOM     13  C   UNL A   1      32.078  21.928  23.073  1.00  0.00     0.005 A 
BRANCH   9  14
ATOM     14  S   UNL A   1      32.922  18.022  23.708  1.00  0.00     0.240 S 
ATOM     15  O   UNL A   1      34.305  17.745  24.026  1.00  0.00    -0.207 OA
ATOM     16  O   UNL A   1      32.334  17.658  22.438  1.00  0.00    -0.207 OA
BRANCH  14  17
ATOM     17  N   UNL A   1      31.978  17.281  24.892  1.00  0.00    -0.211 NA
ATOM     18  H   UNL A   1      31.534  18.022  25.434  1.00  0.00     0.141 HD
BRANCH  17  19
ATOM     19  C   UNL A   1      32.637  16.382  25.842  1.00  0.00     0.095 C 
ATOM     20  C   UNL A   1      32.704  14.990  25.238  1.00  0.00     0.022 C 
ENDBRANCH  17  19
ENDBRANCH  14  17
ENDBRANCH   9  14
ENDBRANCH   7   8
ENDBRANCH   4   7
ENDBRANCH   2   3
ENDBRANCH   1   2
BRANCH   1  21
ATOM     21  C   UNL A   1      36.094  22.566  25.614  1.00  0.00     0.002 C 
BRANCH  21  22
ATOM     22  C   UNL A   1      35.950  21.368  24.669  1.00  0.00     0.002 C 
BRANCH  22  23
ATOM     23  C   UNL A   1      37.166  20.440  24.595  1.00  0.00     0.021 C 
BRANCH  23  24
ATOM     24  C   UNL A   1      38.328  20.822  25.509  1.00  0.00     0.116 C 
BRANCH  24  25
ATOM     25  N   UNL A   1      39.338  19.781  25.587  1.00  0.00    -0.352 N 
ATOM     26  C   UNL A   1      40.648  19.862  25.988  1.00  0.00     0.251 C 
ATOM     27  H   UNL A   1      39.038  18.884  25.312  1.00  0.00     0.163 HD
ATOM     28  O   UNL A   1      41.402  18.906  25.829  1.00  0.00    -0.269 OA
BRANCH  26  29
ATOM     29  C   UNL A   1      41.168  21.109  26.592  1.00  0.00     0.039 A 
ATOM     30  C   UNL A   1      41.729  22.079  25.756  1.00  0.00     0.014 A 
ATOM     31  C   UNL A   1      41.125  21.315  27.974  1.00  0.00     0.014 A 
ATOM     32  C   UNL A   1      42.192  23.280  26.297  1.00  0.00     0.010 A 
ATOM     33  C   UNL A   1      41.535  22.536  28.506  1.00  0.00     0.010 A 
ATOM     34  C   UNL A   1      42.070  23.531  27.672  1.00  0.00    -0.014 A 
BRANCH  34  35
ATOM     35  C   UNL A   1      42.487  24.830  28.257  1.00  0.00     0.031 A 
ATOM     36  C   UNL A   1      41.477  25.920  28.485  1.00  0.00     0.074 A 
ATOM     37  C   UNL A   1      43.789  25.055  28.518  1.00  0.00     0.049 A 
ATOM     38  N   UNL A   1      41.666  27.141  28.919  1.00  0.00    -0.248 NA
ATOM     39  C   UNL A   1      40.077  25.605  28.163  1.00  0.00     0.031 C 
ATOM     40  C   UNL A   1      44.875  24.095  28.307  1.00  0.00     0.029 A 
ATOM     41  N   UNL A   1      44.421  26.169  29.010  1.00  0.00    -0.354 N 
ATOM     42  C   UNL A   1      40.416  27.745  28.901  1.00  0.00     0.074 A 
ATOM     43  C   UNL A   1      39.483  26.770  28.379  1.00  0.00     0.031 C 
ATOM     44  C   UNL A   1      46.035  24.656  28.685  1.00  0.00     0.029 A 
ATOM     45  C   UNL A   1      45.781  26.021  29.132  1.00  0.00     0.049 A 
ATOM     46  H   UNL A   1      43.944  26.996  29.253  1.00  0.00     0.167 HD
ATOM     47  C   UNL A   1      40.072  28.994  29.297  1.00  0.00     0.031 A 
ATOM     48  C   UNL A   1      46.721  26.889  29.552  1.00  0.00     0.031 A 
ATOM     49  C   UNL A   1      40.991  29.960  29.833  1.00  0.00     0.049 A 
ATOM     50  C   UNL A   1      46.312  28.267  29.989  1.00  0.00     0.074 A 
ATOM     51  C   UNL A   1      40.724  31.229  30.320  1.00  0.00     0.029 A 
ATOM     52  N   UNL A   1      42.357  29.764  29.957  1.00  0.00    -0.354 N 
ATOM     53  N   UNL A   1      45.116  28.801  30.021  1.00  0.00    -0.248 NA
ATOM     54  C   UNL A   1      47.385  29.157  30.458  1.00  0.00     0.031 C 
ATOM     55  C   UNL A   1      41.934  31.816  30.701  1.00  0.00     0.029 A 
ATOM     56  C   UNL A   1      42.949  30.896  30.492  1.00  0.00     0.049 A 
ATOM     57  H   UNL A   1      42.836  28.943  29.702  1.00  0.00     0.167 HD
ATOM     58  C   UNL A   1      45.288  30.080  30.534  1.00  0.00     0.074 A 
ATOM     59  C   UNL A   1      46.701  30.237  30.811  1.00  0.00     0.031 C 
ATOM     60  C   UNL A   1      44.356  31.038  30.758  1.00  0.00     0.031 A 
BRANCH  47  61
ATOM     61  C   UNL A   1      38.629  29.389  29.152  1.00  0.00    -0.014 A 
ATOM     62  C   UNL A   1      37.729  29.259  30.222  1.00  0.00     0.009 A 
ATOM     63  C   UNL A   1      38.171  29.929  27.940  1.00  0.00     0.009 A 
ATOM     64  C   UNL A   1      36.392  29.628  30.069  1.00  0.00     0.001 A 
ATOM     65  C   UNL A   1      36.839  30.320  27.799  1.00  0.00     0.001 A 
ATOM     66  C   UNL A   1      35.948  30.161  28.859  1.00  0.00     0.000 A 
ENDBRANCH  47  61
BRANCH  48  67
ATOM     67  C   UNL A   1      48.145  26.474  29.594  1.00  0.00    -0.014 A 
ATOM     68  C   UNL A   1      48.987  26.716  28.498  1.00  0.00     0.009 A 
ATOM     69  C   UNL A   1      48.670  25.836  30.728  1.00  0.00     0.009 A 
ATOM     70  C   UNL A   1      50.322  26.308  28.529  1.00  0.00     0.001 A 
ATOM     71  C   UNL A   1      50.012  25.450  30.765  1.00  0.00     0.001 A 
ATOM     72  C   UNL A   1      50.834  25.680  29.663  1.00  0.00     0.000 A 
ENDBRANCH  48  67
BRANCH  60  73
ATOM     73  C   UNL A   1      44.834  32.331  31.354  1.00  0.00    -0.014 A 
ATOM     74  C   UNL A   1      45.224  33.405  30.540  1.00  0.00     0.009 A 
ATOM     75  C   UNL A   1      44.858  32.487  32.749  1.00  0.00     0.009 A 
ATOM     76  C   UNL A   1      45.657  34.602  31.113  1.00  0.00     0.001 A 
ATOM     77  C   UNL A   1      45.269  33.692  33.318  1.00  0.00     0.001 A 
ATOM     78  C   UNL A   1      45.676  34.746  32.501  1.00  0.00     0.000 A 
ENDBRANCH  60  73
ENDBRANCH  34  35
ENDBRANCH  26  29
ENDBRANCH  24  25
ENDBRANCH  23  24
ENDBRANCH  22  23
ENDBRANCH  21  22
ENDBRANCH   1  21
TORSDOF 17
ENDMDL
