MODEL 1
REMARK VINA RESULT:     -12.2      0.000      0.000
REMARK SMILES CCc1ccc(S(=O)(=O)c2nnn(-c3ccc(C(=O)NCCCCCCNC(=O)c4ccc(-c5c6nc(c(-c7ccccc7)c7ccc([nH]7)c(-c7ccccc7)c7nc(c(-c8ccccc8)c8ccc5[nH]8)C=C7)C=C6)cc4)cc3)c2C)cc1
REMARK SMILES IDX 22 1 21 2 20 3 18 4 19 5 17 7 14 8 15 9 79 10 16 11 78 12
REMARK SMILES IDX 13 13 10 14 11 15 80 16 12 17 81 18 7 19 8 20 9 21 6 22 3 23
REMARK SMILES IDX 4 24 83 25 5 26 82 27 2 28 1 29 23 30 24 31 25 32 26 33
REMARK SMILES IDX 27 34 28 35 29 37 30 38 31 39 77 40 32 41 76 42 33 43 34 44
REMARK SMILES IDX 35 45 70 46 36 47 75 48 69 49 71 50 37 51 74 52 68 53 67 54
REMARK SMILES IDX 38 56 60 57 45 58 59 59 46 60 49 61 58 62 72 63 47 64 48 65
REMARK SMILES IDX 57 67 73 68 50 69 39 70 40 71 44 72 41 73 43 74 42 75 61 76
REMARK SMILES IDX 62 77 66 78 63 79 65 80 64 81 51 82 52 83 56 84 53 85 55 86
REMARK SMILES IDX 54 87
REMARK H PARENT 20 6 27 36 71 55 49 66
REMARK Flexibility Score: inf
ROOT
ATOM      1  C   UNL A   1      35.207  21.370  26.183  1.00  0.00     0.021 C 
ENDROOT
BRANCH   1   2
ATOM      2  C   UNL A   1      35.277  20.421  24.984  1.00  0.00     0.116 C 
BRANCH   2   3
ATOM      3  N   UNL A   1      34.140  19.520  24.990  1.00  0.00    -0.352 N 
ATOM      4  C   UNL A   1      32.785  19.720  24.908  1.00  0.00     0.251 C 
ATOM      5  O   UNL A   1      32.060  18.726  24.938  1.00  0.00    -0.269 OA
ATOM      6  H   UNL A   1      34.391  18.571  25.071  1.00  0.00     0.163 HD
BRANCH   4   7
ATOM      7  C   UNL A   1      32.166  21.061  24.708  1.00  0.00     0.039 A 
ATOM      8  C   UNL A   1      31.317  23.682  24.237  1.00  0.00     0.067 A 
ATOM      9  C   UNL A   1      31.769  22.912  23.165  1.00  0.00     0.029 A 
ATOM     10  C   UNL A   1      31.174  23.120  25.507  1.00  0.00     0.029 A 
ATOM     11  C   UNL A   1      32.229  21.616  23.415  1.00  0.00     0.016 A 
ATOM     12  C   UNL A   1      31.540  21.792  25.717  1.00  0.00     0.016 A 
BRANCH   8  13
ATOM     13  N   UNL A   1      31.012  25.042  24.055  1.00  0.00    -0.216 N 
ATOM     14  C   UNL A   1      31.063  27.208  23.942  1.00  0.00     0.205 A 
ATOM     15  N   UNL A   1      29.759  26.796  23.874  1.00  0.00    -0.117 NA
ATOM     16  C   UNL A   1      31.897  26.102  23.969  1.00  0.00     0.081 A 
ATOM     17  N   UNL A   1      29.749  25.470  23.851  1.00  0.00    -0.061 NA
ATOM     18  C   UNL A   1      33.359  25.952  23.747  1.00  0.00     0.070 C 
BRANCH  14  19
ATOM     19  S   UNL A   1      31.519  28.862  23.727  1.00  0.00     0.227 S 
ATOM     20  O   UNL A   1      30.277  29.592  23.811  1.00  0.00    -0.217 OA
ATOM     21  O   UNL A   1      32.365  28.891  22.541  1.00  0.00    -0.217 OA
BRANCH  19  22
ATOM     22  C   UNL A   1      32.513  29.298  25.126  1.00  0.00     0.073 A 
ATOM     23  C   UNL A   1      34.201  30.076  27.232  1.00  0.00    -0.048 A 
ATOM     24  C   UNL A   1      34.636  29.154  26.262  1.00  0.00     0.005 A 
ATOM     25  C   UNL A   1      32.901  30.587  27.132  1.00  0.00     0.005 A 
ATOM     26  C   UNL A   1      33.803  28.771  25.207  1.00  0.00     0.021 A 
ATOM     27  C   UNL A   1      32.057  30.192  26.097  1.00  0.00     0.021 A 
BRANCH  23  28
ATOM     28  C   UNL A   1      35.155  30.462  28.339  1.00  0.00     0.032 C 
ATOM     29  C   UNL A   1      36.326  29.517  28.589  1.00  0.00     0.009 C 
ENDBRANCH  23  28
ENDBRANCH  19  22
ENDBRANCH  14  19
ENDBRANCH   8  13
ENDBRANCH   4   7
ENDBRANCH   2   3
ENDBRANCH   1   2
BRANCH   1  30
ATOM     30  C   UNL A   1      35.068  22.845  25.781  1.00  0.00     0.002 C 
BRANCH  30  31
ATOM     31  C   UNL A   1      35.492  23.174  24.339  1.00  0.00     0.002 C 
BRANCH  31  32
ATOM     32  C   UNL A   1      36.995  23.395  24.115  1.00  0.00     0.021 C 
BRANCH  32  33
ATOM     33  C   UNL A   1      37.756  23.710  25.393  1.00  0.00     0.116 C 
BRANCH  33  34
ATOM     34  N   UNL A   1      38.706  22.653  25.734  1.00  0.00    -0.352 N 
ATOM     35  C   UNL A   1      39.898  22.762  26.416  1.00  0.00     0.251 C 
ATOM     36  H   UNL A   1      38.462  21.745  25.440  1.00  0.00     0.163 HD
ATOM     37  O   UNL A   1      40.772  21.911  26.305  1.00  0.00    -0.269 OA
BRANCH  35  38
ATOM     38  C   UNL A   1      40.099  23.923  27.298  1.00  0.00     0.039 A 
ATOM     39  C   UNL A   1      41.346  24.193  27.866  1.00  0.00     0.014 A 
ATOM     40  C   UNL A   1      39.006  24.754  27.536  1.00  0.00     0.014 A 
ATOM     41  C   UNL A   1      41.499  25.355  28.616  1.00  0.00     0.010 A 
ATOM     42  C   UNL A   1      39.190  25.964  28.154  1.00  0.00     0.010 A 
ATOM     43  C   UNL A   1      40.419  26.246  28.737  1.00  0.00    -0.014 A 
BRANCH  43  44
ATOM     44  C   UNL A   1      40.595  27.549  29.361  1.00  0.00     0.031 A 
ATOM     45  C   UNL A   1      41.542  28.439  28.645  1.00  0.00     0.074 A 
ATOM     46  C   UNL A   1      39.830  28.004  30.375  1.00  0.00     0.049 A 
ATOM     47  N   UNL A   1      42.735  28.755  29.019  1.00  0.00    -0.248 NA
ATOM     48  C   UNL A   1      41.192  28.913  27.297  1.00  0.00     0.031 C 
ATOM     49  C   UNL A   1      38.652  27.377  30.986  1.00  0.00     0.029 A 
ATOM     50  N   UNL A   1      39.891  29.204  31.013  1.00  0.00    -0.354 N 
ATOM     51  C   UNL A   1      43.212  29.646  28.066  1.00  0.00     0.074 A 
ATOM     52  C   UNL A   1      42.309  29.556  26.945  1.00  0.00     0.031 C 
ATOM     53  C   UNL A   1      37.983  28.291  31.724  1.00  0.00     0.029 A 
ATOM     54  C   UNL A   1      38.773  29.509  31.781  1.00  0.00     0.049 A 
ATOM     55  H   UNL A   1      40.664  29.808  30.936  1.00  0.00     0.167 HD
ATOM     56  C   UNL A   1      44.152  30.577  28.390  1.00  0.00     0.031 A 
ATOM     57  C   UNL A   1      38.514  30.686  32.402  1.00  0.00     0.031 A 
ATOM     58  C   UNL A   1      44.743  30.301  29.677  1.00  0.00     0.049 A 
ATOM     59  C   UNL A   1      39.804  31.398  32.550  1.00  0.00     0.074 A 
ATOM     60  C   UNL A   1      45.439  29.242  30.227  1.00  0.00     0.029 A 
ATOM     61  N   UNL A   1      44.273  31.038  30.740  1.00  0.00    -0.354 N 
ATOM     62  N   UNL A   1      40.757  30.987  33.334  1.00  0.00    -0.248 NA
ATOM     63  C   UNL A   1      40.213  32.306  31.492  1.00  0.00     0.031 C 
ATOM     64  C   UNL A   1      44.942  29.131  31.561  1.00  0.00     0.029 A 
ATOM     65  C   UNL A   1      44.041  30.176  31.779  1.00  0.00     0.049 A 
ATOM     66  H   UNL A   1      44.129  32.011  30.752  1.00  0.00     0.167 HD
ATOM     67  C   UNL A   1      41.918  31.185  32.601  1.00  0.00     0.074 A 
ATOM     68  C   UNL A   1      41.534  32.104  31.529  1.00  0.00     0.031 C 
ATOM     69  C   UNL A   1      42.996  30.362  32.761  1.00  0.00     0.031 A 
BRANCH  56  70
ATOM     70  C   UNL A   1      44.215  31.955  27.780  1.00  0.00    -0.014 A 
ATOM     71  C   UNL A   1      43.699  33.036  28.517  1.00  0.00     0.009 A 
ATOM     72  C   UNL A   1      44.480  32.187  26.418  1.00  0.00     0.009 A 
ATOM     73  C   UNL A   1      43.387  34.254  27.902  1.00  0.00     0.001 A 
ATOM     74  C   UNL A   1      44.209  33.415  25.809  1.00  0.00     0.001 A 
ATOM     75  C   UNL A   1      43.633  34.439  26.546  1.00  0.00     0.000 A 
ENDBRANCH  56  70
BRANCH  57  76
ATOM     76  C   UNL A   1      37.224  31.360  32.663  1.00  0.00    -0.014 A 
ATOM     77  C   UNL A   1      37.067  32.192  33.784  1.00  0.00     0.009 A 
ATOM     78  C   UNL A   1      36.248  31.430  31.653  1.00  0.00     0.009 A 
ATOM     79  C   UNL A   1      36.006  33.104  33.863  1.00  0.00     0.001 A 
ATOM     80  C   UNL A   1      35.187  32.340  31.734  1.00  0.00     0.001 A 
ATOM     81  C   UNL A   1      35.078  33.191  32.829  1.00  0.00     0.000 A 
ENDBRANCH  57  76
BRANCH  69  82
ATOM     82  C   UNL A   1      42.987  29.408  33.933  1.00  0.00    -0.014 A 
ATOM     83  C   UNL A   1      43.594  29.686  35.172  1.00  0.00     0.009 A 
ATOM     84  C   UNL A   1      42.231  28.233  33.817  1.00  0.00     0.009 A 
ATOM     85  C   UNL A   1      43.481  28.792  36.243  1.00  0.00     0.001 A 
ATOM     86  C   UNL A   1      42.098  27.353  34.892  1.00  0.00     0.001 A 
ATOM     87  C   UNL A   1      42.731  27.626  36.102  1.00  0.00     0.000 A 
ENDBRANCH  69  82
ENDBRANCH  43  44
ENDBRANCH  35  38
ENDBRANCH  33  34
ENDBRANCH  32  33
ENDBRANCH  31  32
ENDBRANCH  30  31
ENDBRANCH   1  30
TORSDOF 17
ENDMDL
MODEL 2
REMARK VINA RESULT:     -11.7      3.775      9.265
REMARK SMILES CCc1ccc(S(=O)(=O)c2nnn(-c3ccc(C(=O)NCCCCCCNC(=O)c4ccc(-c5c6nc(c(-c7ccccc7)c7ccc([nH]7)c(-c7ccccc7)c7nc(c(-c8ccccc8)c8ccc5[nH]8)C=C7)C=C6)cc4)cc3)c2C)cc1
REMARK SMILES IDX 22 1 21 2 20 3 18 4 19 5 17 7 14 8 15 9 79 10 16 11 78 12
REMARK SMILES IDX 13 13 10 14 11 15 80 16 12 17 81 18 7 19 8 20 9 21 6 22 3 23
REMARK SMILES IDX 4 24 83 25 5 26 82 27 2 28 1 29 23 30 24 31 25 32 26 33
REMARK SMILES IDX 27 34 28 35 29 37 30 38 31 39 77 40 32 41 76 42 33 43 34 44
REMARK SMILES IDX 35 45 70 46 36 47 75 48 69 49 71 50 37 51 74 52 68 53 67 54
REMARK SMILES IDX 38 56 60 57 45 58 59 59 46 60 49 61 58 62 72 63 47 64 48 65
REMARK SMILES IDX 57 67 73 68 50 69 39 70 40 71 44 72 41 73 43 74 42 75 61 76
REMARK SMILES IDX 62 77 66 78 63 79 65 80 64 81 51 82 52 83 56 84 53 85 55 86
REMARK SMILES IDX 54 87
REMARK H PARENT 20 6 27 36 71 55 49 66
REMARK Flexibility Score: inf
ROOT
ATOM      1  C   UNL A   1      31.884  28.829  25.263  1.00  0.00     0.021 C 
ENDROOT
BRANCH   1   2
ATOM      2  C   UNL A   1      31.107  30.132  25.054  1.00  0.00     0.116 C 
BRANCH   2   3
ATOM      3  N   UNL A   1      30.409  30.101  23.783  1.00  0.00    -0.352 N 
ATOM      4  C   UNL A   1      30.482  29.272  22.693  1.00  0.00     0.251 C 
ATOM      5  O   UNL A   1      29.736  29.512  21.743  1.00  0.00    -0.269 OA
ATOM      6  H   UNL A   1      29.748  30.824  23.681  1.00  0.00     0.163 HD
BRANCH   4   7
ATOM      7  C   UNL A   1      31.356  28.066  22.639  1.00  0.00     0.039 A 
ATOM      8  C   UNL A   1      32.927  25.766  22.873  1.00  0.00     0.067 A 
ATOM      9  C   UNL A   1      31.551  25.670  23.072  1.00  0.00     0.029 A 
ATOM     10  C   UNL A   1      33.504  26.964  22.446  1.00  0.00     0.029 A 
ATOM     11  C   UNL A   1      30.777  26.832  22.991  1.00  0.00     0.016 A 
ATOM     12  C   UNL A   1      32.701  28.089  22.270  1.00  0.00     0.016 A 
BRANCH   8  13
ATOM     13  N   UNL A   1      33.759  24.659  23.116  1.00  0.00    -0.216 N 
ATOM     14  C   UNL A   1      35.122  23.204  23.973  1.00  0.00     0.205 A 
ATOM     15  N   UNL A   1      35.012  22.963  22.631  1.00  0.00    -0.117 NA
ATOM     16  C   UNL A   1      34.261  24.230  24.331  1.00  0.00     0.081 A 
ATOM     17  N   UNL A   1      34.108  23.799  22.137  1.00  0.00    -0.061 NA
ATOM     18  C   UNL A   1      33.758  24.691  25.651  1.00  0.00     0.070 C 
BRANCH  14  19
ATOM     19  S   UNL A   1      35.999  22.154  25.029  1.00  0.00     0.227 S 
ATOM     20  O   UNL A   1      35.762  22.690  26.348  1.00  0.00    -0.217 OA
ATOM     21  O   UNL A   1      37.335  22.040  24.459  1.00  0.00    -0.217 OA
BRANCH  19  22
ATOM     22  C   UNL A   1      35.218  20.567  24.927  1.00  0.00     0.073 A 
ATOM     23  C   UNL A   1      33.913  18.102  24.606  1.00  0.00    -0.048 A 
ATOM     24  C   UNL A   1      33.179  19.287  24.797  1.00  0.00     0.005 A 
ATOM     25  C   UNL A   1      35.310  18.176  24.594  1.00  0.00     0.005 A 
ATOM     26  C   UNL A   1      33.824  20.517  24.948  1.00  0.00     0.021 A 
ATOM     27  C   UNL A   1      35.962  19.395  24.768  1.00  0.00     0.021 A 
BRANCH  23  28
ATOM     28  C   UNL A   1      33.156  16.804  24.433  1.00  0.00     0.032 C 
ATOM     29  C   UNL A   1      33.615  15.629  25.291  1.00  0.00     0.009 C 
ENDBRANCH  23  28
ENDBRANCH  19  22
ENDBRANCH  14  19
ENDBRANCH   8  13
ENDBRANCH   4   7
ENDBRANCH   2   3
ENDBRANCH   1   2
BRANCH   1  30
ATOM     30  C   UNL A   1      33.381  29.050  25.518  1.00  0.00     0.002 C 
BRANCH  30  31
ATOM     31  C   UNL A   1      33.850  28.772  26.955  1.00  0.00     0.002 C 
BRANCH  31  32
ATOM     32  C   UNL A   1      34.637  29.903  27.635  1.00  0.00     0.021 C 
BRANCH  32  33
ATOM     33  C   UNL A   1      36.142  29.683  27.623  1.00  0.00     0.116 C 
BRANCH  33  34
ATOM     34  N   UNL A   1      36.862  30.828  28.176  1.00  0.00    -0.352 N 
ATOM     35  C   UNL A   1      38.136  30.864  28.700  1.00  0.00     0.251 C 
ATOM     36  H   UNL A   1      36.375  31.684  28.173  1.00  0.00     0.163 HD
ATOM     37  O   UNL A   1      38.480  31.755  29.467  1.00  0.00    -0.269 OA
BRANCH  35  38
ATOM     38  C   UNL A   1      39.088  29.813  28.307  1.00  0.00     0.039 A 
ATOM     39  C   UNL A   1      39.338  29.529  26.964  1.00  0.00     0.014 A 
ATOM     40  C   UNL A   1      39.744  29.120  29.323  1.00  0.00     0.014 A 
ATOM     41  C   UNL A   1      40.316  28.589  26.652  1.00  0.00     0.010 A 
ATOM     42  C   UNL A   1      40.800  28.300  29.018  1.00  0.00     0.010 A 
ATOM     43  C   UNL A   1      41.057  27.994  27.688  1.00  0.00    -0.014 A 
BRANCH  43  44
ATOM     44  C   UNL A   1      42.202  27.146  27.392  1.00  0.00     0.031 A 
ATOM     45  C   UNL A   1      41.884  25.698  27.338  1.00  0.00     0.074 A 
ATOM     46  C   UNL A   1      43.403  27.619  26.998  1.00  0.00     0.049 A 
ATOM     47  N   UNL A   1      42.197  24.807  28.215  1.00  0.00    -0.248 NA
ATOM     48  C   UNL A   1      40.994  25.205  26.274  1.00  0.00     0.031 C 
ATOM     49  C   UNL A   1      43.789  29.003  26.699  1.00  0.00     0.029 A 
ATOM     50  N   UNL A   1      44.526  26.922  26.676  1.00  0.00    -0.354 N 
ATOM     51  C   UNL A   1      41.738  23.596  27.712  1.00  0.00     0.074 A 
ATOM     52  C   UNL A   1      40.848  23.924  26.626  1.00  0.00     0.031 C 
ATOM     53  C   UNL A   1      44.960  29.011  26.023  1.00  0.00     0.029 A 
ATOM     54  C   UNL A   1      45.490  27.659  25.997  1.00  0.00     0.049 A 
ATOM     55  H   UNL A   1      44.646  25.972  26.903  1.00  0.00     0.167 HD
ATOM     56  C   UNL A   1      42.340  22.424  28.058  1.00  0.00     0.031 A 
ATOM     57  C   UNL A   1      46.630  27.181  25.440  1.00  0.00     0.031 A 
ATOM     58  C   UNL A   1      43.240  22.603  29.171  1.00  0.00     0.049 A 
ATOM     59  C   UNL A   1      46.926  25.885  26.090  1.00  0.00     0.074 A 
ATOM     60  C   UNL A   1      43.110  23.051  30.472  1.00  0.00     0.029 A 
ATOM     61  N   UNL A   1      44.579  22.700  28.870  1.00  0.00    -0.354 N 
ATOM     62  N   UNL A   1      47.277  25.778  27.338  1.00  0.00    -0.248 NA
ATOM     63  C   UNL A   1      46.395  24.676  25.484  1.00  0.00     0.031 C 
ATOM     64  C   UNL A   1      44.278  23.838  30.706  1.00  0.00     0.029 A 
ATOM     65  C   UNL A   1      45.094  23.756  29.576  1.00  0.00     0.049 A 
ATOM     66  H   UNL A   1      45.079  22.115  28.257  1.00  0.00     0.167 HD
ATOM     67  C   UNL A   1      46.581  24.670  27.799  1.00  0.00     0.074 A 
ATOM     68  C   UNL A   1      46.149  23.966  26.591  1.00  0.00     0.031 C 
ATOM     69  C   UNL A   1      46.175  24.591  29.101  1.00  0.00     0.031 A 
BRANCH  56  70
ATOM     70  C   UNL A   1      42.470  21.240  27.132  1.00  0.00    -0.014 A 
ATOM     71  C   UNL A   1      41.993  19.992  27.572  1.00  0.00     0.009 A 
ATOM     72  C   UNL A   1      43.294  21.237  25.991  1.00  0.00     0.009 A 
ATOM     73  C   UNL A   1      42.390  18.801  26.954  1.00  0.00     0.001 A 
ATOM     74  C   UNL A   1      43.659  20.053  25.346  1.00  0.00     0.001 A 
ATOM     75  C   UNL A   1      43.232  18.832  25.847  1.00  0.00     0.000 A 
ENDBRANCH  56  70
BRANCH  57  76
ATOM     76  C   UNL A   1      47.357  27.626  24.232  1.00  0.00    -0.014 A 
ATOM     77  C   UNL A   1      48.596  27.055  23.893  1.00  0.00     0.009 A 
ATOM     78  C   UNL A   1      46.696  28.386  23.251  1.00  0.00     0.009 A 
ATOM     79  C   UNL A   1      49.123  27.189  22.602  1.00  0.00     0.001 A 
ATOM     80  C   UNL A   1      47.225  28.522  21.962  1.00  0.00     0.001 A 
ATOM     81  C   UNL A   1      48.428  27.906  21.632  1.00  0.00     0.000 A 
ENDBRANCH  57  76
BRANCH  69  82
ATOM     82  C   UNL A   1      46.729  25.604  30.076  1.00  0.00    -0.014 A 
ATOM     83  C   UNL A   1      48.009  25.513  30.654  1.00  0.00     0.009 A 
ATOM     84  C   UNL A   1      45.973  26.758  30.324  1.00  0.00     0.009 A 
ATOM     85  C   UNL A   1      48.493  26.528  31.489  1.00  0.00     0.001 A 
ATOM     86  C   UNL A   1      46.464  27.780  31.137  1.00  0.00     0.001 A 
ATOM     87  C   UNL A   1      47.720  27.662  31.728  1.00  0.00     0.000 A 
ENDBRANCH  69  82
ENDBRANCH  43  44
ENDBRANCH  35  38
ENDBRANCH  33  34
ENDBRANCH  32  33
ENDBRANCH  31  32
ENDBRANCH  30  31
ENDBRANCH   1  30
TORSDOF 17
ENDMDL
MODEL 3
REMARK VINA RESULT:     -11.7      2.703      8.541
REMARK SMILES CCc1ccc(S(=O)(=O)c2nnn(-c3ccc(C(=O)NCCCCCCNC(=O)c4ccc(-c5c6nc(c(-c7ccccc7)c7ccc([nH]7)c(-c7ccccc7)c7nc(c(-c8ccccc8)c8ccc5[nH]8)C=C7)C=C6)cc4)cc3)c2C)cc1
REMARK SMILES IDX 22 1 21 2 20 3 18 4 19 5 17 7 14 8 15 9 79 10 16 11 78 12
REMARK SMILES IDX 13 13 10 14 11 15 80 16 12 17 81 18 7 19 8 20 9 21 6 22 3 23
REMARK SMILES IDX 4 24 83 25 5 26 82 27 2 28 1 29 23 30 24 31 25 32 26 33
REMARK SMILES IDX 27 34 28 35 29 37 30 38 31 39 77 40 32 41 76 42 33 43 34 44
REMARK SMILES IDX 35 45 70 46 36 47 75 48 69 49 71 50 37 51 74 52 68 53 67 54
REMARK SMILES IDX 38 56 60 57 45 58 59 59 46 60 49 61 58 62 72 63 47 64 48 65
REMARK SMILES IDX 57 67 73 68 50 69 39 70 40 71 44 72 41 73 43 74 42 75 61 76
REMARK SMILES IDX 62 77 66 78 63 79 65 80 64 81 51 82 52 83 56 84 53 85 55 86
REMARK SMILES IDX 54 87
REMARK H PARENT 20 6 27 36 71 55 49 66
REMARK Flexibility Score: inf
ROOT
ATOM      1  C   UNL A   1      31.664  29.696  26.847  1.00  0.00     0.021 C 
ENDROOT
BRANCH   1   2
ATOM      2  C   UNL A   1      31.722  30.863  25.858  1.00  0.00     0.116 C 
BRANCH   2   3
ATOM      3  N   UNL A   1      30.607  30.790  24.931  1.00  0.00    -0.352 N 
ATOM      4  C   UNL A   1      30.291  29.927  23.912  1.00  0.00     0.251 C 
ATOM      5  O   UNL A   1      29.245  30.134  23.295  1.00  0.00    -0.269 OA
ATOM      6  H   UNL A   1      29.943  31.506  25.058  1.00  0.00     0.163 HD
BRANCH   4   7
ATOM      7  C   UNL A   1      31.103  28.725  23.575  1.00  0.00     0.039 A 
ATOM      8  C   UNL A   1      32.615  26.392  23.278  1.00  0.00     0.067 A 
ATOM      9  C   UNL A   1      31.286  26.292  23.689  1.00  0.00     0.029 A 
ATOM     10  C   UNL A   1      33.153  27.625  22.902  1.00  0.00     0.029 A 
ATOM     11  C   UNL A   1      30.549  27.466  23.873  1.00  0.00     0.016 A 
ATOM     12  C   UNL A   1      32.371  28.774  22.993  1.00  0.00     0.016 A 
BRANCH   8  13
ATOM     13  N   UNL A   1      33.438  25.252  23.249  1.00  0.00    -0.216 N 
ATOM     14  C   UNL A   1      34.894  23.704  23.680  1.00  0.00     0.205 A 
ATOM     15  N   UNL A   1      34.499  23.583  22.375  1.00  0.00    -0.117 NA
ATOM     16  C   UNL A   1      34.165  24.710  24.293  1.00  0.00     0.081 A 
ATOM     17  N   UNL A   1      33.543  24.475  22.152  1.00  0.00    -0.061 NA
ATOM     18  C   UNL A   1      33.965  25.065  25.722  1.00  0.00     0.070 C 
BRANCH  14  19
ATOM     19  S   UNL A   1      35.933  22.549  24.439  1.00  0.00     0.227 S 
ATOM     20  O   UNL A   1      36.179  23.095  25.752  1.00  0.00    -0.217 OA
ATOM     21  O   UNL A   1      37.005  22.289  23.486  1.00  0.00    -0.217 OA
BRANCH  19  22
ATOM     22  C   UNL A   1      34.987  21.063  24.624  1.00  0.00     0.073 A 
ATOM     23  C   UNL A   1      33.429  18.730  24.749  1.00  0.00    -0.048 A 
ATOM     24  C   UNL A   1      32.824  19.997  24.665  1.00  0.00     0.005 A 
ATOM     25  C   UNL A   1      34.827  18.658  24.784  1.00  0.00     0.005 A 
ATOM     26  C   UNL A   1      33.595  21.160  24.594  1.00  0.00     0.021 A 
ATOM     27  C   UNL A   1      35.602  19.814  24.737  1.00  0.00     0.021 A 
BRANCH  23  28
ATOM     28  C   UNL A   1      32.540  17.509  24.808  1.00  0.00     0.032 C 
ATOM     29  C   UNL A   1      33.128  16.212  24.262  1.00  0.00     0.009 C 
ENDBRANCH  23  28
ENDBRANCH  19  22
ENDBRANCH  14  19
ENDBRANCH   8  13
ENDBRANCH   4   7
ENDBRANCH   2   3
ENDBRANCH   1   2
BRANCH   1  30
ATOM     30  C   UNL A   1      32.777  28.662  26.629  1.00  0.00     0.002 C 
BRANCH  30  31
ATOM     31  C   UNL A   1      34.208  29.223  26.655  1.00  0.00     0.002 C 
BRANCH  31  32
ATOM     32  C   UNL A   1      34.601  30.004  27.917  1.00  0.00     0.021 C 
BRANCH  32  33
ATOM     33  C   UNL A   1      35.113  31.406  27.625  1.00  0.00     0.116 C 
BRANCH  33  34
ATOM     34  N   UNL A   1      35.252  32.198  28.845  1.00  0.00    -0.352 N 
ATOM     35  C   UNL A   1      36.021  31.927  29.956  1.00  0.00     0.251 C 
ATOM     36  H   UNL A   1      34.732  33.033  28.877  1.00  0.00     0.163 HD
ATOM     37  O   UNL A   1      35.768  32.437  31.040  1.00  0.00    -0.269 OA
BRANCH  35  38
ATOM     38  C   UNL A   1      37.169  31.018  29.812  1.00  0.00     0.039 A 
ATOM     39  C   UNL A   1      38.466  31.509  29.652  1.00  0.00     0.014 A 
ATOM     40  C   UNL A   1      36.920  29.647  29.857  1.00  0.00     0.014 A 
ATOM     41  C   UNL A   1      39.522  30.604  29.614  1.00  0.00     0.010 A 
ATOM     42  C   UNL A   1      37.966  28.766  29.961  1.00  0.00     0.010 A 
ATOM     43  C   UNL A   1      39.263  29.234  29.791  1.00  0.00    -0.014 A 
BRANCH  43  44
ATOM     44  C   UNL A   1      40.355  28.282  29.935  1.00  0.00     0.031 A 
ATOM     45  C   UNL A   1      40.873  28.161  31.320  1.00  0.00     0.074 A 
ATOM     46  C   UNL A   1      40.740  27.431  28.961  1.00  0.00     0.049 A 
ATOM     47  N   UNL A   1      41.993  28.616  31.767  1.00  0.00    -0.248 NA
ATOM     48  C   UNL A   1      39.992  27.609  32.362  1.00  0.00     0.031 C 
ATOM     49  C   UNL A   1      40.129  27.207  27.647  1.00  0.00     0.029 A 
ATOM     50  N   UNL A   1      41.724  26.492  28.994  1.00  0.00    -0.354 N 
ATOM     51  C   UNL A   1      42.066  28.217  33.095  1.00  0.00     0.074 A 
ATOM     52  C   UNL A   1      40.742  27.777  33.455  1.00  0.00     0.031 C 
ATOM     53  C   UNL A   1      40.599  26.054  27.118  1.00  0.00     0.029 A 
ATOM     54  C   UNL A   1      41.665  25.555  27.969  1.00  0.00     0.049 A 
ATOM     55  H   UNL A   1      42.421  26.476  29.689  1.00  0.00     0.167 HD
ATOM     56  C   UNL A   1      43.272  28.031  33.701  1.00  0.00     0.031 A 
ATOM     57  C   UNL A   1      42.430  24.442  27.845  1.00  0.00     0.031 A 
ATOM     58  C   UNL A   1      44.349  28.571  32.909  1.00  0.00     0.049 A 
ATOM     59  C   UNL A   1      43.640  24.646  28.673  1.00  0.00     0.074 A 
ATOM     60  C   UNL A   1      44.666  29.820  32.411  1.00  0.00     0.029 A 
ATOM     61  N   UNL A   1      45.074  27.671  32.162  1.00  0.00    -0.354 N 
ATOM     62  N   UNL A   1      44.556  25.526  28.390  1.00  0.00    -0.248 NA
ATOM     63  C   UNL A   1      43.611  24.195  30.054  1.00  0.00     0.031 C 
ATOM     64  C   UNL A   1      45.173  29.573  31.099  1.00  0.00     0.029 A 
ATOM     65  C   UNL A   1      45.221  28.191  30.902  1.00  0.00     0.049 A 
ATOM     66  H   UNL A   1      45.425  26.807  32.476  1.00  0.00     0.167 HD
ATOM     67  C   UNL A   1      44.887  26.086  29.615  1.00  0.00     0.074 A 
ATOM     68  C   UNL A   1      44.363  25.151  30.611  1.00  0.00     0.031 C 
ATOM     69  C   UNL A   1      45.293  27.387  29.703  1.00  0.00     0.031 A 
BRANCH  56  70
ATOM     70  C   UNL A   1      43.528  26.985  34.758  1.00  0.00    -0.014 A 
ATOM     71  C   UNL A   1      43.433  25.630  34.394  1.00  0.00     0.009 A 
ATOM     72  C   UNL A   1      43.561  27.269  36.136  1.00  0.00     0.009 A 
ATOM     73  C   UNL A   1      43.294  24.624  35.358  1.00  0.00     0.001 A 
ATOM     74  C   UNL A   1      43.464  26.264  37.102  1.00  0.00     0.001 A 
ATOM     75  C   UNL A   1      43.299  24.944  36.711  1.00  0.00     0.000 A 
ENDBRANCH  56  70
BRANCH  57  76
ATOM     76  C   UNL A   1      42.100  23.122  27.268  1.00  0.00    -0.014 A 
ATOM     77  C   UNL A   1      42.880  22.578  26.234  1.00  0.00     0.009 A 
ATOM     78  C   UNL A   1      41.209  22.263  27.936  1.00  0.00     0.009 A 
ATOM     79  C   UNL A   1      42.816  21.214  25.921  1.00  0.00     0.001 A 
ATOM     80  C   UNL A   1      41.144  20.900  27.622  1.00  0.00     0.001 A 
ATOM     81  C   UNL A   1      41.962  20.372  26.629  1.00  0.00     0.000 A 
ENDBRANCH  57  76
BRANCH  69  82
ATOM     82  C   UNL A   1      45.623  28.112  28.418  1.00  0.00    -0.014 A 
ATOM     83  C   UNL A   1      44.683  28.847  27.672  1.00  0.00     0.009 A 
ATOM     84  C   UNL A   1      46.965  28.152  28.013  1.00  0.00     0.009 A 
ATOM     85  C   UNL A   1      45.072  29.561  26.532  1.00  0.00     0.001 A 
ATOM     86  C   UNL A   1      47.357  28.883  26.891  1.00  0.00     0.001 A 
ATOM     87  C   UNL A   1      46.410  29.580  26.144  1.00  0.00     0.000 A 
ENDBRANCH  69  82
ENDBRANCH  43  44
ENDBRANCH  35  38
ENDBRANCH  33  34
ENDBRANCH  32  33
ENDBRANCH  31  32
ENDBRANCH  30  31
ENDBRANCH   1  30
TORSDOF 17
ENDMDL
