MODEL 1
REMARK VINA RESULT:     -11.4      0.000      0.000
REMARK SMILES C[C@@H](C(=O)NCCCCCCNC(=O)c1ccc(-c2c3nc(c(-c4ccccc4)c4ccc([nH]4)c(-c4ccccc4)c4nc(c(-c5ccccc5)c5ccc2[nH]5)C=C4)C=C3)cc1)N1C(=O)/C(=C/c2ccc(F)cc2)SC1=S
REMARK SMILES IDX 8 1 7 2 6 3 5 4 3 5 4 6 2 8 1 9 63 10 64 11 76 12 65 13
REMARK SMILES IDX 66 14 75 15 77 16 67 17 68 18 69 19 74 20 70 21 73 22 71 23
REMARK SMILES IDX 72 24 9 25 10 26 11 27 12 28 13 29 14 31 15 32 16 33 62 34
REMARK SMILES IDX 17 35 61 36 18 37 19 38 20 39 55 40 21 41 60 42 54 43 56 44
REMARK SMILES IDX 22 45 59 46 53 47 52 48 23 50 45 51 30 52 44 53 31 54 34 55
REMARK SMILES IDX 43 56 57 57 32 58 33 59 42 61 58 62 35 63 24 64 25 65 29 66
REMARK SMILES IDX 26 67 28 68 27 69 46 70 47 71 51 72 48 73 50 74 49 75 36 76
REMARK SMILES IDX 37 77 41 78 38 79 40 80 39 81
REMARK H PARENT 5 7 12 30 56 49 34 60
REMARK Flexibility Score: inf
ROOT
ATOM      1  C   UNL A   1      34.562  21.186  24.689  1.00  0.00     0.002 C 
ENDROOT
BRANCH   1   2
ATOM      2  C   UNL A   1      33.433  21.381  25.711  1.00  0.00     0.021 C 
BRANCH   2   3
ATOM      3  C   UNL A   1      32.151  21.943  25.092  1.00  0.00     0.116 C 
BRANCH   3   4
ATOM      4  N   UNL A   1      31.607  22.975  25.953  1.00  0.00    -0.354 N 
ATOM      5  C   UNL A   1      31.944  24.294  26.056  1.00  0.00     0.242 C 
ATOM      6  O   UNL A   1      31.514  24.919  27.030  1.00  0.00    -0.273 OA
ATOM      7  H   UNL A   1      30.885  22.680  26.553  1.00  0.00     0.163 HD
BRANCH   5   8
ATOM      8  C   UNL A   1      32.801  24.967  24.960  1.00  0.00     0.178 C 
ATOM      9  C   UNL A   1      34.294  24.949  25.279  1.00  0.00     0.042 C 
BRANCH   8  10
ATOM     10  N   UNL A   1      32.196  26.298  24.687  1.00  0.00    -0.281 N 
ATOM     11  C   UNL A   1      31.123  26.299  23.797  1.00  0.00     0.266 C 
ATOM     12  C   UNL A   1      32.452  27.505  25.310  1.00  0.00     0.149 C 
ATOM     13  O   UNL A   1      30.701  25.327  23.180  1.00  0.00    -0.268 OA
ATOM     14  C   UNL A   1      30.543  27.659  23.663  1.00  0.00     0.081 C 
ATOM     15  S   UNL A   1      31.419  28.761  24.639  1.00  0.00    -0.054 SA
ATOM     16  S   UNL A   1      33.554  27.919  26.491  1.00  0.00    -0.052 S 
ATOM     17  C   UNL A   1      29.500  27.941  22.869  1.00  0.00     0.029 C 
BRANCH  17  18
ATOM     18  C   UNL A   1      29.013  29.303  22.621  1.00  0.00    -0.024 A 
ATOM     19  C   UNL A   1      28.028  29.882  23.430  1.00  0.00     0.011 A 
ATOM     20  C   UNL A   1      29.573  30.049  21.571  1.00  0.00     0.011 A 
ATOM     21  C   UNL A   1      27.628  31.203  23.203  1.00  0.00     0.040 A 
ATOM     22  C   UNL A   1      29.178  31.368  21.352  1.00  0.00     0.040 A 
ATOM     23  C   UNL A   1      28.211  31.934  22.173  1.00  0.00     0.123 A 
ATOM     24  F   UNL A   1      27.839  33.204  21.970  1.00  0.00    -0.207 F 
ENDBRANCH  17  18
ENDBRANCH   8  10
ENDBRANCH   5   8
ENDBRANCH   3   4
ENDBRANCH   2   3
ENDBRANCH   1   2
BRANCH   1  25
ATOM     25  C   UNL A   1      35.951  21.607  25.180  1.00  0.00     0.002 C 
BRANCH  25  26
ATOM     26  C   UNL A   1      37.042  20.552  24.991  1.00  0.00     0.021 C 
BRANCH  26  27
ATOM     27  C   UNL A   1      38.411  20.976  25.512  1.00  0.00     0.116 C 
BRANCH  27  28
ATOM     28  N   UNL A   1      39.333  19.852  25.590  1.00  0.00    -0.352 N 
ATOM     29  C   UNL A   1      40.658  19.849  25.946  1.00  0.00     0.251 C 
ATOM     30  H   UNL A   1      38.954  18.974  25.355  1.00  0.00     0.163 HD
ATOM     31  O   UNL A   1      41.357  18.856  25.760  1.00  0.00    -0.269 OA
BRANCH  29  32
ATOM     32  C   UNL A   1      41.245  21.064  26.544  1.00  0.00     0.039 A 
ATOM     33  C   UNL A   1      41.847  22.013  25.715  1.00  0.00     0.014 A 
ATOM     34  C   UNL A   1      41.170  21.271  27.924  1.00  0.00     0.014 A 
ATOM     35  C   UNL A   1      42.317  23.207  26.265  1.00  0.00     0.010 A 
ATOM     36  C   UNL A   1      41.566  22.491  28.457  1.00  0.00     0.010 A 
ATOM     37  C   UNL A   1      42.146  23.469  27.634  1.00  0.00    -0.014 A 
BRANCH  37  38
ATOM     38  C   UNL A   1      42.567  24.756  28.242  1.00  0.00     0.031 A 
ATOM     39  C   UNL A   1      41.553  25.840  28.470  1.00  0.00     0.074 A 
ATOM     40  C   UNL A   1      43.871  24.988  28.488  1.00  0.00     0.049 A 
ATOM     41  N   UNL A   1      41.737  27.076  28.858  1.00  0.00    -0.248 NA
ATOM     42  C   UNL A   1      40.150  25.497  28.186  1.00  0.00     0.031 C 
ATOM     43  C   UNL A   1      44.958  24.031  28.274  1.00  0.00     0.029 A 
ATOM     44  N   UNL A   1      44.504  26.115  28.948  1.00  0.00    -0.354 N 
ATOM     45  C   UNL A   1      40.479  27.665  28.838  1.00  0.00     0.074 A 
ATOM     46  C   UNL A   1      39.552  26.667  28.351  1.00  0.00     0.031 C 
ATOM     47  C   UNL A   1      46.122  24.609  28.607  1.00  0.00     0.029 A 
ATOM     48  C   UNL A   1      45.871  25.990  29.010  1.00  0.00     0.049 A 
ATOM     49  H   UNL A   1      44.025  26.934  29.209  1.00  0.00     0.167 HD
ATOM     50  C   UNL A   1      40.124  28.920  29.204  1.00  0.00     0.031 A 
ATOM     51  C   UNL A   1      46.819  26.890  29.330  1.00  0.00     0.031 A 
ATOM     52  C   UNL A   1      41.051  29.908  29.689  1.00  0.00     0.049 A 
ATOM     53  C   UNL A   1      46.412  28.283  29.718  1.00  0.00     0.074 A 
ATOM     54  C   UNL A   1      40.785  31.184  30.150  1.00  0.00     0.029 A 
ATOM     55  N   UNL A   1      42.424  29.730  29.764  1.00  0.00    -0.354 N 
ATOM     56  N   UNL A   1      45.209  28.805  29.768  1.00  0.00    -0.248 NA
ATOM     57  C   UNL A   1      47.486  29.210  30.103  1.00  0.00     0.031 C 
ATOM     58  C   UNL A   1      42.005  31.804  30.441  1.00  0.00     0.029 A 
ATOM     59  C   UNL A   1      43.024  30.888  30.230  1.00  0.00     0.049 A 
ATOM     60  H   UNL A   1      42.902  28.903  29.523  1.00  0.00     0.167 HD
ATOM     61  C   UNL A   1      45.380  30.109  30.216  1.00  0.00     0.074 A 
ATOM     62  C   UNL A   1      46.800  30.296  30.429  1.00  0.00     0.031 C 
ATOM     63  C   UNL A   1      44.440  31.061  30.437  1.00  0.00     0.031 A 
BRANCH  50  64
ATOM     64  C   UNL A   1      38.675  29.296  29.058  1.00  0.00    -0.014 A 
ATOM     65  C   UNL A   1      37.768  29.157  30.122  1.00  0.00     0.009 A 
ATOM     66  C   UNL A   1      38.207  29.797  27.833  1.00  0.00     0.009 A 
ATOM     67  C   UNL A   1      36.416  29.456  29.944  1.00  0.00     0.001 A 
ATOM     68  C   UNL A   1      36.862  30.129  27.669  1.00  0.00     0.001 A 
ATOM     69  C   UNL A   1      35.964  29.943  28.719  1.00  0.00     0.000 A 
ENDBRANCH  50  64
BRANCH  51  70
ATOM     70  C   UNL A   1      48.250  26.490  29.290  1.00  0.00    -0.014 A 
ATOM     71  C   UNL A   1      49.022  26.705  28.139  1.00  0.00     0.009 A 
ATOM     72  C   UNL A   1      48.862  25.925  30.421  1.00  0.00     0.009 A 
ATOM     73  C   UNL A   1      50.374  26.352  28.116  1.00  0.00     0.001 A 
ATOM     74  C   UNL A   1      50.221  25.600  30.406  1.00  0.00     0.001 A 
ATOM     75  C   UNL A   1      50.974  25.808  29.252  1.00  0.00     0.000 A 
ENDBRANCH  51  70
BRANCH  63  76
ATOM     76  C   UNL A   1      44.902  32.388  30.974  1.00  0.00    -0.014 A 
ATOM     77  C   UNL A   1      45.327  33.416  30.120  1.00  0.00     0.009 A 
ATOM     78  C   UNL A   1      44.827  32.635  32.355  1.00  0.00     0.009 A 
ATOM     79  C   UNL A   1      45.681  34.662  30.642  1.00  0.00     0.001 A 
ATOM     80  C   UNL A   1      45.155  33.890  32.869  1.00  0.00     0.001 A 
ATOM     81  C   UNL A   1      45.586  34.901  32.014  1.00  0.00     0.000 A 
ENDBRANCH  63  76
ENDBRANCH  37  38
ENDBRANCH  29  32
ENDBRANCH  27  28
ENDBRANCH  26  27
ENDBRANCH  25  26
ENDBRANCH   1  25
TORSDOF 15
ENDMDL
MODEL 2
REMARK VINA RESULT:     -10.9      3.280      5.380
REMARK SMILES C[C@@H](C(=O)NCCCCCCNC(=O)c1ccc(-c2c3nc(c(-c4ccccc4)c4ccc([nH]4)c(-c4ccccc4)c4nc(c(-c5ccccc5)c5ccc2[nH]5)C=C4)C=C3)cc1)N1C(=O)/C(=C/c2ccc(F)cc2)SC1=S
REMARK SMILES IDX 8 1 7 2 6 3 5 4 3 5 4 6 2 8 1 9 63 10 64 11 76 12 65 13
REMARK SMILES IDX 66 14 75 15 77 16 67 17 68 18 69 19 74 20 70 21 73 22 71 23
REMARK SMILES IDX 72 24 9 25 10 26 11 27 12 28 13 29 14 31 15 32 16 33 62 34
REMARK SMILES IDX 17 35 61 36 18 37 19 38 20 39 55 40 21 41 60 42 54 43 56 44
REMARK SMILES IDX 22 45 59 46 53 47 52 48 23 50 45 51 30 52 44 53 31 54 34 55
REMARK SMILES IDX 43 56 57 57 32 58 33 59 42 61 58 62 35 63 24 64 25 65 29 66
REMARK SMILES IDX 26 67 28 68 27 69 46 70 47 71 51 72 48 73 50 74 49 75 36 76
REMARK SMILES IDX 37 77 41 78 38 79 40 80 39 81
REMARK H PARENT 5 7 12 30 56 49 34 60
REMARK Flexibility Score: inf
ROOT
ATOM      1  C   UNL A   1      36.429  21.762  24.217  1.00  0.00     0.002 C 
ENDROOT
BRANCH   1   2
ATOM      2  C   UNL A   1      35.727  22.967  24.862  1.00  0.00     0.021 C 
BRANCH   2   3
ATOM      3  C   UNL A   1      35.036  23.876  23.843  1.00  0.00     0.116 C 
BRANCH   3   4
ATOM      4  N   UNL A   1      34.253  24.879  24.540  1.00  0.00    -0.354 N 
ATOM      5  C   UNL A   1      32.935  25.210  24.400  1.00  0.00     0.242 C 
ATOM      6  O   UNL A   1      32.552  26.260  24.925  1.00  0.00    -0.273 OA
ATOM      7  H   UNL A   1      34.745  25.399  25.214  1.00  0.00     0.163 HD
BRANCH   5   8
ATOM      8  C   UNL A   1      31.971  24.268  23.644  1.00  0.00     0.178 C 
ATOM      9  C   UNL A   1      30.544  24.806  23.580  1.00  0.00     0.042 C 
BRANCH   8  10
ATOM     10  N   UNL A   1      32.143  22.910  24.223  1.00  0.00    -0.281 N 
ATOM     11  C   UNL A   1      32.495  21.910  23.316  1.00  0.00     0.266 C 
ATOM     12  C   UNL A   1      32.152  22.534  25.553  1.00  0.00     0.149 C 
ATOM     13  O   UNL A   1      32.596  22.045  22.102  1.00  0.00    -0.268 OA
ATOM     14  C   UNL A   1      32.724  20.618  24.010  1.00  0.00     0.081 C 
ATOM     15  S   UNL A   1      32.448  20.805  25.691  1.00  0.00    -0.054 SA
ATOM     16  S   UNL A   1      31.894  23.416  26.945  1.00  0.00    -0.052 S 
ATOM     17  C   UNL A   1      33.074  19.491  23.373  1.00  0.00     0.029 C 
BRANCH  17  18
ATOM     18  C   UNL A   1      33.161  18.180  24.029  1.00  0.00    -0.024 A 
ATOM     19  C   UNL A   1      32.216  17.779  24.981  1.00  0.00     0.011 A 
ATOM     20  C   UNL A   1      34.195  17.302  23.667  1.00  0.00     0.011 A 
ATOM     21  C   UNL A   1      32.294  16.501  25.543  1.00  0.00     0.040 A 
ATOM     22  C   UNL A   1      34.266  16.025  24.224  1.00  0.00     0.040 A 
ATOM     23  C   UNL A   1      33.312  15.636  25.155  1.00  0.00     0.123 A 
ATOM     24  F   UNL A   1      33.372  14.407  25.682  1.00  0.00    -0.207 F 
ENDBRANCH  17  18
ENDBRANCH   8  10
ENDBRANCH   5   8
ENDBRANCH   3   4
ENDBRANCH   2   3
ENDBRANCH   1   2
BRANCH   1  25
ATOM     25  C   UNL A   1      36.232  20.434  24.957  1.00  0.00     0.002 C 
BRANCH  25  26
ATOM     26  C   UNL A   1      37.461  19.523  24.969  1.00  0.00     0.021 C 
BRANCH  26  27
ATOM     27  C   UNL A   1      38.727  20.197  25.484  1.00  0.00     0.116 C 
BRANCH  27  28
ATOM     28  N   UNL A   1      39.805  19.241  25.690  1.00  0.00    -0.352 N 
ATOM     29  C   UNL A   1      41.100  19.474  26.080  1.00  0.00     0.251 C 
ATOM     30  H   UNL A   1      39.574  18.298  25.525  1.00  0.00     0.163 HD
ATOM     31  O   UNL A   1      41.948  18.589  26.004  1.00  0.00    -0.269 OA
BRANCH  29  32
ATOM     32  C   UNL A   1      41.470  20.811  26.581  1.00  0.00     0.039 A 
ATOM     33  C   UNL A   1      41.736  20.985  27.941  1.00  0.00     0.014 A 
ATOM     34  C   UNL A   1      41.580  21.885  25.693  1.00  0.00     0.014 A 
ATOM     35  C   UNL A   1      42.179  22.226  28.402  1.00  0.00     0.010 A 
ATOM     36  C   UNL A   1      42.097  23.095  26.139  1.00  0.00     0.010 A 
ATOM     37  C   UNL A   1      42.398  23.278  27.498  1.00  0.00    -0.014 A 
BRANCH  37  38
ATOM     38  C   UNL A   1      42.937  24.589  27.939  1.00  0.00     0.031 A 
ATOM     39  C   UNL A   1      41.993  25.696  28.310  1.00  0.00     0.074 A 
ATOM     40  C   UNL A   1      44.264  24.816  27.903  1.00  0.00     0.049 A 
ATOM     41  N   UNL A   1      42.254  26.948  28.586  1.00  0.00    -0.248 NA
ATOM     42  C   UNL A   1      40.560  25.358  28.335  1.00  0.00     0.031 C 
ATOM     43  C   UNL A   1      45.282  23.834  27.524  1.00  0.00     0.029 A 
ATOM     44  N   UNL A   1      44.980  25.957  28.164  1.00  0.00    -0.354 N 
ATOM     45  C   UNL A   1      41.020  27.553  28.790  1.00  0.00     0.074 A 
ATOM     46  C   UNL A   1      40.011  26.543  28.555  1.00  0.00     0.031 C 
ATOM     47  C   UNL A   1      46.491  24.414  27.583  1.00  0.00     0.029 A 
ATOM     48  C   UNL A   1      46.330  25.817  27.955  1.00  0.00     0.049 A 
ATOM     49  H   UNL A   1      44.566  26.795  28.473  1.00  0.00     0.167 HD
ATOM     50  C   UNL A   1      40.750  28.829  29.153  1.00  0.00     0.031 A 
ATOM     51  C   UNL A   1      47.326  26.719  28.028  1.00  0.00     0.031 A 
ATOM     52  C   UNL A   1      41.759  29.828  29.387  1.00  0.00     0.049 A 
ATOM     53  C   UNL A   1      47.009  28.136  28.415  1.00  0.00     0.074 A 
ATOM     54  C   UNL A   1      41.595  31.130  29.825  1.00  0.00     0.029 A 
ATOM     55  N   UNL A   1      43.118  29.636  29.192  1.00  0.00    -0.354 N 
ATOM     56  N   UNL A   1      45.843  28.676  28.680  1.00  0.00    -0.248 NA
ATOM     57  C   UNL A   1      48.142  29.067  28.525  1.00  0.00     0.031 C 
ATOM     58  C   UNL A   1      42.850  31.747  29.828  1.00  0.00     0.029 A 
ATOM     59  C   UNL A   1      43.803  30.808  29.465  1.00  0.00     0.049 A 
ATOM     60  H   UNL A   1      43.535  28.792  28.903  1.00  0.00     0.167 HD
ATOM     61  C   UNL A   1      46.105  29.999  29.014  1.00  0.00     0.074 A 
ATOM     62  C   UNL A   1      47.540  30.178  28.925  1.00  0.00     0.031 C 
ATOM     63  C   UNL A   1      45.232  30.973  29.371  1.00  0.00     0.031 A 
BRANCH  50  64
ATOM     64  C   UNL A   1      39.303  29.216  29.284  1.00  0.00    -0.014 A 
ATOM     65  C   UNL A   1      38.588  29.769  28.208  1.00  0.00     0.009 A 
ATOM     66  C   UNL A   1      38.641  29.027  30.508  1.00  0.00     0.009 A 
ATOM     67  C   UNL A   1      37.263  30.177  28.373  1.00  0.00     0.001 A 
ATOM     68  C   UNL A   1      37.306  29.402  30.659  1.00  0.00     0.001 A 
ATOM     69  C   UNL A   1      36.622  29.991  29.597  1.00  0.00     0.000 A 
ENDBRANCH  50  64
BRANCH  51  70
ATOM     70  C   UNL A   1      48.718  26.299  27.720  1.00  0.00    -0.014 A 
ATOM     71  C   UNL A   1      49.214  26.369  26.410  1.00  0.00     0.009 A 
ATOM     72  C   UNL A   1      49.572  25.861  28.745  1.00  0.00     0.009 A 
ATOM     73  C   UNL A   1      50.533  25.998  26.131  1.00  0.00     0.001 A 
ATOM     74  C   UNL A   1      50.897  25.519  28.469  1.00  0.00     0.001 A 
ATOM     75  C   UNL A   1      51.375  25.582  27.161  1.00  0.00     0.000 A 
ENDBRANCH  51  70
BRANCH  63  76
ATOM     76  C   UNL A   1      45.797  32.319  29.732  1.00  0.00    -0.014 A 
ATOM     77  C   UNL A   1      46.229  32.607  31.035  1.00  0.00     0.009 A 
ATOM     78  C   UNL A   1      45.976  33.284  28.727  1.00  0.00     0.009 A 
ATOM     79  C   UNL A   1      46.815  33.840  31.326  1.00  0.00     0.001 A 
ATOM     80  C   UNL A   1      46.588  34.504  29.015  1.00  0.00     0.001 A 
ATOM     81  C   UNL A   1      47.003  34.783  30.315  1.00  0.00     0.000 A 
ENDBRANCH  63  76
ENDBRANCH  37  38
ENDBRANCH  29  32
ENDBRANCH  27  28
ENDBRANCH  26  27
ENDBRANCH  25  26
ENDBRANCH   1  25
TORSDOF 15
ENDMDL
MODEL 3
REMARK VINA RESULT:     -10.8      5.367     10.415
REMARK SMILES C[C@@H](C(=O)NCCCCCCNC(=O)c1ccc(-c2c3nc(c(-c4ccccc4)c4ccc([nH]4)c(-c4ccccc4)c4nc(c(-c5ccccc5)c5ccc2[nH]5)C=C4)C=C3)cc1)N1C(=O)/C(=C/c2ccc(F)cc2)SC1=S
REMARK SMILES IDX 8 1 7 2 6 3 5 4 3 5 4 6 2 8 1 9 63 10 64 11 76 12 65 13
REMARK SMILES IDX 66 14 75 15 77 16 67 17 68 18 69 19 74 20 70 21 73 22 71 23
REMARK SMILES IDX 72 24 9 25 10 26 11 27 12 28 13 29 14 31 15 32 16 33 62 34
REMARK SMILES IDX 17 35 61 36 18 37 19 38 20 39 55 40 21 41 60 42 54 43 56 44
REMARK SMILES IDX 22 45 59 46 53 47 52 48 23 50 45 51 30 52 44 53 31 54 34 55
REMARK SMILES IDX 43 56 57 57 32 58 33 59 42 61 58 62 35 63 24 64 25 65 29 66
REMARK SMILES IDX 26 67 28 68 27 69 46 70 47 71 51 72 48 73 50 74 49 75 36 76
REMARK SMILES IDX 37 77 41 78 38 79 40 80 39 81
REMARK H PARENT 5 7 12 30 56 49 34 60
REMARK Flexibility Score: inf
ROOT
ATOM      1  C   UNL A   1      35.112  32.944  28.269  1.00  0.00     0.002 C 
ENDROOT
BRANCH   1   2
ATOM      2  C   UNL A   1      34.629  31.489  28.363  1.00  0.00     0.021 C 
BRANCH   2   3
ATOM      3  C   UNL A   1      33.668  31.100  27.237  1.00  0.00     0.116 C 
BRANCH   3   4
ATOM      4  N   UNL A   1      32.753  30.079  27.710  1.00  0.00    -0.354 N 
ATOM      5  C   UNL A   1      31.949  29.232  27.002  1.00  0.00     0.242 C 
ATOM      6  O   UNL A   1      31.076  28.621  27.625  1.00  0.00    -0.273 OA
ATOM      7  H   UNL A   1      32.704  29.983  28.687  1.00  0.00     0.163 HD
BRANCH   5   8
ATOM      8  C   UNL A   1      32.170  29.033  25.485  1.00  0.00     0.178 C 
ATOM      9  C   UNL A   1      31.084  29.690  24.636  1.00  0.00     0.042 C 
BRANCH   8  10
ATOM     10  N   UNL A   1      32.399  27.581  25.263  1.00  0.00    -0.281 N 
ATOM     11  C   UNL A   1      33.567  27.065  25.822  1.00  0.00     0.266 C 
ATOM     12  C   UNL A   1      31.540  26.647  24.714  1.00  0.00     0.149 C 
ATOM     13  O   UNL A   1      34.433  27.712  26.400  1.00  0.00    -0.268 OA
ATOM     14  C   UNL A   1      33.653  25.597  25.615  1.00  0.00     0.081 C 
ATOM     15  S   UNL A   1      32.288  25.055  24.734  1.00  0.00    -0.054 SA
ATOM     16  S   UNL A   1      30.023  26.812  24.040  1.00  0.00    -0.052 S 
ATOM     17  C   UNL A   1      34.677  24.850  26.054  1.00  0.00     0.029 C 
BRANCH  17  18
ATOM     18  C   UNL A   1      34.841  23.427  25.730  1.00  0.00    -0.024 A 
ATOM     19  C   UNL A   1      34.251  22.430  26.514  1.00  0.00     0.011 A 
ATOM     20  C   UNL A   1      35.578  23.066  24.590  1.00  0.00     0.011 A 
ATOM     21  C   UNL A   1      34.377  21.087  26.145  1.00  0.00     0.040 A 
ATOM     22  C   UNL A   1      35.696  21.728  24.219  1.00  0.00     0.040 A 
ATOM     23  C   UNL A   1      35.091  20.750  24.999  1.00  0.00     0.123 A 
ATOM     24  F   UNL A   1      35.195  19.465  24.638  1.00  0.00    -0.207 F 
ENDBRANCH  17  18
ENDBRANCH   8  10
ENDBRANCH   5   8
ENDBRANCH   3   4
ENDBRANCH   2   3
ENDBRANCH   1   2
BRANCH   1  25
ATOM     25  C   UNL A   1      34.030  33.954  27.872  1.00  0.00     0.002 C 
BRANCH  25  26
ATOM     26  C   UNL A   1      33.175  34.463  29.034  1.00  0.00     0.021 C 
BRANCH  26  27
ATOM     27  C   UNL A   1      33.489  35.895  29.453  1.00  0.00     0.116 C 
BRANCH  27  28
ATOM     28  N   UNL A   1      32.632  36.341  30.542  1.00  0.00    -0.352 N 
ATOM     29  C   UNL A   1      32.651  35.963  31.861  1.00  0.00     0.251 C 
ATOM     30  H   UNL A   1      31.945  37.003  30.300  1.00  0.00     0.163 HD
ATOM     31  O   UNL A   1      31.730  36.267  32.615  1.00  0.00    -0.269 OA
BRANCH  29  32
ATOM     32  C   UNL A   1      33.787  35.169  32.366  1.00  0.00     0.039 A 
ATOM     33  C   UNL A   1      33.560  33.881  32.858  1.00  0.00     0.014 A 
ATOM     34  C   UNL A   1      35.082  35.693  32.323  1.00  0.00     0.014 A 
ATOM     35  C   UNL A   1      34.643  33.092  33.247  1.00  0.00     0.010 A 
ATOM     36  C   UNL A   1      36.163  34.879  32.635  1.00  0.00     0.010 A 
ATOM     37  C   UNL A   1      35.955  33.572  33.103  1.00  0.00    -0.014 A 
BRANCH  37  38
ATOM     38  C   UNL A   1      37.135  32.737  33.437  1.00  0.00     0.031 A 
ATOM     39  C   UNL A   1      37.900  32.999  34.702  1.00  0.00     0.074 A 
ATOM     40  C   UNL A   1      37.579  31.820  32.556  1.00  0.00     0.049 A 
ATOM     41  N   UNL A   1      39.029  32.479  35.109  1.00  0.00    -0.248 NA
ATOM     42  C   UNL A   1      37.337  34.009  35.613  1.00  0.00     0.031 C 
ATOM     43  C   UNL A   1      36.948  31.498  31.275  1.00  0.00     0.029 A 
ATOM     44  N   UNL A   1      38.686  31.010  32.596  1.00  0.00    -0.354 N 
ATOM     45  C   UNL A   1      39.326  33.118  36.306  1.00  0.00     0.074 A 
ATOM     46  C   UNL A   1      38.286  34.097  36.532  1.00  0.00     0.031 C 
ATOM     47  C   UNL A   1      37.673  30.555  30.655  1.00  0.00     0.029 A 
ATOM     48  C   UNL A   1      38.844  30.242  31.468  1.00  0.00     0.049 A 
ATOM     49  H   UNL A   1      39.306  30.980  33.360  1.00  0.00     0.167 HD
ATOM     50  C   UNL A   1      40.364  32.901  37.149  1.00  0.00     0.031 A 
ATOM     51  C   UNL A   1      39.833  29.399  31.113  1.00  0.00     0.031 A 
ATOM     52  C   UNL A   1      41.395  31.923  36.919  1.00  0.00     0.049 A 
ATOM     53  C   UNL A   1      40.987  29.181  32.052  1.00  0.00     0.074 A 
ATOM     54  C   UNL A   1      42.451  31.577  37.742  1.00  0.00     0.029 A 
ATOM     55  N   UNL A   1      41.502  31.145  35.776  1.00  0.00    -0.354 N 
ATOM     56  N   UNL A   1      41.216  29.736  33.218  1.00  0.00    -0.248 NA
ATOM     57  C   UNL A   1      42.013  28.215  31.633  1.00  0.00     0.031 C 
ATOM     58  C   UNL A   1      43.237  30.637  37.067  1.00  0.00     0.029 A 
ATOM     59  C   UNL A   1      42.629  30.345  35.855  1.00  0.00     0.049 A 
ATOM     60  H   UNL A   1      40.871  31.159  35.020  1.00  0.00     0.167 HD
ATOM     61  C   UNL A   1      42.394  29.168  33.684  1.00  0.00     0.074 A 
ATOM     62  C   UNL A   1      42.828  28.220  32.678  1.00  0.00     0.031 C 
ATOM     63  C   UNL A   1      43.051  29.406  34.846  1.00  0.00     0.031 A 
BRANCH  50  64
ATOM     64  C   UNL A   1      40.444  33.763  38.378  1.00  0.00    -0.014 A 
ATOM     65  C   UNL A   1      39.813  33.395  39.579  1.00  0.00     0.009 A 
ATOM     66  C   UNL A   1      41.164  34.968  38.336  1.00  0.00     0.009 A 
ATOM     67  C   UNL A   1      39.852  34.241  40.688  1.00  0.00     0.001 A 
ATOM     68  C   UNL A   1      41.232  35.794  39.458  1.00  0.00     0.001 A 
ATOM     69  C   UNL A   1      40.562  35.439  40.628  1.00  0.00     0.000 A 
ENDBRANCH  50  64
BRANCH  51  70
ATOM     70  C   UNL A   1      39.766  28.706  29.801  1.00  0.00    -0.014 A 
ATOM     71  C   UNL A   1      40.227  29.334  28.635  1.00  0.00     0.009 A 
ATOM     72  C   UNL A   1      39.277  27.392  29.715  1.00  0.00     0.009 A 
ATOM     73  C   UNL A   1      40.188  28.666  27.408  1.00  0.00     0.001 A 
ATOM     74  C   UNL A   1      39.266  26.716  28.494  1.00  0.00     0.001 A 
ATOM     75  C   UNL A   1      39.715  27.356  27.339  1.00  0.00     0.000 A 
ENDBRANCH  51  70
BRANCH  63  76
ATOM     76  C   UNL A   1      44.293  28.605  35.124  1.00  0.00    -0.014 A 
ATOM     77  C   UNL A   1      44.231  27.349  35.745  1.00  0.00     0.009 A 
ATOM     78  C   UNL A   1      45.535  29.084  34.677  1.00  0.00     0.009 A 
ATOM     79  C   UNL A   1      45.393  26.596  35.926  1.00  0.00     0.001 A 
ATOM     80  C   UNL A   1      46.689  28.316  34.833  1.00  0.00     0.001 A 
ATOM     81  C   UNL A   1      46.619  27.075  35.462  1.00  0.00     0.000 A 
ENDBRANCH  63  76
ENDBRANCH  37  38
ENDBRANCH  29  32
ENDBRANCH  27  28
ENDBRANCH  26  27
ENDBRANCH  25  26
ENDBRANCH   1  25
TORSDOF 15
ENDMDL
