MODEL 1
REMARK VINA RESULT:     -11.0      0.000      0.000
REMARK SMILES O=C(NCCCCCCNC(=O)[C@H]1C[C@H]2CCCC[C@H]2[N@@H+]1CC(=O)N1CCCC1)c1ccc(-c2c3nc(c(-c4ccccc4)c4ccc([nH]4)c(-c4ccccc4)c4nc(c(-c5ccccc5)c5ccc2[nH]5)C=C4)C=C3)cc1
REMARK SMILES IDX 6 1 5 2 4 3 3 4 1 5 2 6 30 8 31 9 77 10 32 11 76 12 33 13
REMARK SMILES IDX 34 14 35 15 70 16 36 17 75 18 69 19 71 20 37 21 74 22 68 23
REMARK SMILES IDX 67 24 38 26 60 27 45 28 59 29 46 30 49 31 58 32 72 33 47 34
REMARK SMILES IDX 48 35 57 37 73 38 50 39 39 40 40 41 44 42 41 43 43 44 42 45
REMARK SMILES IDX 61 46 62 47 66 48 63 49 65 50 64 51 51 52 52 53 56 54 53 55
REMARK SMILES IDX 55 56 54 57 7 58 8 59 9 60 10 61 11 62 12 64 13 65 14 66
REMARK SMILES IDX 21 67 15 68 20 69 16 71 19 72 17 73 18 74 22 75 23 76 24 77
REMARK SMILES IDX 25 78 26 79 29 80 27 81 28 82
REMARK H PARENT 3 7 71 25 49 36 10 63 21 70
REMARK Flexibility Score: inf
ROOT
ATOM      1  C   UNL A   1      31.467  30.724  26.397  1.00  0.00     0.002 C 
ENDROOT
BRANCH   1   2
ATOM      2  C   UNL A   1      31.388  32.236  26.595  1.00  0.00     0.021 C 
BRANCH   2   3
ATOM      3  C   UNL A   1      32.611  32.830  27.278  1.00  0.00     0.116 C 
BRANCH   3   4
ATOM      4  N   UNL A   1      32.364  34.174  27.777  1.00  0.00    -0.352 N 
ATOM      5  O   UNL A   1      32.613  35.914  29.197  1.00  0.00    -0.269 OA
ATOM      6  C   UNL A   1      33.039  34.861  28.761  1.00  0.00     0.251 C 
ATOM      7  H   UNL A   1      31.615  34.655  27.356  1.00  0.00     0.163 HD
BRANCH   6   8
ATOM      8  C   UNL A   1      34.291  34.278  29.292  1.00  0.00     0.039 A 
ATOM      9  C   UNL A   1      35.501  34.514  28.639  1.00  0.00     0.014 A 
ATOM     10  C   UNL A   1      34.245  33.476  30.435  1.00  0.00     0.014 A 
ATOM     11  C   UNL A   1      36.641  33.839  29.045  1.00  0.00     0.010 A 
ATOM     12  C   UNL A   1      35.416  32.874  30.902  1.00  0.00     0.010 A 
ATOM     13  C   UNL A   1      36.618  33.032  30.197  1.00  0.00    -0.014 A 
BRANCH  13  14
ATOM     14  C   UNL A   1      37.898  32.457  30.675  1.00  0.00     0.031 A 
ATOM     15  C   UNL A   1      38.625  33.022  31.861  1.00  0.00     0.074 A 
ATOM     16  C   UNL A   1      38.363  31.354  30.054  1.00  0.00     0.049 A 
ATOM     17  N   UNL A   1      39.705  32.571  32.449  1.00  0.00    -0.248 NA
ATOM     18  C   UNL A   1      38.083  34.249  32.464  1.00  0.00     0.031 C 
ATOM     19  C   UNL A   1      37.745  30.728  28.880  1.00  0.00     0.029 A 
ATOM     20  N   UNL A   1      39.427  30.542  30.340  1.00  0.00    -0.354 N 
ATOM     21  C   UNL A   1      39.979  33.460  33.480  1.00  0.00     0.074 A 
ATOM     22  C   UNL A   1      38.966  34.493  33.424  1.00  0.00     0.031 C 
ATOM     23  C   UNL A   1      38.395  29.593  28.593  1.00  0.00     0.029 A 
ATOM     24  C   UNL A   1      39.514  29.447  29.515  1.00  0.00     0.049 A 
ATOM     25  H   UNL A   1      40.067  30.724  31.065  1.00  0.00     0.167 HD
ATOM     26  C   UNL A   1      40.980  33.413  34.391  1.00  0.00     0.031 A 
ATOM     27  C   UNL A   1      40.401  28.437  29.493  1.00  0.00     0.031 A 
ATOM     28  C   UNL A   1      41.990  32.386  34.437  1.00  0.00     0.049 A 
ATOM     29  C   UNL A   1      41.501  28.420  30.509  1.00  0.00     0.074 A 
ATOM     30  C   UNL A   1      43.044  32.251  35.325  1.00  0.00     0.029 A 
ATOM     31  N   UNL A   1      42.070  31.316  33.559  1.00  0.00    -0.354 N 
ATOM     32  N   UNL A   1      41.732  29.262  31.488  1.00  0.00    -0.248 NA
ATOM     33  C   UNL A   1      42.465  27.317  30.417  1.00  0.00     0.031 C 
ATOM     34  C   UNL A   1      43.786  31.123  34.958  1.00  0.00     0.029 A 
ATOM     35  C   UNL A   1      43.164  30.527  33.873  1.00  0.00     0.049 A 
ATOM     36  H   UNL A   1      41.442  31.144  32.820  1.00  0.00     0.167 HD
ATOM     37  C   UNL A   1      42.867  28.788  32.129  1.00  0.00     0.074 A 
ATOM     38  C   UNL A   1      43.252  27.565  31.453  1.00  0.00     0.031 C 
ATOM     39  C   UNL A   1      43.539  29.325  33.177  1.00  0.00     0.031 A 
BRANCH  26  40
ATOM     40  C   UNL A   1      41.049  34.517  35.410  1.00  0.00    -0.014 A 
ATOM     41  C   UNL A   1      40.357  34.425  36.628  1.00  0.00     0.009 A 
ATOM     42  C   UNL A   1      41.867  35.634  35.177  1.00  0.00     0.009 A 
ATOM     43  C   UNL A   1      40.467  35.439  37.583  1.00  0.00     0.001 A 
ATOM     44  C   UNL A   1      41.994  36.635  36.143  1.00  0.00     0.001 A 
ATOM     45  C   UNL A   1      41.290  36.539  37.343  1.00  0.00     0.000 A 
ENDBRANCH  26  40
BRANCH  27  46
ATOM     46  C   UNL A   1      40.292  27.378  28.457  1.00  0.00    -0.014 A 
ATOM     47  C   UNL A   1      39.572  26.201  28.703  1.00  0.00     0.009 A 
ATOM     48  C   UNL A   1      40.907  27.551  27.206  1.00  0.00     0.009 A 
ATOM     49  C   UNL A   1      39.492  25.206  27.725  1.00  0.00     0.001 A 
ATOM     50  C   UNL A   1      40.798  26.570  26.220  1.00  0.00     0.001 A 
ATOM     51  C   UNL A   1      40.099  25.395  26.484  1.00  0.00     0.000 A 
ENDBRANCH  27  46
BRANCH  39  52
ATOM     52  C   UNL A   1      44.752  28.575  33.647  1.00  0.00    -0.014 A 
ATOM     53  C   UNL A   1      44.648  27.575  34.628  1.00  0.00     0.009 A 
ATOM     54  C   UNL A   1      46.012  28.876  33.109  1.00  0.00     0.009 A 
ATOM     55  C   UNL A   1      45.791  26.922  35.092  1.00  0.00     0.001 A 
ATOM     56  C   UNL A   1      47.149  28.202  33.555  1.00  0.00     0.001 A 
ATOM     57  C   UNL A   1      47.039  27.234  34.554  1.00  0.00     0.000 A 
ENDBRANCH  39  52
ENDBRANCH  13  14
ENDBRANCH   6   8
ENDBRANCH   3   4
ENDBRANCH   2   3
ENDBRANCH   1   2
BRANCH   1  58
ATOM     58  C   UNL A   1      32.725  30.069  26.982  1.00  0.00     0.002 C 
BRANCH  58  59
ATOM     59  C   UNL A   1      32.554  28.594  27.370  1.00  0.00     0.021 C 
BRANCH  59  60
ATOM     60  C   UNL A   1      31.456  27.900  26.568  1.00  0.00     0.116 C 
BRANCH  60  61
ATOM     61  N   UNL A   1      31.366  26.511  26.955  1.00  0.00    -0.351 N 
ATOM     62  C   UNL A   1      31.822  25.398  26.311  1.00  0.00     0.278 C 
ATOM     63  H   UNL A   1      30.907  26.344  27.810  1.00  0.00     0.163 HD
ATOM     64  O   UNL A   1      31.388  24.315  26.709  1.00  0.00    -0.268 OA
BRANCH  62  65
ATOM     65  C   UNL A   1      32.941  25.531  25.252  1.00  0.00     0.275 C 
ATOM     66  C   UNL A   1      34.122  24.593  25.575  1.00  0.00     0.085 C 
ATOM     67  N   UNL A   1      32.499  25.176  23.878  1.00  0.00    -0.314 N 
ATOM     68  C   UNL A   1      34.504  23.986  24.230  1.00  0.00     0.054 C 
ATOM     69  C   UNL A   1      33.157  23.899  23.521  1.00  0.00     0.188 C 
ATOM     70  H   UNL A   1      31.485  25.070  23.887  1.00  0.00     0.349 HD
ATOM     71  C   UNL A   1      35.258  22.665  24.296  1.00  0.00     0.010 C 
ATOM     72  C   UNL A   1      32.312  22.702  24.011  1.00  0.00     0.065 C 
ATOM     73  C   UNL A   1      34.407  21.511  24.809  1.00  0.00     0.001 C 
ATOM     74  C   UNL A   1      33.100  21.392  24.032  1.00  0.00     0.006 C 
BRANCH  67  75
ATOM     75  C   UNL A   1      32.682  26.237  22.851  1.00  0.00     0.364 C 
BRANCH  75  76
ATOM     76  C   UNL A   1      32.171  27.672  23.090  1.00  0.00     0.277 C 
ATOM     77  O   UNL A   1      32.944  28.549  23.487  1.00  0.00    -0.268 OA
ATOM     78  N   UNL A   1      30.882  27.987  22.663  1.00  0.00    -0.338 N 
ATOM     79  C   UNL A   1      30.545  29.339  22.249  1.00  0.00     0.119 C 
ATOM     80  C   UNL A   1      29.692  27.350  23.198  1.00  0.00     0.119 C 
ATOM     81  C   UNL A   1      29.397  29.727  23.162  1.00  0.00     0.023 C 
ATOM     82  C   UNL A   1      28.616  28.427  23.283  1.00  0.00     0.023 C 
ENDBRANCH  75  76
ENDBRANCH  67  75
ENDBRANCH  62  65
ENDBRANCH  60  61
ENDBRANCH  59  60
ENDBRANCH  58  59
ENDBRANCH   1  58
TORSDOF 15
ENDMDL
MODEL 2
REMARK VINA RESULT:     -11.0      2.006      6.322
REMARK SMILES O=C(NCCCCCCNC(=O)[C@H]1C[C@H]2CCCC[C@H]2[N@@H+]1CC(=O)N1CCCC1)c1ccc(-c2c3nc(c(-c4ccccc4)c4ccc([nH]4)c(-c4ccccc4)c4nc(c(-c5ccccc5)c5ccc2[nH]5)C=C4)C=C3)cc1
REMARK SMILES IDX 6 1 5 2 4 3 3 4 1 5 2 6 30 8 31 9 77 10 32 11 76 12 33 13
REMARK SMILES IDX 34 14 35 15 70 16 36 17 75 18 69 19 71 20 37 21 74 22 68 23
REMARK SMILES IDX 67 24 38 26 60 27 45 28 59 29 46 30 49 31 58 32 72 33 47 34
REMARK SMILES IDX 48 35 57 37 73 38 50 39 39 40 40 41 44 42 41 43 43 44 42 45
REMARK SMILES IDX 61 46 62 47 66 48 63 49 65 50 64 51 51 52 52 53 56 54 53 55
REMARK SMILES IDX 55 56 54 57 7 58 8 59 9 60 10 61 11 62 12 64 13 65 14 66
REMARK SMILES IDX 21 67 15 68 20 69 16 71 19 72 17 73 18 74 22 75 23 76 24 77
REMARK SMILES IDX 25 78 26 79 29 80 27 81 28 82
REMARK H PARENT 3 7 71 25 49 36 10 63 21 70
REMARK Flexibility Score: inf
ROOT
ATOM      1  C   UNL A   1      34.549  33.546  28.574  1.00  0.00     0.002 C 
ENDROOT
BRANCH   1   2
ATOM      2  C   UNL A   1      33.301  34.405  28.771  1.00  0.00     0.021 C 
BRANCH   2   3
ATOM      3  C   UNL A   1      33.598  35.813  29.267  1.00  0.00     0.116 C 
BRANCH   3   4
ATOM      4  N   UNL A   1      32.732  36.201  30.369  1.00  0.00    -0.352 N 
ATOM      5  O   UNL A   1      31.881  36.064  32.458  1.00  0.00    -0.269 OA
ATOM      6  C   UNL A   1      32.777  35.790  31.682  1.00  0.00     0.251 C 
ATOM      7  H   UNL A   1      32.020  36.845  30.147  1.00  0.00     0.163 HD
BRANCH   6   8
ATOM      8  C   UNL A   1      33.936  34.985  32.127  1.00  0.00     0.039 A 
ATOM      9  C   UNL A   1      35.219  35.529  32.086  1.00  0.00     0.014 A 
ATOM     10  C   UNL A   1      33.734  33.673  32.565  1.00  0.00     0.014 A 
ATOM     11  C   UNL A   1      36.314  34.722  32.349  1.00  0.00     0.010 A 
ATOM     12  C   UNL A   1      34.834  32.890  32.925  1.00  0.00     0.010 A 
ATOM     13  C   UNL A   1      36.134  33.402  32.798  1.00  0.00    -0.014 A 
BRANCH  13  14
ATOM     14  C   UNL A   1      37.331  32.632  33.214  1.00  0.00     0.031 A 
ATOM     15  C   UNL A   1      37.997  31.648  32.296  1.00  0.00     0.074 A 
ATOM     16  C   UNL A   1      37.856  32.895  34.427  1.00  0.00     0.049 A 
ATOM     17  N   UNL A   1      39.101  30.969  32.487  1.00  0.00    -0.248 NA
ATOM     18  C   UNL A   1      37.346  31.382  31.004  1.00  0.00     0.031 C 
ATOM     19  C   UNL A   1      37.283  33.822  35.409  1.00  0.00     0.029 A 
ATOM     20  N   UNL A   1      39.003  32.446  35.027  1.00  0.00    -0.354 N 
ATOM     21  C   UNL A   1      39.271  30.189  31.351  1.00  0.00     0.074 A 
ATOM     22  C   UNL A   1      38.144  30.459  30.483  1.00  0.00     0.031 C 
ATOM     23  C   UNL A   1      38.116  33.929  36.452  1.00  0.00     0.029 A 
ATOM     24  C   UNL A   1      39.243  33.030  36.247  1.00  0.00     0.049 A 
ATOM     25  H   UNL A   1      39.597  31.773  34.623  1.00  0.00     0.167 HD
ATOM     26  C   UNL A   1      40.279  29.332  31.059  1.00  0.00     0.031 A 
ATOM     27  C   UNL A   1      40.255  32.855  37.115  1.00  0.00     0.031 A 
ATOM     28  C   UNL A   1      41.394  29.062  31.930  1.00  0.00     0.049 A 
ATOM     29  C   UNL A   1      41.349  31.894  36.765  1.00  0.00     0.074 A 
ATOM     30  C   UNL A   1      42.467  28.212  31.721  1.00  0.00     0.029 A 
ATOM     31  N   UNL A   1      41.582  29.640  33.177  1.00  0.00    -0.354 N 
ATOM     32  N   UNL A   1      41.501  31.180  35.676  1.00  0.00    -0.248 NA
ATOM     33  C   UNL A   1      42.409  31.713  37.764  1.00  0.00     0.031 C 
ATOM     34  C   UNL A   1      43.281  28.244  32.859  1.00  0.00     0.029 A 
ATOM     35  C   UNL A   1      42.742  29.154  33.755  1.00  0.00     0.049 A 
ATOM     36  H   UNL A   1      40.978  30.299  33.590  1.00  0.00     0.167 HD
ATOM     37  C   UNL A   1      42.676  30.464  35.859  1.00  0.00     0.074 A 
ATOM     38  C   UNL A   1      43.215  30.863  37.144  1.00  0.00     0.031 C 
ATOM     39  C   UNL A   1      43.251  29.549  35.042  1.00  0.00     0.031 A 
BRANCH  26  40
ATOM     40  C   UNL A   1      40.218  28.605  29.744  1.00  0.00    -0.014 A 
ATOM     41  C   UNL A   1      39.568  27.366  29.629  1.00  0.00     0.009 A 
ATOM     42  C   UNL A   1      40.760  29.196  28.592  1.00  0.00     0.009 A 
ATOM     43  C   UNL A   1      39.481  26.725  28.391  1.00  0.00     0.001 A 
ATOM     44  C   UNL A   1      40.650  28.565  27.351  1.00  0.00     0.001 A 
ATOM     45  C   UNL A   1      40.016  27.327  27.252  1.00  0.00     0.000 A 
ENDBRANCH  26  40
BRANCH  27  46
ATOM     46  C   UNL A   1      40.260  33.593  38.405  1.00  0.00    -0.014 A 
ATOM     47  C   UNL A   1      39.624  33.067  39.538  1.00  0.00     0.009 A 
ATOM     48  C   UNL A   1      40.914  34.832  38.505  1.00  0.00     0.009 A 
ATOM     49  C   UNL A   1      39.621  33.779  40.740  1.00  0.00     0.001 A 
ATOM     50  C   UNL A   1      40.937  35.525  39.715  1.00  0.00     0.001 A 
ATOM     51  C   UNL A   1      40.282  35.003  40.828  1.00  0.00     0.000 A 
ENDBRANCH  27  46
BRANCH  39  52
ATOM     52  C   UNL A   1      44.532  28.932  35.525  1.00  0.00    -0.014 A 
ATOM     53  C   UNL A   1      44.524  27.754  36.288  1.00  0.00     0.009 A 
ATOM     54  C   UNL A   1      45.758  29.539  35.217  1.00  0.00     0.009 A 
ATOM     55  C   UNL A   1      45.720  27.221  36.773  1.00  0.00     0.001 A 
ATOM     56  C   UNL A   1      46.954  28.988  35.680  1.00  0.00     0.001 A 
ATOM     57  C   UNL A   1      46.932  27.836  36.467  1.00  0.00     0.000 A 
ENDBRANCH  39  52
ENDBRANCH  13  14
ENDBRANCH   6   8
ENDBRANCH   3   4
ENDBRANCH   2   3
ENDBRANCH   1   2
BRANCH   1  58
ATOM     58  C   UNL A   1      34.421  32.108  29.092  1.00  0.00     0.002 C 
BRANCH  58  59
ATOM     59  C   UNL A   1      34.757  31.025  28.057  1.00  0.00     0.021 C 
BRANCH  59  60
ATOM     60  C   UNL A   1      33.562  30.662  27.179  1.00  0.00     0.116 C 
BRANCH  60  61
ATOM     61  N   UNL A   1      32.825  29.573  27.779  1.00  0.00    -0.351 N 
ATOM     62  C   UNL A   1      32.236  28.492  27.188  1.00  0.00     0.278 C 
ATOM     63  H   UNL A   1      32.733  29.619  28.758  1.00  0.00     0.163 HD
ATOM     64  O   UNL A   1      31.442  27.852  27.880  1.00  0.00    -0.268 OA
BRANCH  62  65
ATOM     65  C   UNL A   1      32.693  28.046  25.780  1.00  0.00     0.275 C 
ATOM     66  C   UNL A   1      33.935  27.136  25.866  1.00  0.00     0.085 C 
ATOM     67  N   UNL A   1      31.663  27.267  25.044  1.00  0.00    -0.314 N 
ATOM     68  C   UNL A   1      33.654  26.015  24.872  1.00  0.00     0.054 C 
ATOM     69  C   UNL A   1      32.139  25.867  24.972  1.00  0.00     0.188 C 
ATOM     70  H   UNL A   1      30.788  27.325  25.564  1.00  0.00     0.349 HD
ATOM     71  C   UNL A   1      34.421  24.721  25.106  1.00  0.00     0.010 C 
ATOM     72  C   UNL A   1      31.708  25.086  26.233  1.00  0.00     0.065 C 
ATOM     73  C   UNL A   1      33.993  23.988  26.370  1.00  0.00     0.001 C 
ATOM     74  C   UNL A   1      32.482  23.780  26.411  1.00  0.00     0.006 C 
BRANCH  67  75
ATOM     75  C   UNL A   1      31.264  27.820  23.721  1.00  0.00     0.364 C 
BRANCH  75  76
ATOM     76  C   UNL A   1      29.789  28.135  23.403  1.00  0.00     0.277 C 
ATOM     77  O   UNL A   1      28.908  27.306  23.653  1.00  0.00    -0.268 OA
ATOM     78  N   UNL A   1      29.466  29.434  23.016  1.00  0.00    -0.338 N 
ATOM     79  C   UNL A   1      28.157  29.994  23.311  1.00  0.00     0.119 C 
ATOM     80  C   UNL A   1      29.978  30.051  21.806  1.00  0.00     0.119 C 
ATOM     81  C   UNL A   1      27.611  30.387  21.951  1.00  0.00     0.023 C 
ATOM     82  C   UNL A   1      28.850  30.900  21.233  1.00  0.00     0.023 C 
ENDBRANCH  75  76
ENDBRANCH  67  75
ENDBRANCH  62  65
ENDBRANCH  60  61
ENDBRANCH  59  60
ENDBRANCH  58  59
ENDBRANCH   1  58
TORSDOF 15
ENDMDL
MODEL 3
REMARK VINA RESULT:     -11.0      1.974      2.931
REMARK SMILES O=C(NCCCCCCNC(=O)[C@H]1C[C@H]2CCCC[C@H]2[N@@H+]1CC(=O)N1CCCC1)c1ccc(-c2c3nc(c(-c4ccccc4)c4ccc([nH]4)c(-c4ccccc4)c4nc(c(-c5ccccc5)c5ccc2[nH]5)C=C4)C=C3)cc1
REMARK SMILES IDX 6 1 5 2 4 3 3 4 1 5 2 6 30 8 31 9 77 10 32 11 76 12 33 13
REMARK SMILES IDX 34 14 35 15 70 16 36 17 75 18 69 19 71 20 37 21 74 22 68 23
REMARK SMILES IDX 67 24 38 26 60 27 45 28 59 29 46 30 49 31 58 32 72 33 47 34
REMARK SMILES IDX 48 35 57 37 73 38 50 39 39 40 40 41 44 42 41 43 43 44 42 45
REMARK SMILES IDX 61 46 62 47 66 48 63 49 65 50 64 51 51 52 52 53 56 54 53 55
REMARK SMILES IDX 55 56 54 57 7 58 8 59 9 60 10 61 11 62 12 64 13 65 14 66
REMARK SMILES IDX 21 67 15 68 20 69 16 71 19 72 17 73 18 74 22 75 23 76 24 77
REMARK SMILES IDX 25 78 26 79 29 80 27 81 28 82
REMARK H PARENT 3 7 71 25 49 36 10 63 21 70
REMARK Flexibility Score: inf
ROOT
ATOM      1  C   UNL A   1      34.195  33.614  29.215  1.00  0.00     0.002 C 
ENDROOT
BRANCH   1   2
ATOM      2  C   UNL A   1      33.129  34.675  28.945  1.00  0.00     0.021 C 
BRANCH   2   3
ATOM      3  C   UNL A   1      33.375  35.990  29.669  1.00  0.00     0.116 C 
BRANCH   3   4
ATOM      4  N   UNL A   1      32.495  36.160  30.815  1.00  0.00    -0.352 N 
ATOM      5  O   UNL A   1      31.718  35.716  32.890  1.00  0.00    -0.269 OA
ATOM      6  C   UNL A   1      32.622  35.630  32.080  1.00  0.00     0.251 C 
ATOM      7  H   UNL A   1      31.706  36.729  30.667  1.00  0.00     0.163 HD
BRANCH   6   8
ATOM      8  C   UNL A   1      33.880  34.934  32.428  1.00  0.00     0.039 A 
ATOM      9  C   UNL A   1      35.097  35.608  32.334  1.00  0.00     0.014 A 
ATOM     10  C   UNL A   1      33.837  33.596  32.828  1.00  0.00     0.014 A 
ATOM     11  C   UNL A   1      36.282  34.909  32.505  1.00  0.00     0.010 A 
ATOM     12  C   UNL A   1      35.030  32.918  33.096  1.00  0.00     0.010 A 
ATOM     13  C   UNL A   1      36.262  33.564  32.914  1.00  0.00    -0.014 A 
BRANCH  13  14
ATOM     14  C   UNL A   1      37.553  32.908  33.232  1.00  0.00     0.031 A 
ATOM     15  C   UNL A   1      38.251  33.129  34.543  1.00  0.00     0.074 A 
ATOM     16  C   UNL A   1      38.055  32.041  32.331  1.00  0.00     0.049 A 
ATOM     17  N   UNL A   1      39.338  32.556  34.997  1.00  0.00    -0.248 NA
ATOM     18  C   UNL A   1      37.667  34.120  35.460  1.00  0.00     0.031 C 
ATOM     19  C   UNL A   1      37.468  31.760  31.016  1.00  0.00     0.029 A 
ATOM     20  N   UNL A   1      39.140  31.207  32.393  1.00  0.00    -0.354 N 
ATOM     21  C   UNL A   1      39.575  33.121  36.243  1.00  0.00     0.074 A 
ATOM     22  C   UNL A   1      38.533  34.102  36.465  1.00  0.00     0.031 C 
ATOM     23  C   UNL A   1      38.154  30.770  30.430  1.00  0.00     0.029 A 
ATOM     24  C   UNL A   1      39.266  30.395  31.292  1.00  0.00     0.049 A 
ATOM     25  H   UNL A   1      39.767  31.191  33.151  1.00  0.00     0.167 HD
ATOM     26  C   UNL A   1      40.568  32.841  37.121  1.00  0.00     0.031 A 
ATOM     27  C   UNL A   1      40.183  29.456  30.999  1.00  0.00     0.031 A 
ATOM     28  C   UNL A   1      41.606  31.870  36.891  1.00  0.00     0.049 A 
ATOM     29  C   UNL A   1      41.273  29.178  31.988  1.00  0.00     0.074 A 
ATOM     30  C   UNL A   1      42.655  31.513  37.722  1.00  0.00     0.029 A 
ATOM     31  N   UNL A   1      41.726  31.097  35.746  1.00  0.00    -0.354 N 
ATOM     32  N   UNL A   1      41.469  29.710  33.170  1.00  0.00    -0.248 NA
ATOM     33  C   UNL A   1      42.269  28.170  31.602  1.00  0.00     0.031 C 
ATOM     34  C   UNL A   1      43.433  30.556  37.063  1.00  0.00     0.029 A 
ATOM     35  C   UNL A   1      42.839  30.278  35.842  1.00  0.00     0.049 A 
ATOM     36  H   UNL A   1      41.111  31.127  34.978  1.00  0.00     0.167 HD
ATOM     37  C   UNL A   1      42.611  29.102  33.670  1.00  0.00     0.074 A 
ATOM     38  C   UNL A   1      43.038  28.133  32.681  1.00  0.00     0.031 C 
ATOM     39  C   UNL A   1      43.257  29.334  34.839  1.00  0.00     0.031 A 
BRANCH  26  40
ATOM     40  C   UNL A   1      40.594  33.610  38.414  1.00  0.00    -0.014 A 
ATOM     41  C   UNL A   1      41.271  34.835  38.517  1.00  0.00     0.009 A 
ATOM     42  C   UNL A   1      39.877  33.135  39.524  1.00  0.00     0.009 A 
ATOM     43  C   UNL A   1      41.247  35.558  39.712  1.00  0.00     0.001 A 
ATOM     44  C   UNL A   1      39.835  33.872  40.710  1.00  0.00     0.001 A 
ATOM     45  C   UNL A   1      40.524  35.080  40.805  1.00  0.00     0.000 A 
ENDBRANCH  26  40
BRANCH  27  46
ATOM     46  C   UNL A   1      40.115  28.735  29.702  1.00  0.00    -0.014 A 
ATOM     47  C   UNL A   1      40.745  29.247  28.559  1.00  0.00     0.009 A 
ATOM     48  C   UNL A   1      39.421  27.517  29.609  1.00  0.00     0.009 A 
ATOM     49  C   UNL A   1      40.659  28.566  27.342  1.00  0.00     0.001 A 
ATOM     50  C   UNL A   1      39.365  26.823  28.401  1.00  0.00     0.001 A 
ATOM     51  C   UNL A   1      39.974  27.353  27.266  1.00  0.00     0.000 A 
ENDBRANCH  27  46
BRANCH  39  52
ATOM     52  C   UNL A   1      44.486  28.512  35.098  1.00  0.00    -0.014 A 
ATOM     53  C   UNL A   1      44.408  27.299  35.802  1.00  0.00     0.009 A 
ATOM     54  C   UNL A   1      45.734  28.957  34.639  1.00  0.00     0.009 A 
ATOM     55  C   UNL A   1      45.567  26.571  36.080  1.00  0.00     0.001 A 
ATOM     56  C   UNL A   1      46.886  28.212  34.894  1.00  0.00     0.001 A 
ATOM     57  C   UNL A   1      46.803  27.027  35.624  1.00  0.00     0.000 A 
ENDBRANCH  39  52
ENDBRANCH  13  14
ENDBRANCH   6   8
ENDBRANCH   3   4
ENDBRANCH   2   3
ENDBRANCH   1   2
BRANCH   1  58
ATOM     58  C   UNL A   1      34.541  32.737  28.004  1.00  0.00     0.002 C 
BRANCH  58  59
ATOM     59  C   UNL A   1      34.961  31.303  28.356  1.00  0.00     0.021 C 
BRANCH  59  60
ATOM     60  C   UNL A   1      34.494  30.285  27.319  1.00  0.00     0.116 C 
BRANCH  60  61
ATOM     61  N   UNL A   1      33.488  29.421  27.894  1.00  0.00    -0.351 N 
ATOM     62  C   UNL A   1      32.634  28.551  27.281  1.00  0.00     0.278 C 
ATOM     63  H   UNL A   1      33.408  29.468  28.875  1.00  0.00     0.163 HD
ATOM     64  O   UNL A   1      31.694  28.133  27.959  1.00  0.00    -0.268 OA
BRANCH  62  65
ATOM     65  C   UNL A   1      32.961  28.030  25.863  1.00  0.00     0.275 C 
ATOM     66  C   UNL A   1      33.646  26.649  25.926  1.00  0.00     0.085 C 
ATOM     67  N   UNL A   1      31.759  27.853  25.006  1.00  0.00    -0.314 N 
ATOM     68  C   UNL A   1      32.977  25.842  24.819  1.00  0.00     0.054 C 
ATOM     69  C   UNL A   1      31.556  26.397  24.828  1.00  0.00     0.188 C 
ATOM     70  H   UNL A   1      30.964  28.274  25.484  1.00  0.00     0.349 HD
ATOM     71  C   UNL A   1      33.053  24.329  24.972  1.00  0.00     0.010 C 
ATOM     72  C   UNL A   1      30.710  25.827  25.988  1.00  0.00     0.065 C 
ATOM     73  C   UNL A   1      32.231  23.800  26.139  1.00  0.00     0.001 C 
ATOM     74  C   UNL A   1      30.792  24.303  26.084  1.00  0.00     0.006 C 
BRANCH  67  75
ATOM     75  C   UNL A   1      31.771  28.604  23.722  1.00  0.00     0.364 C 
BRANCH  75  76
ATOM     76  C   UNL A   1      30.506  28.697  22.843  1.00  0.00     0.277 C 
ATOM     77  O   UNL A   1      30.434  28.058  21.789  1.00  0.00    -0.268 OA
ATOM     78  N   UNL A   1      29.394  29.356  23.365  1.00  0.00    -0.338 N 
ATOM     79  C   UNL A   1      28.049  28.973  22.968  1.00  0.00     0.119 C 
ATOM     80  C   UNL A   1      29.398  30.766  23.711  1.00  0.00     0.119 C 
ATOM     81  C   UNL A   1      27.454  30.252  22.409  1.00  0.00     0.023 C 
ATOM     82  C   UNL A   1      28.027  31.316  23.333  1.00  0.00     0.023 C 
ENDBRANCH  75  76
ENDBRANCH  67  75
ENDBRANCH  62  65
ENDBRANCH  60  61
ENDBRANCH  59  60
ENDBRANCH  58  59
ENDBRANCH   1  58
TORSDOF 15
ENDMDL
