MODEL 1
REMARK VINA RESULT:     -11.8      0.000      0.000
REMARK SMILES Cc1cc(C)c2c(c1)C=C(C(=O)NCCCCCCNC(=O)c1ccc(-c3c4nc(c(-c5ccccc5)c5ccc([nH]5)c(-c5ccccc5)c5nc(c(-c6ccccc6)c6ccc3[nH]6)C=C5)C=C4)cc1)[C@@H](C(F)(F)F)O2
REMARK SMILES IDX 17 1 16 2 15 3 14 4 13 5 11 6 12 7 10 9 1 10 2 11 3 12 8 13
REMARK SMILES IDX 4 14 7 15 5 16 6 17 9 18 76 19 71 20 72 21 73 22 74 23 75 24
REMARK SMILES IDX 18 25 19 26 20 27 21 28 22 30 23 31 24 32 70 33 25 34 69 35
REMARK SMILES IDX 26 36 27 37 28 38 63 39 29 40 68 41 62 42 64 43 30 44 67 45
REMARK SMILES IDX 61 46 60 47 31 49 53 50 38 51 52 52 39 53 42 54 51 55 65 56
REMARK SMILES IDX 40 57 41 58 50 60 66 61 43 62 32 63 33 64 37 65 34 66 36 67
REMARK SMILES IDX 35 68 54 69 55 70 59 71 56 72 58 73 57 74 44 75 45 76 49 77
REMARK SMILES IDX 46 78 48 79 47 80
REMARK H PARENT 13 8 20 29 64 48 42 59
REMARK Flexibility Score: inf
ROOT
ATOM      1  C   UNL A   1      31.529  27.485  26.213  1.00  0.00     0.002 C 
ENDROOT
BRANCH   1   2
ATOM      2  C   UNL A   1      31.358  28.435  25.021  1.00  0.00     0.002 C 
BRANCH   2   3
ATOM      3  C   UNL A   1      30.641  27.839  23.806  1.00  0.00     0.021 C 
BRANCH   3   4
ATOM      4  C   UNL A   1      30.971  26.372  23.553  1.00  0.00     0.116 C 
BRANCH   4   5
ATOM      5  N   UNL A   1      31.767  26.196  22.352  1.00  0.00    -0.352 N 
ATOM      6  C   UNL A   1      32.745  25.366  21.921  1.00  0.00     0.251 C 
ATOM      7  O   UNL A   1      33.130  25.570  20.765  1.00  0.00    -0.270 OA
ATOM      8  H   UNL A   1      31.531  26.860  21.664  1.00  0.00     0.163 HD
BRANCH   6   9
ATOM      9  C   UNL A   1      33.364  24.267  22.720  1.00  0.00     0.067 C 
ATOM     10  C   UNL A   1      32.281  18.420  24.409  1.00  0.00     0.044 C 
ATOM     11  C   UNL A   1      33.073  19.686  24.270  1.00  0.00    -0.050 A 
ATOM     12  C   UNL A   1      34.330  19.813  24.874  1.00  0.00     0.010 A 
ATOM     13  C   UNL A   1      32.542  20.766  23.551  1.00  0.00     0.015 A 
ATOM     14  C   UNL A   1      35.066  20.999  24.755  1.00  0.00    -0.008 A 
ATOM     15  C   UNL A   1      33.260  21.959  23.432  1.00  0.00     0.018 A 
ATOM     16  C   UNL A   1      36.416  21.128  25.400  1.00  0.00     0.048 C 
ATOM     17  C   UNL A   1      34.514  22.068  24.039  1.00  0.00     0.130 A 
ATOM     18  C   UNL A   1      32.737  23.078  22.657  1.00  0.00     0.025 C 
ATOM     19  O   UNL A   1      35.276  23.196  23.923  1.00  0.00    -0.475 OA
ATOM     20  C   UNL A   1      34.582  24.424  23.585  1.00  0.00     0.314 C 
BRANCH  20  21
ATOM     21  C   UNL A   1      34.302  25.214  24.875  1.00  0.00     0.429 C 
ATOM     22  F   UNL A   1      35.304  25.028  25.771  1.00  0.00    -0.167 F 
ATOM     23  F   UNL A   1      34.230  26.550  24.663  1.00  0.00    -0.167 F 
ATOM     24  F   UNL A   1      33.148  24.848  25.475  1.00  0.00    -0.167 F 
ENDBRANCH  20  21
ENDBRANCH   6   9
ENDBRANCH   4   5
ENDBRANCH   3   4
ENDBRANCH   2   3
ENDBRANCH   1   2
BRANCH   1  25
ATOM     25  C   UNL A   1      32.134  28.108  27.476  1.00  0.00     0.021 C 
BRANCH  25  26
ATOM     26  C   UNL A   1      33.524  28.709  27.292  1.00  0.00     0.116 C 
BRANCH  26  27
ATOM     27  N   UNL A   1      33.556  30.112  27.664  1.00  0.00    -0.352 N 
ATOM     28  C   UNL A   1      34.533  30.823  28.307  1.00  0.00     0.251 C 
ATOM     29  H   UNL A   1      32.756  30.631  27.416  1.00  0.00     0.163 HD
ATOM     30  O   UNL A   1      34.290  31.950  28.736  1.00  0.00    -0.269 OA
BRANCH  28  31
ATOM     31  C   UNL A   1      35.881  30.249  28.489  1.00  0.00     0.039 A 
ATOM     32  C   UNL A   1      36.214  29.693  29.728  1.00  0.00     0.014 A 
ATOM     33  C   UNL A   1      36.838  30.321  27.471  1.00  0.00     0.014 A 
ATOM     34  C   UNL A   1      37.498  29.188  29.941  1.00  0.00     0.010 A 
ATOM     35  C   UNL A   1      38.101  29.767  27.665  1.00  0.00     0.010 A 
ATOM     36  C   UNL A   1      38.446  29.214  28.908  1.00  0.00    -0.014 A 
BRANCH  36  37
ATOM     37  C   UNL A   1      39.828  28.725  29.123  1.00  0.00     0.031 A 
ATOM     38  C   UNL A   1      40.854  29.640  29.735  1.00  0.00     0.074 A 
ATOM     39  C   UNL A   1      40.172  27.483  28.737  1.00  0.00     0.049 A 
ATOM     40  N   UNL A   1      42.133  29.439  29.922  1.00  0.00    -0.248 NA
ATOM     41  C   UNL A   1      40.379  30.961  30.180  1.00  0.00     0.031 C 
ATOM     42  C   UNL A   1      39.270  26.502  28.134  1.00  0.00     0.029 A 
ATOM     43  N   UNL A   1      41.381  26.837  28.792  1.00  0.00    -0.354 N 
ATOM     44  C   UNL A   1      42.617  30.610  30.490  1.00  0.00     0.074 A 
ATOM     45  C   UNL A   1      41.506  31.531  30.580  1.00  0.00     0.031 C 
ATOM     46  C   UNL A   1      39.952  25.370  27.894  1.00  0.00     0.029 A 
ATOM     47  C   UNL A   1      41.344  25.561  28.287  1.00  0.00     0.049 A 
ATOM     48  H   UNL A   1      42.197  27.249  29.159  1.00  0.00     0.167 HD
ATOM     49  C   UNL A   1      43.873  30.889  30.915  1.00  0.00     0.031 A 
ATOM     50  C   UNL A   1      42.327  24.652  28.148  1.00  0.00     0.031 A 
ATOM     51  C   UNL A   1      44.977  29.971  30.834  1.00  0.00     0.049 A 
ATOM     52  C   UNL A   1      43.721  25.000  28.589  1.00  0.00     0.074 A 
ATOM     53  C   UNL A   1      46.280  30.150  31.261  1.00  0.00     0.029 A 
ATOM     54  N   UNL A   1      44.903  28.696  30.295  1.00  0.00    -0.354 N 
ATOM     55  N   UNL A   1      44.161  26.106  29.136  1.00  0.00    -0.248 NA
ATOM     56  C   UNL A   1      44.751  23.970  28.394  1.00  0.00     0.031 C 
ATOM     57  C   UNL A   1      47.007  28.999  30.941  1.00  0.00     0.029 A 
ATOM     58  C   UNL A   1      46.143  28.084  30.360  1.00  0.00     0.049 A 
ATOM     59  H   UNL A   1      44.089  28.287  29.920  1.00  0.00     0.167 HD
ATOM     60  C   UNL A   1      45.516  25.901  29.364  1.00  0.00     0.074 A 
ATOM     61  C   UNL A   1      45.819  24.558  28.916  1.00  0.00     0.031 C 
ATOM     62  C   UNL A   1      46.428  26.752  29.896  1.00  0.00     0.031 A 
BRANCH  49  63
ATOM     63  C   UNL A   1      44.119  32.250  31.501  1.00  0.00    -0.014 A 
ATOM     64  C   UNL A   1      43.986  32.478  32.880  1.00  0.00     0.009 A 
ATOM     65  C   UNL A   1      44.527  33.306  30.674  1.00  0.00     0.009 A 
ATOM     66  C   UNL A   1      44.230  33.745  33.414  1.00  0.00     0.001 A 
ATOM     67  C   UNL A   1      44.794  34.566  31.213  1.00  0.00     0.001 A 
ATOM     68  C   UNL A   1      44.640  34.785  32.581  1.00  0.00     0.000 A 
ENDBRANCH  49  63
BRANCH  50  69
ATOM     69  C   UNL A   1      42.024  23.317  27.570  1.00  0.00    -0.014 A 
ATOM     70  C   UNL A   1      41.497  22.299  28.378  1.00  0.00     0.009 A 
ATOM     71  C   UNL A   1      42.253  23.056  26.210  1.00  0.00     0.009 A 
ATOM     72  C   UNL A   1      41.220  21.040  27.840  1.00  0.00     0.001 A 
ATOM     73  C   UNL A   1      41.952  21.804  25.669  1.00  0.00     0.001 A 
ATOM     74  C   UNL A   1      41.442  20.796  26.485  1.00  0.00     0.000 A 
ENDBRANCH  50  69
BRANCH  62  75
ATOM     75  C   UNL A   1      47.836  26.249  30.030  1.00  0.00    -0.014 A 
ATOM     76  C   UNL A   1      48.731  26.309  28.950  1.00  0.00     0.009 A 
ATOM     77  C   UNL A   1      48.286  25.751  31.263  1.00  0.00     0.009 A 
ATOM     78  C   UNL A   1      50.043  25.851  29.096  1.00  0.00     0.001 A 
ATOM     79  C   UNL A   1      49.604  25.320  31.413  1.00  0.00     0.001 A 
ATOM     80  C   UNL A   1      50.478  25.362  30.328  1.00  0.00     0.000 A 
ENDBRANCH  62  75
ENDBRANCH  36  37
ENDBRANCH  28  31
ENDBRANCH  26  27
ENDBRANCH  25  26
ENDBRANCH   1  25
TORSDOF 14
ENDMDL
MODEL 2
REMARK VINA RESULT:     -11.5      1.536      1.917
REMARK SMILES Cc1cc(C)c2c(c1)C=C(C(=O)NCCCCCCNC(=O)c1ccc(-c3c4nc(c(-c5ccccc5)c5ccc([nH]5)c(-c5ccccc5)c5nc(c(-c6ccccc6)c6ccc3[nH]6)C=C5)C=C4)cc1)[C@@H](C(F)(F)F)O2
REMARK SMILES IDX 17 1 16 2 15 3 14 4 13 5 11 6 12 7 10 9 1 10 2 11 3 12 8 13
REMARK SMILES IDX 4 14 7 15 5 16 6 17 9 18 76 19 71 20 72 21 73 22 74 23 75 24
REMARK SMILES IDX 18 25 19 26 20 27 21 28 22 30 23 31 24 32 70 33 25 34 69 35
REMARK SMILES IDX 26 36 27 37 28 38 63 39 29 40 68 41 62 42 64 43 30 44 67 45
REMARK SMILES IDX 61 46 60 47 31 49 53 50 38 51 52 52 39 53 42 54 51 55 65 56
REMARK SMILES IDX 40 57 41 58 50 60 66 61 43 62 32 63 33 64 37 65 34 66 36 67
REMARK SMILES IDX 35 68 54 69 55 70 59 71 56 72 58 73 57 74 44 75 45 76 49 77
REMARK SMILES IDX 46 78 48 79 47 80
REMARK H PARENT 13 8 20 29 64 48 42 59
REMARK Flexibility Score: inf
ROOT
ATOM      1  C   UNL A   1      33.266  29.206  24.703  1.00  0.00     0.002 C 
ENDROOT
BRANCH   1   2
ATOM      2  C   UNL A   1      32.757  28.879  23.293  1.00  0.00     0.002 C 
BRANCH   2   3
ATOM      3  C   UNL A   1      31.236  28.764  23.156  1.00  0.00     0.021 C 
BRANCH   3   4
ATOM      4  C   UNL A   1      30.762  27.408  22.642  1.00  0.00     0.116 C 
BRANCH   4   5
ATOM      5  N   UNL A   1      31.714  26.819  21.718  1.00  0.00    -0.352 N 
ATOM      6  C   UNL A   1      32.666  25.858  21.751  1.00  0.00     0.251 C 
ATOM      7  O   UNL A   1      33.241  25.657  20.676  1.00  0.00    -0.270 OA
ATOM      8  H   UNL A   1      31.648  27.228  20.825  1.00  0.00     0.163 HD
BRANCH   6   9
ATOM      9  C   UNL A   1      33.052  25.060  22.953  1.00  0.00     0.067 C 
ATOM     10  C   UNL A   1      37.823  21.827  25.187  1.00  0.00     0.044 C 
ATOM     11  C   UNL A   1      36.478  22.490  25.216  1.00  0.00    -0.050 A 
ATOM     12  C   UNL A   1      35.636  22.349  26.326  1.00  0.00     0.010 A 
ATOM     13  C   UNL A   1      36.044  23.236  24.112  1.00  0.00     0.015 A 
ATOM     14  C   UNL A   1      34.375  22.958  26.351  1.00  0.00    -0.008 A 
ATOM     15  C   UNL A   1      34.784  23.842  24.119  1.00  0.00     0.018 A 
ATOM     16  C   UNL A   1      33.478  22.809  27.547  1.00  0.00     0.048 C 
ATOM     17  C   UNL A   1      33.957  23.694  25.235  1.00  0.00     0.130 A 
ATOM     18  C   UNL A   1      34.334  24.651  22.993  1.00  0.00     0.025 C 
ATOM     19  O   UNL A   1      32.733  24.294  25.311  1.00  0.00    -0.475 OA
ATOM     20  C   UNL A   1      32.110  24.673  24.057  1.00  0.00     0.314 C 
BRANCH  20  21
ATOM     21  C   UNL A   1      31.115  23.577  23.639  1.00  0.00     0.429 C 
ATOM     22  F   UNL A   1      30.711  22.866  24.722  1.00  0.00    -0.167 F 
ATOM     23  F   UNL A   1      29.990  24.081  23.079  1.00  0.00    -0.167 F 
ATOM     24  F   UNL A   1      31.639  22.702  22.752  1.00  0.00    -0.167 F 
ENDBRANCH  20  21
ENDBRANCH   6   9
ENDBRANCH   4   5
ENDBRANCH   3   4
ENDBRANCH   2   3
ENDBRANCH   1   2
BRANCH   1  25
ATOM     25  C   UNL A   1      33.735  28.007  25.533  1.00  0.00     0.021 C 
BRANCH  25  26
ATOM     26  C   UNL A   1      33.759  28.241  27.041  1.00  0.00     0.116 C 
BRANCH  26  27
ATOM     27  N   UNL A   1      33.603  29.647  27.369  1.00  0.00    -0.352 N 
ATOM     28  C   UNL A   1      34.446  30.485  28.045  1.00  0.00     0.251 C 
ATOM     29  H   UNL A   1      32.764  30.059  27.059  1.00  0.00     0.163 HD
ATOM     30  O   UNL A   1      34.046  31.585  28.423  1.00  0.00    -0.269 OA
BRANCH  28  31
ATOM     31  C   UNL A   1      35.840  30.081  28.324  1.00  0.00     0.039 A 
ATOM     32  C   UNL A   1      36.789  30.187  27.302  1.00  0.00     0.014 A 
ATOM     33  C   UNL A   1      36.197  29.533  29.560  1.00  0.00     0.014 A 
ATOM     34  C   UNL A   1      38.100  29.766  27.525  1.00  0.00     0.010 A 
ATOM     35  C   UNL A   1      37.518  29.166  29.801  1.00  0.00     0.010 A 
ATOM     36  C   UNL A   1      38.475  29.261  28.778  1.00  0.00    -0.014 A 
BRANCH  36  37
ATOM     37  C   UNL A   1      39.850  28.766  29.026  1.00  0.00     0.031 A 
ATOM     38  C   UNL A   1      40.868  29.681  29.648  1.00  0.00     0.074 A 
ATOM     39  C   UNL A   1      40.194  27.519  28.658  1.00  0.00     0.049 A 
ATOM     40  N   UNL A   1      42.142  29.475  29.862  1.00  0.00    -0.248 NA
ATOM     41  C   UNL A   1      40.392  31.009  30.071  1.00  0.00     0.031 C 
ATOM     42  C   UNL A   1      39.298  26.537  28.047  1.00  0.00     0.029 A 
ATOM     43  N   UNL A   1      41.399  26.867  28.743  1.00  0.00    -0.354 N 
ATOM     44  C   UNL A   1      42.622  30.650  30.428  1.00  0.00     0.074 A 
ATOM     45  C   UNL A   1      41.514  31.577  30.488  1.00  0.00     0.031 C 
ATOM     46  C   UNL A   1      39.979  25.399  27.831  1.00  0.00     0.029 A 
ATOM     47  C   UNL A   1      41.365  25.586  28.250  1.00  0.00     0.049 A 
ATOM     48  H   UNL A   1      42.209  27.278  29.122  1.00  0.00     0.167 HD
ATOM     49  C   UNL A   1      43.870  30.926  30.875  1.00  0.00     0.031 A 
ATOM     50  C   UNL A   1      42.345  24.671  28.138  1.00  0.00     0.031 A 
ATOM     51  C   UNL A   1      44.970  30.001  30.824  1.00  0.00     0.049 A 
ATOM     52  C   UNL A   1      43.732  25.015  28.603  1.00  0.00     0.074 A 
ATOM     53  C   UNL A   1      46.266  30.178  31.275  1.00  0.00     0.029 A 
ATOM     54  N   UNL A   1      44.900  28.722  30.296  1.00  0.00    -0.354 N 
ATOM     55  N   UNL A   1      44.167  26.125  29.148  1.00  0.00    -0.248 NA
ATOM     56  C   UNL A   1      44.760  23.979  28.438  1.00  0.00     0.031 C 
ATOM     57  C   UNL A   1      46.993  29.020  30.981  1.00  0.00     0.029 A 
ATOM     58  C   UNL A   1      46.136  28.104  30.391  1.00  0.00     0.049 A 
ATOM     59  H   UNL A   1      44.091  28.314  29.910  1.00  0.00     0.167 HD
ATOM     60  C   UNL A   1      45.516  25.915  29.405  1.00  0.00     0.074 A 
ATOM     61  C   UNL A   1      45.821  24.566  28.975  1.00  0.00     0.031 C 
ATOM     62  C   UNL A   1      46.423  26.766  29.946  1.00  0.00     0.031 A 
BRANCH  49  63
ATOM     63  C   UNL A   1      44.112  32.291  31.453  1.00  0.00    -0.014 A 
ATOM     64  C   UNL A   1      43.930  32.539  32.823  1.00  0.00     0.009 A 
ATOM     65  C   UNL A   1      44.565  33.331  30.628  1.00  0.00     0.009 A 
ATOM     66  C   UNL A   1      44.171  33.810  33.350  1.00  0.00     0.001 A 
ATOM     67  C   UNL A   1      44.829  34.594  31.161  1.00  0.00     0.001 A 
ATOM     68  C   UNL A   1      44.625  34.834  32.520  1.00  0.00     0.000 A 
ENDBRANCH  49  63
BRANCH  50  69
ATOM     69  C   UNL A   1      42.046  23.332  27.567  1.00  0.00    -0.014 A 
ATOM     70  C   UNL A   1      41.511  22.320  28.378  1.00  0.00     0.009 A 
ATOM     71  C   UNL A   1      42.287  23.061  26.211  1.00  0.00     0.009 A 
ATOM     72  C   UNL A   1      41.238  21.058  27.846  1.00  0.00     0.001 A 
ATOM     73  C   UNL A   1      41.990  21.806  25.677  1.00  0.00     0.001 A 
ATOM     74  C   UNL A   1      41.472  20.804  26.495  1.00  0.00     0.000 A 
ENDBRANCH  50  69
BRANCH  62  75
ATOM     75  C   UNL A   1      47.825  26.258  30.112  1.00  0.00    -0.014 A 
ATOM     76  C   UNL A   1      48.737  26.289  29.046  1.00  0.00     0.009 A 
ATOM     77  C   UNL A   1      48.252  25.783  31.362  1.00  0.00     0.009 A 
ATOM     78  C   UNL A   1      50.043  25.826  29.222  1.00  0.00     0.001 A 
ATOM     79  C   UNL A   1      49.565  25.346  31.542  1.00  0.00     0.001 A 
ATOM     80  C   UNL A   1      50.456  25.360  30.469  1.00  0.00     0.000 A 
ENDBRANCH  62  75
ENDBRANCH  36  37
ENDBRANCH  28  31
ENDBRANCH  26  27
ENDBRANCH  25  26
ENDBRANCH   1  25
TORSDOF 14
ENDMDL
MODEL 3
REMARK VINA RESULT:     -11.4      2.553      7.878
REMARK SMILES Cc1cc(C)c2c(c1)C=C(C(=O)NCCCCCCNC(=O)c1ccc(-c3c4nc(c(-c5ccccc5)c5ccc([nH]5)c(-c5ccccc5)c5nc(c(-c6ccccc6)c6ccc3[nH]6)C=C5)C=C4)cc1)[C@@H](C(F)(F)F)O2
REMARK SMILES IDX 17 1 16 2 15 3 14 4 13 5 11 6 12 7 10 9 1 10 2 11 3 12 8 13
REMARK SMILES IDX 4 14 7 15 5 16 6 17 9 18 76 19 71 20 72 21 73 22 74 23 75 24
REMARK SMILES IDX 18 25 19 26 20 27 21 28 22 30 23 31 24 32 70 33 25 34 69 35
REMARK SMILES IDX 26 36 27 37 28 38 63 39 29 40 68 41 62 42 64 43 30 44 67 45
REMARK SMILES IDX 61 46 60 47 31 49 53 50 38 51 52 52 39 53 42 54 51 55 65 56
REMARK SMILES IDX 40 57 41 58 50 60 66 61 43 62 32 63 33 64 37 65 34 66 36 67
REMARK SMILES IDX 35 68 54 69 55 70 59 71 56 72 58 73 57 74 44 75 45 76 49 77
REMARK SMILES IDX 46 78 48 79 47 80
REMARK H PARENT 13 8 20 29 64 48 42 59
REMARK Flexibility Score: inf
ROOT
ATOM      1  C   UNL A   1      34.925  23.331  26.600  1.00  0.00     0.002 C 
ENDROOT
BRANCH   1   2
ATOM      2  C   UNL A   1      33.556  22.656  26.751  1.00  0.00     0.002 C 
BRANCH   2   3
ATOM      3  C   UNL A   1      33.291  21.489  25.795  1.00  0.00     0.021 C 
BRANCH   3   4
ATOM      4  C   UNL A   1      32.330  21.827  24.660  1.00  0.00     0.116 C 
BRANCH   4   5
ATOM      5  N   UNL A   1      33.034  22.260  23.467  1.00  0.00    -0.352 N 
ATOM      6  C   UNL A   1      33.305  23.429  22.842  1.00  0.00     0.251 C 
ATOM      7  O   UNL A   1      33.993  23.328  21.821  1.00  0.00    -0.270 OA
ATOM      8  H   UNL A   1      33.420  21.496  22.981  1.00  0.00     0.163 HD
BRANCH   6   9
ATOM      9  C   UNL A   1      32.843  24.778  23.288  1.00  0.00     0.067 C 
ATOM     10  C   UNL A   1      34.347  29.236  27.298  1.00  0.00     0.044 C 
ATOM     11  C   UNL A   1      33.597  28.604  26.163  1.00  0.00    -0.050 A 
ATOM     12  C   UNL A   1      32.514  29.262  25.567  1.00  0.00     0.010 A 
ATOM     13  C   UNL A   1      33.963  27.329  25.708  1.00  0.00     0.015 A 
ATOM     14  C   UNL A   1      31.805  28.668  24.515  1.00  0.00    -0.008 A 
ATOM     15  C   UNL A   1      33.260  26.720  24.666  1.00  0.00     0.018 A 
ATOM     16  C   UNL A   1      30.648  29.381  23.875  1.00  0.00     0.048 C 
ATOM     17  C   UNL A   1      32.183  27.392  24.081  1.00  0.00     0.130 A 
ATOM     18  C   UNL A   1      33.652  25.411  24.158  1.00  0.00     0.025 C 
ATOM     19  O   UNL A   1      31.484  26.861  23.034  1.00  0.00    -0.475 OA
ATOM     20  C   UNL A   1      31.556  25.422  22.861  1.00  0.00     0.314 C 
BRANCH  20  21
ATOM     21  C   UNL A   1      30.319  24.776  23.509  1.00  0.00     0.429 C 
ATOM     22  F   UNL A   1      30.564  24.488  24.813  1.00  0.00    -0.167 F 
ATOM     23  F   UNL A   1      29.239  25.593  23.501  1.00  0.00    -0.167 F 
ATOM     24  F   UNL A   1      29.949  23.627  22.903  1.00  0.00    -0.167 F 
ENDBRANCH  20  21
ENDBRANCH   6   9
ENDBRANCH   4   5
ENDBRANCH   3   4
ENDBRANCH   2   3
ENDBRANCH   1   2
BRANCH   1  25
ATOM     25  C   UNL A   1      35.858  22.710  25.554  1.00  0.00     0.021 C 
BRANCH  25  26
ATOM     26  C   UNL A   1      37.172  23.456  25.344  1.00  0.00     0.116 C 
BRANCH  26  27
ATOM     27  N   UNL A   1      38.320  22.605  25.602  1.00  0.00    -0.352 N 
ATOM     28  C   UNL A   1      39.535  22.918  26.149  1.00  0.00     0.251 C 
ATOM     29  H   UNL A   1      38.209  21.661  25.346  1.00  0.00     0.163 HD
ATOM     30  O   UNL A   1      40.464  22.115  26.083  1.00  0.00    -0.269 OA
BRANCH  28  31
ATOM     31  C   UNL A   1      39.741  24.217  26.823  1.00  0.00     0.039 A 
ATOM     32  C   UNL A   1      40.436  25.224  26.146  1.00  0.00     0.014 A 
ATOM     33  C   UNL A   1      39.317  24.419  28.141  1.00  0.00     0.014 A 
ATOM     34  C   UNL A   1      40.686  26.442  26.779  1.00  0.00     0.010 A 
ATOM     35  C   UNL A   1      39.518  25.654  28.752  1.00  0.00     0.010 A 
ATOM     36  C   UNL A   1      40.221  26.667  28.083  1.00  0.00    -0.014 A 
BRANCH  36  37
ATOM     37  C   UNL A   1      40.513  27.935  28.792  1.00  0.00     0.031 A 
ATOM     38  C   UNL A   1      41.845  28.122  29.464  1.00  0.00     0.074 A 
ATOM     39  C   UNL A   1      39.575  28.897  28.868  1.00  0.00     0.049 A 
ATOM     40  N   UNL A   1      42.263  29.112  30.210  1.00  0.00    -0.248 NA
ATOM     41  C   UNL A   1      42.832  27.044  29.284  1.00  0.00     0.031 C 
ATOM     42  C   UNL A   1      38.246  28.836  28.258  1.00  0.00     0.029 A 
ATOM     43  N   UNL A   1      39.599  30.116  29.497  1.00  0.00    -0.354 N 
ATOM     44  C   UNL A   1      43.551  28.770  30.601  1.00  0.00     0.074 A 
ATOM     45  C   UNL A   1      43.833  27.465  30.044  1.00  0.00     0.031 C 
ATOM     46  C   UNL A   1      37.590  29.977  28.525  1.00  0.00     0.029 A 
ATOM     47  C   UNL A   1      38.434  30.828  29.358  1.00  0.00     0.049 A 
ATOM     48  H   UNL A   1      40.378  30.448  30.000  1.00  0.00     0.167 HD
ATOM     49  C   UNL A   1      44.429  29.485  31.344  1.00  0.00     0.031 A 
ATOM     50  C   UNL A   1      38.083  32.029  29.855  1.00  0.00     0.031 A 
ATOM     51  C   UNL A   1      44.153  30.787  31.891  1.00  0.00     0.049 A 
ATOM     52  C   UNL A   1      39.060  32.785  30.711  1.00  0.00     0.074 A 
ATOM     53  C   UNL A   1      44.986  31.603  32.634  1.00  0.00     0.029 A 
ATOM     54  N   UNL A   1      42.952  31.463  31.746  1.00  0.00    -0.354 N 
ATOM     55  N   UNL A   1      40.279  32.455  31.061  1.00  0.00    -0.248 NA
ATOM     56  C   UNL A   1      38.610  34.082  31.237  1.00  0.00     0.031 C 
ATOM     57  C   UNL A   1      44.275  32.757  32.976  1.00  0.00     0.029 A 
ATOM     58  C   UNL A   1      43.015  32.680  32.403  1.00  0.00     0.049 A 
ATOM     59  H   UNL A   1      42.171  31.128  31.249  1.00  0.00     0.167 HD
ATOM     60  C   UNL A   1      40.747  33.508  31.836  1.00  0.00     0.074 A 
ATOM     61  C   UNL A   1      39.690  34.496  31.887  1.00  0.00     0.031 C 
ATOM     62  C   UNL A   1      41.947  33.644  32.454  1.00  0.00     0.031 A 
BRANCH  49  63
ATOM     63  C   UNL A   1      45.771  28.869  31.613  1.00  0.00    -0.014 A 
ATOM     64  C   UNL A   1      46.851  29.077  30.739  1.00  0.00     0.009 A 
ATOM     65  C   UNL A   1      45.972  28.105  32.772  1.00  0.00     0.009 A 
ATOM     66  C   UNL A   1      48.098  28.508  31.009  1.00  0.00     0.001 A 
ATOM     67  C   UNL A   1      47.226  27.558  33.052  1.00  0.00     0.001 A 
ATOM     68  C   UNL A   1      48.285  27.755  32.167  1.00  0.00     0.000 A 
ENDBRANCH  49  63
BRANCH  50  69
ATOM     69  C   UNL A   1      36.745  32.595  29.548  1.00  0.00    -0.014 A 
ATOM     70  C   UNL A   1      36.542  33.338  28.376  1.00  0.00     0.009 A 
ATOM     71  C   UNL A   1      35.663  32.391  30.419  1.00  0.00     0.009 A 
ATOM     72  C   UNL A   1      35.287  33.879  28.089  1.00  0.00     0.001 A 
ATOM     73  C   UNL A   1      34.403  32.912  30.118  1.00  0.00     0.001 A 
ATOM     74  C   UNL A   1      34.218  33.661  28.957  1.00  0.00     0.000 A 
ENDBRANCH  50  69
BRANCH  62  75
ATOM     75  C   UNL A   1      42.180  34.909  33.227  1.00  0.00    -0.014 A 
ATOM     76  C   UNL A   1      41.649  35.078  34.514  1.00  0.00     0.009 A 
ATOM     77  C   UNL A   1      42.977  35.926  32.678  1.00  0.00     0.009 A 
ATOM     78  C   UNL A   1      41.889  36.256  35.227  1.00  0.00     0.001 A 
ATOM     79  C   UNL A   1      43.237  37.090  33.403  1.00  0.00     0.001 A 
ATOM     80  C   UNL A   1      42.685  37.257  34.672  1.00  0.00     0.000 A 
ENDBRANCH  62  75
ENDBRANCH  36  37
ENDBRANCH  28  31
ENDBRANCH  26  27
ENDBRANCH  25  26
ENDBRANCH   1  25
TORSDOF 14
ENDMDL
