MODEL 1
REMARK VINA RESULT:     -11.8      0.000      0.000
REMARK SMILES C[C@H]1CCCCN1c1nc2nc(CC(=O)NCCCCCCNC(=O)c3ccc(-c4c5nc(c(-c6ccccc6)c6ccc([nH]6)c(-c6ccccc6)c6nc(c(-c7ccccc7)c7ccc4[nH]7)C=C6)C=C5)cc3)cc(O)n2n1
REMARK SMILES IDX 19 1 18 2 17 3 16 4 14 5 15 6 13 8 12 9 8 10 9 11 78 12
REMARK SMILES IDX 10 13 77 14 11 15 75 16 74 17 7 18 1 19 2 20 3 21 4 22 6 23
REMARK SMILES IDX 5 24 76 25 20 27 21 28 22 29 23 30 24 31 25 33 26 34 27 35
REMARK SMILES IDX 73 36 28 37 72 38 29 39 30 40 31 41 66 42 32 43 71 44 65 45
REMARK SMILES IDX 67 46 33 47 70 48 64 49 63 50 34 52 56 53 41 54 55 55 42 56
REMARK SMILES IDX 45 57 54 58 68 59 43 60 44 61 53 63 69 64 46 65 35 66 36 67
REMARK SMILES IDX 40 68 37 69 39 70 38 71 57 72 58 73 62 74 59 75 61 76 60 77
REMARK SMILES IDX 47 78 48 79 52 80 49 81 51 82 50 83
REMARK H PARENT 16 7 76 26 23 32 67 51 45 62
REMARK Flexibility Score: inf
ROOT
ATOM      1  C   UNL A   1      33.592  28.418  25.418  1.00  0.00     0.002 C 
ENDROOT
BRANCH   1   2
ATOM      2  C   UNL A   1      32.834  29.581  24.768  1.00  0.00     0.021 C 
BRANCH   2   3
ATOM      3  C   UNL A   1      31.314  29.434  24.841  1.00  0.00     0.116 C 
BRANCH   3   4
ATOM      4  N   UNL A   1      30.696  29.690  23.557  1.00  0.00    -0.356 N 
ATOM      5  C   UNL A   1      30.065  28.833  22.705  1.00  0.00     0.226 C 
ATOM      6  O   UNL A   1      29.620  29.284  21.648  1.00  0.00    -0.275 OA
ATOM      7  H   UNL A   1      30.738  30.626  23.253  1.00  0.00     0.163 HD
BRANCH   5   8
ATOM      8  C   UNL A   1      29.814  27.405  23.119  1.00  0.00     0.156 C 
BRANCH   8   9
ATOM      9  C   UNL A   1      31.005  26.480  23.011  1.00  0.00     0.059 A 
ATOM     10  C   UNL A   1      34.154  23.743  24.138  1.00  0.00     0.247 A 
ATOM     11  N   UNL A   1      33.123  24.310  24.827  1.00  0.00    -0.173 NA
ATOM     12  N   UNL A   1      34.150  23.984  22.830  1.00  0.00    -0.123 NA
ATOM     13  C   UNL A   1      32.500  25.036  23.928  1.00  0.00     0.257 A 
ATOM     14  N   UNL A   1      33.109  24.830  22.688  1.00  0.00    -0.161 N 
ATOM     15  N   UNL A   1      31.427  25.868  24.076  1.00  0.00    -0.215 NA
ATOM     16  C   UNL A   1      32.635  25.472  21.534  1.00  0.00     0.217 A 
ATOM     17  C   UNL A   1      31.617  26.338  21.644  1.00  0.00     0.092 A 
BRANCH  10  18
ATOM     18  N   UNL A   1      35.063  23.019  24.821  1.00  0.00    -0.337 N 
ATOM     19  C   UNL A   1      33.709  20.889  24.544  1.00  0.00     0.031 C 
ATOM     20  C   UNL A   1      34.889  21.611  25.201  1.00  0.00     0.082 C 
ATOM     21  C   UNL A   1      36.182  20.857  24.821  1.00  0.00     0.025 C 
ATOM     22  C   UNL A   1      37.418  21.503  25.444  1.00  0.00     0.004 C 
ATOM     23  C   UNL A   1      36.206  23.712  25.408  1.00  0.00     0.120 C 
ATOM     24  C   UNL A   1      37.502  22.982  25.078  1.00  0.00     0.022 C 
ENDBRANCH  10  18
BRANCH  16  25
ATOM     25  O   UNL A   1      33.231  25.195  20.313  1.00  0.00    -0.493 OA
ATOM     26  H   UNL A   1      34.083  25.531  20.121  1.00  0.00     0.295 HD
ENDBRANCH  16  25
ENDBRANCH   8   9
ENDBRANCH   5   8
ENDBRANCH   3   4
ENDBRANCH   2   3
ENDBRANCH   1   2
BRANCH   1  27
ATOM     27  C   UNL A   1      33.987  28.632  26.888  1.00  0.00     0.002 C 
BRANCH  27  28
ATOM     28  C   UNL A   1      33.568  29.977  27.499  1.00  0.00     0.021 C 
BRANCH  28  29
ATOM     29  C   UNL A   1      34.727  30.951  27.630  1.00  0.00     0.116 C 
BRANCH  29  30
ATOM     30  N   UNL A   1      34.617  31.755  28.843  1.00  0.00    -0.352 N 
ATOM     31  C   UNL A   1      35.320  31.634  30.021  1.00  0.00     0.251 C 
ATOM     32  H   UNL A   1      33.951  32.480  28.816  1.00  0.00     0.163 HD
ATOM     33  O   UNL A   1      34.900  32.126  31.056  1.00  0.00    -0.269 OA
BRANCH  31  34
ATOM     34  C   UNL A   1      36.611  30.926  30.007  1.00  0.00     0.039 A 
ATOM     35  C   UNL A   1      37.797  31.609  29.709  1.00  0.00     0.014 A 
ATOM     36  C   UNL A   1      36.614  29.552  30.236  1.00  0.00     0.014 A 
ATOM     37  C   UNL A   1      38.991  30.898  29.673  1.00  0.00     0.010 A 
ATOM     38  C   UNL A   1      37.798  28.875  30.324  1.00  0.00     0.010 A 
ATOM     39  C   UNL A   1      38.973  29.531  29.975  1.00  0.00    -0.014 A 
BRANCH  39  40
ATOM     40  C   UNL A   1      40.194  28.746  30.006  1.00  0.00     0.031 A 
ATOM     41  C   UNL A   1      40.786  28.574  31.360  1.00  0.00     0.074 A 
ATOM     42  C   UNL A   1      40.560  28.003  28.940  1.00  0.00     0.049 A 
ATOM     43  N   UNL A   1      41.960  28.927  31.763  1.00  0.00    -0.248 NA
ATOM     44  C   UNL A   1      39.923  28.040  32.431  1.00  0.00     0.031 C 
ATOM     45  C   UNL A   1      39.846  27.826  27.669  1.00  0.00     0.029 A 
ATOM     46  N   UNL A   1      41.582  27.118  28.827  1.00  0.00    -0.354 N 
ATOM     47  C   UNL A   1      42.052  28.510  33.088  1.00  0.00     0.074 A 
ATOM     48  C   UNL A   1      40.723  28.129  33.494  1.00  0.00     0.031 C 
ATOM     49  C   UNL A   1      40.310  26.720  27.042  1.00  0.00     0.029 A 
ATOM     50  C   UNL A   1      41.443  26.205  27.788  1.00  0.00     0.049 A 
ATOM     51  H   UNL A   1      42.358  27.123  29.433  1.00  0.00     0.167 HD
ATOM     52  C   UNL A   1      43.249  28.279  33.693  1.00  0.00     0.031 A 
ATOM     53  C   UNL A   1      42.175  25.074  27.609  1.00  0.00     0.031 A 
ATOM     54  C   UNL A   1      44.347  28.819  32.941  1.00  0.00     0.049 A 
ATOM     55  C   UNL A   1      43.397  25.222  28.438  1.00  0.00     0.074 A 
ATOM     56  C   UNL A   1      44.702  30.089  32.533  1.00  0.00     0.029 A 
ATOM     57  N   UNL A   1      45.039  27.950  32.129  1.00  0.00    -0.354 N 
ATOM     58  N   UNL A   1      44.317  26.114  28.205  1.00  0.00    -0.248 NA
ATOM     59  C   UNL A   1      43.359  24.700  29.797  1.00  0.00     0.031 C 
ATOM     60  C   UNL A   1      45.172  29.921  31.199  1.00  0.00     0.029 A 
ATOM     61  C   UNL A   1      45.156  28.555  30.903  1.00  0.00     0.049 A 
ATOM     62  H   UNL A   1      45.383  27.063  32.379  1.00  0.00     0.167 HD
ATOM     63  C   UNL A   1      44.683  26.579  29.460  1.00  0.00     0.074 A 
ATOM     64  C   UNL A   1      44.122  25.613  30.405  1.00  0.00     0.031 C 
ATOM     65  C   UNL A   1      45.142  27.852  29.640  1.00  0.00     0.031 A 
BRANCH  52  66
ATOM     66  C   UNL A   1      43.443  27.245  34.764  1.00  0.00    -0.014 A 
ATOM     67  C   UNL A   1      43.381  25.883  34.430  1.00  0.00     0.009 A 
ATOM     68  C   UNL A   1      43.432  27.569  36.135  1.00  0.00     0.009 A 
ATOM     69  C   UNL A   1      43.290  24.899  35.424  1.00  0.00     0.001 A 
ATOM     70  C   UNL A   1      43.383  26.590  37.128  1.00  0.00     0.001 A 
ATOM     71  C   UNL A   1      43.293  25.253  36.770  1.00  0.00     0.000 A 
ENDBRANCH  52  66
BRANCH  53  72
ATOM     72  C   UNL A   1      41.769  23.771  27.027  1.00  0.00    -0.014 A 
ATOM     73  C   UNL A   1      42.587  23.126  26.082  1.00  0.00     0.009 A 
ATOM     74  C   UNL A   1      40.720  23.021  27.589  1.00  0.00     0.009 A 
ATOM     75  C   UNL A   1      42.395  21.775  25.755  1.00  0.00     0.001 A 
ATOM     76  C   UNL A   1      40.522  21.676  27.255  1.00  0.00     0.001 A 
ATOM     77  C   UNL A   1      41.373  21.046  26.353  1.00  0.00     0.000 A 
ENDBRANCH  53  72
BRANCH  65  78
ATOM     78  C   UNL A   1      45.401  28.703  28.420  1.00  0.00    -0.014 A 
ATOM     79  C   UNL A   1      44.414  29.524  27.842  1.00  0.00     0.009 A 
ATOM     80  C   UNL A   1      46.728  28.863  28.000  1.00  0.00     0.009 A 
ATOM     81  C   UNL A   1      44.753  30.483  26.880  1.00  0.00     0.001 A 
ATOM     82  C   UNL A   1      47.069  29.832  27.054  1.00  0.00     0.001 A 
ATOM     83  C   UNL A   1      46.083  30.645  26.497  1.00  0.00     0.000 A 
ENDBRANCH  65  78
ENDBRANCH  39  40
ENDBRANCH  31  34
ENDBRANCH  29  30
ENDBRANCH  28  29
ENDBRANCH  27  28
ENDBRANCH   1  27
TORSDOF 16
ENDMDL
MODEL 2
REMARK VINA RESULT:     -11.5      2.762      8.092
REMARK SMILES C[C@H]1CCCCN1c1nc2nc(CC(=O)NCCCCCCNC(=O)c3ccc(-c4c5nc(c(-c6ccccc6)c6ccc([nH]6)c(-c6ccccc6)c6nc(c(-c7ccccc7)c7ccc4[nH]7)C=C6)C=C5)cc3)cc(O)n2n1
REMARK SMILES IDX 19 1 18 2 17 3 16 4 14 5 15 6 13 8 12 9 8 10 9 11 78 12
REMARK SMILES IDX 10 13 77 14 11 15 75 16 74 17 7 18 1 19 2 20 3 21 4 22 6 23
REMARK SMILES IDX 5 24 76 25 20 27 21 28 22 29 23 30 24 31 25 33 26 34 27 35
REMARK SMILES IDX 73 36 28 37 72 38 29 39 30 40 31 41 66 42 32 43 71 44 65 45
REMARK SMILES IDX 67 46 33 47 70 48 64 49 63 50 34 52 56 53 41 54 55 55 42 56
REMARK SMILES IDX 45 57 54 58 68 59 43 60 44 61 53 63 69 64 46 65 35 66 36 67
REMARK SMILES IDX 40 68 37 69 39 70 38 71 57 72 58 73 62 74 59 75 61 76 60 77
REMARK SMILES IDX 47 78 48 79 52 80 49 81 51 82 50 83
REMARK H PARENT 16 7 76 26 23 32 67 51 45 62
REMARK Flexibility Score: inf
ROOT
ATOM      1  C   UNL A   1      36.515  22.822  25.834  1.00  0.00     0.002 C 
ENDROOT
BRANCH   1   2
ATOM      2  C   UNL A   1      35.383  21.821  26.091  1.00  0.00     0.021 C 
BRANCH   2   3
ATOM      3  C   UNL A   1      35.239  20.768  24.992  1.00  0.00     0.116 C 
BRANCH   3   4
ATOM      4  N   UNL A   1      34.188  19.823  25.299  1.00  0.00    -0.356 N 
ATOM      5  C   UNL A   1      32.864  19.852  24.972  1.00  0.00     0.226 C 
ATOM      6  O   UNL A   1      32.148  18.927  25.359  1.00  0.00    -0.275 OA
ATOM      7  H   UNL A   1      34.471  19.040  25.825  1.00  0.00     0.163 HD
BRANCH   5   8
ATOM      8  C   UNL A   1      32.337  20.925  24.054  1.00  0.00     0.156 C 
BRANCH   8   9
ATOM      9  C   UNL A   1      32.051  22.257  24.711  1.00  0.00     0.059 A 
ATOM     10  C   UNL A   1      32.244  26.479  25.615  1.00  0.00     0.247 A 
ATOM     11  N   UNL A   1      32.829  25.705  24.656  1.00  0.00    -0.173 NA
ATOM     12  N   UNL A   1      31.350  25.849  26.372  1.00  0.00    -0.123 NA
ATOM     13  C   UNL A   1      32.362  24.500  24.892  1.00  0.00     0.257 A 
ATOM     14  N   UNL A   1      31.435  24.577  25.933  1.00  0.00    -0.161 N 
ATOM     15  N   UNL A   1      32.658  23.319  24.274  1.00  0.00    -0.215 NA
ATOM     16  C   UNL A   1      30.760  23.432  26.387  1.00  0.00     0.217 A 
ATOM     17  C   UNL A   1      31.060  22.244  25.842  1.00  0.00     0.092 A 
BRANCH  10  18
ATOM     18  N   UNL A   1      32.618  27.770  25.716  1.00  0.00    -0.337 N 
ATOM     19  C   UNL A   1      30.781  28.519  24.131  1.00  0.00     0.031 C 
ATOM     20  C   UNL A   1      32.046  28.865  24.921  1.00  0.00     0.082 C 
ATOM     21  C   UNL A   1      31.706  30.020  25.886  1.00  0.00     0.025 C 
ATOM     22  C   UNL A   1      32.918  30.443  26.714  1.00  0.00     0.004 C 
ATOM     23  C   UNL A   1      33.802  28.092  26.505  1.00  0.00     0.120 C 
ATOM     24  C   UNL A   1      33.515  29.250  27.454  1.00  0.00     0.022 C 
ENDBRANCH  10  18
BRANCH  16  25
ATOM     25  O   UNL A   1      29.804  23.561  27.382  1.00  0.00    -0.493 OA
ATOM     26  H   UNL A   1      30.007  23.314  28.261  1.00  0.00     0.295 HD
ENDBRANCH  16  25
ENDBRANCH   8   9
ENDBRANCH   5   8
ENDBRANCH   3   4
ENDBRANCH   2   3
ENDBRANCH   1   2
BRANCH   1  27
ATOM     27  C   UNL A   1      37.672  22.296  24.969  1.00  0.00     0.002 C 
BRANCH  27  28
ATOM     28  C   UNL A   1      38.748  21.494  25.715  1.00  0.00     0.021 C 
BRANCH  28  29
ATOM     29  C   UNL A   1      39.714  22.380  26.485  1.00  0.00     0.116 C 
BRANCH  29  30
ATOM     30  N   UNL A   1      41.079  22.244  25.987  1.00  0.00    -0.352 N 
ATOM     31  C   UNL A   1      42.016  23.228  25.767  1.00  0.00     0.251 C 
ATOM     32  H   UNL A   1      41.368  21.325  25.780  1.00  0.00     0.163 HD
ATOM     33  O   UNL A   1      42.972  23.033  25.035  1.00  0.00    -0.269 OA
BRANCH  31  34
ATOM     34  C   UNL A   1      41.864  24.519  26.460  1.00  0.00     0.039 A 
ATOM     35  C   UNL A   1      41.185  25.581  25.852  1.00  0.00     0.014 A 
ATOM     36  C   UNL A   1      42.465  24.674  27.708  1.00  0.00     0.014 A 
ATOM     37  C   UNL A   1      41.092  26.794  26.525  1.00  0.00     0.010 A 
ATOM     38  C   UNL A   1      42.269  25.822  28.424  1.00  0.00     0.010 A 
ATOM     39  C   UNL A   1      41.646  26.900  27.806  1.00  0.00    -0.014 A 
BRANCH  39  40
ATOM     40  C   UNL A   1      41.535  28.122  28.581  1.00  0.00     0.031 A 
ATOM     41  C   UNL A   1      42.596  29.128  28.310  1.00  0.00     0.074 A 
ATOM     42  C   UNL A   1      40.396  28.411  29.247  1.00  0.00     0.049 A 
ATOM     43  N   UNL A   1      43.443  29.632  29.144  1.00  0.00    -0.248 NA
ATOM     44  C   UNL A   1      42.816  29.545  26.912  1.00  0.00     0.031 C 
ATOM     45  C   UNL A   1      39.147  27.639  29.287  1.00  0.00     0.029 A 
ATOM     46  N   UNL A   1      40.061  29.545  29.911  1.00  0.00    -0.354 N 
ATOM     47  C   UNL A   1      44.192  30.555  28.420  1.00  0.00     0.074 A 
ATOM     48  C   UNL A   1      43.882  30.336  27.029  1.00  0.00     0.031 C 
ATOM     49  C   UNL A   1      38.139  28.437  29.710  1.00  0.00     0.029 A 
ATOM     50  C   UNL A   1      38.695  29.716  30.109  1.00  0.00     0.049 A 
ATOM     51  H   UNL A   1      40.731  30.194  30.227  1.00  0.00     0.167 HD
ATOM     52  C   UNL A   1      44.837  31.594  29.016  1.00  0.00     0.031 A 
ATOM     53  C   UNL A   1      38.079  30.859  30.510  1.00  0.00     0.031 A 
ATOM     54  C   UNL A   1      44.923  31.429  30.441  1.00  0.00     0.049 A 
ATOM     55  C   UNL A   1      39.127  31.723  31.107  1.00  0.00     0.074 A 
ATOM     56  C   UNL A   1      45.499  30.485  31.266  1.00  0.00     0.029 A 
ATOM     57  N   UNL A   1      43.987  32.085  31.206  1.00  0.00    -0.354 N 
ATOM     58  N   UNL A   1      39.762  31.424  32.205  1.00  0.00    -0.248 NA
ATOM     59  C   UNL A   1      39.800  32.671  30.231  1.00  0.00     0.031 C 
ATOM     60  C   UNL A   1      44.544  30.283  32.305  1.00  0.00     0.029 A 
ATOM     61  C   UNL A   1      43.485  31.170  32.097  1.00  0.00     0.049 A 
ATOM     62  H   UNL A   1      43.726  33.031  31.129  1.00  0.00     0.167 HD
ATOM     63  C   UNL A   1      41.077  31.796  31.964  1.00  0.00     0.074 A 
ATOM     64  C   UNL A   1      41.024  32.635  30.767  1.00  0.00     0.031 C 
ATOM     65  C   UNL A   1      42.119  31.153  32.567  1.00  0.00     0.031 A 
BRANCH  52  66
ATOM     66  C   UNL A   1      45.049  32.923  28.350  1.00  0.00    -0.014 A 
ATOM     67  C   UNL A   1      43.995  33.848  28.299  1.00  0.00     0.009 A 
ATOM     68  C   UNL A   1      46.175  33.190  27.547  1.00  0.00     0.009 A 
ATOM     69  C   UNL A   1      44.061  34.974  27.468  1.00  0.00     0.001 A 
ATOM     70  C   UNL A   1      46.262  34.332  26.749  1.00  0.00     0.001 A 
ATOM     71  C   UNL A   1      45.194  35.215  26.695  1.00  0.00     0.000 A 
ENDBRANCH  52  66
BRANCH  53  72
ATOM     72  C   UNL A   1      36.736  31.381  30.152  1.00  0.00    -0.014 A 
ATOM     73  C   UNL A   1      35.851  31.818  31.153  1.00  0.00     0.009 A 
ATOM     74  C   UNL A   1      36.417  31.707  28.821  1.00  0.00     0.009 A 
ATOM     75  C   UNL A   1      34.724  32.594  30.840  1.00  0.00     0.001 A 
ATOM     76  C   UNL A   1      35.286  32.472  28.508  1.00  0.00     0.001 A 
ATOM     77  C   UNL A   1      34.451  32.934  29.519  1.00  0.00     0.000 A 
ENDBRANCH  53  72
BRANCH  65  78
ATOM     78  C   UNL A   1      41.812  30.128  33.634  1.00  0.00    -0.014 A 
ATOM     79  C   UNL A   1      41.586  28.770  33.341  1.00  0.00     0.009 A 
ATOM     80  C   UNL A   1      41.998  30.498  34.973  1.00  0.00     0.009 A 
ATOM     81  C   UNL A   1      41.558  27.812  34.362  1.00  0.00     0.001 A 
ATOM     82  C   UNL A   1      41.989  29.540  35.988  1.00  0.00     0.001 A 
ATOM     83  C   UNL A   1      41.774  28.197  35.683  1.00  0.00     0.000 A 
ENDBRANCH  65  78
ENDBRANCH  39  40
ENDBRANCH  31  34
ENDBRANCH  29  30
ENDBRANCH  28  29
ENDBRANCH  27  28
ENDBRANCH   1  27
TORSDOF 16
ENDMDL
MODEL 3
REMARK VINA RESULT:     -11.2      2.493      8.204
REMARK SMILES C[C@H]1CCCCN1c1nc2nc(CC(=O)NCCCCCCNC(=O)c3ccc(-c4c5nc(c(-c6ccccc6)c6ccc([nH]6)c(-c6ccccc6)c6nc(c(-c7ccccc7)c7ccc4[nH]7)C=C6)C=C5)cc3)cc(O)n2n1
REMARK SMILES IDX 19 1 18 2 17 3 16 4 14 5 15 6 13 8 12 9 8 10 9 11 78 12
REMARK SMILES IDX 10 13 77 14 11 15 75 16 74 17 7 18 1 19 2 20 3 21 4 22 6 23
REMARK SMILES IDX 5 24 76 25 20 27 21 28 22 29 23 30 24 31 25 33 26 34 27 35
REMARK SMILES IDX 73 36 28 37 72 38 29 39 30 40 31 41 66 42 32 43 71 44 65 45
REMARK SMILES IDX 67 46 33 47 70 48 64 49 63 50 34 52 56 53 41 54 55 55 42 56
REMARK SMILES IDX 45 57 54 58 68 59 43 60 44 61 53 63 69 64 46 65 35 66 36 67
REMARK SMILES IDX 40 68 37 69 39 70 38 71 57 72 58 73 62 74 59 75 61 76 60 77
REMARK SMILES IDX 47 78 48 79 52 80 49 81 51 82 50 83
REMARK H PARENT 16 7 76 26 23 32 67 51 45 62
REMARK Flexibility Score: inf
ROOT
ATOM      1  C   UNL A   1      39.331  21.763  26.067  1.00  0.00     0.002 C 
ENDROOT
BRANCH   1   2
ATOM      2  C   UNL A   1      39.046  23.202  26.515  1.00  0.00     0.021 C 
BRANCH   2   3
ATOM      3  C   UNL A   1      37.700  23.737  26.028  1.00  0.00     0.116 C 
BRANCH   3   4
ATOM      4  N   UNL A   1      37.547  23.561  24.599  1.00  0.00    -0.356 N 
ATOM      5  C   UNL A   1      36.675  22.775  23.905  1.00  0.00     0.226 C 
ATOM      6  O   UNL A   1      36.739  22.781  22.674  1.00  0.00    -0.275 OA
ATOM      7  H   UNL A   1      38.168  24.088  24.045  1.00  0.00     0.163 HD
BRANCH   5   8
ATOM      8  C   UNL A   1      35.586  22.029  24.633  1.00  0.00     0.156 C 
BRANCH   8   9
ATOM      9  C   UNL A   1      34.368  22.850  24.994  1.00  0.00     0.059 A 
ATOM     10  C   UNL A   1      31.418  26.008  24.927  1.00  0.00     0.247 A 
ATOM     11  N   UNL A   1      32.487  25.716  24.133  1.00  0.00    -0.173 NA
ATOM     12  N   UNL A   1      31.147  25.094  25.854  1.00  0.00    -0.123 NA
ATOM     13  C   UNL A   1      32.982  24.618  24.655  1.00  0.00     0.257 A 
ATOM     14  N   UNL A   1      32.156  24.212  25.705  1.00  0.00    -0.161 N 
ATOM     15  N   UNL A   1      34.096  23.914  24.298  1.00  0.00    -0.215 NA
ATOM     16  C   UNL A   1      32.436  23.048  26.438  1.00  0.00     0.217 A 
ATOM     17  C   UNL A   1      33.549  22.356  26.154  1.00  0.00     0.092 A 
BRANCH  10  18
ATOM     18  N   UNL A   1      30.757  27.164  24.718  1.00  0.00    -0.337 N 
ATOM     19  C   UNL A   1      32.323  28.443  26.252  1.00  0.00     0.031 C 
ATOM     20  C   UNL A   1      31.035  28.420  25.426  1.00  0.00     0.082 C 
ATOM     21  C   UNL A   1      31.123  29.545  24.372  1.00  0.00     0.025 C 
ATOM     22  C   UNL A   1      29.869  29.606  23.502  1.00  0.00     0.004 C 
ATOM     23  C   UNL A   1      29.552  27.137  23.894  1.00  0.00     0.120 C 
ATOM     24  C   UNL A   1      29.588  28.253  22.856  1.00  0.00     0.022 C 
ENDBRANCH  10  18
BRANCH  16  25
ATOM     25  O   UNL A   1      31.558  22.647  27.432  1.00  0.00    -0.493 OA
ATOM     26  H   UNL A   1      31.416  23.193  28.180  1.00  0.00     0.295 HD
ENDBRANCH  16  25
ENDBRANCH   8   9
ENDBRANCH   5   8
ENDBRANCH   3   4
ENDBRANCH   2   3
ENDBRANCH   1   2
BRANCH   1  27
ATOM     27  C   UNL A   1      40.489  21.066  26.798  1.00  0.00     0.002 C 
BRANCH  27  28
ATOM     28  C   UNL A   1      41.208  19.965  26.004  1.00  0.00     0.021 C 
BRANCH  28  29
ATOM     29  C   UNL A   1      42.658  19.789  26.422  1.00  0.00     0.116 C 
BRANCH  29  30
ATOM     30  N   UNL A   1      43.569  20.016  25.304  1.00  0.00    -0.352 N 
ATOM     31  C   UNL A   1      43.978  21.212  24.758  1.00  0.00     0.251 C 
ATOM     32  H   UNL A   1      43.940  19.206  24.885  1.00  0.00     0.163 HD
ATOM     33  O   UNL A   1      44.449  21.260  23.633  1.00  0.00    -0.269 OA
BRANCH  31  34
ATOM     34  C   UNL A   1      43.869  22.436  25.569  1.00  0.00     0.039 A 
ATOM     35  C   UNL A   1      44.749  22.670  26.633  1.00  0.00     0.014 A 
ATOM     36  C   UNL A   1      42.831  23.324  25.290  1.00  0.00     0.014 A 
ATOM     37  C   UNL A   1      44.592  23.822  27.396  1.00  0.00     0.010 A 
ATOM     38  C   UNL A   1      42.751  24.514  25.957  1.00  0.00     0.010 A 
ATOM     39  C   UNL A   1      43.583  24.729  27.050  1.00  0.00    -0.014 A 
BRANCH  39  40
ATOM     40  C   UNL A   1      43.403  25.974  27.774  1.00  0.00     0.031 A 
ATOM     41  C   UNL A   1      44.381  27.040  27.428  1.00  0.00     0.074 A 
ATOM     42  C   UNL A   1      42.265  26.211  28.460  1.00  0.00     0.049 A 
ATOM     43  N   UNL A   1      45.210  27.641  28.214  1.00  0.00    -0.248 NA
ATOM     44  C   UNL A   1      44.534  27.407  26.007  1.00  0.00     0.031 C 
ATOM     45  C   UNL A   1      41.077  25.354  28.570  1.00  0.00     0.029 A 
ATOM     46  N   UNL A   1      41.865  27.347  29.083  1.00  0.00    -0.354 N 
ATOM     47  C   UNL A   1      45.871  28.581  27.427  1.00  0.00     0.074 A 
ATOM     48  C   UNL A   1      45.541  28.277  26.058  1.00  0.00     0.031 C 
ATOM     49  C   UNL A   1      40.024  26.095  28.987  1.00  0.00     0.029 A 
ATOM     50  C   UNL A   1      40.496  27.429  29.313  1.00  0.00     0.049 A 
ATOM     51  H   UNL A   1      42.493  28.056  29.350  1.00  0.00     0.167 HD
ATOM     52  C   UNL A   1      46.453  29.690  27.959  1.00  0.00     0.031 A 
ATOM     53  C   UNL A   1      39.808  28.541  29.680  1.00  0.00     0.031 A 
ATOM     54  C   UNL A   1      46.588  29.598  29.386  1.00  0.00     0.049 A 
ATOM     55  C   UNL A   1      40.806  29.505  30.208  1.00  0.00     0.074 A 
ATOM     56  C   UNL A   1      47.253  28.736  30.235  1.00  0.00     0.029 A 
ATOM     57  N   UNL A   1      45.627  30.219  30.149  1.00  0.00    -0.354 N 
ATOM     58  N   UNL A   1      41.489  29.303  31.299  1.00  0.00    -0.248 NA
ATOM     59  C   UNL A   1      41.385  30.458  29.273  1.00  0.00     0.031 C 
ATOM     60  C   UNL A   1      46.343  28.514  31.309  1.00  0.00     0.029 A 
ATOM     61  C   UNL A   1      45.217  29.313  31.094  1.00  0.00     0.049 A 
ATOM     62  H   UNL A   1      45.296  31.139  30.038  1.00  0.00     0.167 HD
ATOM     63  C   UNL A   1      42.766  29.757  31.004  1.00  0.00     0.074 A 
ATOM     64  C   UNL A   1      42.622  30.534  29.773  1.00  0.00     0.031 C 
ATOM     65  C   UNL A   1      43.868  29.219  31.604  1.00  0.00     0.031 A 
BRANCH  52  66
ATOM     66  C   UNL A   1      46.550  30.999  27.229  1.00  0.00    -0.014 A 
ATOM     67  C   UNL A   1      47.785  31.663  27.160  1.00  0.00     0.009 A 
ATOM     68  C   UNL A   1      45.411  31.723  26.826  1.00  0.00     0.009 A 
ATOM     69  C   UNL A   1      47.867  32.993  26.728  1.00  0.00     0.001 A 
ATOM     70  C   UNL A   1      45.494  33.035  26.357  1.00  0.00     0.001 A 
ATOM     71  C   UNL A   1      46.723  33.677  26.327  1.00  0.00     0.000 A 
ENDBRANCH  52  66
BRANCH  53  72
ATOM     72  C   UNL A   1      38.422  28.948  29.340  1.00  0.00    -0.014 A 
ATOM     73  C   UNL A   1      37.504  29.272  30.355  1.00  0.00     0.009 A 
ATOM     74  C   UNL A   1      38.069  29.283  28.020  1.00  0.00     0.009 A 
ATOM     75  C   UNL A   1      36.310  29.950  30.065  1.00  0.00     0.001 A 
ATOM     76  C   UNL A   1      36.872  29.951  27.730  1.00  0.00     0.001 A 
ATOM     77  C   UNL A   1      36.002  30.303  28.756  1.00  0.00     0.000 A 
ENDBRANCH  53  72
BRANCH  65  78
ATOM     78  C   UNL A   1      43.665  28.225  32.723  1.00  0.00    -0.014 A 
ATOM     79  C   UNL A   1      43.758  26.833  32.530  1.00  0.00     0.009 A 
ATOM     80  C   UNL A   1      43.623  28.714  34.036  1.00  0.00     0.009 A 
ATOM     81  C   UNL A   1      43.817  25.962  33.624  1.00  0.00     0.001 A 
ATOM     82  C   UNL A   1      43.701  27.845  35.126  1.00  0.00     0.001 A 
ATOM     83  C   UNL A   1      43.803  26.470  34.922  1.00  0.00     0.000 A 
ENDBRANCH  65  78
ENDBRANCH  39  40
ENDBRANCH  31  34
ENDBRANCH  29  30
ENDBRANCH  28  29
ENDBRANCH  27  28
ENDBRANCH   1  27
TORSDOF 16
ENDMDL
