MODEL 1
REMARK VINA RESULT:     -11.0      0.000      0.000
REMARK SMILES C[C@@H]1CN(C(=O)N2c3ccccc3C[C@@H]2C(=O)NCCCCCCNC(=O)c2ccc(-c3c4nc(c(-c5ccccc5)c5ccc([nH]5)c(-c5ccccc5)c5nc(c(-c6ccccc6)c6ccc3[nH]6)C=C5)C=C4)cc2)C[C@@H]1C
REMARK SMILES IDX 21 1 20 2 19 3 18 4 16 5 17 6 15 8 7 9 8 10 9 11 13 12 14 13
REMARK SMILES IDX 10 14 12 15 11 16 5 17 6 18 4 19 1 20 2 21 3 22 77 23 76 24
REMARK SMILES IDX 78 25 22 26 23 27 24 28 25 29 26 30 27 32 28 33 29 34 75 35
REMARK SMILES IDX 30 36 74 37 31 38 32 39 33 40 68 41 34 42 73 43 67 44 69 45
REMARK SMILES IDX 35 46 72 47 66 48 65 49 36 51 58 52 43 53 57 54 44 55 47 56
REMARK SMILES IDX 56 57 70 58 45 59 46 60 55 62 71 63 48 64 37 65 38 66 42 67
REMARK SMILES IDX 39 68 41 69 40 70 59 71 60 72 64 73 61 74 63 75 62 76 49 77
REMARK SMILES IDX 50 78 54 79 51 80 53 81 52 82
REMARK H PARENT 18 7 25 31 69 50 47 61
REMARK Flexibility Score: inf
ROOT
ATOM      1  C   UNL A   1      33.278  21.662  25.517  1.00  0.00     0.002 C 
ENDROOT
BRANCH   1   2
ATOM      2  C   UNL A   1      31.785  21.983  25.390  1.00  0.00     0.021 C 
BRANCH   2   3
ATOM      3  C   UNL A   1      31.439  23.277  24.648  1.00  0.00     0.116 C 
BRANCH   3   4
ATOM      4  N   UNL A   1      30.633  24.140  25.495  1.00  0.00    -0.354 N 
ATOM      5  C   UNL A   1      30.166  25.405  25.267  1.00  0.00     0.243 C 
ATOM      6  O   UNL A   1      29.821  26.039  26.270  1.00  0.00    -0.273 OA
ATOM      7  H   UNL A   1      30.386  23.755  26.367  1.00  0.00     0.163 HD
BRANCH   5   8
ATOM      8  C   UNL A   1      30.085  26.009  23.840  1.00  0.00     0.186 C 
ATOM      9  N   UNL A   1      30.749  27.334  23.733  1.00  0.00    -0.281 N 
ATOM     10  C   UNL A   1      29.781  28.315  23.444  1.00  0.00     0.050 A 
ATOM     11  C   UNL A   1      29.961  29.647  23.102  1.00  0.00     0.027 A 
ATOM     12  C   UNL A   1      28.508  27.758  23.462  1.00  0.00    -0.021 A 
ATOM     13  C   UNL A   1      28.587  26.263  23.511  1.00  0.00     0.073 C 
ATOM     14  C   UNL A   1      28.834  30.459  22.955  1.00  0.00     0.002 A 
ATOM     15  C   UNL A   1      27.378  28.550  23.319  1.00  0.00     0.006 A 
ATOM     16  C   UNL A   1      27.550  29.919  23.097  1.00  0.00     0.000 A 
BRANCH   9  17
ATOM     17  C   UNL A   1      32.097  27.491  23.561  1.00  0.00     0.325 C 
ATOM     18  O   UNL A   1      32.654  27.135  22.518  1.00  0.00    -0.248 OA
BRANCH  17  19
ATOM     19  N   UNL A   1      32.823  27.963  24.638  1.00  0.00    -0.324 N 
ATOM     20  C   UNL A   1      33.622  30.580  27.147  1.00  0.00     0.010 C 
ATOM     21  C   UNL A   1      33.808  29.317  26.320  1.00  0.00     0.010 C 
ATOM     22  C   UNL A   1      33.033  29.363  25.001  1.00  0.00     0.125 C 
ATOM     23  C   UNL A   1      33.320  28.010  26.963  1.00  0.00     0.010 C 
ATOM     24  C   UNL A   1      33.170  27.087  25.743  1.00  0.00     0.125 C 
ATOM     25  C   UNL A   1      32.014  28.171  27.732  1.00  0.00     0.010 C 
ENDBRANCH  17  19
ENDBRANCH   9  17
ENDBRANCH   5   8
ENDBRANCH   3   4
ENDBRANCH   2   3
ENDBRANCH   1   2
BRANCH   1  26
ATOM     26  C   UNL A   1      34.246  22.680  24.913  1.00  0.00     0.002 C 
BRANCH  26  27
ATOM     27  C   UNL A   1      34.877  23.740  25.827  1.00  0.00     0.021 C 
BRANCH  27  28
ATOM     28  C   UNL A   1      36.373  24.060  25.730  1.00  0.00     0.116 C 
BRANCH  28  29
ATOM     29  N   UNL A   1      37.267  22.925  25.609  1.00  0.00    -0.352 N 
ATOM     30  C   UNL A   1      38.576  22.845  26.031  1.00  0.00     0.251 C 
ATOM     31  H   UNL A   1      36.898  22.121  25.177  1.00  0.00     0.163 HD
ATOM     32  O   UNL A   1      39.247  21.836  25.836  1.00  0.00    -0.269 OA
BRANCH  30  33
ATOM     33  C   UNL A   1      39.191  24.012  26.702  1.00  0.00     0.039 A 
ATOM     34  C   UNL A   1      39.949  24.908  25.942  1.00  0.00     0.014 A 
ATOM     35  C   UNL A   1      39.002  24.229  28.070  1.00  0.00     0.014 A 
ATOM     36  C   UNL A   1      40.456  26.066  26.540  1.00  0.00     0.010 A 
ATOM     37  C   UNL A   1      39.491  25.399  28.659  1.00  0.00     0.010 A 
ATOM     38  C   UNL A   1      40.201  26.339  27.894  1.00  0.00    -0.014 A 
BRANCH  38  39
ATOM     39  C   UNL A   1      40.609  27.637  28.498  1.00  0.00     0.031 A 
ATOM     40  C   UNL A   1      42.008  27.856  29.000  1.00  0.00     0.074 A 
ATOM     41  C   UNL A   1      39.691  28.616  28.634  1.00  0.00     0.049 A 
ATOM     42  N   UNL A   1      42.516  28.911  29.587  1.00  0.00    -0.248 NA
ATOM     43  C   UNL A   1      42.957  26.747  28.829  1.00  0.00     0.031 C 
ATOM     44  C   UNL A   1      38.294  28.532  28.206  1.00  0.00     0.029 A 
ATOM     45  N   UNL A   1      39.796  29.874  29.178  1.00  0.00    -0.354 N 
ATOM     46  C   UNL A   1      43.843  28.597  29.851  1.00  0.00     0.074 A 
ATOM     47  C   UNL A   1      44.051  27.238  29.396  1.00  0.00     0.031 C 
ATOM     48  C   UNL A   1      37.676  29.690  28.488  1.00  0.00     0.029 A 
ATOM     49  C   UNL A   1      38.621  30.586  29.149  1.00  0.00     0.049 A 
ATOM     50  H   UNL A   1      40.634  30.231  29.552  1.00  0.00     0.167 HD
ATOM     51  C   UNL A   1      44.806  29.374  30.405  1.00  0.00     0.031 A 
ATOM     52  C   UNL A   1      38.331  31.817  29.612  1.00  0.00     0.031 A 
ATOM     53  C   UNL A   1      44.606  30.722  30.869  1.00  0.00     0.049 A 
ATOM     54  C   UNL A   1      39.405  32.633  30.276  1.00  0.00     0.074 A 
ATOM     55  C   UNL A   1      45.535  31.589  31.423  1.00  0.00     0.029 A 
ATOM     56  N   UNL A   1      43.398  31.398  30.838  1.00  0.00    -0.354 N 
ATOM     57  N   UNL A   1      40.666  32.337  30.467  1.00  0.00    -0.248 NA
ATOM     58  C   UNL A   1      39.013  33.956  30.783  1.00  0.00     0.031 C 
ATOM     59  C   UNL A   1      44.877  32.775  31.765  1.00  0.00     0.029 A 
ATOM     60  C   UNL A   1      43.551  32.663  31.382  1.00  0.00     0.049 A 
ATOM     61  H   UNL A   1      42.555  31.034  30.482  1.00  0.00     0.167 HD
ATOM     62  C   UNL A   1      41.224  33.447  31.090  1.00  0.00     0.074 A 
ATOM     63  C   UNL A   1      40.169  34.427  31.229  1.00  0.00     0.031 C 
ATOM     64  C   UNL A   1      42.498  33.634  31.510  1.00  0.00     0.031 A 
BRANCH  51  65
ATOM     65  C   UNL A   1      46.182  28.785  30.539  1.00  0.00    -0.014 A 
ATOM     66  C   UNL A   1      47.134  28.943  29.519  1.00  0.00     0.009 A 
ATOM     67  C   UNL A   1      46.556  28.130  31.723  1.00  0.00     0.009 A 
ATOM     68  C   UNL A   1      48.425  28.435  29.673  1.00  0.00     0.001 A 
ATOM     69  C   UNL A   1      47.855  27.643  31.883  1.00  0.00     0.001 A 
ATOM     70  C   UNL A   1      48.786  27.792  30.856  1.00  0.00     0.000 A 
ENDBRANCH  51  65
BRANCH  52  71
ATOM     71  C   UNL A   1      36.956  32.367  29.474  1.00  0.00    -0.014 A 
ATOM     72  C   UNL A   1      36.604  33.131  28.351  1.00  0.00     0.009 A 
ATOM     73  C   UNL A   1      36.003  32.165  30.485  1.00  0.00     0.009 A 
ATOM     74  C   UNL A   1      35.338  33.712  28.259  1.00  0.00     0.001 A 
ATOM     75  C   UNL A   1      34.728  32.724  30.376  1.00  0.00     0.001 A 
ATOM     76  C   UNL A   1      34.400  33.507  29.271  1.00  0.00     0.000 A 
ENDBRANCH  52  71
BRANCH  64  77
ATOM     77  C   UNL A   1      42.830  34.963  32.129  1.00  0.00    -0.014 A 
ATOM     78  C   UNL A   1      43.438  35.981  31.380  1.00  0.00     0.009 A 
ATOM     79  C   UNL A   1      42.495  35.208  33.470  1.00  0.00     0.009 A 
ATOM     80  C   UNL A   1      43.730  37.212  31.970  1.00  0.00     0.001 A 
ATOM     81  C   UNL A   1      42.765  36.448  34.050  1.00  0.00     0.001 A 
ATOM     82  C   UNL A   1      43.389  37.446  33.302  1.00  0.00     0.000 A 
ENDBRANCH  64  77
ENDBRANCH  38  39
ENDBRANCH  30  33
ENDBRANCH  28  29
ENDBRANCH  27  28
ENDBRANCH  26  27
ENDBRANCH   1  26
TORSDOF 15
ENDMDL
MODEL 2
REMARK VINA RESULT:     -11.0      2.438      8.096
REMARK SMILES C[C@@H]1CN(C(=O)N2c3ccccc3C[C@@H]2C(=O)NCCCCCCNC(=O)c2ccc(-c3c4nc(c(-c5ccccc5)c5ccc([nH]5)c(-c5ccccc5)c5nc(c(-c6ccccc6)c6ccc3[nH]6)C=C5)C=C4)cc2)C[C@@H]1C
REMARK SMILES IDX 21 1 20 2 19 3 18 4 16 5 17 6 15 8 7 9 8 10 9 11 13 12 14 13
REMARK SMILES IDX 10 14 12 15 11 16 5 17 6 18 4 19 1 20 2 21 3 22 77 23 76 24
REMARK SMILES IDX 78 25 22 26 23 27 24 28 25 29 26 30 27 32 28 33 29 34 75 35
REMARK SMILES IDX 30 36 74 37 31 38 32 39 33 40 68 41 34 42 73 43 67 44 69 45
REMARK SMILES IDX 35 46 72 47 66 48 65 49 36 51 58 52 43 53 57 54 44 55 47 56
REMARK SMILES IDX 56 57 70 58 45 59 46 60 55 62 71 63 48 64 37 65 38 66 42 67
REMARK SMILES IDX 39 68 41 69 40 70 59 71 60 72 64 73 61 74 63 75 62 76 49 77
REMARK SMILES IDX 50 78 54 79 51 80 53 81 52 82
REMARK H PARENT 18 7 25 31 69 50 47 61
REMARK Flexibility Score: inf
ROOT
ATOM      1  C   UNL A   1      31.388  27.373  24.861  1.00  0.00     0.002 C 
ENDROOT
BRANCH   1   2
ATOM      2  C   UNL A   1      30.733  26.742  26.094  1.00  0.00     0.021 C 
BRANCH   2   3
ATOM      3  C   UNL A   1      30.362  25.260  25.970  1.00  0.00     0.116 C 
BRANCH   3   4
ATOM      4  N   UNL A   1      31.172  24.465  26.877  1.00  0.00    -0.354 N 
ATOM      5  C   UNL A   1      32.359  23.822  26.658  1.00  0.00     0.243 C 
ATOM      6  O   UNL A   1      32.649  22.936  27.469  1.00  0.00    -0.273 OA
ATOM      7  H   UNL A   1      30.811  24.373  27.788  1.00  0.00     0.163 HD
BRANCH   5   8
ATOM      8  C   UNL A   1      33.280  24.177  25.460  1.00  0.00     0.186 C 
ATOM      9  N   UNL A   1      33.736  22.982  24.705  1.00  0.00    -0.281 N 
ATOM     10  C   UNL A   1      35.132  22.856  24.836  1.00  0.00     0.050 A 
ATOM     11  C   UNL A   1      35.998  21.994  24.179  1.00  0.00     0.027 A 
ATOM     12  C   UNL A   1      35.623  23.814  25.714  1.00  0.00    -0.021 A 
ATOM     13  C   UNL A   1      34.571  24.834  26.025  1.00  0.00     0.073 C 
ATOM     14  C   UNL A   1      37.344  21.985  24.550  1.00  0.00     0.002 A 
ATOM     15  C   UNL A   1      36.958  23.819  26.094  1.00  0.00     0.006 A 
ATOM     16  C   UNL A   1      37.814  22.871  25.528  1.00  0.00     0.000 A 
BRANCH   9  17
ATOM     17  C   UNL A   1      32.981  22.360  23.747  1.00  0.00     0.325 C 
ATOM     18  O   UNL A   1      32.493  22.994  22.808  1.00  0.00    -0.248 OA
BRANCH  17  19
ATOM     19  N   UNL A   1      32.699  21.020  23.934  1.00  0.00    -0.324 N 
ATOM     20  C   UNL A   1      32.639  17.498  22.763  1.00  0.00     0.010 C 
ATOM     21  C   UNL A   1      32.308  18.699  23.636  1.00  0.00     0.010 C 
ATOM     22  C   UNL A   1      32.466  20.026  22.889  1.00  0.00     0.125 C 
ATOM     23  C   UNL A   1      33.187  18.894  24.879  1.00  0.00     0.010 C 
ATOM     24  C   UNL A   1      32.953  20.376  25.210  1.00  0.00     0.125 C 
ATOM     25  C   UNL A   1      34.658  18.581  24.629  1.00  0.00     0.010 C 
ENDBRANCH  17  19
ENDBRANCH   9  17
ENDBRANCH   5   8
ENDBRANCH   3   4
ENDBRANCH   2   3
ENDBRANCH   1   2
BRANCH   1  26
ATOM     26  C   UNL A   1      32.345  28.538  25.120  1.00  0.00     0.002 C 
BRANCH  26  27
ATOM     27  C   UNL A   1      33.769  28.237  25.609  1.00  0.00     0.021 C 
BRANCH  27  28
ATOM     28  C   UNL A   1      34.183  28.562  27.048  1.00  0.00     0.116 C 
BRANCH  28  29
ATOM     29  N   UNL A   1      33.755  29.847  27.566  1.00  0.00    -0.352 N 
ATOM     30  C   UNL A   1      34.517  30.764  28.258  1.00  0.00     0.251 C 
ATOM     31  H   UNL A   1      32.815  30.092  27.406  1.00  0.00     0.163 HD
ATOM     32  O   UNL A   1      34.028  31.807  28.680  1.00  0.00    -0.269 OA
BRANCH  30  33
ATOM     33  C   UNL A   1      35.942  30.466  28.521  1.00  0.00     0.039 A 
ATOM     34  C   UNL A   1      36.331  30.107  29.814  1.00  0.00     0.014 A 
ATOM     35  C   UNL A   1      36.884  30.522  27.489  1.00  0.00     0.014 A 
ATOM     36  C   UNL A   1      37.655  29.730  30.060  1.00  0.00     0.010 A 
ATOM     37  C   UNL A   1      38.201  30.122  27.732  1.00  0.00     0.010 A 
ATOM     38  C   UNL A   1      38.593  29.699  29.014  1.00  0.00    -0.014 A 
BRANCH  38  39
ATOM     39  C   UNL A   1      39.961  29.157  29.236  1.00  0.00     0.031 A 
ATOM     40  C   UNL A   1      41.046  30.007  29.836  1.00  0.00     0.074 A 
ATOM     41  C   UNL A   1      40.239  27.896  28.849  1.00  0.00     0.049 A 
ATOM     42  N   UNL A   1      42.300  29.701  30.061  1.00  0.00    -0.248 NA
ATOM     43  C   UNL A   1      40.679  31.375  30.229  1.00  0.00     0.031 C 
ATOM     44  C   UNL A   1      39.286  26.968  28.238  1.00  0.00     0.029 A 
ATOM     45  N   UNL A   1      41.409  27.178  28.908  1.00  0.00    -0.354 N 
ATOM     46  C   UNL A   1      42.872  30.835  30.625  1.00  0.00     0.074 A 
ATOM     47  C   UNL A   1      41.837  31.847  30.671  1.00  0.00     0.031 C 
ATOM     48  C   UNL A   1      39.903  25.801  27.992  1.00  0.00     0.029 A 
ATOM     49  C   UNL A   1      41.303  25.907  28.395  1.00  0.00     0.049 A 
ATOM     50  H   UNL A   1      42.244  27.538  29.284  1.00  0.00     0.167 HD
ATOM     51  C   UNL A   1      44.136  31.013  31.078  1.00  0.00     0.031 A 
ATOM     52  C   UNL A   1      42.227  24.939  28.251  1.00  0.00     0.031 A 
ATOM     53  C   UNL A   1      45.174  30.016  31.027  1.00  0.00     0.049 A 
ATOM     54  C   UNL A   1      43.638  25.186  28.710  1.00  0.00     0.074 A 
ATOM     55  C   UNL A   1      46.478  30.106  31.486  1.00  0.00     0.029 A 
ATOM     56  N   UNL A   1      45.029  28.751  30.483  1.00  0.00    -0.354 N 
ATOM     57  N   UNL A   1      44.144  26.246  29.289  1.00  0.00    -0.248 NA
ATOM     58  C   UNL A   1      44.603  24.097  28.498  1.00  0.00     0.031 C 
ATOM     59  C   UNL A   1      47.134  28.908  31.181  1.00  0.00     0.029 A 
ATOM     60  C   UNL A   1      46.225  28.058  30.575  1.00  0.00     0.049 A 
ATOM     61  H   UNL A   1      44.199  28.396  30.089  1.00  0.00     0.167 HD
ATOM     62  C   UNL A   1      45.477  25.942  29.536  1.00  0.00     0.074 A 
ATOM     63  C   UNL A   1      45.697  24.593  29.059  1.00  0.00     0.031 C 
ATOM     64  C   UNL A   1      46.433  26.714  30.105  1.00  0.00     0.031 A 
BRANCH  51  65
ATOM     65  C   UNL A   1      44.477  32.346  31.682  1.00  0.00    -0.014 A 
ATOM     66  C   UNL A   1      44.949  33.398  30.881  1.00  0.00     0.009 A 
ATOM     67  C   UNL A   1      44.257  32.578  33.049  1.00  0.00     0.009 A 
ATOM     68  C   UNL A   1      45.217  34.648  31.442  1.00  0.00     0.001 A 
ATOM     69  C   UNL A   1      44.504  33.836  33.603  1.00  0.00     0.001 A 
ATOM     70  C   UNL A   1      44.988  34.867  32.800  1.00  0.00     0.000 A 
ENDBRANCH  51  65
BRANCH  52  71
ATOM     71  C   UNL A   1      41.862  23.634  27.639  1.00  0.00    -0.014 A 
ATOM     72  C   UNL A   1      41.307  22.611  28.422  1.00  0.00     0.009 A 
ATOM     73  C   UNL A   1      42.104  23.393  26.278  1.00  0.00     0.009 A 
ATOM     74  C   UNL A   1      41.036  21.360  27.863  1.00  0.00     0.001 A 
ATOM     75  C   UNL A   1      41.805  22.150  25.715  1.00  0.00     0.001 A 
ATOM     76  C   UNL A   1      41.284  21.131  26.511  1.00  0.00     0.000 A 
ENDBRANCH  52  71
BRANCH  64  77
ATOM     77  C   UNL A   1      47.796  26.106  30.277  1.00  0.00    -0.014 A 
ATOM     78  C   UNL A   1      48.673  25.972  29.191  1.00  0.00     0.009 A 
ATOM     79  C   UNL A   1      48.219  25.698  31.551  1.00  0.00     0.009 A 
ATOM     80  C   UNL A   1      49.940  25.413  29.372  1.00  0.00     0.001 A 
ATOM     81  C   UNL A   1      49.495  25.162  31.734  1.00  0.00     0.001 A 
ATOM     82  C   UNL A   1      50.351  25.014  30.644  1.00  0.00     0.000 A 
ENDBRANCH  64  77
ENDBRANCH  38  39
ENDBRANCH  30  33
ENDBRANCH  28  29
ENDBRANCH  27  28
ENDBRANCH  26  27
ENDBRANCH   1  26
TORSDOF 15
ENDMDL
MODEL 3
REMARK VINA RESULT:     -11.0      4.964     11.151
REMARK SMILES C[C@@H]1CN(C(=O)N2c3ccccc3C[C@@H]2C(=O)NCCCCCCNC(=O)c2ccc(-c3c4nc(c(-c5ccccc5)c5ccc([nH]5)c(-c5ccccc5)c5nc(c(-c6ccccc6)c6ccc3[nH]6)C=C5)C=C4)cc2)C[C@@H]1C
REMARK SMILES IDX 21 1 20 2 19 3 18 4 16 5 17 6 15 8 7 9 8 10 9 11 13 12 14 13
REMARK SMILES IDX 10 14 12 15 11 16 5 17 6 18 4 19 1 20 2 21 3 22 77 23 76 24
REMARK SMILES IDX 78 25 22 26 23 27 24 28 25 29 26 30 27 32 28 33 29 34 75 35
REMARK SMILES IDX 30 36 74 37 31 38 32 39 33 40 68 41 34 42 73 43 67 44 69 45
REMARK SMILES IDX 35 46 72 47 66 48 65 49 36 51 58 52 43 53 57 54 44 55 47 56
REMARK SMILES IDX 56 57 70 58 45 59 46 60 55 62 71 63 48 64 37 65 38 66 42 67
REMARK SMILES IDX 39 68 41 69 40 70 59 71 60 72 64 73 61 74 63 75 62 76 49 77
REMARK SMILES IDX 50 78 54 79 51 80 53 81 52 82
REMARK H PARENT 18 7 25 31 69 50 47 61
REMARK Flexibility Score: inf
ROOT
ATOM      1  C   UNL A   1      35.071  35.458  32.051  1.00  0.00     0.002 C 
ENDROOT
BRANCH   1   2
ATOM      2  C   UNL A   1      35.929  35.034  33.248  1.00  0.00     0.021 C 
BRANCH   2   3
ATOM      3  C   UNL A   1      35.608  33.662  33.848  1.00  0.00     0.116 C 
BRANCH   3   4
ATOM      4  N   UNL A   1      35.695  33.718  35.298  1.00  0.00    -0.354 N 
ATOM      5  C   UNL A   1      36.742  33.420  36.125  1.00  0.00     0.243 C 
ATOM      6  O   UNL A   1      36.450  33.206  37.307  1.00  0.00    -0.273 OA
ATOM      7  H   UNL A   1      34.874  34.014  35.753  1.00  0.00     0.163 HD
BRANCH   5   8
ATOM      8  C   UNL A   1      38.205  33.347  35.611  1.00  0.00     0.186 C 
ATOM      9  N   UNL A   1      39.019  32.329  36.324  1.00  0.00    -0.281 N 
ATOM     10  C   UNL A   1      40.045  32.976  37.040  1.00  0.00     0.050 A 
ATOM     11  C   UNL A   1      41.127  32.423  37.709  1.00  0.00     0.027 A 
ATOM     12  C   UNL A   1      39.904  34.355  36.947  1.00  0.00    -0.021 A 
ATOM     13  C   UNL A   1      38.887  34.712  35.907  1.00  0.00     0.073 C 
ATOM     14  C   UNL A   1      41.967  33.267  38.438  1.00  0.00     0.002 A 
ATOM     15  C   UNL A   1      40.730  35.209  37.664  1.00  0.00     0.006 A 
ATOM     16  C   UNL A   1      41.748  34.651  38.442  1.00  0.00     0.000 A 
BRANCH   9  17
ATOM     17  C   UNL A   1      39.002  30.996  36.015  1.00  0.00     0.325 C 
ATOM     18  O   UNL A   1      38.254  30.214  36.607  1.00  0.00    -0.248 OA
BRANCH  17  19
ATOM     19  N   UNL A   1      39.929  30.547  35.093  1.00  0.00    -0.324 N 
ATOM     20  C   UNL A   1      42.355  28.022  33.861  1.00  0.00     0.010 C 
ATOM     21  C   UNL A   1      41.650  29.366  33.965  1.00  0.00     0.010 C 
ATOM     22  C   UNL A   1      40.996  29.578  35.333  1.00  0.00     0.125 C 
ATOM     23  C   UNL A   1      40.490  29.599  32.986  1.00  0.00     0.010 C 
ATOM     24  C   UNL A   1      39.716  30.737  33.669  1.00  0.00     0.125 C 
ATOM     25  C   UNL A   1      39.630  28.360  32.770  1.00  0.00     0.010 C 
ENDBRANCH  17  19
ENDBRANCH   9  17
ENDBRANCH   5   8
ENDBRANCH   3   4
ENDBRANCH   2   3
ENDBRANCH   1   2
BRANCH   1  26
ATOM     26  C   UNL A   1      33.585  35.690  32.327  1.00  0.00     0.002 C 
BRANCH  26  27
ATOM     27  C   UNL A   1      32.686  36.194  31.188  1.00  0.00     0.021 C 
BRANCH  27  28
ATOM     28  C   UNL A   1      33.205  36.236  29.747  1.00  0.00     0.116 C 
BRANCH  28  29
ATOM     29  N   UNL A   1      32.599  35.302  28.818  1.00  0.00    -0.352 N 
ATOM     30  C   UNL A   1      33.141  34.128  28.342  1.00  0.00     0.251 C 
ATOM     31  H   UNL A   1      31.700  35.532  28.490  1.00  0.00     0.163 HD
ATOM     32  O   UNL A   1      32.543  33.437  27.524  1.00  0.00    -0.269 OA
BRANCH  30  33
ATOM     33  C   UNL A   1      34.485  33.714  28.804  1.00  0.00     0.039 A 
ATOM     34  C   UNL A   1      34.587  32.820  29.873  1.00  0.00     0.014 A 
ATOM     35  C   UNL A   1      35.635  34.191  28.169  1.00  0.00     0.014 A 
ATOM     36  C   UNL A   1      35.843  32.344  30.260  1.00  0.00     0.010 A 
ATOM     37  C   UNL A   1      36.888  33.696  28.542  1.00  0.00     0.010 A 
ATOM     38  C   UNL A   1      37.001  32.750  29.575  1.00  0.00    -0.014 A 
BRANCH  38  39
ATOM     39  C   UNL A   1      38.321  32.135  29.881  1.00  0.00     0.031 A 
ATOM     40  C   UNL A   1      39.366  32.884  30.659  1.00  0.00     0.074 A 
ATOM     41  C   UNL A   1      38.596  30.900  29.414  1.00  0.00     0.049 A 
ATOM     42  N   UNL A   1      40.580  32.509  30.978  1.00  0.00    -0.248 NA
ATOM     43  C   UNL A   1      39.006  34.228  31.133  1.00  0.00     0.031 C 
ATOM     44  C   UNL A   1      37.680  30.067  28.632  1.00  0.00     0.029 A 
ATOM     45  N   UNL A   1      39.730  30.131  29.525  1.00  0.00    -0.354 N 
ATOM     46  C   UNL A   1      41.128  33.567  31.694  1.00  0.00     0.074 A 
ATOM     47  C   UNL A   1      40.128  34.614  31.726  1.00  0.00     0.031 C 
ATOM     48  C   UNL A   1      38.281  28.901  28.347  1.00  0.00     0.029 A 
ATOM     49  C   UNL A   1      39.635  28.915  28.893  1.00  0.00     0.049 A 
ATOM     50  H   UNL A   1      40.534  30.424  30.011  1.00  0.00     0.167 HD
ATOM     51  C   UNL A   1      42.345  33.653  32.284  1.00  0.00     0.031 A 
ATOM     52  C   UNL A   1      40.537  27.925  28.757  1.00  0.00     0.031 A 
ATOM     53  C   UNL A   1      43.350  32.622  32.247  1.00  0.00     0.049 A 
ATOM     54  C   UNL A   1      41.901  28.073  29.372  1.00  0.00     0.074 A 
ATOM     55  C   UNL A   1      44.603  32.618  32.839  1.00  0.00     0.029 A 
ATOM     56  N   UNL A   1      43.219  31.414  31.582  1.00  0.00    -0.354 N 
ATOM     57  N   UNL A   1      42.379  29.059  30.089  1.00  0.00    -0.248 NA
ATOM     58  C   UNL A   1      42.847  26.967  29.161  1.00  0.00     0.031 C 
ATOM     59  C   UNL A   1      45.246  31.425  32.496  1.00  0.00     0.029 A 
ATOM     60  C   UNL A   1      44.377  30.667  31.730  1.00  0.00     0.049 A 
ATOM     61  H   UNL A   1      42.423  31.129  31.078  1.00  0.00     0.167 HD
ATOM     62  C   UNL A   1      43.669  28.680  30.439  1.00  0.00     0.074 A 
ATOM     63  C   UNL A   1      43.893  27.368  29.870  1.00  0.00     0.031 C 
ATOM     64  C   UNL A   1      44.587  29.361  31.166  1.00  0.00     0.031 A 
BRANCH  51  65
ATOM     65  C   UNL A   1      42.666  34.915  33.034  1.00  0.00    -0.014 A 
ATOM     66  C   UNL A   1      42.475  34.993  34.423  1.00  0.00     0.009 A 
ATOM     67  C   UNL A   1      43.230  36.010  32.362  1.00  0.00     0.009 A 
ATOM     68  C   UNL A   1      42.822  36.152  35.119  1.00  0.00     0.001 A 
ATOM     69  C   UNL A   1      43.598  37.160  33.065  1.00  0.00     0.001 A 
ATOM     70  C   UNL A   1      43.388  37.231  34.441  1.00  0.00     0.000 A 
ENDBRANCH  51  65
BRANCH  52  71
ATOM     71  C   UNL A   1      40.193  26.692  27.998  1.00  0.00    -0.014 A 
ATOM     72  C   UNL A   1      39.460  25.663  28.607  1.00  0.00     0.009 A 
ATOM     73  C   UNL A   1      40.633  26.523  26.676  1.00  0.00     0.009 A 
ATOM     74  C   UNL A   1      39.204  24.475  27.920  1.00  0.00     0.001 A 
ATOM     75  C   UNL A   1      40.351  25.345  25.982  1.00  0.00     0.001 A 
ATOM     76  C   UNL A   1      39.648  24.317  26.608  1.00  0.00     0.000 A 
ENDBRANCH  52  71
BRANCH  64  77
ATOM     77  C   UNL A   1      45.905  28.684  31.417  1.00  0.00    -0.014 A 
ATOM     78  C   UNL A   1      46.098  27.865  32.539  1.00  0.00     0.009 A 
ATOM     79  C   UNL A   1      46.954  28.842  30.498  1.00  0.00     0.009 A 
ATOM     80  C   UNL A   1      47.328  27.238  32.751  1.00  0.00     0.001 A 
ATOM     81  C   UNL A   1      48.173  28.193  30.699  1.00  0.00     0.001 A 
ATOM     82  C   UNL A   1      48.361  27.398  31.828  1.00  0.00     0.000 A 
ENDBRANCH  64  77
ENDBRANCH  38  39
ENDBRANCH  30  33
ENDBRANCH  28  29
ENDBRANCH  27  28
ENDBRANCH  26  27
ENDBRANCH   1  26
TORSDOF 15
ENDMDL
