MODEL 1
REMARK VINA RESULT:     -10.9      0.000      0.000
REMARK SMILES C[C@H]1CCCC[C@@]1(NC(=O)N[C@@H]1CCOC1)C(=O)NCCCCCCNC(=O)c1ccc(-c2c3nc(c(-c4ccccc4)c4ccc([nH]4)c(-c4ccccc4)c4nc(c(-c5ccccc5)c5ccc2[nH]5)C=C4)C=C3)cc1
REMARK SMILES IDX 22 1 21 2 20 3 19 4 17 5 18 6 7 8 1 9 2 10 3 11 4 12 6 13
REMARK SMILES IDX 5 14 8 15 9 16 10 18 11 19 12 21 13 22 16 23 14 24 15 25
REMARK SMILES IDX 23 26 24 27 25 28 26 29 27 30 28 32 29 33 30 34 76 35 31 36
REMARK SMILES IDX 75 37 32 38 33 39 34 40 69 41 35 42 74 43 68 44 70 45 36 46
REMARK SMILES IDX 73 47 67 48 66 49 37 51 59 52 44 53 58 54 45 55 48 56 57 57
REMARK SMILES IDX 71 58 46 59 47 60 56 62 72 63 49 64 38 65 39 66 43 67 40 68
REMARK SMILES IDX 42 69 41 70 60 71 61 72 65 73 62 74 64 75 63 76 50 77 51 78
REMARK SMILES IDX 55 79 52 80 54 81 53 82
REMARK H PARENT 19 7 8 17 11 20 26 31 70 50 48 61
REMARK Flexibility Score: inf
ROOT
ATOM      1  C   UNL A   1      30.400  29.551  24.234  1.00  0.00     0.002 C 
ENDROOT
BRANCH   1   2
ATOM      2  C   UNL A   1      30.782  28.423  23.270  1.00  0.00     0.021 C 
BRANCH   2   3
ATOM      3  C   UNL A   1      30.110  27.082  23.538  1.00  0.00     0.116 C 
BRANCH   3   4
ATOM      4  N   UNL A   1      30.087  26.687  24.914  1.00  0.00    -0.354 N 
ATOM      5  C   UNL A   1      31.048  26.176  25.719  1.00  0.00     0.246 C 
ATOM      6  O   UNL A   1      30.990  26.615  26.881  1.00  0.00    -0.272 OA
ATOM      7  H   UNL A   1      29.215  26.810  25.354  1.00  0.00     0.163 HD
BRANCH   5   8
ATOM      8  C   UNL A   1      32.154  25.130  25.354  1.00  0.00     0.123 C 
ATOM      9  C   UNL A   1      31.574  23.507  23.367  1.00  0.00     0.011 C 
ATOM     10  C   UNL A   1      32.530  24.541  23.961  1.00  0.00     0.021 C 
ATOM     11  C   UNL A   1      33.029  25.531  22.895  1.00  0.00     0.006 C 
ATOM     12  C   UNL A   1      33.891  26.693  23.400  1.00  0.00     0.000 C 
ATOM     13  C   UNL A   1      33.451  25.909  25.780  1.00  0.00     0.039 C 
ATOM     14  C   UNL A   1      33.707  27.100  24.859  1.00  0.00     0.003 C 
BRANCH   8  15
ATOM     15  N   UNL A   1      31.997  23.980  26.321  1.00  0.00    -0.323 N 
ATOM     16  C   UNL A   1      32.781  23.202  27.079  1.00  0.00     0.315 C 
ATOM     17  H   UNL A   1      31.049  23.731  26.422  1.00  0.00     0.166 HD
ATOM     18  O   UNL A   1      32.280  22.753  28.114  1.00  0.00    -0.249 OA
ATOM     19  N   UNL A   1      34.045  22.846  26.820  1.00  0.00    -0.333 N 
ATOM     20  H   UNL A   1      34.506  22.459  27.599  1.00  0.00     0.165 HD
BRANCH  19  21
ATOM     21  C   UNL A   1      34.881  22.907  25.631  1.00  0.00     0.112 C 
ATOM     22  C   UNL A   1      34.858  21.613  24.842  1.00  0.00     0.056 C 
ATOM     23  C   UNL A   1      36.371  23.115  25.903  1.00  0.00     0.185 C 
ATOM     24  C   UNL A   1      36.149  20.913  25.179  1.00  0.00     0.162 C 
ATOM     25  O   UNL A   1      37.080  21.907  25.602  1.00  0.00    -0.379 OA
ENDBRANCH  19  21
ENDBRANCH   8  15
ENDBRANCH   5   8
ENDBRANCH   3   4
ENDBRANCH   2   3
ENDBRANCH   1   2
BRANCH   1  26
ATOM     26  C   UNL A   1      31.477  29.958  25.243  1.00  0.00     0.002 C 
BRANCH  26  27
ATOM     27  C   UNL A   1      31.167  31.209  26.069  1.00  0.00     0.021 C 
BRANCH  27  28
ATOM     28  C   UNL A   1      32.339  31.729  26.881  1.00  0.00     0.116 C 
BRANCH  28  29
ATOM     29  N   UNL A   1      32.165  33.127  27.232  1.00  0.00    -0.352 N 
ATOM     30  C   UNL A   1      32.936  33.892  28.075  1.00  0.00     0.251 C 
ATOM     31  H   UNL A   1      31.400  33.584  26.814  1.00  0.00     0.163 HD
ATOM     32  O   UNL A   1      32.548  34.977  28.475  1.00  0.00    -0.269 OA
BRANCH  30  33
ATOM     33  C   UNL A   1      34.249  33.362  28.497  1.00  0.00     0.039 A 
ATOM     34  C   UNL A   1      35.411  33.843  27.893  1.00  0.00     0.014 A 
ATOM     35  C   UNL A   1      34.316  32.417  29.525  1.00  0.00     0.014 A 
ATOM     36  C   UNL A   1      36.655  33.414  28.360  1.00  0.00     0.010 A 
ATOM     37  C   UNL A   1      35.551  32.058  30.042  1.00  0.00     0.010 A 
ATOM     38  C   UNL A   1      36.733  32.542  29.456  1.00  0.00    -0.014 A 
BRANCH  38  39
ATOM     39  C   UNL A   1      38.029  32.074  30.004  1.00  0.00     0.031 A 
ATOM     40  C   UNL A   1      38.625  30.796  29.484  1.00  0.00     0.074 A 
ATOM     41  C   UNL A   1      38.604  32.724  31.032  1.00  0.00     0.049 A 
ATOM     42  N   UNL A   1      39.646  30.114  29.936  1.00  0.00    -0.248 NA
ATOM     43  C   UNL A   1      37.957  30.184  28.323  1.00  0.00     0.031 C 
ATOM     44  C   UNL A   1      38.111  33.962  31.638  1.00  0.00     0.029 A 
ATOM     45  N   UNL A   1      39.722  32.415  31.765  1.00  0.00    -0.354 N 
ATOM     46  C   UNL A   1      39.718  28.979  29.139  1.00  0.00     0.074 A 
ATOM     47  C   UNL A   1      38.612  29.039  28.210  1.00  0.00     0.031 C 
ATOM     48  C   UNL A   1      38.927  34.312  32.645  1.00  0.00     0.029 A 
ATOM     49  C   UNL A   1      39.968  33.298  32.789  1.00  0.00     0.049 A 
ATOM     50  H   UNL A   1      40.293  31.635  31.577  1.00  0.00     0.167 HD
ATOM     51  C   UNL A   1      40.632  27.980  29.170  1.00  0.00     0.031 A 
ATOM     52  C   UNL A   1      40.911  33.279  33.750  1.00  0.00     0.031 A 
ATOM     53  C   UNL A   1      41.735  27.934  30.090  1.00  0.00     0.049 A 
ATOM     54  C   UNL A   1      41.905  32.150  33.781  1.00  0.00     0.074 A 
ATOM     55  C   UNL A   1      42.752  26.998  30.168  1.00  0.00     0.029 A 
ATOM     56  N   UNL A   1      41.963  28.861  31.095  1.00  0.00    -0.354 N 
ATOM     57  N   UNL A   1      41.996  31.109  32.990  1.00  0.00    -0.248 NA
ATOM     58  C   UNL A   1      42.932  32.199  34.832  1.00  0.00     0.031 C 
ATOM     59  C   UNL A   1      43.560  27.328  31.261  1.00  0.00     0.029 A 
ATOM     60  C   UNL A   1      43.090  28.506  31.816  1.00  0.00     0.049 A 
ATOM     61  H   UNL A   1      41.406  29.655  31.269  1.00  0.00     0.167 HD
ATOM     62  C   UNL A   1      43.110  30.399  33.420  1.00  0.00     0.074 A 
ATOM     63  C   UNL A   1      43.663  31.130  34.542  1.00  0.00     0.031 C 
ATOM     64  C   UNL A   1      43.632  29.252  32.924  1.00  0.00     0.031 A 
BRANCH  51  65
ATOM     65  C   UNL A   1      40.453  26.849  28.195  1.00  0.00    -0.014 A 
ATOM     66  C   UNL A   1      39.675  25.722  28.510  1.00  0.00     0.009 A 
ATOM     67  C   UNL A   1      41.066  26.916  26.934  1.00  0.00     0.009 A 
ATOM     68  C   UNL A   1      39.561  24.665  27.605  1.00  0.00     0.001 A 
ATOM     69  C   UNL A   1      40.919  25.875  26.017  1.00  0.00     0.001 A 
ATOM     70  C   UNL A   1      40.180  24.745  26.358  1.00  0.00     0.000 A 
ENDBRANCH  51  65
BRANCH  52  71
ATOM     71  C   UNL A   1      40.962  34.371  34.756  1.00  0.00    -0.014 A 
ATOM     72  C   UNL A   1      40.270  34.253  35.971  1.00  0.00     0.009 A 
ATOM     73  C   UNL A   1      41.717  35.531  34.517  1.00  0.00     0.009 A 
ATOM     74  C   UNL A   1      40.317  35.280  36.918  1.00  0.00     0.001 A 
ATOM     75  C   UNL A   1      41.787  36.543  35.478  1.00  0.00     0.001 A 
ATOM     76  C   UNL A   1      41.081  36.421  36.672  1.00  0.00     0.000 A 
ENDBRANCH  52  71
BRANCH  64  77
ATOM     77  C   UNL A   1      44.901  28.737  33.544  1.00  0.00    -0.014 A 
ATOM     78  C   UNL A   1      46.162  29.174  33.111  1.00  0.00     0.009 A 
ATOM     79  C   UNL A   1      44.823  27.860  34.639  1.00  0.00     0.009 A 
ATOM     80  C   UNL A   1      47.320  28.726  33.752  1.00  0.00     0.001 A 
ATOM     81  C   UNL A   1      45.978  27.440  35.296  1.00  0.00     0.001 A 
ATOM     82  C   UNL A   1      47.226  27.868  34.849  1.00  0.00     0.000 A 
ENDBRANCH  64  77
ENDBRANCH  38  39
ENDBRANCH  30  33
ENDBRANCH  28  29
ENDBRANCH  27  28
ENDBRANCH  26  27
ENDBRANCH   1  26
TORSDOF 15
ENDMDL
MODEL 2
REMARK VINA RESULT:     -10.9      1.431      1.981
REMARK SMILES C[C@H]1CCCC[C@@]1(NC(=O)N[C@@H]1CCOC1)C(=O)NCCCCCCNC(=O)c1ccc(-c2c3nc(c(-c4ccccc4)c4ccc([nH]4)c(-c4ccccc4)c4nc(c(-c5ccccc5)c5ccc2[nH]5)C=C4)C=C3)cc1
REMARK SMILES IDX 22 1 21 2 20 3 19 4 17 5 18 6 7 8 1 9 2 10 3 11 4 12 6 13
REMARK SMILES IDX 5 14 8 15 9 16 10 18 11 19 12 21 13 22 16 23 14 24 15 25
REMARK SMILES IDX 23 26 24 27 25 28 26 29 27 30 28 32 29 33 30 34 76 35 31 36
REMARK SMILES IDX 75 37 32 38 33 39 34 40 69 41 35 42 74 43 68 44 70 45 36 46
REMARK SMILES IDX 73 47 67 48 66 49 37 51 59 52 44 53 58 54 45 55 48 56 57 57
REMARK SMILES IDX 71 58 46 59 47 60 56 62 72 63 49 64 38 65 39 66 43 67 40 68
REMARK SMILES IDX 42 69 41 70 60 71 61 72 65 73 62 74 64 75 63 76 50 77 51 78
REMARK SMILES IDX 55 79 52 80 54 81 53 82
REMARK H PARENT 19 7 8 17 11 20 26 31 70 50 48 61
REMARK Flexibility Score: inf
ROOT
ATOM      1  C   UNL A   1      32.463  29.281  25.989  1.00  0.00     0.002 C 
ENDROOT
BRANCH   1   2
ATOM      2  C   UNL A   1      33.314  28.546  24.947  1.00  0.00     0.021 C 
BRANCH   2   3
ATOM      3  C   UNL A   1      33.474  27.048  25.176  1.00  0.00     0.116 C 
BRANCH   3   4
ATOM      4  N   UNL A   1      33.953  26.316  24.041  1.00  0.00    -0.354 N 
ATOM      5  C   UNL A   1      33.309  25.795  22.971  1.00  0.00     0.246 C 
ATOM      6  O   UNL A   1      33.957  25.904  21.916  1.00  0.00    -0.272 OA
ATOM      7  H   UNL A   1      34.925  26.165  24.040  1.00  0.00     0.163 HD
BRANCH   5   8
ATOM      8  C   UNL A   1      31.911  25.092  22.937  1.00  0.00     0.123 C 
ATOM      9  C   UNL A   1      31.179  23.905  25.167  1.00  0.00     0.011 C 
ATOM     10  C   UNL A   1      30.862  24.930  24.079  1.00  0.00     0.021 C 
ATOM     11  C   UNL A   1      30.267  26.219  24.670  1.00  0.00     0.006 C 
ATOM     12  C   UNL A   1      30.032  27.370  23.685  1.00  0.00     0.000 C 
ATOM     13  C   UNL A   1      31.159  25.977  21.878  1.00  0.00     0.039 C 
ATOM     14  C   UNL A   1      30.888  27.379  22.423  1.00  0.00     0.003 C 
BRANCH   8  15
ATOM     15  N   UNL A   1      32.124  23.738  22.302  1.00  0.00    -0.323 N 
ATOM     16  C   UNL A   1      32.648  22.552  22.638  1.00  0.00     0.315 C 
ATOM     17  H   UNL A   1      31.780  23.722  21.379  1.00  0.00     0.166 HD
ATOM     18  O   UNL A   1      32.171  21.558  22.084  1.00  0.00    -0.249 OA
ATOM     19  N   UNL A   1      33.651  22.336  23.499  1.00  0.00    -0.333 N 
ATOM     20  H   UNL A   1      33.736  21.392  23.767  1.00  0.00     0.165 HD
BRANCH  19  21
ATOM     21  C   UNL A   1      34.644  23.199  24.120  1.00  0.00     0.112 C 
ATOM     22  C   UNL A   1      35.963  23.194  23.372  1.00  0.00     0.056 C 
ATOM     23  C   UNL A   1      35.053  22.793  25.536  1.00  0.00     0.185 C 
ATOM     24  C   UNL A   1      36.876  22.303  24.173  1.00  0.00     0.162 C 
ATOM     25  O   UNL A   1      36.392  22.285  25.514  1.00  0.00    -0.379 OA
ENDBRANCH  19  21
ENDBRANCH   8  15
ENDBRANCH   5   8
ENDBRANCH   3   4
ENDBRANCH   2   3
ENDBRANCH   1   2
BRANCH   1  26
ATOM     26  C   UNL A   1      31.417  30.250  25.430  1.00  0.00     0.002 C 
BRANCH  26  27
ATOM     27  C   UNL A   1      31.177  31.511  26.263  1.00  0.00     0.021 C 
BRANCH  27  28
ATOM     28  C   UNL A   1      32.423  32.069  26.927  1.00  0.00     0.116 C 
BRANCH  28  29
ATOM     29  N   UNL A   1      32.241  33.453  27.325  1.00  0.00    -0.352 N 
ATOM     30  C   UNL A   1      32.980  34.180  28.228  1.00  0.00     0.251 C 
ATOM     31  H   UNL A   1      31.495  33.930  26.895  1.00  0.00     0.163 HD
ATOM     32  O   UNL A   1      32.580  35.251  28.654  1.00  0.00    -0.269 OA
BRANCH  30  33
ATOM     33  C   UNL A   1      34.272  33.627  28.682  1.00  0.00     0.039 A 
ATOM     34  C   UNL A   1      35.453  34.049  28.070  1.00  0.00     0.014 A 
ATOM     35  C   UNL A   1      34.302  32.720  29.745  1.00  0.00     0.014 A 
ATOM     36  C   UNL A   1      36.680  33.600  28.565  1.00  0.00     0.010 A 
ATOM     37  C   UNL A   1      35.521  32.344  30.288  1.00  0.00     0.010 A 
ATOM     38  C   UNL A   1      36.722  32.768  29.695  1.00  0.00    -0.014 A 
BRANCH  38  39
ATOM     39  C   UNL A   1      37.998  32.282  30.272  1.00  0.00     0.031 A 
ATOM     40  C   UNL A   1      38.616  31.026  29.728  1.00  0.00     0.074 A 
ATOM     41  C   UNL A   1      38.534  32.896  31.343  1.00  0.00     0.049 A 
ATOM     42  N   UNL A   1      39.622  30.329  30.191  1.00  0.00    -0.248 NA
ATOM     43  C   UNL A   1      37.992  30.456  28.521  1.00  0.00     0.031 C 
ATOM     44  C   UNL A   1      38.016  34.109  31.976  1.00  0.00     0.029 A 
ATOM     45  N   UNL A   1      39.625  32.561  32.105  1.00  0.00    -0.354 N 
ATOM     46  C   UNL A   1      39.726  29.224  29.356  1.00  0.00     0.074 A 
ATOM     47  C   UNL A   1      38.654  29.317  28.390  1.00  0.00     0.031 C 
ATOM     48  C   UNL A   1      38.794  34.423  33.024  1.00  0.00     0.029 A 
ATOM     49  C   UNL A   1      39.832  33.406  33.168  1.00  0.00     0.049 A 
ATOM     50  H   UNL A   1      40.205  31.790  31.908  1.00  0.00     0.167 HD
ATOM     51  C   UNL A   1      40.641  28.226  29.384  1.00  0.00     0.031 A 
ATOM     52  C   UNL A   1      40.739  33.354  34.162  1.00  0.00     0.031 A 
ATOM     53  C   UNL A   1      41.710  28.147  30.340  1.00  0.00     0.049 A 
ATOM     54  C   UNL A   1      41.734  32.225  34.188  1.00  0.00     0.074 A 
ATOM     55  C   UNL A   1      42.726  27.211  30.422  1.00  0.00     0.029 A 
ATOM     56  N   UNL A   1      41.899  29.037  31.386  1.00  0.00    -0.354 N 
ATOM     57  N   UNL A   1      41.857  31.214  33.362  1.00  0.00    -0.248 NA
ATOM     58  C   UNL A   1      42.722  32.237  35.276  1.00  0.00     0.031 C 
ATOM     59  C   UNL A   1      43.493  27.501  31.554  1.00  0.00     0.029 A 
ATOM     60  C   UNL A   1      43.000  28.658  32.135  1.00  0.00     0.049 A 
ATOM     61  H   UNL A   1      41.334  29.824  31.569  1.00  0.00     0.167 HD
ATOM     62  C   UNL A   1      42.956  30.490  33.807  1.00  0.00     0.074 A 
ATOM     63  C   UNL A   1      43.466  31.180  34.974  1.00  0.00     0.031 C 
ATOM     64  C   UNL A   1      43.499  29.363  33.288  1.00  0.00     0.031 A 
BRANCH  51  65
ATOM     65  C   UNL A   1      40.501  27.131  28.362  1.00  0.00    -0.014 A 
ATOM     66  C   UNL A   1      39.751  25.972  28.624  1.00  0.00     0.009 A 
ATOM     67  C   UNL A   1      41.122  27.266  27.110  1.00  0.00     0.009 A 
ATOM     68  C   UNL A   1      39.674  24.950  27.675  1.00  0.00     0.001 A 
ATOM     69  C   UNL A   1      41.011  26.260  26.150  1.00  0.00     0.001 A 
ATOM     70  C   UNL A   1      40.299  25.097  26.438  1.00  0.00     0.000 A 
ENDBRANCH  51  65
BRANCH  52  71
ATOM     71  C   UNL A   1      40.750  34.408  35.209  1.00  0.00    -0.014 A 
ATOM     72  C   UNL A   1      40.005  34.249  36.387  1.00  0.00     0.009 A 
ATOM     73  C   UNL A   1      41.520  35.571  35.045  1.00  0.00     0.009 A 
ATOM     74  C   UNL A   1      40.015  35.241  37.372  1.00  0.00     0.001 A 
ATOM     75  C   UNL A   1      41.552  36.547  36.044  1.00  0.00     0.001 A 
ATOM     76  C   UNL A   1      40.794  36.385  37.202  1.00  0.00     0.000 A 
ENDBRANCH  52  71
BRANCH  64  77
ATOM     77  C   UNL A   1      44.746  28.827  33.934  1.00  0.00    -0.014 A 
ATOM     78  C   UNL A   1      44.694  27.852  34.941  1.00  0.00     0.009 A 
ATOM     79  C   UNL A   1      46.000  29.251  33.461  1.00  0.00     0.009 A 
ATOM     80  C   UNL A   1      45.873  27.327  35.474  1.00  0.00     0.001 A 
ATOM     81  C   UNL A   1      47.175  28.702  33.973  1.00  0.00     0.001 A 
ATOM     82  C   UNL A   1      47.111  27.745  34.984  1.00  0.00     0.000 A 
ENDBRANCH  64  77
ENDBRANCH  38  39
ENDBRANCH  30  33
ENDBRANCH  28  29
ENDBRANCH  27  28
ENDBRANCH  26  27
ENDBRANCH   1  26
TORSDOF 15
ENDMDL
MODEL 3
REMARK VINA RESULT:     -10.8      1.189      6.016
REMARK SMILES C[C@H]1CCCC[C@@]1(NC(=O)N[C@@H]1CCOC1)C(=O)NCCCCCCNC(=O)c1ccc(-c2c3nc(c(-c4ccccc4)c4ccc([nH]4)c(-c4ccccc4)c4nc(c(-c5ccccc5)c5ccc2[nH]5)C=C4)C=C3)cc1
REMARK SMILES IDX 22 1 21 2 20 3 19 4 17 5 18 6 7 8 1 9 2 10 3 11 4 12 6 13
REMARK SMILES IDX 5 14 8 15 9 16 10 18 11 19 12 21 13 22 16 23 14 24 15 25
REMARK SMILES IDX 23 26 24 27 25 28 26 29 27 30 28 32 29 33 30 34 76 35 31 36
REMARK SMILES IDX 75 37 32 38 33 39 34 40 69 41 35 42 74 43 68 44 70 45 36 46
REMARK SMILES IDX 73 47 67 48 66 49 37 51 59 52 44 53 58 54 45 55 48 56 57 57
REMARK SMILES IDX 71 58 46 59 47 60 56 62 72 63 49 64 38 65 39 66 43 67 40 68
REMARK SMILES IDX 42 69 41 70 60 71 61 72 65 73 62 74 64 75 63 76 50 77 51 78
REMARK SMILES IDX 55 79 52 80 54 81 53 82
REMARK H PARENT 19 7 8 17 11 20 26 31 70 50 48 61
REMARK Flexibility Score: inf
ROOT
ATOM      1  C   UNL A   1      32.266  29.923  25.509  1.00  0.00     0.002 C 
ENDROOT
BRANCH   1   2
ATOM      2  C   UNL A   1      32.271  29.219  24.147  1.00  0.00     0.021 C 
BRANCH   2   3
ATOM      3  C   UNL A   1      31.158  28.199  23.938  1.00  0.00     0.116 C 
BRANCH   3   4
ATOM      4  N   UNL A   1      30.557  27.712  25.143  1.00  0.00    -0.354 N 
ATOM      5  C   UNL A   1      30.865  26.663  25.941  1.00  0.00     0.246 C 
ATOM      6  O   UNL A   1      30.710  26.912  27.149  1.00  0.00    -0.272 OA
ATOM      7  H   UNL A   1      29.779  28.234  25.445  1.00  0.00     0.163 HD
BRANCH   5   8
ATOM      8  C   UNL A   1      31.355  25.239  25.513  1.00  0.00     0.123 C 
ATOM      9  C   UNL A   1      30.528  24.411  23.157  1.00  0.00     0.011 C 
ATOM     10  C   UNL A   1      31.702  24.703  24.091  1.00  0.00     0.021 C 
ATOM     11  C   UNL A   1      32.860  25.390  23.349  1.00  0.00     0.006 C 
ATOM     12  C   UNL A   1      34.040  25.851  24.213  1.00  0.00     0.000 C 
ATOM     13  C   UNL A   1      32.726  25.155  26.277  1.00  0.00     0.039 C 
ATOM     14  C   UNL A   1      33.748  26.124  25.685  1.00  0.00     0.003 C 
BRANCH   8  15
ATOM     15  N   UNL A   1      30.425  24.247  26.173  1.00  0.00    -0.323 N 
ATOM     16  C   UNL A   1      30.505  23.043  26.755  1.00  0.00     0.315 C 
ATOM     17  H   UNL A   1      29.498  24.579  26.174  1.00  0.00     0.166 HD
ATOM     18  O   UNL A   1      29.672  22.797  27.633  1.00  0.00    -0.249 OA
ATOM     19  N   UNL A   1      31.381  22.072  26.470  1.00  0.00    -0.333 N 
ATOM     20  H   UNL A   1      31.411  21.363  27.153  1.00  0.00     0.165 HD
BRANCH  19  21
ATOM     21  C   UNL A   1      32.297  21.841  25.363  1.00  0.00     0.112 C 
ATOM     22  C   UNL A   1      32.180  20.440  24.799  1.00  0.00     0.056 C 
ATOM     23  C   UNL A   1      33.780  21.941  25.725  1.00  0.00     0.185 C 
ATOM     24  C   UNL A   1      33.355  19.681  25.357  1.00  0.00     0.162 C 
ATOM     25  O   UNL A   1      34.363  20.633  25.690  1.00  0.00    -0.379 OA
ENDBRANCH  19  21
ENDBRANCH   8  15
ENDBRANCH   5   8
ENDBRANCH   3   4
ENDBRANCH   2   3
ENDBRANCH   1   2
BRANCH   1  26
ATOM     26  C   UNL A   1      31.297  31.100  25.646  1.00  0.00     0.002 C 
BRANCH  26  27
ATOM     27  C   UNL A   1      31.395  31.884  26.957  1.00  0.00     0.021 C 
BRANCH  27  28
ATOM     28  C   UNL A   1      32.725  32.586  27.168  1.00  0.00     0.116 C 
BRANCH  28  29
ATOM     29  N   UNL A   1      32.540  33.958  27.604  1.00  0.00    -0.352 N 
ATOM     30  C   UNL A   1      33.205  34.627  28.604  1.00  0.00     0.251 C 
ATOM     31  H   UNL A   1      31.852  34.473  27.124  1.00  0.00     0.163 HD
ATOM     32  O   UNL A   1      32.793  35.692  29.035  1.00  0.00    -0.269 OA
BRANCH  30  33
ATOM     33  C   UNL A   1      34.433  34.018  29.157  1.00  0.00     0.039 A 
ATOM     34  C   UNL A   1      34.354  33.245  30.316  1.00  0.00     0.014 A 
ATOM     35  C   UNL A   1      35.650  34.187  28.492  1.00  0.00     0.014 A 
ATOM     36  C   UNL A   1      35.496  32.590  30.782  1.00  0.00     0.010 A 
ATOM     37  C   UNL A   1      36.761  33.470  28.908  1.00  0.00     0.010 A 
ATOM     38  C   UNL A   1      36.700  32.676  30.065  1.00  0.00    -0.014 A 
BRANCH  38  39
ATOM     39  C   UNL A   1      37.934  31.982  30.505  1.00  0.00     0.031 A 
ATOM     40  C   UNL A   1      38.865  32.679  31.457  1.00  0.00     0.074 A 
ATOM     41  C   UNL A   1      38.270  30.794  29.971  1.00  0.00     0.049 A 
ATOM     42  N   UNL A   1      40.071  32.340  31.833  1.00  0.00    -0.248 NA
ATOM     43  C   UNL A   1      38.388  33.949  32.032  1.00  0.00     0.031 C 
ATOM     44  C   UNL A   1      37.462  30.028  29.022  1.00  0.00     0.029 A 
ATOM     45  N   UNL A   1      39.401  30.035  30.135  1.00  0.00    -0.354 N 
ATOM     46  C   UNL A   1      40.509  33.370  32.656  1.00  0.00     0.074 A 
ATOM     47  C   UNL A   1      39.461  34.366  32.685  1.00  0.00     0.031 C 
ATOM     48  C   UNL A   1      38.117  28.903  28.695  1.00  0.00     0.029 A 
ATOM     49  C   UNL A   1      39.413  28.894  29.369  1.00  0.00     0.049 A 
ATOM     50  H   UNL A   1      40.135  30.282  30.744  1.00  0.00     0.167 HD
ATOM     51  C   UNL A   1      41.674  33.472  33.336  1.00  0.00     0.031 A 
ATOM     52  C   UNL A   1      40.369  27.960  29.208  1.00  0.00     0.031 A 
ATOM     53  C   UNL A   1      42.706  32.472  33.310  1.00  0.00     0.049 A 
ATOM     54  C   UNL A   1      41.667  28.101  29.956  1.00  0.00     0.074 A 
ATOM     55  C   UNL A   1      43.900  32.448  34.009  1.00  0.00     0.029 A 
ATOM     56  N   UNL A   1      42.667  31.319  32.541  1.00  0.00    -0.354 N 
ATOM     57  N   UNL A   1      42.048  29.053  30.774  1.00  0.00    -0.248 NA
ATOM     58  C   UNL A   1      42.661  27.035  29.768  1.00  0.00     0.031 C 
ATOM     59  C   UNL A   1      44.611  31.311  33.614  1.00  0.00     0.029 A 
ATOM     60  C   UNL A   1      43.829  30.590  32.726  1.00  0.00     0.049 A 
ATOM     61  H   UNL A   1      41.923  31.059  31.950  1.00  0.00     0.167 HD
ATOM     62  C   UNL A   1      43.308  28.683  31.227  1.00  0.00     0.074 A 
ATOM     63  C   UNL A   1      43.625  27.419  30.595  1.00  0.00     0.031 C 
ATOM     64  C   UNL A   1      44.123  29.328  32.096  1.00  0.00     0.031 A 
BRANCH  51  65
ATOM     65  C   UNL A   1      41.897  34.722  34.142  1.00  0.00    -0.014 A 
ATOM     66  C   UNL A   1      41.515  34.806  35.491  1.00  0.00     0.009 A 
ATOM     67  C   UNL A   1      42.509  35.835  33.543  1.00  0.00     0.009 A 
ATOM     68  C   UNL A   1      41.692  35.993  36.205  1.00  0.00     0.001 A 
ATOM     69  C   UNL A   1      42.719  37.007  34.269  1.00  0.00     0.001 A 
ATOM     70  C   UNL A   1      42.298  37.091  35.595  1.00  0.00     0.000 A 
ENDBRANCH  51  65
BRANCH  52  71
ATOM     71  C   UNL A   1      40.129  26.805  28.304  1.00  0.00    -0.014 A 
ATOM     72  C   UNL A   1      39.428  25.678  28.760  1.00  0.00     0.009 A 
ATOM     73  C   UNL A   1      40.581  26.829  26.975  1.00  0.00     0.009 A 
ATOM     74  C   UNL A   1      39.202  24.591  27.911  1.00  0.00     0.001 A 
ATOM     75  C   UNL A   1      40.328  25.755  26.119  1.00  0.00     0.001 A 
ATOM     76  C   UNL A   1      39.647  24.634  26.590  1.00  0.00     0.000 A 
ENDBRANCH  52  71
BRANCH  64  77
ATOM     77  C   UNL A   1      45.415  28.657  32.471  1.00  0.00    -0.014 A 
ATOM     78  C   UNL A   1      45.488  27.739  33.530  1.00  0.00     0.009 A 
ATOM     79  C   UNL A   1      46.560  28.889  31.691  1.00  0.00     0.009 A 
ATOM     80  C   UNL A   1      46.689  27.083  33.810  1.00  0.00     0.001 A 
ATOM     81  C   UNL A   1      47.749  28.210  31.954  1.00  0.00     0.001 A 
ATOM     82  C   UNL A   1      47.815  27.312  33.017  1.00  0.00     0.000 A 
ENDBRANCH  64  77
ENDBRANCH  38  39
ENDBRANCH  30  33
ENDBRANCH  28  29
ENDBRANCH  27  28
ENDBRANCH  26  27
ENDBRANCH   1  26
TORSDOF 15
ENDMDL
