MODEL 1
REMARK VINA RESULT:     -11.5      0.000      0.000
REMARK SMILES O=C(CCCc1nc(-c2ccc(Cl)c(Cl)c2)c(-c2ccccc2)o1)NCCCCCCNC(=O)c1ccc(-c2c3nc(c(-c4ccccc4)c4ccc([nH]4)c(-c4ccccc4)c4nc(c(-c5ccccc5)c5ccc2[nH]5)C=C4)C=C3)cc1
REMARK SMILES IDX 27 1 26 2 25 3 1 4 2 5 3 7 4 8 5 9 6 10 7 11 24 12 8 13
REMARK SMILES IDX 17 14 9 15 10 16 16 17 11 18 14 19 12 20 15 21 13 22 18 23
REMARK SMILES IDX 19 24 23 25 20 26 22 27 21 28 28 29 29 30 30 31 31 32 32 33
REMARK SMILES IDX 33 34 34 36 35 37 36 38 82 39 37 40 81 41 38 42 39 43 40 44
REMARK SMILES IDX 75 45 41 46 80 47 74 48 76 49 42 50 79 51 73 52 72 53 43 55
REMARK SMILES IDX 65 56 50 57 64 58 51 59 54 60 63 61 77 62 52 63 53 64 62 66
REMARK SMILES IDX 78 67 55 68 44 69 45 70 49 71 46 72 48 73 47 74 66 75 67 76
REMARK SMILES IDX 71 77 68 78 70 79 69 80 56 81 57 82 61 83 58 84 60 85 59 86
REMARK H PARENT 25 6 32 35 76 54 54 65
REMARK Flexibility Score: inf
ROOT
ATOM      1  C   UNL A   1      33.500  29.107  25.929  1.00  0.00     0.021 C 
ENDROOT
BRANCH   1   2
ATOM      2  C   UNL A   1      33.663  27.668  26.410  1.00  0.00     0.116 C 
BRANCH   2   3
ATOM      3  N   UNL A   1      32.762  26.765  25.729  1.00  0.00    -0.356 N 
ATOM      4  O   UNL A   1      31.055  26.945  27.252  1.00  0.00    -0.275 OA
ATOM      5  C   UNL A   1      31.499  26.502  26.199  1.00  0.00     0.220 C 
ATOM      6  H   UNL A   1      33.064  26.327  24.900  1.00  0.00     0.163 HD
BRANCH   5   7
ATOM      7  C   UNL A   1      30.673  25.634  25.275  1.00  0.00     0.100 C 
BRANCH   7   8
ATOM      8  C   UNL A   1      30.670  26.142  23.828  1.00  0.00     0.020 C 
BRANCH   8   9
ATOM      9  C   UNL A   1      31.151  25.173  22.735  1.00  0.00     0.098 C 
BRANCH   9  10
ATOM     10  C   UNL A   1      32.159  24.191  23.217  1.00  0.00     0.195 A 
ATOM     11  N   UNL A   1      33.418  24.416  23.547  1.00  0.00    -0.213 NA
ATOM     12  O   UNL A   1      31.766  22.882  23.320  1.00  0.00    -0.440 OA
ATOM     13  C   UNL A   1      33.867  23.187  23.958  1.00  0.00     0.117 A 
ATOM     14  C   UNL A   1      32.871  22.243  23.820  1.00  0.00     0.162 A 
BRANCH  13  15
ATOM     15  C   UNL A   1      35.180  22.952  24.509  1.00  0.00     0.006 A 
ATOM     16  C   UNL A   1      35.785  23.945  25.287  1.00  0.00     0.012 A 
ATOM     17  C   UNL A   1      35.832  21.729  24.312  1.00  0.00     0.032 A 
ATOM     18  C   UNL A   1      37.021  23.704  25.892  1.00  0.00     0.023 A 
ATOM     19  C   UNL A   1      37.075  21.492  24.909  1.00  0.00     0.060 A 
ATOM     20  C   UNL A   1      37.667  22.477  25.708  1.00  0.00     0.059 A 
ATOM     21  Cl  UNL A   1      37.821  19.959  24.626  1.00  0.00    -0.083 Cl
ATOM     22  Cl  UNL A   1      39.184  22.242  26.499  1.00  0.00    -0.083 Cl
ENDBRANCH  13  15
BRANCH  14  23
ATOM     23  C   UNL A   1      32.745  20.832  24.132  1.00  0.00     0.020 A 
ATOM     24  C   UNL A   1      32.517  19.894  23.120  1.00  0.00     0.012 A 
ATOM     25  C   UNL A   1      32.929  20.387  25.448  1.00  0.00     0.012 A 
ATOM     26  C   UNL A   1      32.496  18.528  23.418  1.00  0.00     0.001 A 
ATOM     27  C   UNL A   1      32.899  19.024  25.747  1.00  0.00     0.001 A 
ATOM     28  C   UNL A   1      32.689  18.095  24.730  1.00  0.00     0.000 A 
ENDBRANCH  14  23
ENDBRANCH   9  10
ENDBRANCH   8   9
ENDBRANCH   7   8
ENDBRANCH   5   7
ENDBRANCH   2   3
ENDBRANCH   1   2
BRANCH   1  29
ATOM     29  C   UNL A   1      32.724  30.021  26.888  1.00  0.00     0.002 C 
BRANCH  29  30
ATOM     30  C   UNL A   1      31.482  30.694  26.297  1.00  0.00     0.002 C 
BRANCH  30  31
ATOM     31  C   UNL A   1      31.403  32.208  26.502  1.00  0.00     0.021 C 
BRANCH  31  32
ATOM     32  C   UNL A   1      32.616  32.830  27.187  1.00  0.00     0.116 C 
BRANCH  32  33
ATOM     33  N   UNL A   1      32.371  34.194  27.632  1.00  0.00    -0.352 N 
ATOM     34  C   UNL A   1      32.994  34.908  28.625  1.00  0.00     0.251 C 
ATOM     35  H   UNL A   1      31.657  34.672  27.152  1.00  0.00     0.163 HD
ATOM     36  O   UNL A   1      32.550  35.999  28.975  1.00  0.00    -0.269 OA
BRANCH  34  37
ATOM     37  C   UNL A   1      34.188  34.351  29.296  1.00  0.00     0.039 A 
ATOM     38  C   UNL A   1      34.022  33.630  30.482  1.00  0.00     0.014 A 
ATOM     39  C   UNL A   1      35.465  34.533  28.759  1.00  0.00     0.014 A 
ATOM     40  C   UNL A   1      35.129  33.033  31.090  1.00  0.00     0.010 A 
ATOM     41  C   UNL A   1      36.554  33.875  29.324  1.00  0.00     0.010 A 
ATOM     42  C   UNL A   1      36.398  33.118  30.495  1.00  0.00    -0.014 A 
BRANCH  42  43
ATOM     43  C   UNL A   1      37.571  32.417  31.079  1.00  0.00     0.031 A 
ATOM     44  C   UNL A   1      38.202  32.918  32.349  1.00  0.00     0.074 A 
ATOM     45  C   UNL A   1      38.106  31.362  30.433  1.00  0.00     0.049 A 
ATOM     46  N   UNL A   1      39.257  32.467  32.981  1.00  0.00    -0.248 NA
ATOM     47  C   UNL A   1      37.582  34.094  32.979  1.00  0.00     0.031 C 
ATOM     48  C   UNL A   1      37.613  30.797  29.175  1.00  0.00     0.029 A 
ATOM     49  N   UNL A   1      39.190  30.579  30.746  1.00  0.00    -0.354 N 
ATOM     50  C   UNL A   1      39.433  33.310  34.070  1.00  0.00     0.074 A 
ATOM     51  C   UNL A   1      38.411  34.331  33.984  1.00  0.00     0.031 C 
ATOM     52  C   UNL A   1      38.370  29.739  28.842  1.00  0.00     0.029 A 
ATOM     53  C   UNL A   1      39.429  29.579  29.833  1.00  0.00     0.049 A 
ATOM     54  H   UNL A   1      39.743  30.720  31.547  1.00  0.00     0.167 HD
ATOM     55  C   UNL A   1      40.350  33.234  35.065  1.00  0.00     0.031 A 
ATOM     56  C   UNL A   1      40.396  28.643  29.794  1.00  0.00     0.031 A 
ATOM     57  C   UNL A   1      41.366  32.219  35.152  1.00  0.00     0.049 A 
ATOM     58  C   UNL A   1      41.423  28.601  30.891  1.00  0.00     0.074 A 
ATOM     59  C   UNL A   1      42.308  32.026  36.148  1.00  0.00     0.029 A 
ATOM     60  N   UNL A   1      41.580  31.231  34.203  1.00  0.00    -0.354 N 
ATOM     61  N   UNL A   1      41.532  29.362  31.953  1.00  0.00    -0.248 NA
ATOM     62  C   UNL A   1      42.457  27.561  30.787  1.00  0.00     0.031 C 
ATOM     63  C   UNL A   1      43.130  30.959  35.771  1.00  0.00     0.029 A 
ATOM     64  C   UNL A   1      42.658  30.445  34.575  1.00  0.00     0.049 A 
ATOM     65  H   UNL A   1      41.044  31.108  33.386  1.00  0.00     0.167 HD
ATOM     66  C   UNL A   1      42.624  28.874  32.659  1.00  0.00     0.074 A 
ATOM     67  C   UNL A   1      43.133  27.741  31.913  1.00  0.00     0.031 C 
ATOM     68  C   UNL A   1      43.155  29.321  33.823  1.00  0.00     0.031 A 
BRANCH  55  69
ATOM     69  C   UNL A   1      40.301  34.291  36.135  1.00  0.00    -0.014 A 
ATOM     70  C   UNL A   1      39.528  34.121  37.295  1.00  0.00     0.009 A 
ATOM     71  C   UNL A   1      41.061  35.463  35.994  1.00  0.00     0.009 A 
ATOM     72  C   UNL A   1      39.484  35.119  38.270  1.00  0.00     0.001 A 
ATOM     73  C   UNL A   1      41.041  36.446  36.986  1.00  0.00     0.001 A 
ATOM     74  C   UNL A   1      40.244  36.278  38.118  1.00  0.00     0.000 A 
ENDBRANCH  55  69
BRANCH  56  75
ATOM     75  C   UNL A   1      40.435  27.655  28.683  1.00  0.00    -0.014 A 
ATOM     76  C   UNL A   1      39.658  26.488  28.740  1.00  0.00     0.009 A 
ATOM     77  C   UNL A   1      41.259  27.866  27.566  1.00  0.00     0.009 A 
ATOM     78  C   UNL A   1      39.728  25.539  27.718  1.00  0.00     0.001 A 
ATOM     79  C   UNL A   1      41.302  26.931  26.530  1.00  0.00     0.001 A 
ATOM     80  C   UNL A   1      40.545  25.763  26.611  1.00  0.00     0.000 A 
ENDBRANCH  56  75
BRANCH  68  81
ATOM     81  C   UNL A   1      44.324  28.559  34.385  1.00  0.00    -0.014 A 
ATOM     82  C   UNL A   1      44.140  27.458  35.236  1.00  0.00     0.009 A 
ATOM     83  C   UNL A   1      45.629  28.927  34.023  1.00  0.00     0.009 A 
ATOM     84  C   UNL A   1      45.243  26.766  35.742  1.00  0.00     0.001 A 
ATOM     85  C   UNL A   1      46.727  28.213  34.503  1.00  0.00     0.001 A 
ATOM     86  C   UNL A   1      46.534  27.139  35.370  1.00  0.00     0.000 A 
ENDBRANCH  68  81
ENDBRANCH  42  43
ENDBRANCH  34  37
ENDBRANCH  32  33
ENDBRANCH  31  32
ENDBRANCH  30  31
ENDBRANCH  29  30
ENDBRANCH   1  29
TORSDOF 18
ENDMDL
MODEL 2
REMARK VINA RESULT:     -11.3      0.510      5.703
REMARK SMILES O=C(CCCc1nc(-c2ccc(Cl)c(Cl)c2)c(-c2ccccc2)o1)NCCCCCCNC(=O)c1ccc(-c2c3nc(c(-c4ccccc4)c4ccc([nH]4)c(-c4ccccc4)c4nc(c(-c5ccccc5)c5ccc2[nH]5)C=C4)C=C3)cc1
REMARK SMILES IDX 27 1 26 2 25 3 1 4 2 5 3 7 4 8 5 9 6 10 7 11 24 12 8 13
REMARK SMILES IDX 17 14 9 15 10 16 16 17 11 18 14 19 12 20 15 21 13 22 18 23
REMARK SMILES IDX 19 24 23 25 20 26 22 27 21 28 28 29 29 30 30 31 31 32 32 33
REMARK SMILES IDX 33 34 34 36 35 37 36 38 82 39 37 40 81 41 38 42 39 43 40 44
REMARK SMILES IDX 75 45 41 46 80 47 74 48 76 49 42 50 79 51 73 52 72 53 43 55
REMARK SMILES IDX 65 56 50 57 64 58 51 59 54 60 63 61 77 62 52 63 53 64 62 66
REMARK SMILES IDX 78 67 55 68 44 69 45 70 49 71 46 72 48 73 47 74 66 75 67 76
REMARK SMILES IDX 71 77 68 78 70 79 69 80 56 81 57 82 61 83 58 84 60 85 59 86
REMARK H PARENT 25 6 32 35 76 54 54 65
REMARK Flexibility Score: inf
ROOT
ATOM      1  C   UNL A   1      33.472  29.318  26.092  1.00  0.00     0.021 C 
ENDROOT
BRANCH   1   2
ATOM      2  C   UNL A   1      33.588  27.808  26.284  1.00  0.00     0.116 C 
BRANCH   2   3
ATOM      3  N   UNL A   1      32.728  27.081  25.378  1.00  0.00    -0.356 N 
ATOM      4  O   UNL A   1      31.029  26.749  26.883  1.00  0.00    -0.275 OA
ATOM      5  C   UNL A   1      31.485  26.634  25.751  1.00  0.00     0.220 C 
ATOM      6  H   UNL A   1      33.044  26.901  24.462  1.00  0.00     0.163 HD
BRANCH   5   7
ATOM      7  C   UNL A   1      30.696  26.010  24.621  1.00  0.00     0.100 C 
BRANCH   7   8
ATOM      8  C   UNL A   1      31.185  26.456  23.238  1.00  0.00     0.020 C 
BRANCH   8   9
ATOM      9  C   UNL A   1      31.610  25.359  22.249  1.00  0.00     0.098 C 
BRANCH   9  10
ATOM     10  C   UNL A   1      32.533  24.353  22.841  1.00  0.00     0.195 A 
ATOM     11  N   UNL A   1      33.794  24.519  23.198  1.00  0.00    -0.213 NA
ATOM     12  O   UNL A   1      32.047  23.086  23.030  1.00  0.00    -0.440 OA
ATOM     13  C   UNL A   1      34.143  23.299  23.718  1.00  0.00     0.117 A 
ATOM     14  C   UNL A   1      33.088  22.416  23.617  1.00  0.00     0.162 A 
BRANCH  13  15
ATOM     15  C   UNL A   1      35.419  23.022  24.333  1.00  0.00     0.006 A 
ATOM     16  C   UNL A   1      36.030  24.004  25.120  1.00  0.00     0.012 A 
ATOM     17  C   UNL A   1      36.027  21.769  24.189  1.00  0.00     0.032 A 
ATOM     18  C   UNL A   1      37.226  23.725  25.785  1.00  0.00     0.023 A 
ATOM     19  C   UNL A   1      37.231  21.493  24.846  1.00  0.00     0.060 A 
ATOM     20  C   UNL A   1      37.827  22.469  25.653  1.00  0.00     0.059 A 
ATOM     21  Cl  UNL A   1      37.924  19.926  24.625  1.00  0.00    -0.083 Cl
ATOM     22  Cl  UNL A   1      39.296  22.187  26.517  1.00  0.00    -0.083 Cl
ENDBRANCH  13  15
BRANCH  14  23
ATOM     23  C   UNL A   1      32.856  21.046  24.032  1.00  0.00     0.020 A 
ATOM     24  C   UNL A   1      32.535  20.059  23.094  1.00  0.00     0.012 A 
ATOM     25  C   UNL A   1      33.027  20.682  25.375  1.00  0.00     0.012 A 
ATOM     26  C   UNL A   1      32.409  18.725  23.492  1.00  0.00     0.001 A 
ATOM     27  C   UNL A   1      32.892  19.351  25.773  1.00  0.00     0.001 A 
ATOM     28  C   UNL A   1      32.591  18.372  24.829  1.00  0.00     0.000 A 
ENDBRANCH  14  23
ENDBRANCH   9  10
ENDBRANCH   8   9
ENDBRANCH   7   8
ENDBRANCH   5   7
ENDBRANCH   2   3
ENDBRANCH   1   2
BRANCH   1  29
ATOM     29  C   UNL A   1      32.333  29.979  26.880  1.00  0.00     0.002 C 
BRANCH  29  30
ATOM     30  C   UNL A   1      31.384  30.855  26.058  1.00  0.00     0.002 C 
BRANCH  30  31
ATOM     31  C   UNL A   1      31.294  32.315  26.505  1.00  0.00     0.021 C 
BRANCH  31  32
ATOM     32  C   UNL A   1      32.614  32.934  26.953  1.00  0.00     0.116 C 
BRANCH  32  33
ATOM     33  N   UNL A   1      32.435  34.212  27.626  1.00  0.00    -0.352 N 
ATOM     34  C   UNL A   1      33.098  34.719  28.717  1.00  0.00     0.251 C 
ATOM     35  H   UNL A   1      31.739  34.796  27.246  1.00  0.00     0.163 HD
ATOM     36  O   UNL A   1      32.705  35.753  29.254  1.00  0.00    -0.269 OA
BRANCH  34  37
ATOM     37  C   UNL A   1      34.270  34.004  29.265  1.00  0.00     0.039 A 
ATOM     38  C   UNL A   1      35.551  34.432  28.906  1.00  0.00     0.014 A 
ATOM     39  C   UNL A   1      34.110  32.921  30.134  1.00  0.00     0.014 A 
ATOM     40  C   UNL A   1      36.670  33.818  29.473  1.00  0.00     0.010 A 
ATOM     41  C   UNL A   1      35.223  32.361  30.755  1.00  0.00     0.010 A 
ATOM     42  C   UNL A   1      36.515  32.803  30.431  1.00  0.00    -0.014 A 
BRANCH  42  43
ATOM     43  C   UNL A   1      37.690  32.198  31.110  1.00  0.00     0.031 A 
ATOM     44  C   UNL A   1      38.427  31.050  30.477  1.00  0.00     0.074 A 
ATOM     45  C   UNL A   1      38.059  32.643  32.327  1.00  0.00     0.049 A 
ATOM     46  N   UNL A   1      39.442  30.364  30.939  1.00  0.00    -0.248 NA
ATOM     47  C   UNL A   1      37.945  30.597  29.162  1.00  0.00     0.031 C 
ATOM     48  C   UNL A   1      37.409  33.726  33.068  1.00  0.00     0.029 A 
ATOM     49  N   UNL A   1      39.073  32.235  33.159  1.00  0.00    -0.354 N 
ATOM     50  C   UNL A   1      39.709  29.394  29.982  1.00  0.00     0.074 A 
ATOM     51  C   UNL A   1      38.717  29.544  28.939  1.00  0.00     0.031 C 
ATOM     52  C   UNL A   1      38.059  33.918  34.227  1.00  0.00     0.029 A 
ATOM     53  C   UNL A   1      39.140  32.943  34.335  1.00  0.00     0.049 A 
ATOM     54  H   UNL A   1      39.691  31.504  32.934  1.00  0.00     0.167 HD
ATOM     55  C   UNL A   1      40.701  28.471  29.960  1.00  0.00     0.031 A 
ATOM     56  C   UNL A   1      39.973  32.819  35.385  1.00  0.00     0.031 A 
ATOM     57  C   UNL A   1      41.689  28.321  30.996  1.00  0.00     0.049 A 
ATOM     58  C   UNL A   1      41.044  31.765  35.353  1.00  0.00     0.074 A 
ATOM     59  C   UNL A   1      42.765  27.451  31.041  1.00  0.00     0.029 A 
ATOM     60  N   UNL A   1      41.716  29.052  32.174  1.00  0.00    -0.354 N 
ATOM     61  N   UNL A   1      41.329  30.902  34.407  1.00  0.00    -0.248 NA
ATOM     62  C   UNL A   1      41.917  31.674  36.532  1.00  0.00     0.031 C 
ATOM     63  C   UNL A   1      43.407  27.615  32.273  1.00  0.00     0.029 A 
ATOM     64  C   UNL A   1      42.772  28.632  32.966  1.00  0.00     0.049 A 
ATOM     65  H   UNL A   1      41.079  29.764  32.411  1.00  0.00     0.167 HD
ATOM     66  C   UNL A   1      42.431  30.190  34.862  1.00  0.00     0.074 A 
ATOM     67  C   UNL A   1      42.773  30.732  36.161  1.00  0.00     0.031 C 
ATOM     68  C   UNL A   1      43.101  29.179  34.257  1.00  0.00     0.031 A 
BRANCH  55  69
ATOM     69  C   UNL A   1      40.757  27.541  28.779  1.00  0.00    -0.014 A 
ATOM     70  C   UNL A   1      40.042  26.332  28.767  1.00  0.00     0.009 A 
ATOM     71  C   UNL A   1      41.513  27.892  27.649  1.00  0.00     0.009 A 
ATOM     72  C   UNL A   1      40.118  25.475  27.666  1.00  0.00     0.001 A 
ATOM     73  C   UNL A   1      41.560  27.049  26.536  1.00  0.00     0.001 A 
ATOM     74  C   UNL A   1      40.872  25.836  26.551  1.00  0.00     0.000 A 
ENDBRANCH  55  69
BRANCH  56  75
ATOM     75  C   UNL A   1      39.840  33.726  36.556  1.00  0.00    -0.014 A 
ATOM     76  C   UNL A   1      40.534  34.946  36.594  1.00  0.00     0.009 A 
ATOM     77  C   UNL A   1      39.031  33.373  37.647  1.00  0.00     0.009 A 
ATOM     78  C   UNL A   1      40.444  35.778  37.712  1.00  0.00     0.001 A 
ATOM     79  C   UNL A   1      38.918  34.222  38.750  1.00  0.00     0.001 A 
ATOM     80  C   UNL A   1      39.632  35.419  38.787  1.00  0.00     0.000 A 
ENDBRANCH  56  75
BRANCH  68  81
ATOM     81  C   UNL A   1      44.300  28.621  34.974  1.00  0.00    -0.014 A 
ATOM     82  C   UNL A   1      45.579  29.175  34.806  1.00  0.00     0.009 A 
ATOM     83  C   UNL A   1      44.136  27.547  35.863  1.00  0.00     0.009 A 
ATOM     84  C   UNL A   1      46.674  28.639  35.486  1.00  0.00     0.001 A 
ATOM     85  C   UNL A   1      45.227  27.036  36.567  1.00  0.00     0.001 A 
ATOM     86  C   UNL A   1      46.497  27.575  36.370  1.00  0.00     0.000 A 
ENDBRANCH  68  81
ENDBRANCH  42  43
ENDBRANCH  34  37
ENDBRANCH  32  33
ENDBRANCH  31  32
ENDBRANCH  30  31
ENDBRANCH  29  30
ENDBRANCH   1  29
TORSDOF 18
ENDMDL
MODEL 3
REMARK VINA RESULT:     -10.9      4.900     10.621
REMARK SMILES O=C(CCCc1nc(-c2ccc(Cl)c(Cl)c2)c(-c2ccccc2)o1)NCCCCCCNC(=O)c1ccc(-c2c3nc(c(-c4ccccc4)c4ccc([nH]4)c(-c4ccccc4)c4nc(c(-c5ccccc5)c5ccc2[nH]5)C=C4)C=C3)cc1
REMARK SMILES IDX 27 1 26 2 25 3 1 4 2 5 3 7 4 8 5 9 6 10 7 11 24 12 8 13
REMARK SMILES IDX 17 14 9 15 10 16 16 17 11 18 14 19 12 20 15 21 13 22 18 23
REMARK SMILES IDX 19 24 23 25 20 26 22 27 21 28 28 29 29 30 30 31 31 32 32 33
REMARK SMILES IDX 33 34 34 36 35 37 36 38 82 39 37 40 81 41 38 42 39 43 40 44
REMARK SMILES IDX 75 45 41 46 80 47 74 48 76 49 42 50 79 51 73 52 72 53 43 55
REMARK SMILES IDX 65 56 50 57 64 58 51 59 54 60 63 61 77 62 52 63 53 64 62 66
REMARK SMILES IDX 78 67 55 68 44 69 45 70 49 71 46 72 48 73 47 74 66 75 67 76
REMARK SMILES IDX 71 77 68 78 70 79 69 80 56 81 57 82 61 83 58 84 60 85 59 86
REMARK H PARENT 25 6 32 35 76 54 54 65
REMARK Flexibility Score: inf
ROOT
ATOM      1  C   UNL A   1      35.173  35.062  32.737  1.00  0.00     0.021 C 
ENDROOT
BRANCH   1   2
ATOM      2  C   UNL A   1      35.717  34.479  34.038  1.00  0.00     0.116 C 
BRANCH   2   3
ATOM      3  N   UNL A   1      36.518  33.298  33.807  1.00  0.00    -0.356 N 
ATOM      4  O   UNL A   1      37.055  32.946  36.010  1.00  0.00    -0.275 OA
ATOM      5  C   UNL A   1      37.102  32.600  34.836  1.00  0.00     0.220 C 
ATOM      6  H   UNL A   1      36.648  32.983  32.883  1.00  0.00     0.163 HD
BRANCH   5   7
ATOM      7  C   UNL A   1      37.789  31.326  34.395  1.00  0.00     0.100 C 
BRANCH   7   8
ATOM      8  C   UNL A   1      38.756  30.777  35.451  1.00  0.00     0.020 C 
BRANCH   8   9
ATOM      9  C   UNL A   1      40.238  31.164  35.325  1.00  0.00     0.098 C 
BRANCH   9  10
ATOM     10  C   UNL A   1      41.169  30.025  35.548  1.00  0.00     0.195 A 
ATOM     11  N   UNL A   1      41.039  28.778  35.134  1.00  0.00    -0.213 NA
ATOM     12  O   UNL A   1      42.296  30.268  36.289  1.00  0.00    -0.440 OA
ATOM     13  C   UNL A   1      42.188  28.172  35.574  1.00  0.00     0.117 A 
ATOM     14  C   UNL A   1      42.960  29.069  36.283  1.00  0.00     0.162 A 
BRANCH  13  15
ATOM     15  C   UNL A   1      42.544  26.806  35.272  1.00  0.00     0.006 A 
ATOM     16  C   UNL A   1      41.901  25.764  35.948  1.00  0.00     0.012 A 
ATOM     17  C   UNL A   1      43.489  26.514  34.282  1.00  0.00     0.032 A 
ATOM     18  C   UNL A   1      42.177  24.437  35.613  1.00  0.00     0.023 A 
ATOM     19  C   UNL A   1      43.774  25.184  33.953  1.00  0.00     0.060 A 
ATOM     20  C   UNL A   1      43.110  24.143  34.614  1.00  0.00     0.059 A 
ATOM     21  Cl  UNL A   1      44.948  24.896  32.720  1.00  0.00    -0.083 Cl
ATOM     22  Cl  UNL A   1      43.390  22.480  34.240  1.00  0.00    -0.083 Cl
ENDBRANCH  13  15
BRANCH  14  23
ATOM     23  C   UNL A   1      44.262  29.020  36.921  1.00  0.00     0.020 A 
ATOM     24  C   UNL A   1      45.078  30.154  36.967  1.00  0.00     0.012 A 
ATOM     25  C   UNL A   1      44.682  27.849  37.567  1.00  0.00     0.012 A 
ATOM     26  C   UNL A   1      46.287  30.123  37.669  1.00  0.00     0.001 A 
ATOM     27  C   UNL A   1      45.893  27.815  38.259  1.00  0.00     0.001 A 
ATOM     28  C   UNL A   1      46.691  28.956  38.316  1.00  0.00     0.000 A 
ENDBRANCH  14  23
ENDBRANCH   9  10
ENDBRANCH   8   9
ENDBRANCH   7   8
ENDBRANCH   5   7
ENDBRANCH   2   3
ENDBRANCH   1   2
BRANCH   1  29
ATOM     29  C   UNL A   1      33.812  35.760  32.867  1.00  0.00     0.002 C 
BRANCH  29  30
ATOM     30  C   UNL A   1      32.847  35.546  31.697  1.00  0.00     0.002 C 
BRANCH  30  31
ATOM     31  C   UNL A   1      32.782  36.696  30.689  1.00  0.00     0.021 C 
BRANCH  31  32
ATOM     32  C   UNL A   1      33.452  36.415  29.348  1.00  0.00     0.116 C 
BRANCH  32  33
ATOM     33  N   UNL A   1      32.826  35.316  28.627  1.00  0.00    -0.352 N 
ATOM     34  C   UNL A   1      33.345  34.089  28.295  1.00  0.00     0.251 C 
ATOM     35  H   UNL A   1      31.899  35.476  28.336  1.00  0.00     0.163 HD
ATOM     36  O   UNL A   1      32.727  33.340  27.540  1.00  0.00    -0.269 OA
BRANCH  34  37
ATOM     37  C   UNL A   1      34.663  33.678  28.822  1.00  0.00     0.039 A 
ATOM     38  C   UNL A   1      34.713  32.805  29.913  1.00  0.00     0.014 A 
ATOM     39  C   UNL A   1      35.846  34.144  28.242  1.00  0.00     0.014 A 
ATOM     40  C   UNL A   1      35.947  32.347  30.377  1.00  0.00     0.010 A 
ATOM     41  C   UNL A   1      37.071  33.627  28.657  1.00  0.00     0.010 A 
ATOM     42  C   UNL A   1      37.135  32.724  29.729  1.00  0.00    -0.014 A 
BRANCH  42  43
ATOM     43  C   UNL A   1      38.451  32.178  30.152  1.00  0.00     0.031 A 
ATOM     44  C   UNL A   1      38.929  30.853  29.624  1.00  0.00     0.074 A 
ATOM     45  C   UNL A   1      39.190  32.846  31.058  1.00  0.00     0.049 A 
ATOM     46  N   UNL A   1      40.023  30.194  29.914  1.00  0.00    -0.248 NA
ATOM     47  C   UNL A   1      38.052  30.166  28.663  1.00  0.00     0.031 C 
ATOM     48  C   UNL A   1      38.826  34.124  31.675  1.00  0.00     0.029 A 
ATOM     49  N   UNL A   1      40.404  32.540  31.623  1.00  0.00    -0.354 N 
ATOM     50  C   UNL A   1      39.959  29.014  29.185  1.00  0.00     0.074 A 
ATOM     51  C   UNL A   1      38.694  29.021  28.481  1.00  0.00     0.031 C 
ATOM     52  C   UNL A   1      39.809  34.507  32.505  1.00  0.00     0.029 A 
ATOM     53  C   UNL A   1      40.849  33.483  32.518  1.00  0.00     0.049 A 
ATOM     54  H   UNL A   1      40.907  31.722  31.407  1.00  0.00     0.167 HD
ATOM     55  C   UNL A   1      40.875  28.021  29.091  1.00  0.00     0.031 A 
ATOM     56  C   UNL A   1      41.965  33.519  33.269  1.00  0.00     0.031 A 
ATOM     57  C   UNL A   1      42.133  28.013  29.790  1.00  0.00     0.049 A 
ATOM     58  C   UNL A   1      42.951  32.387  33.174  1.00  0.00     0.074 A 
ATOM     59  C   UNL A   1      43.152  27.078  29.720  1.00  0.00     0.029 A 
ATOM     60  N   UNL A   1      42.541  28.983  30.693  1.00  0.00    -0.354 N 
ATOM     61  N   UNL A   1      42.909  31.312  32.424  1.00  0.00    -0.248 NA
ATOM     62  C   UNL A   1      44.147  32.479  34.025  1.00  0.00     0.031 C 
ATOM     63  C   UNL A   1      44.149  27.451  30.627  1.00  0.00     0.029 A 
ATOM     64  C   UNL A   1      43.783  28.652  31.211  1.00  0.00     0.049 A 
ATOM     65  H   UNL A   1      42.025  29.787  30.930  1.00  0.00     0.167 HD
ATOM     66  C   UNL A   1      44.083  30.619  32.688  1.00  0.00     0.074 A 
ATOM     67  C   UNL A   1      44.824  31.402  33.654  1.00  0.00     0.031 C 
ATOM     68  C   UNL A   1      44.510  29.440  32.173  1.00  0.00     0.031 A 
BRANCH  55  69
ATOM     69  C   UNL A   1      40.540  26.850  28.208  1.00  0.00    -0.014 A 
ATOM     70  C   UNL A   1      40.998  26.781  26.881  1.00  0.00     0.009 A 
ATOM     71  C   UNL A   1      39.780  25.786  28.717  1.00  0.00     0.009 A 
ATOM     72  C   UNL A   1      40.664  25.692  26.073  1.00  0.00     0.001 A 
ATOM     73  C   UNL A   1      39.475  24.683  27.916  1.00  0.00     0.001 A 
ATOM     74  C   UNL A   1      39.908  24.642  26.592  1.00  0.00     0.000 A 
ENDBRANCH  55  69
BRANCH  56  75
ATOM     75  C   UNL A   1      42.224  34.672  34.171  1.00  0.00    -0.014 A 
ATOM     76  C   UNL A   1      42.571  35.925  33.643  1.00  0.00     0.009 A 
ATOM     77  C   UNL A   1      42.138  34.525  35.564  1.00  0.00     0.009 A 
ATOM     78  C   UNL A   1      42.856  36.998  34.491  1.00  0.00     0.001 A 
ATOM     79  C   UNL A   1      42.392  35.608  36.409  1.00  0.00     0.001 A 
ATOM     80  C   UNL A   1      42.761  36.840  35.872  1.00  0.00     0.000 A 
ENDBRANCH  56  75
BRANCH  68  81
ATOM     81  C   UNL A   1      45.860  28.945  32.613  1.00  0.00    -0.014 A 
ATOM     82  C   UNL A   1      46.022  28.216  33.802  1.00  0.00     0.009 A 
ATOM     83  C   UNL A   1      46.982  29.180  31.802  1.00  0.00     0.009 A 
ATOM     84  C   UNL A   1      47.287  27.766  34.187  1.00  0.00     0.001 A 
ATOM     85  C   UNL A   1      48.238  28.699  32.172  1.00  0.00     0.001 A 
ATOM     86  C   UNL A   1      48.392  28.002  33.369  1.00  0.00     0.000 A 
ENDBRANCH  68  81
ENDBRANCH  42  43
ENDBRANCH  34  37
ENDBRANCH  32  33
ENDBRANCH  31  32
ENDBRANCH  30  31
ENDBRANCH  29  30
ENDBRANCH   1  29
TORSDOF 18
ENDMDL
