MODEL 1
REMARK VINA RESULT:     -12.7      0.000      0.000
REMARK SMILES COc1cc(C)cc2c1[C@@H](C)[C@@H](CC(=O)N[C@@H](Cc1c[nH]c3ccccc13)C(=O)NCCCCCCNC(=O)c1ccc(-c3c4nc(c(-c5ccccc5)c5ccc([nH]5)c(-c5ccccc5)c5nc(c(-c6ccccc6)c6ccc3[nH]6)C=C5)C=C4)cc1)C(=O)O2
REMARK SMILES IDX 32 1 31 2 30 3 28 4 29 5 17 7 16 8 14 9 15 10 13 12 12 13
REMARK SMILES IDX 3 14 4 15 9 16 5 17 8 18 10 19 6 20 7 21 90 22 11 23 88 24
REMARK SMILES IDX 89 25 2 26 1 27 18 28 19 29 20 30 27 31 21 32 22 33 26 34
REMARK SMILES IDX 23 36 25 37 24 38 33 39 34 40 35 41 36 42 37 43 38 44 39 46
REMARK SMILES IDX 40 47 41 48 87 49 42 50 86 51 43 52 44 53 45 54 80 55 46 56
REMARK SMILES IDX 85 57 79 58 81 59 47 60 84 61 78 62 77 63 48 65 70 66 55 67
REMARK SMILES IDX 69 68 56 69 59 70 68 71 82 72 57 73 58 74 67 76 83 77 60 78
REMARK SMILES IDX 49 79 50 80 54 81 51 82 53 83 52 84 71 85 72 86 76 87 73 88
REMARK SMILES IDX 75 89 74 90 61 91 62 92 66 93 63 94 65 95 64 96
REMARK H PARENT 30 6 16 11 21 35 37 45 81 64 59 75
REMARK Flexibility Score: inf
ROOT
ATOM      1  C   UNL A   1      31.967  28.347  27.042  1.00  0.00     0.021 C 
ENDROOT
BRANCH   1   2
ATOM      2  C   UNL A   1      32.007  26.868  26.680  1.00  0.00     0.116 C 
BRANCH   2   3
ATOM      3  N   UNL A   1      30.670  26.347  26.618  1.00  0.00    -0.354 N 
ATOM      4  C   UNL A   1      29.999  25.889  25.537  1.00  0.00     0.242 C 
ATOM      5  O   UNL A   1      28.767  25.820  25.642  1.00  0.00    -0.273 OA
ATOM      6  H   UNL A   1      30.180  26.319  27.472  1.00  0.00     0.163 HD
BRANCH   4   7
ATOM      7  C   UNL A   1      30.689  25.434  24.231  1.00  0.00     0.175 C 
BRANCH   7   8
ATOM      8  N   UNL A   1      30.688  24.015  23.940  1.00  0.00    -0.344 N 
ATOM      9  C   UNL A   1      31.759  23.316  23.451  1.00  0.00     0.221 C 
ATOM     10  O   UNL A   1      31.564  22.369  22.692  1.00  0.00    -0.275 OA
ATOM     11  H   UNL A   1      29.856  23.515  24.107  1.00  0.00     0.164 HD
BRANCH   9  12
ATOM     12  C   UNL A   1      33.151  23.642  23.983  1.00  0.00     0.116 C 
BRANCH  12  13
ATOM     13  C   UNL A   1      33.369  23.751  25.516  1.00  0.00     0.116 C 
ATOM     14  C   UNL A   1      36.071  21.081  25.447  1.00  0.00     0.126 A 
ATOM     15  C   UNL A   1      36.050  19.752  24.989  1.00  0.00     0.050 A 
ATOM     16  C   UNL A   1      34.876  21.771  25.663  1.00  0.00     0.041 A 
ATOM     17  C   UNL A   1      34.839  19.083  24.754  1.00  0.00    -0.044 A 
ATOM     18  C   UNL A   1      33.689  21.026  25.572  1.00  0.00     0.138 A 
ATOM     19  C   UNL A   1      34.767  23.260  25.981  1.00  0.00     0.038 C 
ATOM     20  C   UNL A   1      34.828  17.681  24.221  1.00  0.00     0.044 C 
ATOM     21  C   UNL A   1      33.649  19.718  25.093  1.00  0.00     0.051 A 
ATOM     22  O   UNL A   1      32.464  21.547  26.015  1.00  0.00    -0.426 OA
ATOM     23  C   UNL A   1      35.854  24.172  25.400  1.00  0.00     0.014 C 
ATOM     24  C   UNL A   1      32.461  22.883  26.358  1.00  0.00     0.315 C 
ATOM     25  O   UNL A   1      31.763  23.308  27.271  1.00  0.00    -0.251 OA
BRANCH  14  26
ATOM     26  O   UNL A   1      37.227  21.703  25.825  1.00  0.00    -0.496 OA
ATOM     27  C   UNL A   1      38.420  21.054  25.405  1.00  0.00     0.278 C 
ENDBRANCH  14  26
ENDBRANCH  12  13
ENDBRANCH   9  12
ENDBRANCH   7   8
BRANCH   7  28
ATOM     28  C   UNL A   1      30.779  26.292  22.978  1.00  0.00     0.072 C 
BRANCH  28  29
ATOM     29  C   UNL A   1      30.565  27.774  22.822  1.00  0.00    -0.020 A 
ATOM     30  C   UNL A   1      31.656  28.533  22.416  1.00  0.00     0.087 A 
ATOM     31  C   UNL A   1      29.439  28.678  22.827  1.00  0.00     0.003 A 
ATOM     32  N   UNL A   1      31.191  29.687  21.876  1.00  0.00    -0.361 N 
ATOM     33  C   UNL A   1      29.893  29.880  22.261  1.00  0.00     0.046 A 
ATOM     34  C   UNL A   1      28.072  28.645  23.189  1.00  0.00     0.010 A 
ATOM     35  H   UNL A   1      31.709  30.292  21.296  1.00  0.00     0.166 HD
ATOM     36  C   UNL A   1      29.101  31.021  22.087  1.00  0.00     0.026 A 
ATOM     37  C   UNL A   1      27.269  29.794  23.057  1.00  0.00     0.001 A 
ATOM     38  C   UNL A   1      27.783  30.970  22.526  1.00  0.00     0.002 A 
ENDBRANCH  28  29
ENDBRANCH   7  28
ENDBRANCH   4   7
ENDBRANCH   2   3
ENDBRANCH   1   2
BRANCH   1  39
ATOM     39  C   UNL A   1      32.463  29.225  25.891  1.00  0.00     0.002 C 
BRANCH  39  40
ATOM     40  C   UNL A   1      31.621  30.488  25.666  1.00  0.00     0.002 C 
BRANCH  40  41
ATOM     41  C   UNL A   1      31.512  31.391  26.897  1.00  0.00     0.021 C 
BRANCH  41  42
ATOM     42  C   UNL A   1      32.784  32.178  27.173  1.00  0.00     0.116 C 
BRANCH  42  43
ATOM     43  N   UNL A   1      32.488  33.566  27.498  1.00  0.00    -0.352 N 
ATOM     44  C   UNL A   1      33.103  34.389  28.411  1.00  0.00     0.251 C 
ATOM     45  H   UNL A   1      31.745  33.970  26.995  1.00  0.00     0.163 HD
ATOM     46  O   UNL A   1      32.591  35.437  28.759  1.00  0.00    -0.269 OA
BRANCH  44  47
ATOM     47  C   UNL A   1      34.397  33.956  28.975  1.00  0.00     0.039 A 
ATOM     48  C   UNL A   1      35.580  34.263  28.302  1.00  0.00     0.014 A 
ATOM     49  C   UNL A   1      34.416  33.198  30.146  1.00  0.00     0.014 A 
ATOM     50  C   UNL A   1      36.763  33.658  28.697  1.00  0.00     0.010 A 
ATOM     51  C   UNL A   1      35.628  32.678  30.602  1.00  0.00     0.010 A 
ATOM     52  C   UNL A   1      36.801  32.863  29.854  1.00  0.00    -0.014 A 
BRANCH  52  53
ATOM     53  C   UNL A   1      38.085  32.246  30.262  1.00  0.00     0.031 A 
ATOM     54  C   UNL A   1      38.954  32.892  31.305  1.00  0.00     0.074 A 
ATOM     55  C   UNL A   1      38.439  31.066  29.719  1.00  0.00     0.049 A 
ATOM     56  N   UNL A   1      40.099  32.477  31.788  1.00  0.00    -0.248 NA
ATOM     57  C   UNL A   1      38.490  34.164  31.880  1.00  0.00     0.031 C 
ATOM     58  C   UNL A   1      37.660  30.336  28.715  1.00  0.00     0.029 A 
ATOM     59  N   UNL A   1      39.523  30.258  29.948  1.00  0.00    -0.354 N 
ATOM     60  C   UNL A   1      40.501  33.447  32.698  1.00  0.00     0.074 A 
ATOM     61  C   UNL A   1      39.494  34.484  32.684  1.00  0.00     0.031 C 
ATOM     62  C   UNL A   1      38.259  29.167  28.460  1.00  0.00     0.029 A 
ATOM     63  C   UNL A   1      39.505  29.098  29.215  1.00  0.00     0.049 A 
ATOM     64  H   UNL A   1      40.244  30.488  30.578  1.00  0.00     0.167 HD
ATOM     65  C   UNL A   1      41.605  33.460  33.479  1.00  0.00     0.031 A 
ATOM     66  C   UNL A   1      40.399  28.093  29.135  1.00  0.00     0.031 A 
ATOM     67  C   UNL A   1      42.591  32.410  33.496  1.00  0.00     0.049 A 
ATOM     68  C   UNL A   1      41.638  28.155  29.977  1.00  0.00     0.074 A 
ATOM     69  C   UNL A   1      43.724  32.316  34.285  1.00  0.00     0.029 A 
ATOM     70  N   UNL A   1      42.566  31.279  32.694  1.00  0.00    -0.354 N 
ATOM     71  N   UNL A   1      41.991  29.066  30.852  1.00  0.00    -0.248 NA
ATOM     72  C   UNL A   1      42.601  27.056  29.829  1.00  0.00     0.031 C 
ATOM     73  C   UNL A   1      44.427  31.172  33.902  1.00  0.00     0.029 A 
ATOM     74  C   UNL A   1      43.686  30.504  32.940  1.00  0.00     0.049 A 
ATOM     75  H   UNL A   1      41.857  31.062  32.046  1.00  0.00     0.167 HD
ATOM     76  C   UNL A   1      43.208  28.644  31.369  1.00  0.00     0.074 A 
ATOM     77  C   UNL A   1      43.522  27.384  30.726  1.00  0.00     0.031 C 
ATOM     78  C   UNL A   1      43.992  29.252  32.292  1.00  0.00     0.031 A 
BRANCH  65  79
ATOM     79  C   UNL A   1      41.836  34.647  34.377  1.00  0.00    -0.014 A 
ATOM     80  C   UNL A   1      42.616  35.721  33.917  1.00  0.00     0.009 A 
ATOM     81  C   UNL A   1      41.386  34.658  35.706  1.00  0.00     0.009 A 
ATOM     82  C   UNL A   1      42.961  36.768  34.772  1.00  0.00     0.001 A 
ATOM     83  C   UNL A   1      41.705  35.725  36.551  1.00  0.00     0.001 A 
ATOM     84  C   UNL A   1      42.503  36.772  36.088  1.00  0.00     0.000 A 
ENDBRANCH  65  79
BRANCH  66  85
ATOM     85  C   UNL A   1      40.122  26.956  28.216  1.00  0.00    -0.014 A 
ATOM     86  C   UNL A   1      39.396  25.840  28.666  1.00  0.00     0.009 A 
ATOM     87  C   UNL A   1      40.656  26.937  26.921  1.00  0.00     0.009 A 
ATOM     88  C   UNL A   1      39.250  24.712  27.857  1.00  0.00     0.001 A 
ATOM     89  C   UNL A   1      40.476  25.821  26.099  1.00  0.00     0.001 A 
ATOM     90  C   UNL A   1      39.788  24.705  26.573  1.00  0.00     0.000 A 
ENDBRANCH  66  85
BRANCH  78  91
ATOM     91  C   UNL A   1      45.275  28.573  32.688  1.00  0.00    -0.014 A 
ATOM     92  C   UNL A   1      45.291  27.710  33.797  1.00  0.00     0.009 A 
ATOM     93  C   UNL A   1      46.485  28.881  32.050  1.00  0.00     0.009 A 
ATOM     94  C   UNL A   1      46.495  27.193  34.276  1.00  0.00     0.001 A 
ATOM     95  C   UNL A   1      47.685  28.333  32.510  1.00  0.00     0.001 A 
ATOM     96  C   UNL A   1      47.690  27.503  33.630  1.00  0.00     0.000 A 
ENDBRANCH  78  91
ENDBRANCH  52  53
ENDBRANCH  44  47
ENDBRANCH  42  43
ENDBRANCH  41  42
ENDBRANCH  40  41
ENDBRANCH  39  40
ENDBRANCH   1  39
TORSDOF 19
ENDMDL
MODEL 2
REMARK VINA RESULT:     -12.6      0.341      5.429
REMARK SMILES COc1cc(C)cc2c1[C@@H](C)[C@@H](CC(=O)N[C@@H](Cc1c[nH]c3ccccc13)C(=O)NCCCCCCNC(=O)c1ccc(-c3c4nc(c(-c5ccccc5)c5ccc([nH]5)c(-c5ccccc5)c5nc(c(-c6ccccc6)c6ccc3[nH]6)C=C5)C=C4)cc1)C(=O)O2
REMARK SMILES IDX 32 1 31 2 30 3 28 4 29 5 17 7 16 8 14 9 15 10 13 12 12 13
REMARK SMILES IDX 3 14 4 15 9 16 5 17 8 18 10 19 6 20 7 21 90 22 11 23 88 24
REMARK SMILES IDX 89 25 2 26 1 27 18 28 19 29 20 30 27 31 21 32 22 33 26 34
REMARK SMILES IDX 23 36 25 37 24 38 33 39 34 40 35 41 36 42 37 43 38 44 39 46
REMARK SMILES IDX 40 47 41 48 87 49 42 50 86 51 43 52 44 53 45 54 80 55 46 56
REMARK SMILES IDX 85 57 79 58 81 59 47 60 84 61 78 62 77 63 48 65 70 66 55 67
REMARK SMILES IDX 69 68 56 69 59 70 68 71 82 72 57 73 58 74 67 76 83 77 60 78
REMARK SMILES IDX 49 79 50 80 54 81 51 82 53 83 52 84 71 85 72 86 76 87 73 88
REMARK SMILES IDX 75 89 74 90 61 91 62 92 66 93 63 94 65 95 64 96
REMARK H PARENT 30 6 16 11 21 35 37 45 81 64 59 75
REMARK Flexibility Score: inf
ROOT
ATOM      1  C   UNL A   1      32.546  28.405  27.112  1.00  0.00     0.021 C 
ENDROOT
BRANCH   1   2
ATOM      2  C   UNL A   1      32.575  27.010  26.501  1.00  0.00     0.116 C 
BRANCH   2   3
ATOM      3  N   UNL A   1      31.340  26.334  26.780  1.00  0.00    -0.354 N 
ATOM      4  C   UNL A   1      30.508  25.717  25.909  1.00  0.00     0.242 C 
ATOM      5  O   UNL A   1      29.352  25.513  26.303  1.00  0.00    -0.273 OA
ATOM      6  H   UNL A   1      31.063  26.315  27.725  1.00  0.00     0.163 HD
BRANCH   4   7
ATOM      7  C   UNL A   1      30.939  25.246  24.502  1.00  0.00     0.175 C 
BRANCH   7   8
ATOM      8  N   UNL A   1      30.974  23.819  24.262  1.00  0.00    -0.344 N 
ATOM      9  C   UNL A   1      32.020  23.146  23.690  1.00  0.00     0.221 C 
ATOM     10  O   UNL A   1      31.794  22.163  22.989  1.00  0.00    -0.275 OA
ATOM     11  H   UNL A   1      30.186  23.291  24.530  1.00  0.00     0.164 HD
BRANCH   9  12
ATOM     12  C   UNL A   1      33.443  23.550  24.067  1.00  0.00     0.116 C 
BRANCH  12  13
ATOM     13  C   UNL A   1      33.843  23.601  25.565  1.00  0.00     0.116 C 
ATOM     14  C   UNL A   1      36.208  20.655  25.160  1.00  0.00     0.126 A 
ATOM     15  C   UNL A   1      35.988  19.347  24.695  1.00  0.00     0.050 A 
ATOM     16  C   UNL A   1      35.129  21.466  25.519  1.00  0.00     0.041 A 
ATOM     17  C   UNL A   1      34.691  18.818  24.595  1.00  0.00    -0.044 A 
ATOM     18  C   UNL A   1      33.864  20.856  25.559  1.00  0.00     0.138 A 
ATOM     19  C   UNL A   1      35.222  22.950  25.862  1.00  0.00     0.038 C 
ATOM     20  C   UNL A   1      34.465  17.439  24.053  1.00  0.00     0.044 C 
ATOM     21  C   UNL A   1      33.626  19.572  25.074  1.00  0.00     0.051 A 
ATOM     22  O   UNL A   1      32.763  21.498  26.144  1.00  0.00    -0.426 OA
ATOM     23  C   UNL A   1      36.331  23.751  25.169  1.00  0.00     0.014 C 
ATOM     24  C   UNL A   1      32.946  22.819  26.498  1.00  0.00     0.315 C 
ATOM     25  O   UNL A   1      32.408  23.297  27.490  1.00  0.00    -0.251 OA
BRANCH  14  26
ATOM     26  O   UNL A   1      37.461  21.138  25.409  1.00  0.00    -0.496 OA
ATOM     27  C   UNL A   1      38.498  20.167  25.359  1.00  0.00     0.278 C 
ENDBRANCH  14  26
ENDBRANCH  12  13
ENDBRANCH   9  12
ENDBRANCH   7   8
BRANCH   7  28
ATOM     28  C   UNL A   1      30.706  26.051  23.232  1.00  0.00     0.072 C 
BRANCH  28  29
ATOM     29  C   UNL A   1      30.540  27.538  23.065  1.00  0.00    -0.020 A 
ATOM     30  C   UNL A   1      31.678  28.272  22.748  1.00  0.00     0.087 A 
ATOM     31  C   UNL A   1      29.439  28.469  22.984  1.00  0.00     0.003 A 
ATOM     32  N   UNL A   1      31.284  29.438  22.177  1.00  0.00    -0.361 N 
ATOM     33  C   UNL A   1      29.965  29.660  22.460  1.00  0.00     0.046 A 
ATOM     34  C   UNL A   1      28.048  28.468  23.238  1.00  0.00     0.010 A 
ATOM     35  H   UNL A   1      31.860  30.031  21.641  1.00  0.00     0.166 HD
ATOM     36  C   UNL A   1      29.216  30.820  22.228  1.00  0.00     0.026 A 
ATOM     37  C   UNL A   1      27.285  29.636  23.047  1.00  0.00     0.001 A 
ATOM     38  C   UNL A   1      27.867  30.800  22.562  1.00  0.00     0.002 A 
ENDBRANCH  28  29
ENDBRANCH   7  28
ENDBRANCH   4   7
ENDBRANCH   2   3
ENDBRANCH   1   2
BRANCH   1  39
ATOM     39  C   UNL A   1      32.902  29.481  26.084  1.00  0.00     0.002 C 
BRANCH  39  40
ATOM     40  C   UNL A   1      31.750  30.445  25.769  1.00  0.00     0.002 C 
BRANCH  40  41
ATOM     41  C   UNL A   1      31.520  31.512  26.842  1.00  0.00     0.021 C 
BRANCH  41  42
ATOM     42  C   UNL A   1      32.795  32.238  27.242  1.00  0.00     0.116 C 
BRANCH  42  43
ATOM     43  N   UNL A   1      32.533  33.636  27.553  1.00  0.00    -0.352 N 
ATOM     44  C   UNL A   1      33.152  34.447  28.475  1.00  0.00     0.251 C 
ATOM     45  H   UNL A   1      31.814  34.059  27.032  1.00  0.00     0.163 HD
ATOM     46  O   UNL A   1      32.663  35.511  28.807  1.00  0.00    -0.269 OA
BRANCH  44  47
ATOM     47  C   UNL A   1      34.420  33.980  29.071  1.00  0.00     0.039 A 
ATOM     48  C   UNL A   1      35.626  34.245  28.422  1.00  0.00     0.014 A 
ATOM     49  C   UNL A   1      34.391  33.230  30.247  1.00  0.00     0.014 A 
ATOM     50  C   UNL A   1      36.781  33.608  28.846  1.00  0.00     0.010 A 
ATOM     51  C   UNL A   1      35.576  32.677  30.733  1.00  0.00     0.010 A 
ATOM     52  C   UNL A   1      36.771  32.822  30.009  1.00  0.00    -0.014 A 
BRANCH  52  53
ATOM     53  C   UNL A   1      38.027  32.170  30.449  1.00  0.00     0.031 A 
ATOM     54  C   UNL A   1      38.486  30.880  29.829  1.00  0.00     0.074 A 
ATOM     55  C   UNL A   1      38.781  32.780  31.384  1.00  0.00     0.049 A 
ATOM     56  N   UNL A   1      39.565  30.186  30.087  1.00  0.00    -0.248 NA
ATOM     57  C   UNL A   1      37.628  30.286  28.791  1.00  0.00     0.031 C 
ATOM     58  C   UNL A   1      38.445  34.048  32.037  1.00  0.00     0.029 A 
ATOM     59  N   UNL A   1      39.992  32.438  31.927  1.00  0.00    -0.354 N 
ATOM     60  C   UNL A   1      39.503  29.066  29.267  1.00  0.00     0.074 A 
ATOM     61  C   UNL A   1      38.268  29.156  28.520  1.00  0.00     0.031 C 
ATOM     62  C   UNL A   1      39.450  34.404  32.845  1.00  0.00     0.029 A 
ATOM     63  C   UNL A   1      40.463  33.354  32.835  1.00  0.00     0.049 A 
ATOM     64  H   UNL A   1      40.478  31.615  31.689  1.00  0.00     0.167 HD
ATOM     65  C   UNL A   1      40.401  28.062  29.145  1.00  0.00     0.031 A 
ATOM     66  C   UNL A   1      41.573  33.348  33.596  1.00  0.00     0.031 A 
ATOM     67  C   UNL A   1      41.636  27.995  29.881  1.00  0.00     0.049 A 
ATOM     68  C   UNL A   1      42.531  32.200  33.475  1.00  0.00     0.074 A 
ATOM     69  C   UNL A   1      42.631  27.036  29.794  1.00  0.00     0.029 A 
ATOM     70  N   UNL A   1      42.048  28.913  30.835  1.00  0.00    -0.354 N 
ATOM     71  N   UNL A   1      42.470  31.162  32.676  1.00  0.00    -0.248 NA
ATOM     72  C   UNL A   1      43.709  32.218  34.352  1.00  0.00     0.031 C 
ATOM     73  C   UNL A   1      43.602  27.329  30.754  1.00  0.00     0.029 A 
ATOM     74  C   UNL A   1      43.261  28.520  31.374  1.00  0.00     0.049 A 
ATOM     75  H   UNL A   1      41.550  29.723  31.092  1.00  0.00     0.167 HD
ATOM     76  C   UNL A   1      43.606  30.411  32.942  1.00  0.00     0.074 A 
ATOM     77  C   UNL A   1      44.350  31.124  33.961  1.00  0.00     0.031 C 
ATOM     78  C   UNL A   1      43.993  29.235  32.391  1.00  0.00     0.031 A 
BRANCH  65  79
ATOM     79  C   UNL A   1      40.094  26.934  28.195  1.00  0.00    -0.014 A 
ATOM     80  C   UNL A   1      39.356  25.829  28.651  1.00  0.00     0.009 A 
ATOM     81  C   UNL A   1      40.623  26.906  26.896  1.00  0.00     0.009 A 
ATOM     82  C   UNL A   1      39.174  24.710  27.836  1.00  0.00     0.001 A 
ATOM     83  C   UNL A   1      40.411  25.798  26.071  1.00  0.00     0.001 A 
ATOM     84  C   UNL A   1      39.699  24.696  26.545  1.00  0.00     0.000 A 
ENDBRANCH  65  79
BRANCH  66  85
ATOM     85  C   UNL A   1      41.813  34.483  34.528  1.00  0.00    -0.014 A 
ATOM     86  C   UNL A   1      41.297  34.450  35.835  1.00  0.00     0.009 A 
ATOM     87  C   UNL A   1      42.476  35.638  34.091  1.00  0.00     0.009 A 
ATOM     88  C   UNL A   1      41.398  35.565  36.669  1.00  0.00     0.001 A 
ATOM     89  C   UNL A   1      42.609  36.740  34.942  1.00  0.00     0.001 A 
ATOM     90  C   UNL A   1      42.057  36.708  36.222  1.00  0.00     0.000 A 
ENDBRANCH  66  85
BRANCH  78  91
ATOM     91  C   UNL A   1      45.287  28.626  32.858  1.00  0.00    -0.014 A 
ATOM     92  C   UNL A   1      46.472  28.886  32.149  1.00  0.00     0.009 A 
ATOM     93  C   UNL A   1      45.314  27.702  33.912  1.00  0.00     0.009 A 
ATOM     94  C   UNL A   1      47.651  28.211  32.469  1.00  0.00     0.001 A 
ATOM     95  C   UNL A   1      46.505  27.055  34.253  1.00  0.00     0.001 A 
ATOM     96  C   UNL A   1      47.666  27.299  33.522  1.00  0.00     0.000 A 
ENDBRANCH  78  91
ENDBRANCH  52  53
ENDBRANCH  44  47
ENDBRANCH  42  43
ENDBRANCH  41  42
ENDBRANCH  40  41
ENDBRANCH  39  40
ENDBRANCH   1  39
TORSDOF 19
ENDMDL
MODEL 3
REMARK VINA RESULT:     -12.6      2.956      7.884
REMARK SMILES COc1cc(C)cc2c1[C@@H](C)[C@@H](CC(=O)N[C@@H](Cc1c[nH]c3ccccc13)C(=O)NCCCCCCNC(=O)c1ccc(-c3c4nc(c(-c5ccccc5)c5ccc([nH]5)c(-c5ccccc5)c5nc(c(-c6ccccc6)c6ccc3[nH]6)C=C5)C=C4)cc1)C(=O)O2
REMARK SMILES IDX 32 1 31 2 30 3 28 4 29 5 17 7 16 8 14 9 15 10 13 12 12 13
REMARK SMILES IDX 3 14 4 15 9 16 5 17 8 18 10 19 6 20 7 21 90 22 11 23 88 24
REMARK SMILES IDX 89 25 2 26 1 27 18 28 19 29 20 30 27 31 21 32 22 33 26 34
REMARK SMILES IDX 23 36 25 37 24 38 33 39 34 40 35 41 36 42 37 43 38 44 39 46
REMARK SMILES IDX 40 47 41 48 87 49 42 50 86 51 43 52 44 53 45 54 80 55 46 56
REMARK SMILES IDX 85 57 79 58 81 59 47 60 84 61 78 62 77 63 48 65 70 66 55 67
REMARK SMILES IDX 69 68 56 69 59 70 68 71 82 72 57 73 58 74 67 76 83 77 60 78
REMARK SMILES IDX 49 79 50 80 54 81 51 82 53 83 52 84 71 85 72 86 76 87 73 88
REMARK SMILES IDX 75 89 74 90 61 91 62 92 66 93 63 94 65 95 64 96
REMARK H PARENT 30 6 16 11 21 35 37 45 81 64 59 75
REMARK Flexibility Score: inf
ROOT
ATOM      1  C   UNL A   1      36.061  23.590  24.237  1.00  0.00     0.021 C 
ENDROOT
BRANCH   1   2
ATOM      2  C   UNL A   1      34.633  23.687  23.718  1.00  0.00     0.116 C 
BRANCH   2   3
ATOM      3  N   UNL A   1      34.576  24.615  22.624  1.00  0.00    -0.354 N 
ATOM      4  C   UNL A   1      33.636  25.554  22.371  1.00  0.00     0.242 C 
ATOM      5  O   UNL A   1      33.595  25.994  21.214  1.00  0.00    -0.273 OA
ATOM      6  H   UNL A   1      35.316  24.563  21.976  1.00  0.00     0.163 HD
BRANCH   4   7
ATOM      7  C   UNL A   1      32.665  26.103  23.440  1.00  0.00     0.175 C 
BRANCH   7   8
ATOM      8  N   UNL A   1      33.250  26.734  24.606  1.00  0.00    -0.344 N 
ATOM      9  C   UNL A   1      33.101  26.290  25.893  1.00  0.00     0.221 C 
ATOM     10  O   UNL A   1      33.066  27.107  26.811  1.00  0.00    -0.275 OA
ATOM     11  H   UNL A   1      33.795  27.541  24.463  1.00  0.00     0.164 HD
BRANCH   9  12
ATOM     12  C   UNL A   1      33.135  24.788  26.158  1.00  0.00     0.116 C 
BRANCH  12  13
ATOM     13  C   UNL A   1      31.955  24.128  26.920  1.00  0.00     0.116 C 
ATOM     14  C   UNL A   1      32.479  20.824  25.118  1.00  0.00     0.126 A 
ATOM     15  C   UNL A   1      32.493  20.507  23.749  1.00  0.00     0.050 A 
ATOM     16  C   UNL A   1      31.954  22.042  25.554  1.00  0.00     0.041 A 
ATOM     17  C   UNL A   1      31.971  21.391  22.791  1.00  0.00    -0.044 A 
ATOM     18  C   UNL A   1      31.298  22.829  24.592  1.00  0.00     0.138 A 
ATOM     19  C   UNL A   1      32.045  22.578  26.980  1.00  0.00     0.038 C 
ATOM     20  C   UNL A   1      32.034  21.062  21.330  1.00  0.00     0.044 C 
ATOM     21  C   UNL A   1      31.329  22.543  23.230  1.00  0.00     0.051 A 
ATOM     22  O   UNL A   1      30.520  23.936  24.963  1.00  0.00    -0.426 OA
ATOM     23  C   UNL A   1      33.274  22.163  27.797  1.00  0.00     0.014 C 
ATOM     24  C   UNL A   1      30.595  24.315  26.287  1.00  0.00     0.315 C 
ATOM     25  O   UNL A   1      29.623  24.772  26.878  1.00  0.00    -0.251 OA
BRANCH  14  26
ATOM     26  O   UNL A   1      32.842  19.922  26.078  1.00  0.00    -0.496 OA
ATOM     27  C   UNL A   1      32.887  18.570  25.643  1.00  0.00     0.278 C 
ENDBRANCH  14  26
ENDBRANCH  12  13
ENDBRANCH   9  12
ENDBRANCH   7   8
BRANCH   7  28
ATOM     28  C   UNL A   1      31.268  26.620  23.130  1.00  0.00     0.072 C 
BRANCH  28  29
ATOM     29  C   UNL A   1      30.817  28.026  22.839  1.00  0.00    -0.020 A 
ATOM     30  C   UNL A   1      31.770  28.908  22.342  1.00  0.00     0.087 A 
ATOM     31  C   UNL A   1      29.559  28.734  22.778  1.00  0.00     0.003 A 
ATOM     32  N   UNL A   1      31.122  29.915  21.704  1.00  0.00    -0.361 N 
ATOM     33  C   UNL A   1      29.811  29.933  22.093  1.00  0.00     0.046 A 
ATOM     34  C   UNL A   1      28.217  28.517  23.167  1.00  0.00     0.010 A 
ATOM     35  H   UNL A   1      31.534  30.536  21.060  1.00  0.00     0.166 HD
ATOM     36  C   UNL A   1      28.844  30.909  21.826  1.00  0.00     0.026 A 
ATOM     37  C   UNL A   1      27.238  29.504  22.942  1.00  0.00     0.001 A 
ATOM     38  C   UNL A   1      27.554  30.690  22.292  1.00  0.00     0.002 A 
ENDBRANCH  28  29
ENDBRANCH   7  28
ENDBRANCH   4   7
ENDBRANCH   2   3
ENDBRANCH   1   2
BRANCH   1  39
ATOM     39  C   UNL A   1      36.714  22.260  23.854  1.00  0.00     0.002 C 
BRANCH  39  40
ATOM     40  C   UNL A   1      36.588  21.174  24.930  1.00  0.00     0.002 C 
BRANCH  40  41
ATOM     41  C   UNL A   1      37.716  20.140  24.906  1.00  0.00     0.021 C 
BRANCH  41  42
ATOM     42  C   UNL A   1      38.941  20.575  25.696  1.00  0.00     0.116 C 
BRANCH  42  43
ATOM     43  N   UNL A   1      39.917  19.499  25.796  1.00  0.00    -0.352 N 
ATOM     44  C   UNL A   1      41.260  19.575  26.076  1.00  0.00     0.251 C 
ATOM     45  H   UNL A   1      39.566  18.593  25.642  1.00  0.00     0.163 HD
ATOM     46  O   UNL A   1      42.000  18.630  25.875  1.00  0.00    -0.269 OA
BRANCH  44  47
ATOM     47  C   UNL A   1      41.788  20.848  26.609  1.00  0.00     0.039 A 
ATOM     48  C   UNL A   1      41.749  21.089  27.982  1.00  0.00     0.014 A 
ATOM     49  C   UNL A   1      42.267  21.816  25.726  1.00  0.00     0.014 A 
ATOM     50  C   UNL A   1      42.017  22.363  28.457  1.00  0.00     0.010 A 
ATOM     51  C   UNL A   1      42.639  23.066  26.221  1.00  0.00     0.010 A 
ATOM     52  C   UNL A   1      42.470  23.364  27.583  1.00  0.00    -0.014 A 
BRANCH  52  53
ATOM     53  C   UNL A   1      42.768  24.712  28.123  1.00  0.00     0.031 A 
ATOM     54  C   UNL A   1      44.179  25.118  28.448  1.00  0.00     0.074 A 
ATOM     55  C   UNL A   1      41.757  25.589  28.272  1.00  0.00     0.049 A 
ATOM     56  N   UNL A   1      44.614  26.262  28.913  1.00  0.00    -0.248 NA
ATOM     57  C   UNL A   1      45.238  24.120  28.230  1.00  0.00     0.031 C 
ATOM     58  C   UNL A   1      40.352  25.310  27.965  1.00  0.00     0.029 A 
ATOM     59  N   UNL A   1      41.752  26.895  28.689  1.00  0.00    -0.354 N 
ATOM     60  C   UNL A   1      45.987  26.111  29.068  1.00  0.00     0.074 A 
ATOM     61  C   UNL A   1      46.312  24.759  28.673  1.00  0.00     0.031 C 
ATOM     62  C   UNL A   1      39.634  26.424  28.147  1.00  0.00     0.029 A 
ATOM     63  C   UNL A   1      40.507  27.472  28.664  1.00  0.00     0.049 A 
ATOM     64  H   UNL A   1      42.563  27.372  28.979  1.00  0.00     0.167 HD
ATOM     65  C   UNL A   1      46.890  27.025  29.491  1.00  0.00     0.031 A 
ATOM     66  C   UNL A   1      40.099  28.701  29.035  1.00  0.00     0.031 A 
ATOM     67  C   UNL A   1      46.555  28.375  29.863  1.00  0.00     0.049 A 
ATOM     68  C   UNL A   1      41.115  29.680  29.545  1.00  0.00     0.074 A 
ATOM     69  C   UNL A   1      47.409  29.387  30.267  1.00  0.00     0.029 A 
ATOM     70  N   UNL A   1      45.272  28.902  29.881  1.00  0.00    -0.354 N 
ATOM     71  N   UNL A   1      42.412  29.531  29.661  1.00  0.00    -0.248 NA
ATOM     72  C   UNL A   1      40.618  30.994  29.972  1.00  0.00     0.031 C 
ATOM     73  C   UNL A   1      46.636  30.498  30.607  1.00  0.00     0.029 A 
ATOM     74  C   UNL A   1      45.309  30.212  30.328  1.00  0.00     0.049 A 
ATOM     75  H   UNL A   1      44.458  28.417  29.615  1.00  0.00     0.167 HD
ATOM     76  C   UNL A   1      42.889  30.735  30.159  1.00  0.00     0.074 A 
ATOM     77  C   UNL A   1      41.745  31.611  30.304  1.00  0.00     0.031 C 
ATOM     78  C   UNL A   1      44.163  31.077  30.472  1.00  0.00     0.031 A 
BRANCH  65  79
ATOM     79  C   UNL A   1      48.334  26.611  29.599  1.00  0.00    -0.014 A 
ATOM     80  C   UNL A   1      49.184  26.775  28.493  1.00  0.00     0.009 A 
ATOM     81  C   UNL A   1      48.827  25.960  30.740  1.00  0.00     0.009 A 
ATOM     82  C   UNL A   1      50.488  26.277  28.517  1.00  0.00     0.001 A 
ATOM     83  C   UNL A   1      50.143  25.492  30.774  1.00  0.00     0.001 A 
ATOM     84  C   UNL A   1      50.968  25.638  29.658  1.00  0.00     0.000 A 
ENDBRANCH  65  79
BRANCH  66  85
ATOM     85  C   UNL A   1      38.657  29.044  28.921  1.00  0.00    -0.014 A 
ATOM     86  C   UNL A   1      38.146  29.581  27.726  1.00  0.00     0.009 A 
ATOM     87  C   UNL A   1      37.804  28.925  30.027  1.00  0.00     0.009 A 
ATOM     88  C   UNL A   1      36.827  30.033  27.655  1.00  0.00     0.001 A 
ATOM     89  C   UNL A   1      36.473  29.344  29.941  1.00  0.00     0.001 A 
ATOM     90  C   UNL A   1      35.991  29.911  28.762  1.00  0.00     0.000 A 
ENDBRANCH  66  85
BRANCH  78  91
ATOM     91  C   UNL A   1      44.415  32.464  30.996  1.00  0.00    -0.014 A 
ATOM     92  C   UNL A   1      44.749  33.495  30.101  1.00  0.00     0.009 A 
ATOM     93  C   UNL A   1      44.448  32.724  32.374  1.00  0.00     0.009 A 
ATOM     94  C   UNL A   1      45.138  34.748  30.576  1.00  0.00     0.001 A 
ATOM     95  C   UNL A   1      44.803  33.990  32.845  1.00  0.00     0.001 A 
ATOM     96  C   UNL A   1      45.162  34.994  31.947  1.00  0.00     0.000 A 
ENDBRANCH  78  91
ENDBRANCH  52  53
ENDBRANCH  44  47
ENDBRANCH  42  43
ENDBRANCH  41  42
ENDBRANCH  40  41
ENDBRANCH  39  40
ENDBRANCH   1  39
TORSDOF 19
ENDMDL
