MODEL 1
REMARK VINA RESULT:     -11.4      0.000      0.000
REMARK SMILES Cc1ccc(N)cc1S(=O)(=O)Nc1cccc(C(=O)NCCCCCCNC(=O)c2ccc(-c3c4nc(c(-c5ccccc5)c5ccc([nH]5)c(-c5ccccc5)c5nc(c(-c6ccccc6)c6ccc3[nH]6)C=C5)C=C4)cc2)c1
REMARK SMILES IDX 22 1 21 2 20 3 18 4 19 5 17 7 13 8 14 9 78 10 15 11 16 12
REMARK SMILES IDX 12 13 9 15 10 16 11 17 8 18 1 19 2 20 3 21 4 22 7 23 5 24
REMARK SMILES IDX 6 25 23 28 24 29 25 30 26 31 27 32 28 33 29 35 30 36 31 37
REMARK SMILES IDX 77 38 32 39 76 40 33 41 34 42 35 43 70 44 36 45 75 46 69 47
REMARK SMILES IDX 71 48 37 49 74 50 68 51 67 52 38 54 60 55 45 56 59 57 46 58
REMARK SMILES IDX 49 59 58 60 72 61 47 62 48 63 57 65 73 66 50 67 39 68 40 69
REMARK SMILES IDX 44 70 41 71 43 72 42 73 61 74 62 75 66 76 63 77 65 78 64 79
REMARK SMILES IDX 51 80 52 81 56 82 53 83 55 84 54 85
REMARK H PARENT 20 6 12 14 6 26 6 27 27 34 71 53 49 64
REMARK Flexibility Score: inf
ROOT
ATOM      1  C   UNL A   1      34.961  24.543  26.041  1.00  0.00     0.021 C 
ENDROOT
BRANCH   1   2
ATOM      2  C   UNL A   1      34.738  23.284  26.881  1.00  0.00     0.116 C 
BRANCH   2   3
ATOM      3  N   UNL A   1      35.526  22.191  26.342  1.00  0.00    -0.352 N 
ATOM      4  C   UNL A   1      35.272  21.224  25.404  1.00  0.00     0.251 C 
ATOM      5  O   UNL A   1      36.141  20.368  25.228  1.00  0.00    -0.269 OA
ATOM      6  H   UNL A   1      36.429  22.132  26.729  1.00  0.00     0.163 HD
BRANCH   4   7
ATOM      7  C   UNL A   1      34.069  21.218  24.522  1.00  0.00     0.041 A 
ATOM      8  C   UNL A   1      32.693  22.154  22.775  1.00  0.00     0.050 A 
ATOM      9  C   UNL A   1      32.056  20.921  22.603  1.00  0.00     0.027 A 
ATOM     10  C   UNL A   1      33.587  22.329  23.828  1.00  0.00     0.040 A 
ATOM     11  C   UNL A   1      32.423  19.831  23.386  1.00  0.00     0.003 A 
ATOM     12  C   UNL A   1      33.457  19.971  24.310  1.00  0.00     0.014 A 
BRANCH   8  13
ATOM     13  N   UNL A   1      32.499  23.116  21.748  1.00  0.00    -0.280 N 
ATOM     14  H   UNL A   1      32.001  22.813  20.954  1.00  0.00     0.180 HD
BRANCH  13  15
ATOM     15  S   UNL A   1      33.016  24.700  21.736  1.00  0.00     0.262 S 
ATOM     16  O   UNL A   1      33.070  25.133  20.350  1.00  0.00    -0.201 OA
ATOM     17  O   UNL A   1      34.202  24.712  22.553  1.00  0.00    -0.201 OA
BRANCH  15  18
ATOM     18  C   UNL A   1      31.858  25.807  22.546  1.00  0.00     0.092 A 
ATOM     19  C   UNL A   1      30.669  24.199  24.201  1.00  0.00     0.046 C 
ATOM     20  C   UNL A   1      30.855  25.492  23.477  1.00  0.00    -0.030 A 
ATOM     21  C   UNL A   1      29.903  26.490  23.777  1.00  0.00     0.007 A 
ATOM     22  C   UNL A   1      30.026  27.795  23.295  1.00  0.00     0.026 A 
ATOM     23  C   UNL A   1      31.988  27.146  22.107  1.00  0.00     0.048 A 
ATOM     24  C   UNL A   1      31.124  28.154  22.529  1.00  0.00     0.033 A 
BRANCH  24  25
ATOM     25  N   UNL A   1      31.264  29.453  22.062  1.00  0.00    -0.399 N 
ATOM     26  H   UNL A   1      32.028  30.000  22.353  1.00  0.00     0.156 HD
ATOM     27  H   UNL A   1      30.599  29.826  21.439  1.00  0.00     0.156 HD
ENDBRANCH  24  25
ENDBRANCH  15  18
ENDBRANCH  13  15
ENDBRANCH   8  13
ENDBRANCH   4   7
ENDBRANCH   2   3
ENDBRANCH   1   2
BRANCH   1  28
ATOM     28  C   UNL A   1      33.702  25.412  25.961  1.00  0.00     0.002 C 
BRANCH  28  29
ATOM     29  C   UNL A   1      33.916  26.763  25.266  1.00  0.00     0.002 C 
BRANCH  29  30
ATOM     30  C   UNL A   1      33.210  27.949  25.929  1.00  0.00     0.021 C 
BRANCH  30  31
ATOM     31  C   UNL A   1      33.792  28.349  27.280  1.00  0.00     0.116 C 
BRANCH  31  32
ATOM     32  N   UNL A   1      33.651  29.776  27.529  1.00  0.00    -0.352 N 
ATOM     33  C   UNL A   1      34.533  30.638  28.127  1.00  0.00     0.251 C 
ATOM     34  H   UNL A   1      32.806  30.177  27.227  1.00  0.00     0.163 HD
ATOM     35  O   UNL A   1      34.183  31.770  28.445  1.00  0.00    -0.269 OA
BRANCH  33  36
ATOM     36  C   UNL A   1      35.913  30.190  28.400  1.00  0.00     0.039 A 
ATOM     37  C   UNL A   1      36.232  29.707  29.672  1.00  0.00     0.014 A 
ATOM     38  C   UNL A   1      36.889  30.258  27.401  1.00  0.00     0.014 A 
ATOM     39  C   UNL A   1      37.524  29.245  29.929  1.00  0.00     0.010 A 
ATOM     40  C   UNL A   1      38.156  29.740  27.641  1.00  0.00     0.010 A 
ATOM     41  C   UNL A   1      38.488  29.239  28.909  1.00  0.00    -0.014 A 
BRANCH  41  42
ATOM     42  C   UNL A   1      39.864  28.743  29.145  1.00  0.00     0.031 A 
ATOM     43  C   UNL A   1      40.897  29.665  29.728  1.00  0.00     0.074 A 
ATOM     44  C   UNL A   1      40.204  27.498  28.763  1.00  0.00     0.049 A 
ATOM     45  N   UNL A   1      42.178  29.465  29.906  1.00  0.00    -0.248 NA
ATOM     46  C   UNL A   1      40.432  30.999  30.139  1.00  0.00     0.031 C 
ATOM     47  C   UNL A   1      39.299  26.515  28.165  1.00  0.00     0.029 A 
ATOM     48  N   UNL A   1      41.414  26.853  28.809  1.00  0.00    -0.354 N 
ATOM     49  C   UNL A   1      42.675  30.655  30.422  1.00  0.00     0.074 A 
ATOM     50  C   UNL A   1      41.567  31.583  30.490  1.00  0.00     0.031 C 
ATOM     51  C   UNL A   1      39.982  25.385  27.918  1.00  0.00     0.029 A 
ATOM     52  C   UNL A   1      41.377  25.579  28.299  1.00  0.00     0.049 A 
ATOM     53  H   UNL A   1      42.231  27.264  29.175  1.00  0.00     0.167 HD
ATOM     54  C   UNL A   1      43.938  30.946  30.816  1.00  0.00     0.031 A 
ATOM     55  C   UNL A   1      42.360  24.673  28.145  1.00  0.00     0.031 A 
ATOM     56  C   UNL A   1      45.035  30.019  30.761  1.00  0.00     0.049 A 
ATOM     57  C   UNL A   1      43.757  25.022  28.577  1.00  0.00     0.074 A 
ATOM     58  C   UNL A   1      46.340  30.199  31.183  1.00  0.00     0.029 A 
ATOM     59  N   UNL A   1      44.952  28.733  30.248  1.00  0.00    -0.354 N 
ATOM     60  N   UNL A   1      44.203  26.136  29.108  1.00  0.00    -0.248 NA
ATOM     61  C   UNL A   1      44.783  23.986  28.395  1.00  0.00     0.031 C 
ATOM     62  C   UNL A   1      47.058  29.035  30.887  1.00  0.00     0.029 A 
ATOM     63  C   UNL A   1      46.187  28.113  30.327  1.00  0.00     0.049 A 
ATOM     64  H   UNL A   1      44.136  28.322  29.881  1.00  0.00     0.167 HD
ATOM     65  C   UNL A   1      45.553  25.923  29.353  1.00  0.00     0.074 A 
ATOM     66  C   UNL A   1      45.852  24.573  28.918  1.00  0.00     0.031 C 
ATOM     67  C   UNL A   1      46.463  26.768  29.895  1.00  0.00     0.031 A 
BRANCH  54  68
ATOM     68  C   UNL A   1      44.192  32.335  31.330  1.00  0.00    -0.014 A 
ATOM     69  C   UNL A   1      44.059  32.644  32.694  1.00  0.00     0.009 A 
ATOM     70  C   UNL A   1      44.574  33.350  30.440  1.00  0.00     0.009 A 
ATOM     71  C   UNL A   1      44.260  33.949  33.147  1.00  0.00     0.001 A 
ATOM     72  C   UNL A   1      44.803  34.648  30.899  1.00  0.00     0.001 A 
ATOM     73  C   UNL A   1      44.634  34.949  32.250  1.00  0.00     0.000 A 
ENDBRANCH  54  68
BRANCH  55  74
ATOM     74  C   UNL A   1      42.052  23.336  27.577  1.00  0.00    -0.014 A 
ATOM     75  C   UNL A   1      41.591  22.305  28.408  1.00  0.00     0.009 A 
ATOM     76  C   UNL A   1      42.206  23.087  26.204  1.00  0.00     0.009 A 
ATOM     77  C   UNL A   1      41.308  21.043  27.880  1.00  0.00     0.001 A 
ATOM     78  C   UNL A   1      41.899  21.831  25.675  1.00  0.00     0.001 A 
ATOM     79  C   UNL A   1      41.457  20.810  26.514  1.00  0.00     0.000 A 
ENDBRANCH  55  74
BRANCH  67  80
ATOM     80  C   UNL A   1      47.856  26.243  30.094  1.00  0.00    -0.014 A 
ATOM     81  C   UNL A   1      48.794  26.247  29.050  1.00  0.00     0.009 A 
ATOM     82  C   UNL A   1      48.249  25.786  31.361  1.00  0.00     0.009 A 
ATOM     83  C   UNL A   1      50.091  25.776  29.267  1.00  0.00     0.001 A 
ATOM     84  C   UNL A   1      49.552  25.341  31.582  1.00  0.00     0.001 A 
ATOM     85  C   UNL A   1      50.470  25.329  30.533  1.00  0.00     0.000 A 
ENDBRANCH  67  80
ENDBRANCH  41  42
ENDBRANCH  33  36
ENDBRANCH  31  32
ENDBRANCH  30  31
ENDBRANCH  29  30
ENDBRANCH  28  29
ENDBRANCH   1  28
TORSDOF 17
ENDMDL
MODEL 2
REMARK VINA RESULT:     -11.4      2.551      7.815
REMARK SMILES Cc1ccc(N)cc1S(=O)(=O)Nc1cccc(C(=O)NCCCCCCNC(=O)c2ccc(-c3c4nc(c(-c5ccccc5)c5ccc([nH]5)c(-c5ccccc5)c5nc(c(-c6ccccc6)c6ccc3[nH]6)C=C5)C=C4)cc2)c1
REMARK SMILES IDX 22 1 21 2 20 3 18 4 19 5 17 7 13 8 14 9 78 10 15 11 16 12
REMARK SMILES IDX 12 13 9 15 10 16 11 17 8 18 1 19 2 20 3 21 4 22 7 23 5 24
REMARK SMILES IDX 6 25 23 28 24 29 25 30 26 31 27 32 28 33 29 35 30 36 31 37
REMARK SMILES IDX 77 38 32 39 76 40 33 41 34 42 35 43 70 44 36 45 75 46 69 47
REMARK SMILES IDX 71 48 37 49 74 50 68 51 67 52 38 54 60 55 45 56 59 57 46 58
REMARK SMILES IDX 49 59 58 60 72 61 47 62 48 63 57 65 73 66 50 67 39 68 40 69
REMARK SMILES IDX 44 70 41 71 43 72 42 73 61 74 62 75 66 76 63 77 65 78 64 79
REMARK SMILES IDX 51 80 52 81 56 82 53 83 55 84 54 85
REMARK H PARENT 20 6 12 14 6 26 6 27 27 34 71 53 49 64
REMARK Flexibility Score: inf
ROOT
ATOM      1  C   UNL A   1      33.631  26.031  22.714  1.00  0.00     0.021 C 
ENDROOT
BRANCH   1   2
ATOM      2  C   UNL A   1      32.599  25.870  21.597  1.00  0.00     0.116 C 
BRANCH   2   3
ATOM      3  N   UNL A   1      31.802  27.079  21.489  1.00  0.00    -0.352 N 
ATOM      4  C   UNL A   1      30.922  27.702  22.336  1.00  0.00     0.251 C 
ATOM      5  O   UNL A   1      30.331  28.693  21.903  1.00  0.00    -0.269 OA
ATOM      6  H   UNL A   1      31.918  27.548  20.632  1.00  0.00     0.163 HD
BRANCH   4   7
ATOM      7  C   UNL A   1      30.730  27.316  23.764  1.00  0.00     0.041 A 
ATOM      8  C   UNL A   1      30.213  25.719  25.498  1.00  0.00     0.050 A 
ATOM      9  C   UNL A   1      30.825  26.541  26.450  1.00  0.00     0.027 A 
ATOM     10  C   UNL A   1      30.042  26.180  24.195  1.00  0.00     0.040 A 
ATOM     11  C   UNL A   1      31.394  27.750  26.065  1.00  0.00     0.003 A 
ATOM     12  C   UNL A   1      31.385  28.112  24.720  1.00  0.00     0.014 A 
BRANCH   8  13
ATOM     13  N   UNL A   1      29.943  24.382  25.894  1.00  0.00    -0.280 N 
ATOM     14  H   UNL A   1      29.087  24.002  25.593  1.00  0.00     0.180 HD
BRANCH  13  15
ATOM     15  S   UNL A   1      30.915  23.383  26.810  1.00  0.00     0.262 S 
ATOM     16  O   UNL A   1      30.045  22.486  27.552  1.00  0.00    -0.201 OA
ATOM     17  O   UNL A   1      31.814  24.269  27.502  1.00  0.00    -0.201 OA
BRANCH  15  18
ATOM     18  C   UNL A   1      31.957  22.326  25.801  1.00  0.00     0.092 A 
ATOM     19  C   UNL A   1      33.730  21.540  27.525  1.00  0.00     0.046 C 
ATOM     20  C   UNL A   1      33.158  21.689  26.154  1.00  0.00    -0.030 A 
ATOM     21  C   UNL A   1      33.928  21.122  25.115  1.00  0.00     0.007 A 
ATOM     22  C   UNL A   1      33.458  21.052  23.803  1.00  0.00     0.026 A 
ATOM     23  C   UNL A   1      31.481  22.201  24.473  1.00  0.00     0.048 A 
ATOM     24  C   UNL A   1      32.188  21.510  23.492  1.00  0.00     0.033 A 
BRANCH  24  25
ATOM     25  N   UNL A   1      31.705  21.426  22.194  1.00  0.00    -0.399 N 
ATOM     26  H   UNL A   1      31.011  22.051  21.886  1.00  0.00     0.156 HD
ATOM     27  H   UNL A   1      32.058  20.740  21.581  1.00  0.00     0.156 HD
ENDBRANCH  24  25
ENDBRANCH  15  18
ENDBRANCH  13  15
ENDBRANCH   8  13
ENDBRANCH   4   7
ENDBRANCH   2   3
ENDBRANCH   1   2
BRANCH   1  28
ATOM     28  C   UNL A   1      33.690  24.800  23.626  1.00  0.00     0.002 C 
BRANCH  28  29
ATOM     29  C   UNL A   1      34.642  24.949  24.819  1.00  0.00     0.002 C 
BRANCH  29  30
ATOM     30  C   UNL A   1      35.875  24.043  24.779  1.00  0.00     0.021 C 
BRANCH  30  31
ATOM     31  C   UNL A   1      36.461  23.723  26.150  1.00  0.00     0.116 C 
BRANCH  31  32
ATOM     32  N   UNL A   1      37.563  22.778  26.060  1.00  0.00    -0.352 N 
ATOM     33  C   UNL A   1      38.898  22.985  26.295  1.00  0.00     0.251 C 
ATOM     34  H   UNL A   1      37.317  21.863  25.794  1.00  0.00     0.163 HD
ATOM     35  O   UNL A   1      39.728  22.137  25.979  1.00  0.00    -0.269 OA
BRANCH  33  36
ATOM     36  C   UNL A   1      39.337  24.247  26.922  1.00  0.00     0.039 A 
ATOM     37  C   UNL A   1      40.028  25.185  26.151  1.00  0.00     0.014 A 
ATOM     38  C   UNL A   1      39.071  24.495  28.272  1.00  0.00     0.014 A 
ATOM     39  C   UNL A   1      40.415  26.398  26.725  1.00  0.00     0.010 A 
ATOM     40  C   UNL A   1      39.401  25.727  28.823  1.00  0.00     0.010 A 
ATOM     41  C   UNL A   1      40.084  26.685  28.058  1.00  0.00    -0.014 A 
BRANCH  41  42
ATOM     42  C   UNL A   1      40.466  27.968  28.693  1.00  0.00     0.031 A 
ATOM     43  C   UNL A   1      41.842  28.129  29.274  1.00  0.00     0.074 A 
ATOM     44  C   UNL A   1      39.557  28.952  28.819  1.00  0.00     0.049 A 
ATOM     45  N   UNL A   1      42.336  29.123  29.969  1.00  0.00    -0.248 NA
ATOM     46  C   UNL A   1      42.779  27.013  29.068  1.00  0.00     0.031 C 
ATOM     47  C   UNL A   1      38.182  28.908  28.319  1.00  0.00     0.029 A 
ATOM     48  N   UNL A   1      39.653  30.179  29.425  1.00  0.00    -0.354 N 
ATOM     49  C   UNL A   1      43.627  28.738  30.306  1.00  0.00     0.074 A 
ATOM     50  C   UNL A   1      43.826  27.407  29.776  1.00  0.00     0.031 C 
ATOM     51  C   UNL A   1      37.570  30.065  28.621  1.00  0.00     0.029 A 
ATOM     52  C   UNL A   1      38.493  30.910  29.372  1.00  0.00     0.049 A 
ATOM     53  H   UNL A   1      40.476  30.506  29.855  1.00  0.00     0.167 HD
ATOM     54  C   UNL A   1      44.568  29.436  30.986  1.00  0.00     0.031 A 
ATOM     55  C   UNL A   1      38.201  32.122  29.882  1.00  0.00     0.031 A 
ATOM     56  C   UNL A   1      44.374  30.764  31.501  1.00  0.00     0.049 A 
ATOM     57  C   UNL A   1      39.256  32.872  30.645  1.00  0.00     0.074 A 
ATOM     58  C   UNL A   1      45.280  31.576  32.159  1.00  0.00     0.029 A 
ATOM     59  N   UNL A   1      43.186  31.474  31.416  1.00  0.00    -0.354 N 
ATOM     60  N   UNL A   1      40.490  32.516  30.916  1.00  0.00    -0.248 NA
ATOM     61  C   UNL A   1      38.881  34.194  31.165  1.00  0.00     0.031 C 
ATOM     62  C   UNL A   1      44.628  32.763  32.509  1.00  0.00     0.029 A 
ATOM     63  C   UNL A   1      43.330  32.709  32.024  1.00  0.00     0.049 A 
ATOM     64  H   UNL A   1      42.362  31.148  30.986  1.00  0.00     0.167 HD
ATOM     65  C   UNL A   1      41.047  33.583  31.609  1.00  0.00     0.074 A 
ATOM     66  C   UNL A   1      40.019  34.600  31.712  1.00  0.00     0.031 C 
ATOM     67  C   UNL A   1      42.299  33.711  32.111  1.00  0.00     0.031 A 
BRANCH  54  68
ATOM     68  C   UNL A   1      45.889  28.758  31.217  1.00  0.00    -0.014 A 
ATOM     69  C   UNL A   1      46.945  28.883  30.300  1.00  0.00     0.009 A 
ATOM     70  C   UNL A   1      46.084  27.985  32.373  1.00  0.00     0.009 A 
ATOM     71  C   UNL A   1      48.151  28.213  30.512  1.00  0.00     0.001 A 
ATOM     72  C   UNL A   1      47.302  27.341  32.598  1.00  0.00     0.001 A 
ATOM     73  C   UNL A   1      48.330  27.445  31.661  1.00  0.00     0.000 A 
ENDBRANCH  54  68
BRANCH  55  74
ATOM     74  C   UNL A   1      36.856  32.711  29.665  1.00  0.00    -0.014 A 
ATOM     75  C   UNL A   1      36.545  33.332  28.446  1.00  0.00     0.009 A 
ATOM     76  C   UNL A   1      35.875  32.649  30.666  1.00  0.00     0.009 A 
ATOM     77  C   UNL A   1      35.284  33.896  28.240  1.00  0.00     0.001 A 
ATOM     78  C   UNL A   1      34.606  33.192  30.448  1.00  0.00     0.001 A 
ATOM     79  C   UNL A   1      34.315  33.821  29.239  1.00  0.00     0.000 A 
ENDBRANCH  55  74
BRANCH  67  80
ATOM     80  C   UNL A   1      42.645  35.012  32.774  1.00  0.00    -0.014 A 
ATOM     81  C   UNL A   1      43.363  36.010  32.095  1.00  0.00     0.009 A 
ATOM     82  C   UNL A   1      42.200  35.263  34.081  1.00  0.00     0.009 A 
ATOM     83  C   UNL A   1      43.652  37.221  32.726  1.00  0.00     0.001 A 
ATOM     84  C   UNL A   1      42.467  36.485  34.699  1.00  0.00     0.001 A 
ATOM     85  C   UNL A   1      43.199  37.460  34.024  1.00  0.00     0.000 A 
ENDBRANCH  67  80
ENDBRANCH  41  42
ENDBRANCH  33  36
ENDBRANCH  31  32
ENDBRANCH  30  31
ENDBRANCH  29  30
ENDBRANCH  28  29
ENDBRANCH   1  28
TORSDOF 17
ENDMDL
MODEL 3
REMARK VINA RESULT:     -11.4      2.681      5.178
REMARK SMILES Cc1ccc(N)cc1S(=O)(=O)Nc1cccc(C(=O)NCCCCCCNC(=O)c2ccc(-c3c4nc(c(-c5ccccc5)c5ccc([nH]5)c(-c5ccccc5)c5nc(c(-c6ccccc6)c6ccc3[nH]6)C=C5)C=C4)cc2)c1
REMARK SMILES IDX 22 1 21 2 20 3 18 4 19 5 17 7 13 8 14 9 78 10 15 11 16 12
REMARK SMILES IDX 12 13 9 15 10 16 11 17 8 18 1 19 2 20 3 21 4 22 7 23 5 24
REMARK SMILES IDX 6 25 23 28 24 29 25 30 26 31 27 32 28 33 29 35 30 36 31 37
REMARK SMILES IDX 77 38 32 39 76 40 33 41 34 42 35 43 70 44 36 45 75 46 69 47
REMARK SMILES IDX 71 48 37 49 74 50 68 51 67 52 38 54 60 55 45 56 59 57 46 58
REMARK SMILES IDX 49 59 58 60 72 61 47 62 48 63 57 65 73 66 50 67 39 68 40 69
REMARK SMILES IDX 44 70 41 71 43 72 42 73 61 74 62 75 66 76 63 77 65 78 64 79
REMARK SMILES IDX 51 80 52 81 56 82 53 83 55 84 54 85
REMARK H PARENT 20 6 12 14 6 26 6 27 27 34 71 53 49 64
REMARK Flexibility Score: inf
ROOT
ATOM      1  C   UNL A   1      32.928  29.127  24.932  1.00  0.00     0.021 C 
ENDROOT
BRANCH   1   2
ATOM      2  C   UNL A   1      33.151  29.186  23.420  1.00  0.00     0.116 C 
BRANCH   2   3
ATOM      3  N   UNL A   1      31.915  29.563  22.758  1.00  0.00    -0.352 N 
ATOM      4  C   UNL A   1      30.846  28.847  22.288  1.00  0.00     0.251 C 
ATOM      5  O   UNL A   1      29.972  29.471  21.684  1.00  0.00    -0.269 OA
ATOM      6  H   UNL A   1      31.827  30.534  22.619  1.00  0.00     0.163 HD
BRANCH   4   7
ATOM      7  C   UNL A   1      30.634  27.395  22.560  1.00  0.00     0.041 A 
ATOM      8  C   UNL A   1      31.349  25.091  22.549  1.00  0.00     0.050 A 
ATOM      9  C   UNL A   1      30.372  24.773  23.498  1.00  0.00     0.027 A 
ATOM     10  C   UNL A   1      31.375  26.362  21.982  1.00  0.00     0.040 A 
ATOM     11  C   UNL A   1      29.526  25.764  23.985  1.00  0.00     0.003 A 
ATOM     12  C   UNL A   1      29.688  27.077  23.549  1.00  0.00     0.014 A 
BRANCH   8  13
ATOM     13  N   UNL A   1      32.367  24.122  22.338  1.00  0.00    -0.280 N 
ATOM     14  H   UNL A   1      32.209  23.473  21.615  1.00  0.00     0.180 HD
BRANCH  13  15
ATOM     15  S   UNL A   1      33.799  23.961  23.177  1.00  0.00     0.262 S 
ATOM     16  O   UNL A   1      34.193  25.285  23.628  1.00  0.00    -0.201 OA
ATOM     17  O   UNL A   1      34.657  23.198  22.307  1.00  0.00    -0.201 OA
BRANCH  15  18
ATOM     18  C   UNL A   1      33.616  22.974  24.665  1.00  0.00     0.092 A 
ATOM     19  C   UNL A   1      32.581  24.694  26.309  1.00  0.00     0.046 C 
ATOM     20  C   UNL A   1      33.202  23.387  25.942  1.00  0.00    -0.030 A 
ATOM     21  C   UNL A   1      33.384  22.485  27.013  1.00  0.00     0.007 A 
ATOM     22  C   UNL A   1      33.815  21.174  26.806  1.00  0.00     0.026 A 
ATOM     23  C   UNL A   1      34.006  21.627  24.474  1.00  0.00     0.048 A 
ATOM     24  C   UNL A   1      34.041  20.708  25.521  1.00  0.00     0.033 A 
BRANCH  24  25
ATOM     25  N   UNL A   1      34.451  19.400  25.306  1.00  0.00    -0.399 N 
ATOM     26  H   UNL A   1      35.323  19.096  25.645  1.00  0.00     0.156 HD
ATOM     27  H   UNL A   1      33.869  18.777  24.814  1.00  0.00     0.156 HD
ENDBRANCH  24  25
ENDBRANCH  15  18
ENDBRANCH  13  15
ENDBRANCH   8  13
ENDBRANCH   4   7
ENDBRANCH   2   3
ENDBRANCH   1   2
BRANCH   1  28
ATOM     28  C   UNL A   1      31.663  29.879  25.358  1.00  0.00     0.002 C 
BRANCH  28  29
ATOM     29  C   UNL A   1      31.729  30.465  26.775  1.00  0.00     0.002 C 
BRANCH  29  30
ATOM     30  C   UNL A   1      31.491  31.974  26.862  1.00  0.00     0.021 C 
BRANCH  30  31
ATOM     31  C   UNL A   1      32.765  32.801  26.999  1.00  0.00     0.116 C 
BRANCH  31  32
ATOM     32  N   UNL A   1      32.517  34.070  27.667  1.00  0.00    -0.352 N 
ATOM     33  C   UNL A   1      33.156  34.612  28.753  1.00  0.00     0.251 C 
ATOM     34  H   UNL A   1      31.791  34.614  27.288  1.00  0.00     0.163 HD
ATOM     35  O   UNL A   1      32.696  35.598  29.321  1.00  0.00    -0.269 OA
BRANCH  33  36
ATOM     36  C   UNL A   1      34.402  33.992  29.244  1.00  0.00     0.039 A 
ATOM     37  C   UNL A   1      34.347  33.140  30.351  1.00  0.00     0.014 A 
ATOM     38  C   UNL A   1      35.622  34.263  28.617  1.00  0.00     0.014 A 
ATOM     39  C   UNL A   1      35.513  32.520  30.801  1.00  0.00     0.010 A 
ATOM     40  C   UNL A   1      36.770  33.595  29.027  1.00  0.00     0.010 A 
ATOM     41  C   UNL A   1      36.728  32.726  30.129  1.00  0.00    -0.014 A 
BRANCH  41  42
ATOM     42  C   UNL A   1      37.981  32.072  30.571  1.00  0.00     0.031 A 
ATOM     43  C   UNL A   1      38.834  32.730  31.619  1.00  0.00     0.074 A 
ATOM     44  C   UNL A   1      38.391  30.935  29.978  1.00  0.00     0.049 A 
ATOM     45  N   UNL A   1      40.016  32.384  32.061  1.00  0.00    -0.248 NA
ATOM     46  C   UNL A   1      38.296  33.956  32.230  1.00  0.00     0.031 C 
ATOM     47  C   UNL A   1      37.665  30.212  28.934  1.00  0.00     0.029 A 
ATOM     48  N   UNL A   1      39.533  30.198  30.164  1.00  0.00    -0.354 N 
ATOM     49  C   UNL A   1      40.374  33.363  32.978  1.00  0.00     0.074 A 
ATOM     50  C   UNL A   1      39.305  34.336  33.000  1.00  0.00     0.031 C 
ATOM     51  C   UNL A   1      38.371  29.123  28.585  1.00  0.00     0.029 A 
ATOM     52  C   UNL A   1      39.614  29.097  29.348  1.00  0.00     0.049 A 
ATOM     53  H   UNL A   1      40.228  30.434  30.820  1.00  0.00     0.167 HD
ATOM     54  C   UNL A   1      41.488  33.438  33.745  1.00  0.00     0.031 A 
ATOM     55  C   UNL A   1      40.588  28.176  29.220  1.00  0.00     0.031 A 
ATOM     56  C   UNL A   1      42.544  32.463  33.733  1.00  0.00     0.049 A 
ATOM     57  C   UNL A   1      41.822  28.288  30.071  1.00  0.00     0.074 A 
ATOM     58  C   UNL A   1      43.690  32.421  34.507  1.00  0.00     0.029 A 
ATOM     59  N   UNL A   1      42.582  31.356  32.899  1.00  0.00    -0.354 N 
ATOM     60  N   UNL A   1      42.127  29.193  30.970  1.00  0.00    -0.248 NA
ATOM     61  C   UNL A   1      42.842  27.245  29.894  1.00  0.00     0.031 C 
ATOM     62  C   UNL A   1      44.443  31.310  34.112  1.00  0.00     0.029 A 
ATOM     63  C   UNL A   1      43.740  30.632  33.128  1.00  0.00     0.049 A 
ATOM     64  H   UNL A   1      41.889  31.119  32.241  1.00  0.00     0.167 HD
ATOM     65  C   UNL A   1      43.357  28.812  31.488  1.00  0.00     0.074 A 
ATOM     66  C   UNL A   1      43.739  27.591  30.808  1.00  0.00     0.031 C 
ATOM     67  C   UNL A   1      44.101  29.416  32.446  1.00  0.00     0.031 A 
BRANCH  54  68
ATOM     68  C   UNL A   1      41.617  34.630  34.651  1.00  0.00    -0.014 A 
ATOM     69  C   UNL A   1      42.212  35.823  34.208  1.00  0.00     0.009 A 
ATOM     70  C   UNL A   1      41.132  34.563  35.966  1.00  0.00     0.009 A 
ATOM     71  C   UNL A   1      42.359  36.906  35.076  1.00  0.00     0.001 A 
ATOM     72  C   UNL A   1      41.252  35.659  36.823  1.00  0.00     0.001 A 
ATOM     73  C   UNL A   1      41.877  36.825  36.381  1.00  0.00     0.000 A 
ENDBRANCH  54  68
BRANCH  55  74
ATOM     74  C   UNL A   1      40.423  27.053  28.264  1.00  0.00    -0.014 A 
ATOM     75  C   UNL A   1      39.714  25.903  28.642  1.00  0.00     0.009 A 
ATOM     76  C   UNL A   1      40.961  27.126  26.970  1.00  0.00     0.009 A 
ATOM     77  C   UNL A   1      39.563  24.839  27.749  1.00  0.00     0.001 A 
ATOM     78  C   UNL A   1      40.787  26.071  26.071  1.00  0.00     0.001 A 
ATOM     79  C   UNL A   1      40.095  24.927  26.464  1.00  0.00     0.000 A 
ENDBRANCH  55  74
BRANCH  67  80
ATOM     80  C   UNL A   1      45.380  28.742  32.851  1.00  0.00    -0.014 A 
ATOM     81  C   UNL A   1      46.601  29.065  32.240  1.00  0.00     0.009 A 
ATOM     82  C   UNL A   1      45.367  27.807  33.898  1.00  0.00     0.009 A 
ATOM     83  C   UNL A   1      47.780  28.440  32.651  1.00  0.00     0.001 A 
ATOM     84  C   UNL A   1      46.551  27.205  34.324  1.00  0.00     0.001 A 
ATOM     85  C   UNL A   1      47.755  27.516  33.696  1.00  0.00     0.000 A 
ENDBRANCH  67  80
ENDBRANCH  41  42
ENDBRANCH  33  36
ENDBRANCH  31  32
ENDBRANCH  30  31
ENDBRANCH  29  30
ENDBRANCH  28  29
ENDBRANCH   1  28
TORSDOF 17
ENDMDL
