MODEL 1
REMARK VINA RESULT:     -11.2      0.000      0.000
REMARK SMILES CC(C)(C)c1cc2c(cc1Cl)C=C(C(=O)NCCCCCCNC(=O)c1ccc(-c3c4nc(c(-c5ccccc5)c5ccc([nH]5)c(-c5ccccc5)c5nc(c(-c6ccccc6)c6ccc3[nH]6)C=C5)C=C4)cc1)[C@@H](C(F)(F)F)O2
REMARK SMILES IDX 20 1 19 2 18 3 17 4 16 5 14 6 15 7 13 9 5 10 6 11 10 12 7 13
REMARK SMILES IDX 9 14 11 15 8 16 79 17 12 18 74 19 2 20 1 21 3 22 4 23 75 24
REMARK SMILES IDX 76 25 77 26 78 27 21 28 22 29 23 30 24 31 25 33 26 34 27 35
REMARK SMILES IDX 73 36 28 37 72 38 29 39 30 40 31 41 66 42 32 43 71 44 65 45
REMARK SMILES IDX 67 46 33 47 70 48 64 49 63 50 34 52 56 53 41 54 55 55 42 56
REMARK SMILES IDX 45 57 54 58 68 59 43 60 44 61 53 63 69 64 46 65 35 66 36 67
REMARK SMILES IDX 40 68 37 69 39 70 38 71 57 72 58 73 62 74 59 75 61 76 60 77
REMARK SMILES IDX 47 78 48 79 52 80 49 81 51 82 50 83
REMARK H PARENT 16 8 23 32 67 51 45 62
REMARK Flexibility Score: inf
ROOT
ATOM      1  C   UNL A   1      38.768  21.865  26.009  1.00  0.00     0.002 C 
ENDROOT
BRANCH   1   2
ATOM      2  C   UNL A   1      37.573  22.537  25.317  1.00  0.00     0.002 C 
BRANCH   2   3
ATOM      3  C   UNL A   1      36.728  21.624  24.424  1.00  0.00     0.021 C 
BRANCH   3   4
ATOM      4  C   UNL A   1      35.940  20.562  25.183  1.00  0.00     0.116 C 
BRANCH   4   5
ATOM      5  N   UNL A   1      34.651  20.299  24.570  1.00  0.00    -0.352 N 
ATOM      6  C   UNL A   1      33.468  20.942  24.430  1.00  0.00     0.251 C 
ATOM      7  O   UNL A   1      32.612  20.327  23.784  1.00  0.00    -0.270 OA
ATOM      8  H   UNL A   1      34.632  19.414  24.139  1.00  0.00     0.163 HD
BRANCH   6   9
ATOM      9  C   UNL A   1      33.145  22.293  24.980  1.00  0.00     0.067 C 
ATOM     10  C   UNL A   1      32.691  27.323  25.669  1.00  0.00    -0.020 A 
ATOM     11  C   UNL A   1      32.231  26.149  26.317  1.00  0.00     0.053 A 
ATOM     12  C   UNL A   1      33.429  27.115  24.484  1.00  0.00     0.045 A 
ATOM     13  C   UNL A   1      32.491  24.869  25.835  1.00  0.00     0.128 A 
ATOM     14  C   UNL A   1      33.680  25.813  23.997  1.00  0.00     0.032 A 
ATOM     15  Cl  UNL A   1      34.114  28.362  23.505  1.00  0.00    -0.084 Cl
ATOM     16  C   UNL A   1      33.217  24.686  24.673  1.00  0.00     0.019 A 
ATOM     17  O   UNL A   1      31.961  23.841  26.552  1.00  0.00    -0.475 OA
ATOM     18  C   UNL A   1      33.460  23.334  24.186  1.00  0.00     0.025 C 
ATOM     19  C   UNL A   1      32.551  22.531  26.341  1.00  0.00     0.314 C 
BRANCH  10  20
ATOM     20  C   UNL A   1      32.351  28.661  26.371  1.00  0.00    -0.012 C 
ATOM     21  C   UNL A   1      31.560  29.579  25.402  1.00  0.00     0.016 C 
ATOM     22  C   UNL A   1      33.523  29.521  26.885  1.00  0.00     0.016 C 
ATOM     23  C   UNL A   1      31.463  28.351  27.602  1.00  0.00     0.016 C 
ENDBRANCH  10  20
BRANCH  19  24
ATOM     24  C   UNL A   1      33.537  22.247  27.488  1.00  0.00     0.429 C 
ATOM     25  F   UNL A   1      34.718  22.877  27.263  1.00  0.00    -0.167 F 
ATOM     26  F   UNL A   1      33.092  22.694  28.685  1.00  0.00    -0.167 F 
ATOM     27  F   UNL A   1      33.801  20.929  27.631  1.00  0.00    -0.167 F 
ENDBRANCH  19  24
ENDBRANCH   6   9
ENDBRANCH   4   5
ENDBRANCH   3   4
ENDBRANCH   2   3
ENDBRANCH   1   2
BRANCH   1  28
ATOM     28  C   UNL A   1      39.269  20.573  25.362  1.00  0.00     0.021 C 
BRANCH  28  29
ATOM     29  C   UNL A   1      39.846  19.551  26.333  1.00  0.00     0.116 C 
BRANCH  29  30
ATOM     30  N   UNL A   1      41.155  19.068  25.924  1.00  0.00    -0.352 N 
ATOM     31  C   UNL A   1      42.356  19.733  25.901  1.00  0.00     0.251 C 
ATOM     32  H   UNL A   1      41.184  18.132  25.622  1.00  0.00     0.163 HD
ATOM     33  O   UNL A   1      43.342  19.218  25.384  1.00  0.00    -0.269 OA
BRANCH  31  34
ATOM     34  C   UNL A   1      42.449  21.093  26.473  1.00  0.00     0.039 A 
ATOM     35  C   UNL A   1      42.666  22.199  25.649  1.00  0.00     0.014 A 
ATOM     36  C   UNL A   1      42.340  21.256  27.857  1.00  0.00     0.014 A 
ATOM     37  C   UNL A   1      42.926  23.441  26.217  1.00  0.00     0.010 A 
ATOM     38  C   UNL A   1      42.522  22.521  28.421  1.00  0.00     0.010 A 
ATOM     39  C   UNL A   1      42.862  23.615  27.610  1.00  0.00    -0.014 A 
BRANCH  39  40
ATOM     40  C   UNL A   1      43.147  24.951  28.192  1.00  0.00     0.031 A 
ATOM     41  C   UNL A   1      44.557  25.369  28.506  1.00  0.00     0.074 A 
ATOM     42  C   UNL A   1      42.128  25.809  28.392  1.00  0.00     0.049 A 
ATOM     43  N   UNL A   1      44.987  26.508  28.992  1.00  0.00    -0.248 NA
ATOM     44  C   UNL A   1      45.625  24.392  28.242  1.00  0.00     0.031 C 
ATOM     45  C   UNL A   1      40.720  25.524  28.110  1.00  0.00     0.029 A 
ATOM     46  N   UNL A   1      42.121  27.103  28.851  1.00  0.00    -0.354 N 
ATOM     47  C   UNL A   1      46.365  26.377  29.107  1.00  0.00     0.074 A 
ATOM     48  C   UNL A   1      46.701  25.041  28.666  1.00  0.00     0.031 C 
ATOM     49  C   UNL A   1      39.994  26.626  28.346  1.00  0.00     0.029 A 
ATOM     50  C   UNL A   1      40.871  27.674  28.858  1.00  0.00     0.049 A 
ATOM     51  H   UNL A   1      42.933  27.576  29.145  1.00  0.00     0.167 HD
ATOM     52  C   UNL A   1      47.267  27.291  29.533  1.00  0.00     0.031 A 
ATOM     53  C   UNL A   1      40.468  28.899  29.245  1.00  0.00     0.031 A 
ATOM     54  C   UNL A   1      46.931  28.624  29.959  1.00  0.00     0.049 A 
ATOM     55  C   UNL A   1      41.484  29.878  29.756  1.00  0.00     0.074 A 
ATOM     56  C   UNL A   1      47.784  29.627  30.388  1.00  0.00     0.029 A 
ATOM     57  N   UNL A   1      45.646  29.140  30.011  1.00  0.00    -0.354 N 
ATOM     58  N   UNL A   1      42.784  29.740  29.848  1.00  0.00    -0.248 NA
ATOM     59  C   UNL A   1      40.980  31.178  30.219  1.00  0.00     0.031 C 
ATOM     60  C   UNL A   1      47.010  30.731  30.751  1.00  0.00     0.029 A 
ATOM     61  C   UNL A   1      45.680  30.439  30.490  1.00  0.00     0.049 A 
ATOM     62  H   UNL A   1      44.831  28.655  29.748  1.00  0.00     0.167 HD
ATOM     63  C   UNL A   1      43.256  30.936  30.371  1.00  0.00     0.074 A 
ATOM     64  C   UNL A   1      42.106  31.798  30.553  1.00  0.00     0.031 C 
ATOM     65  C   UNL A   1      44.530  31.284  30.673  1.00  0.00     0.031 A 
BRANCH  52  66
ATOM     66  C   UNL A   1      48.716  26.892  29.576  1.00  0.00    -0.014 A 
ATOM     67  C   UNL A   1      49.254  26.349  30.754  1.00  0.00     0.009 A 
ATOM     68  C   UNL A   1      49.572  27.146  28.493  1.00  0.00     0.009 A 
ATOM     69  C   UNL A   1      50.620  26.082  30.854  1.00  0.00     0.001 A 
ATOM     70  C   UNL A   1      50.935  26.854  28.587  1.00  0.00     0.001 A 
ATOM     71  C   UNL A   1      51.459  26.332  29.769  1.00  0.00     0.000 A 
ENDBRANCH  52  66
BRANCH  53  72
ATOM     72  C   UNL A   1      39.028  29.254  29.153  1.00  0.00    -0.014 A 
ATOM     73  C   UNL A   1      38.175  29.060  30.252  1.00  0.00     0.009 A 
ATOM     74  C   UNL A   1      38.485  29.731  27.951  1.00  0.00     0.009 A 
ATOM     75  C   UNL A   1      36.805  29.307  30.141  1.00  0.00     0.001 A 
ATOM     76  C   UNL A   1      37.120  30.007  27.852  1.00  0.00     0.001 A 
ATOM     77  C   UNL A   1      36.280  29.785  28.943  1.00  0.00     0.000 A 
ENDBRANCH  53  72
BRANCH  65  78
ATOM     78  C   UNL A   1      44.767  32.660  31.229  1.00  0.00    -0.014 A 
ATOM     79  C   UNL A   1      44.689  32.875  32.614  1.00  0.00     0.009 A 
ATOM     80  C   UNL A   1      44.961  33.758  30.377  1.00  0.00     0.009 A 
ATOM     81  C   UNL A   1      44.785  34.166  33.135  1.00  0.00     0.001 A 
ATOM     82  C   UNL A   1      45.082  35.044  30.904  1.00  0.00     0.001 A 
ATOM     83  C   UNL A   1      44.984  35.249  32.281  1.00  0.00     0.000 A 
ENDBRANCH  65  78
ENDBRANCH  39  40
ENDBRANCH  31  34
ENDBRANCH  29  30
ENDBRANCH  28  29
ENDBRANCH   1  28
TORSDOF 15
ENDMDL
MODEL 2
REMARK VINA RESULT:     -10.7      3.681      9.091
REMARK SMILES CC(C)(C)c1cc2c(cc1Cl)C=C(C(=O)NCCCCCCNC(=O)c1ccc(-c3c4nc(c(-c5ccccc5)c5ccc([nH]5)c(-c5ccccc5)c5nc(c(-c6ccccc6)c6ccc3[nH]6)C=C5)C=C4)cc1)[C@@H](C(F)(F)F)O2
REMARK SMILES IDX 20 1 19 2 18 3 17 4 16 5 14 6 15 7 13 9 5 10 6 11 10 12 7 13
REMARK SMILES IDX 9 14 11 15 8 16 79 17 12 18 74 19 2 20 1 21 3 22 4 23 75 24
REMARK SMILES IDX 76 25 77 26 78 27 21 28 22 29 23 30 24 31 25 33 26 34 27 35
REMARK SMILES IDX 73 36 28 37 72 38 29 39 30 40 31 41 66 42 32 43 71 44 65 45
REMARK SMILES IDX 67 46 33 47 70 48 64 49 63 50 34 52 56 53 41 54 55 55 42 56
REMARK SMILES IDX 45 57 54 58 68 59 43 60 44 61 53 63 69 64 46 65 35 66 36 67
REMARK SMILES IDX 40 68 37 69 39 70 38 71 57 72 58 73 62 74 59 75 61 76 60 77
REMARK SMILES IDX 47 78 48 79 52 80 49 81 51 82 50 83
REMARK H PARENT 16 8 23 32 67 51 45 62
REMARK Flexibility Score: inf
ROOT
ATOM      1  C   UNL A   1      32.506  30.687  27.138  1.00  0.00     0.002 C 
ENDROOT
BRANCH   1   2
ATOM      2  C   UNL A   1      31.673  29.485  26.670  1.00  0.00     0.002 C 
BRANCH   2   3
ATOM      3  C   UNL A   1      31.656  28.284  27.620  1.00  0.00     0.021 C 
BRANCH   3   4
ATOM      4  C   UNL A   1      31.886  26.942  26.934  1.00  0.00     0.116 C 
BRANCH   4   5
ATOM      5  N   UNL A   1      32.808  27.053  25.818  1.00  0.00    -0.352 N 
ATOM      6  C   UNL A   1      33.374  26.223  24.911  1.00  0.00     0.251 C 
ATOM      7  O   UNL A   1      34.115  26.774  24.089  1.00  0.00    -0.270 OA
ATOM      8  H   UNL A   1      33.100  27.984  25.685  1.00  0.00     0.163 HD
BRANCH   6   9
ATOM      9  C   UNL A   1      33.166  24.746  24.839  1.00  0.00     0.067 C 
ATOM     10  C   UNL A   1      33.869  19.698  24.737  1.00  0.00    -0.020 A 
ATOM     11  C   UNL A   1      32.762  20.583  24.761  1.00  0.00     0.053 A 
ATOM     12  C   UNL A   1      35.140  20.308  24.815  1.00  0.00     0.045 A 
ATOM     13  C   UNL A   1      32.903  21.967  24.845  1.00  0.00     0.128 A 
ATOM     14  C   UNL A   1      35.272  21.712  24.909  1.00  0.00     0.032 A 
ATOM     15  Cl  UNL A   1      36.650  19.472  24.796  1.00  0.00    -0.084 Cl
ATOM     16  C   UNL A   1      34.155  22.546  24.918  1.00  0.00     0.019 A 
ATOM     17  O   UNL A   1      31.747  22.683  24.883  1.00  0.00    -0.475 OA
ATOM     18  C   UNL A   1      34.269  23.995  25.020  1.00  0.00     0.025 C 
ATOM     19  C   UNL A   1      31.846  24.091  24.542  1.00  0.00     0.314 C 
BRANCH  10  20
ATOM     20  C   UNL A   1      33.529  18.194  24.592  1.00  0.00    -0.012 C 
ATOM     21  C   UNL A   1      32.736  17.711  25.836  1.00  0.00     0.016 C 
ATOM     22  C   UNL A   1      34.701  17.204  24.444  1.00  0.00     0.016 C 
ATOM     23  C   UNL A   1      32.643  18.016  23.335  1.00  0.00     0.016 C 
ENDBRANCH  10  20
BRANCH  19  24
ATOM     24  C   UNL A   1      31.397  24.273  23.081  1.00  0.00     0.429 C 
ATOM     25  F   UNL A   1      30.299  23.517  22.826  1.00  0.00    -0.167 F 
ATOM     26  F   UNL A   1      31.053  25.549  22.793  1.00  0.00    -0.167 F 
ATOM     27  F   UNL A   1      32.353  23.911  22.195  1.00  0.00    -0.167 F 
ENDBRANCH  19  24
ENDBRANCH   6   9
ENDBRANCH   4   5
ENDBRANCH   3   4
ENDBRANCH   2   3
ENDBRANCH   1   2
BRANCH   1  28
ATOM     28  C   UNL A   1      31.763  32.023  27.207  1.00  0.00     0.021 C 
BRANCH  28  29
ATOM     29  C   UNL A   1      32.616  33.249  26.907  1.00  0.00     0.116 C 
BRANCH  29  30
ATOM     30  N   UNL A   1      32.411  34.321  27.867  1.00  0.00    -0.352 N 
ATOM     31  C   UNL A   1      33.140  34.631  28.989  1.00  0.00     0.251 C 
ATOM     32  H   UNL A   1      31.642  34.908  27.686  1.00  0.00     0.163 HD
ATOM     33  O   UNL A   1      32.738  35.485  29.774  1.00  0.00    -0.269 OA
BRANCH  31  34
ATOM     34  C   UNL A   1      34.398  33.906  29.267  1.00  0.00     0.039 A 
ATOM     35  C   UNL A   1      34.439  32.898  30.231  1.00  0.00     0.014 A 
ATOM     36  C   UNL A   1      35.554  34.259  28.566  1.00  0.00     0.014 A 
ATOM     37  C   UNL A   1      35.662  32.351  30.603  1.00  0.00     0.010 A 
ATOM     38  C   UNL A   1      36.770  33.651  28.886  1.00  0.00     0.010 A 
ATOM     39  C   UNL A   1      36.843  32.725  29.938  1.00  0.00    -0.014 A 
BRANCH  39  40
ATOM     40  C   UNL A   1      38.136  32.129  30.356  1.00  0.00     0.031 A 
ATOM     41  C   UNL A   1      38.617  30.834  29.759  1.00  0.00     0.074 A 
ATOM     42  C   UNL A   1      38.904  32.787  31.245  1.00  0.00     0.049 A 
ATOM     43  N   UNL A   1      39.733  30.188  29.990  1.00  0.00    -0.248 NA
ATOM     44  C   UNL A   1      37.740  30.178  28.776  1.00  0.00     0.031 C 
ATOM     45  C   UNL A   1      38.553  34.060  31.880  1.00  0.00     0.029 A 
ATOM     46  N   UNL A   1      40.148  32.497  31.747  1.00  0.00    -0.354 N 
ATOM     47  C   UNL A   1      39.683  29.047  29.200  1.00  0.00     0.074 A 
ATOM     48  C   UNL A   1      38.418  29.072  28.500  1.00  0.00     0.031 C 
ATOM     49  C   UNL A   1      39.580  34.468  32.640  1.00  0.00     0.029 A 
ATOM     50  C   UNL A   1      40.633  33.458  32.600  1.00  0.00     0.049 A 
ATOM     51  H   UNL A   1      40.645  31.679  31.516  1.00  0.00     0.167 HD
ATOM     52  C   UNL A   1      40.613  28.073  29.063  1.00  0.00     0.031 A 
ATOM     53  C   UNL A   1      41.789  33.520  33.288  1.00  0.00     0.031 A 
ATOM     54  C   UNL A   1      41.877  28.058  29.750  1.00  0.00     0.049 A 
ATOM     55  C   UNL A   1      42.783  32.404  33.153  1.00  0.00     0.074 A 
ATOM     56  C   UNL A   1      42.892  27.120  29.657  1.00  0.00     0.029 A 
ATOM     57  N   UNL A   1      42.301  29.019  30.655  1.00  0.00    -0.354 N 
ATOM     58  N   UNL A   1      42.723  31.338  32.392  1.00  0.00    -0.248 NA
ATOM     59  C   UNL A   1      44.000  32.495  33.970  1.00  0.00     0.031 C 
ATOM     60  C   UNL A   1      43.905  27.485  30.546  1.00  0.00     0.029 A 
ATOM     61  C   UNL A   1      43.551  28.683  31.146  1.00  0.00     0.049 A 
ATOM     62  H   UNL A   1      41.789  29.820  30.909  1.00  0.00     0.167 HD
ATOM     63  C   UNL A   1      43.896  30.635  32.631  1.00  0.00     0.074 A 
ATOM     64  C   UNL A   1      44.660  31.408  33.590  1.00  0.00     0.031 C 
ATOM     65  C   UNL A   1      44.299  29.455  32.103  1.00  0.00     0.031 A 
BRANCH  52  66
ATOM     66  C   UNL A   1      40.308  26.925  28.142  1.00  0.00    -0.014 A 
ATOM     67  C   UNL A   1      39.640  25.793  28.638  1.00  0.00     0.009 A 
ATOM     68  C   UNL A   1      40.769  26.914  26.816  1.00  0.00     0.009 A 
ATOM     69  C   UNL A   1      39.452  24.669  27.833  1.00  0.00     0.001 A 
ATOM     70  C   UNL A   1      40.557  25.797  26.004  1.00  0.00     0.001 A 
ATOM     71  C   UNL A   1      39.908  24.674  26.515  1.00  0.00     0.000 A 
ENDBRANCH  52  66
BRANCH  53  72
ATOM     72  C   UNL A   1      42.055  34.693  34.161  1.00  0.00    -0.014 A 
ATOM     73  C   UNL A   1      42.691  35.835  33.646  1.00  0.00     0.009 A 
ATOM     74  C   UNL A   1      41.728  34.657  35.524  1.00  0.00     0.009 A 
ATOM     75  C   UNL A   1      43.022  36.902  34.483  1.00  0.00     0.001 A 
ATOM     76  C   UNL A   1      42.034  35.738  36.353  1.00  0.00     0.001 A 
ATOM     77  C   UNL A   1      42.689  36.855  35.835  1.00  0.00     0.000 A 
ENDBRANCH  53  72
BRANCH  65  78
ATOM     78  C   UNL A   1      45.632  28.913  32.536  1.00  0.00    -0.014 A 
ATOM     79  C   UNL A   1      46.786  29.234  31.804  1.00  0.00     0.009 A 
ATOM     80  C   UNL A   1      45.729  28.002  33.599  1.00  0.00     0.009 A 
ATOM     81  C   UNL A   1      48.009  28.641  32.117  1.00  0.00     0.001 A 
ATOM     82  C   UNL A   1      46.960  27.431  33.926  1.00  0.00     0.001 A 
ATOM     83  C   UNL A   1      48.096  27.743  33.180  1.00  0.00     0.000 A 
ENDBRANCH  65  78
ENDBRANCH  39  40
ENDBRANCH  31  34
ENDBRANCH  29  30
ENDBRANCH  28  29
ENDBRANCH   1  28
TORSDOF 15
ENDMDL
MODEL 3
REMARK VINA RESULT:     -10.7      3.798      9.119
REMARK SMILES CC(C)(C)c1cc2c(cc1Cl)C=C(C(=O)NCCCCCCNC(=O)c1ccc(-c3c4nc(c(-c5ccccc5)c5ccc([nH]5)c(-c5ccccc5)c5nc(c(-c6ccccc6)c6ccc3[nH]6)C=C5)C=C4)cc1)[C@@H](C(F)(F)F)O2
REMARK SMILES IDX 20 1 19 2 18 3 17 4 16 5 14 6 15 7 13 9 5 10 6 11 10 12 7 13
REMARK SMILES IDX 9 14 11 15 8 16 79 17 12 18 74 19 2 20 1 21 3 22 4 23 75 24
REMARK SMILES IDX 76 25 77 26 78 27 21 28 22 29 23 30 24 31 25 33 26 34 27 35
REMARK SMILES IDX 73 36 28 37 72 38 29 39 30 40 31 41 66 42 32 43 71 44 65 45
REMARK SMILES IDX 67 46 33 47 70 48 64 49 63 50 34 52 56 53 41 54 55 55 42 56
REMARK SMILES IDX 45 57 54 58 68 59 43 60 44 61 53 63 69 64 46 65 35 66 36 67
REMARK SMILES IDX 40 68 37 69 39 70 38 71 57 72 58 73 62 74 59 75 61 76 60 77
REMARK SMILES IDX 47 78 48 79 52 80 49 81 51 82 50 83
REMARK H PARENT 16 8 23 32 67 51 45 62
REMARK Flexibility Score: inf
ROOT
ATOM      1  C   UNL A   1      32.570  30.751  27.257  1.00  0.00     0.002 C 
ENDROOT
BRANCH   1   2
ATOM      2  C   UNL A   1      31.813  29.538  26.697  1.00  0.00     0.002 C 
BRANCH   2   3
ATOM      3  C   UNL A   1      31.752  28.315  27.617  1.00  0.00     0.021 C 
BRANCH   3   4
ATOM      4  C   UNL A   1      31.923  26.982  26.897  1.00  0.00     0.116 C 
BRANCH   4   5
ATOM      5  N   UNL A   1      32.830  27.086  25.768  1.00  0.00    -0.352 N 
ATOM      6  C   UNL A   1      33.382  26.251  24.857  1.00  0.00     0.251 C 
ATOM      7  O   UNL A   1      34.113  26.797  24.024  1.00  0.00    -0.270 OA
ATOM      8  H   UNL A   1      33.122  28.016  25.628  1.00  0.00     0.163 HD
BRANCH   6   9
ATOM      9  C   UNL A   1      33.170  24.774  24.795  1.00  0.00     0.067 C 
ATOM     10  C   UNL A   1      33.859  19.724  24.718  1.00  0.00    -0.020 A 
ATOM     11  C   UNL A   1      32.755  20.612  24.741  1.00  0.00     0.053 A 
ATOM     12  C   UNL A   1      35.131  20.332  24.788  1.00  0.00     0.045 A 
ATOM     13  C   UNL A   1      32.899  21.996  24.817  1.00  0.00     0.128 A 
ATOM     14  C   UNL A   1      35.268  21.735  24.874  1.00  0.00     0.032 A 
ATOM     15  Cl  UNL A   1      36.640  19.491  24.767  1.00  0.00    -0.084 Cl
ATOM     16  C   UNL A   1      34.153  22.572  24.882  1.00  0.00     0.019 A 
ATOM     17  O   UNL A   1      31.745  22.716  24.856  1.00  0.00    -0.475 OA
ATOM     18  C   UNL A   1      34.272  24.021  24.975  1.00  0.00     0.025 C 
ATOM     19  C   UNL A   1      31.847  24.121  24.506  1.00  0.00     0.314 C 
BRANCH  10  20
ATOM     20  C   UNL A   1      33.514  18.220  24.583  1.00  0.00    -0.012 C 
ATOM     21  C   UNL A   1      32.683  17.757  25.810  1.00  0.00     0.016 C 
ATOM     22  C   UNL A   1      34.683  17.222  24.480  1.00  0.00     0.016 C 
ATOM     23  C   UNL A   1      32.663  18.031  23.303  1.00  0.00     0.016 C 
ENDBRANCH  10  20
BRANCH  19  24
ATOM     24  C   UNL A   1      31.392  24.296  23.046  1.00  0.00     0.429 C 
ATOM     25  F   UNL A   1      30.314  23.513  22.789  1.00  0.00    -0.167 F 
ATOM     26  F   UNL A   1      31.016  25.564  22.762  1.00  0.00    -0.167 F 
ATOM     27  F   UNL A   1      32.357  23.962  22.159  1.00  0.00    -0.167 F 
ENDBRANCH  19  24
ENDBRANCH   6   9
ENDBRANCH   4   5
ENDBRANCH   3   4
ENDBRANCH   2   3
ENDBRANCH   1   2
BRANCH   1  28
ATOM     28  C   UNL A   1      31.792  32.068  27.278  1.00  0.00     0.021 C 
BRANCH  28  29
ATOM     29  C   UNL A   1      32.616  33.305  26.945  1.00  0.00     0.116 C 
BRANCH  29  30
ATOM     30  N   UNL A   1      32.422  34.380  27.904  1.00  0.00    -0.352 N 
ATOM     31  C   UNL A   1      33.158  34.689  29.021  1.00  0.00     0.251 C 
ATOM     32  H   UNL A   1      31.654  34.970  27.727  1.00  0.00     0.163 HD
ATOM     33  O   UNL A   1      32.766  35.546  29.806  1.00  0.00    -0.269 OA
BRANCH  31  34
ATOM     34  C   UNL A   1      34.415  33.958  29.292  1.00  0.00     0.039 A 
ATOM     35  C   UNL A   1      34.472  32.990  30.296  1.00  0.00     0.014 A 
ATOM     36  C   UNL A   1      35.554  34.267  28.545  1.00  0.00     0.014 A 
ATOM     37  C   UNL A   1      35.698  32.442  30.655  1.00  0.00     0.010 A 
ATOM     38  C   UNL A   1      36.772  33.655  28.855  1.00  0.00     0.010 A 
ATOM     39  C   UNL A   1      36.863  32.772  29.941  1.00  0.00    -0.014 A 
BRANCH  39  40
ATOM     40  C   UNL A   1      38.160  32.175  30.346  1.00  0.00     0.031 A 
ATOM     41  C   UNL A   1      38.997  32.809  31.424  1.00  0.00     0.074 A 
ATOM     42  C   UNL A   1      38.561  31.025  29.771  1.00  0.00     0.049 A 
ATOM     43  N   UNL A   1      40.141  32.406  31.920  1.00  0.00    -0.248 NA
ATOM     44  C   UNL A   1      38.490  34.052  32.028  1.00  0.00     0.031 C 
ATOM     45  C   UNL A   1      37.827  30.306  28.727  1.00  0.00     0.029 A 
ATOM     46  N   UNL A   1      39.666  30.244  30.000  1.00  0.00    -0.354 N 
ATOM     47  C   UNL A   1      40.496  33.350  32.874  1.00  0.00     0.074 A 
ATOM     48  C   UNL A   1      39.462  34.361  32.875  1.00  0.00     0.031 C 
ATOM     49  C   UNL A   1      38.470  29.164  28.448  1.00  0.00     0.029 A 
ATOM     50  C   UNL A   1      39.693  29.099  29.241  1.00  0.00     0.049 A 
ATOM     51  H   UNL A   1      40.370  30.481  30.646  1.00  0.00     0.167 HD
ATOM     52  C   UNL A   1      41.581  33.367  33.683  1.00  0.00     0.031 A 
ATOM     53  C   UNL A   1      40.604  28.109  29.177  1.00  0.00     0.031 A 
ATOM     54  C   UNL A   1      42.602  32.352  33.689  1.00  0.00     0.049 A 
ATOM     55  C   UNL A   1      41.821  28.175  30.052  1.00  0.00     0.074 A 
ATOM     56  C   UNL A   1      43.729  32.275  34.491  1.00  0.00     0.029 A 
ATOM     57  N   UNL A   1      42.623  31.242  32.860  1.00  0.00    -0.354 N 
ATOM     58  N   UNL A   1      42.135  29.071  30.956  1.00  0.00    -0.248 NA
ATOM     59  C   UNL A   1      42.810  27.100  29.898  1.00  0.00     0.031 C 
ATOM     60  C   UNL A   1      44.459  31.149  34.108  1.00  0.00     0.029 A 
ATOM     61  C   UNL A   1      43.757  30.489  33.112  1.00  0.00     0.049 A 
ATOM     62  H   UNL A   1      41.935  31.023  32.191  1.00  0.00     0.167 HD
ATOM     63  C   UNL A   1      43.352  28.664  31.486  1.00  0.00     0.074 A 
ATOM     64  C   UNL A   1      43.708  27.428  30.819  1.00  0.00     0.031 C 
ATOM     65  C   UNL A   1      44.104  29.265  32.438  1.00  0.00     0.031 A 
BRANCH  52  66
ATOM     66  C   UNL A   1      41.742  34.521  34.632  1.00  0.00    -0.014 A 
ATOM     67  C   UNL A   1      42.480  35.649  34.237  1.00  0.00     0.009 A 
ATOM     68  C   UNL A   1      41.257  34.454  35.947  1.00  0.00     0.009 A 
ATOM     69  C   UNL A   1      42.741  36.679  35.142  1.00  0.00     0.001 A 
ATOM     70  C   UNL A   1      41.498  35.498  36.843  1.00  0.00     0.001 A 
ATOM     71  C   UNL A   1      42.248  36.604  36.444  1.00  0.00     0.000 A 
ENDBRANCH  52  66
BRANCH  53  72
ATOM     72  C   UNL A   1      40.382  26.974  28.243  1.00  0.00    -0.014 A 
ATOM     73  C   UNL A   1      39.701  25.823  28.671  1.00  0.00     0.009 A 
ATOM     74  C   UNL A   1      40.898  27.011  26.939  1.00  0.00     0.009 A 
ATOM     75  C   UNL A   1      39.569  24.720  27.825  1.00  0.00     0.001 A 
ATOM     76  C   UNL A   1      40.738  25.918  26.085  1.00  0.00     0.001 A 
ATOM     77  C   UNL A   1      40.083  24.770  26.531  1.00  0.00     0.000 A 
ENDBRANCH  53  72
BRANCH  65  78
ATOM     78  C   UNL A   1      45.393  28.602  32.835  1.00  0.00    -0.014 A 
ATOM     79  C   UNL A   1      45.408  27.691  33.904  1.00  0.00     0.009 A 
ATOM     80  C   UNL A   1      46.605  28.958  32.224  1.00  0.00     0.009 A 
ATOM     81  C   UNL A   1      46.615  27.161  34.364  1.00  0.00     0.001 A 
ATOM     82  C   UNL A   1      47.807  28.406  32.670  1.00  0.00     0.001 A 
ATOM     83  C   UNL A   1      47.812  27.516  33.745  1.00  0.00     0.000 A 
ENDBRANCH  65  78
ENDBRANCH  39  40
ENDBRANCH  31  34
ENDBRANCH  29  30
ENDBRANCH  28  29
ENDBRANCH   1  28
TORSDOF 15
ENDMDL
