MODEL 1
REMARK VINA RESULT:     -10.5      0.000      0.000
REMARK SMILES CC(C)[C@@H](CNC(=O)NCC1C(C)(C)C1(C)C)C(=O)NCCCCCCNC(=O)c1ccc(-c2c3nc(c(-c4ccccc4)c4ccc([nH]4)c(-c4ccccc4)c4nc(c(-c5ccccc5)c5ccc2[nH]5)C=C4)C=C3)cc1
REMARK SMILES IDX 22 1 21 2 20 3 18 4 19 5 4 7 2 8 1 9 3 10 5 11 6 12 7 13
REMARK SMILES IDX 8 15 9 16 10 18 11 19 12 20 15 21 13 22 14 23 16 24 17 25
REMARK SMILES IDX 23 26 24 27 25 28 26 29 27 30 28 31 29 33 30 34 31 35 77 36
REMARK SMILES IDX 32 37 76 38 33 39 34 40 35 41 70 42 36 43 75 44 69 45 71 46
REMARK SMILES IDX 37 47 74 48 68 49 67 50 38 52 60 53 45 54 59 55 46 56 49 57
REMARK SMILES IDX 58 58 72 59 47 60 48 61 57 63 73 64 50 65 39 66 40 67 44 68
REMARK SMILES IDX 41 69 43 70 42 71 61 72 62 73 66 74 63 75 65 76 64 77 51 78
REMARK SMILES IDX 52 79 56 80 53 81 55 82 54 83
REMARK H PARENT 20 6 6 14 9 17 27 32 71 51 49 62
REMARK Flexibility Score: inf
ROOT
ATOM      1  C   UNL A   1      36.996  23.023  24.786  1.00  0.00     0.021 C 
ENDROOT
BRANCH   1   2
ATOM      2  C   UNL A   1      35.632  23.702  24.794  1.00  0.00     0.116 C 
BRANCH   2   3
ATOM      3  N   UNL A   1      34.880  23.434  26.002  1.00  0.00    -0.356 N 
ATOM      4  C   UNL A   1      33.814  22.617  26.220  1.00  0.00     0.225 C 
ATOM      5  O   UNL A   1      33.486  22.419  27.394  1.00  0.00    -0.275 OA
ATOM      6  H   UNL A   1      35.191  23.924  26.798  1.00  0.00     0.163 HD
BRANCH   4   7
ATOM      7  C   UNL A   1      33.020  21.961  25.089  1.00  0.00     0.100 C 
BRANCH   7   8
ATOM      8  C   UNL A   1      33.221  20.418  24.987  1.00  0.00    -0.003 C 
ATOM      9  C   UNL A   1      32.469  19.798  23.805  1.00  0.00     0.008 C 
ATOM     10  C   UNL A   1      34.715  20.072  24.852  1.00  0.00     0.008 C 
ENDBRANCH   7   8
BRANCH   7  11
ATOM     11  C   UNL A   1      31.580  22.512  24.966  1.00  0.00     0.131 C 
BRANCH  11  12
ATOM     12  N   UNL A   1      30.723  22.378  26.126  1.00  0.00    -0.337 N 
ATOM     13  C   UNL A   1      30.004  23.235  26.862  1.00  0.00     0.314 C 
ATOM     14  H   UNL A   1      30.653  21.450  26.444  1.00  0.00     0.165 HD
ATOM     15  O   UNL A   1      29.461  22.791  27.876  1.00  0.00    -0.249 OA
ATOM     16  N   UNL A   1      29.862  24.535  26.598  1.00  0.00    -0.338 N 
ATOM     17  H   UNL A   1      29.443  25.026  27.341  1.00  0.00     0.165 HD
BRANCH  16  18
ATOM     18  C   UNL A   1      30.179  25.397  25.476  1.00  0.00     0.122 C 
BRANCH  18  19
ATOM     19  C   UNL A   1      31.178  26.428  25.919  1.00  0.00     0.021 C 
ATOM     20  C   UNL A   1      32.486  26.655  25.161  1.00  0.00    -0.025 C 
ATOM     21  C   UNL A   1      31.413  27.761  25.209  1.00  0.00    -0.025 C 
ATOM     22  C   UNL A   1      33.736  26.755  26.011  1.00  0.00     0.012 C 
ATOM     23  C   UNL A   1      32.767  25.958  23.846  1.00  0.00     0.012 C 
ATOM     24  C   UNL A   1      30.622  28.109  23.968  1.00  0.00     0.012 C 
ATOM     25  C   UNL A   1      31.672  28.980  26.073  1.00  0.00     0.012 C 
ENDBRANCH  18  19
ENDBRANCH  16  18
ENDBRANCH  11  12
ENDBRANCH   7  11
ENDBRANCH   4   7
ENDBRANCH   2   3
ENDBRANCH   1   2
BRANCH   1  26
ATOM     26  C   UNL A   1      37.858  23.336  26.013  1.00  0.00     0.002 C 
BRANCH  26  27
ATOM     27  C   UNL A   1      39.094  22.446  26.198  1.00  0.00     0.002 C 
BRANCH  27  28
ATOM     28  C   UNL A   1      39.046  21.090  25.487  1.00  0.00     0.021 C 
BRANCH  28  29
ATOM     29  C   UNL A   1      39.439  19.900  26.353  1.00  0.00     0.116 C 
BRANCH  29  30
ATOM     30  N   UNL A   1      40.660  19.264  25.891  1.00  0.00    -0.352 N 
ATOM     31  C   UNL A   1      41.928  19.776  25.791  1.00  0.00     0.251 C 
ATOM     32  H   UNL A   1      40.564  18.326  25.607  1.00  0.00     0.163 HD
ATOM     33  O   UNL A   1      42.802  19.150  25.200  1.00  0.00    -0.269 OA
BRANCH  31  34
ATOM     34  C   UNL A   1      42.241  21.093  26.384  1.00  0.00     0.039 A 
ATOM     35  C   UNL A   1      42.612  22.140  25.537  1.00  0.00     0.014 A 
ATOM     36  C   UNL A   1      42.190  21.292  27.767  1.00  0.00     0.014 A 
ATOM     37  C   UNL A   1      42.886  23.399  26.073  1.00  0.00     0.010 A 
ATOM     38  C   UNL A   1      42.387  22.566  28.291  1.00  0.00     0.010 A 
ATOM     39  C   UNL A   1      42.748  23.630  27.451  1.00  0.00    -0.014 A 
BRANCH  39  40
ATOM     40  C   UNL A   1      42.987  24.976  28.028  1.00  0.00     0.031 A 
ATOM     41  C   UNL A   1      44.369  25.381  28.465  1.00  0.00     0.074 A 
ATOM     42  C   UNL A   1      41.951  25.819  28.203  1.00  0.00     0.049 A 
ATOM     43  N   UNL A   1      44.765  26.500  29.017  1.00  0.00    -0.248 NA
ATOM     44  C   UNL A   1      45.442  24.391  28.276  1.00  0.00     0.031 C 
ATOM     45  C   UNL A   1      40.557  25.532  27.857  1.00  0.00     0.029 A 
ATOM     46  N   UNL A   1      41.909  27.090  28.718  1.00  0.00    -0.354 N 
ATOM     47  C   UNL A   1      46.125  26.341  29.255  1.00  0.00     0.074 A 
ATOM     48  C   UNL A   1      46.474  25.002  28.838  1.00  0.00     0.031 C 
ATOM     49  C   UNL A   1      39.804  26.607  28.138  1.00  0.00     0.029 A 
ATOM     50  C   UNL A   1      40.651  27.641  28.724  1.00  0.00     0.049 A 
ATOM     51  H   UNL A   1      42.706  27.562  29.053  1.00  0.00     0.167 HD
ATOM     52  C   UNL A   1      47.009  27.237  29.755  1.00  0.00     0.031 A 
ATOM     53  C   UNL A   1      40.225  28.842  29.158  1.00  0.00     0.031 A 
ATOM     54  C   UNL A   1      46.661  28.573  30.167  1.00  0.00     0.049 A 
ATOM     55  C   UNL A   1      41.223  29.811  29.730  1.00  0.00     0.074 A 
ATOM     56  C   UNL A   1      47.493  29.572  30.640  1.00  0.00     0.029 A 
ATOM     57  N   UNL A   1      45.375  29.090  30.158  1.00  0.00    -0.354 N 
ATOM     58  N   UNL A   1      42.517  29.672  29.884  1.00  0.00    -0.248 NA
ATOM     59  C   UNL A   1      40.700  31.110  30.176  1.00  0.00     0.031 C 
ATOM     60  C   UNL A   1      46.702  30.676  30.973  1.00  0.00     0.029 A 
ATOM     61  C   UNL A   1      45.387  30.388  30.644  1.00  0.00     0.049 A 
ATOM     62  H   UNL A   1      44.573  28.608  29.853  1.00  0.00     0.167 HD
ATOM     63  C   UNL A   1      42.968  30.874  30.413  1.00  0.00     0.074 A 
ATOM     64  C   UNL A   1      41.810  31.736  30.536  1.00  0.00     0.031 C 
ATOM     65  C   UNL A   1      44.227  31.234  30.762  1.00  0.00     0.031 A 
BRANCH  52  66
ATOM     66  C   UNL A   1      48.440  26.796  29.896  1.00  0.00    -0.014 A 
ATOM     67  C   UNL A   1      49.381  27.035  28.880  1.00  0.00     0.009 A 
ATOM     68  C   UNL A   1      48.864  26.161  31.074  1.00  0.00     0.009 A 
ATOM     69  C   UNL A   1      50.704  26.610  29.025  1.00  0.00     0.001 A 
ATOM     70  C   UNL A   1      50.194  25.767  31.230  1.00  0.00     0.001 A 
ATOM     71  C   UNL A   1      51.111  25.982  30.202  1.00  0.00     0.000 A 
ENDBRANCH  52  66
BRANCH  53  72
ATOM     72  C   UNL A   1      38.788  29.206  29.054  1.00  0.00    -0.014 A 
ATOM     73  C   UNL A   1      38.266  29.720  27.855  1.00  0.00     0.009 A 
ATOM     74  C   UNL A   1      37.930  29.053  30.155  1.00  0.00     0.009 A 
ATOM     75  C   UNL A   1      36.925  30.102  27.772  1.00  0.00     0.001 A 
ATOM     76  C   UNL A   1      36.582  29.404  30.058  1.00  0.00     0.001 A 
ATOM     77  C   UNL A   1      36.083  29.939  28.872  1.00  0.00     0.000 A 
ENDBRANCH  53  72
BRANCH  65  78
ATOM     78  C   UNL A   1      44.426  32.634  31.272  1.00  0.00    -0.014 A 
ATOM     79  C   UNL A   1      44.350  32.935  32.642  1.00  0.00     0.009 A 
ATOM     80  C   UNL A   1      44.724  33.664  30.366  1.00  0.00     0.009 A 
ATOM     81  C   UNL A   1      44.530  34.247  33.087  1.00  0.00     0.001 A 
ATOM     82  C   UNL A   1      44.937  34.967  30.817  1.00  0.00     0.001 A 
ATOM     83  C   UNL A   1      44.828  35.259  32.175  1.00  0.00     0.000 A 
ENDBRANCH  65  78
ENDBRANCH  39  40
ENDBRANCH  31  34
ENDBRANCH  29  30
ENDBRANCH  28  29
ENDBRANCH  27  28
ENDBRANCH  26  27
ENDBRANCH   1  26
TORSDOF 18
ENDMDL
MODEL 2
REMARK VINA RESULT:     -10.5      0.368      5.860
REMARK SMILES CC(C)[C@@H](CNC(=O)NCC1C(C)(C)C1(C)C)C(=O)NCCCCCCNC(=O)c1ccc(-c2c3nc(c(-c4ccccc4)c4ccc([nH]4)c(-c4ccccc4)c4nc(c(-c5ccccc5)c5ccc2[nH]5)C=C4)C=C3)cc1
REMARK SMILES IDX 22 1 21 2 20 3 18 4 19 5 4 7 2 8 1 9 3 10 5 11 6 12 7 13
REMARK SMILES IDX 8 15 9 16 10 18 11 19 12 20 15 21 13 22 14 23 16 24 17 25
REMARK SMILES IDX 23 26 24 27 25 28 26 29 27 30 28 31 29 33 30 34 31 35 77 36
REMARK SMILES IDX 32 37 76 38 33 39 34 40 35 41 70 42 36 43 75 44 69 45 71 46
REMARK SMILES IDX 37 47 74 48 68 49 67 50 38 52 60 53 45 54 59 55 46 56 49 57
REMARK SMILES IDX 58 58 72 59 47 60 48 61 57 63 73 64 50 65 39 66 40 67 44 68
REMARK SMILES IDX 41 69 43 70 42 71 61 72 62 73 66 74 63 75 65 76 64 77 51 78
REMARK SMILES IDX 52 79 56 80 53 81 55 82 54 83
REMARK H PARENT 20 6 6 14 9 17 27 32 71 51 49 62
REMARK Flexibility Score: inf
ROOT
ATOM      1  C   UNL A   1      36.996  23.328  24.892  1.00  0.00     0.021 C 
ENDROOT
BRANCH   1   2
ATOM      2  C   UNL A   1      35.621  23.984  24.928  1.00  0.00     0.116 C 
BRANCH   2   3
ATOM      3  N   UNL A   1      34.880  23.669  26.132  1.00  0.00    -0.356 N 
ATOM      4  C   UNL A   1      33.891  22.762  26.352  1.00  0.00     0.225 C 
ATOM      5  O   UNL A   1      33.566  22.556  27.526  1.00  0.00    -0.275 OA
ATOM      6  H   UNL A   1      35.135  24.199  26.922  1.00  0.00     0.163 HD
BRANCH   4   7
ATOM      7  C   UNL A   1      33.175  22.017  25.224  1.00  0.00     0.100 C 
BRANCH   7   8
ATOM      8  C   UNL A   1      33.453  20.483  25.203  1.00  0.00    -0.003 C 
ATOM      9  C   UNL A   1      32.578  19.734  24.193  1.00  0.00     0.008 C 
ATOM     10  C   UNL A   1      34.930  20.203  24.874  1.00  0.00     0.008 C 
ENDBRANCH   7   8
BRANCH   7  11
ATOM     11  C   UNL A   1      31.716  22.489  25.021  1.00  0.00     0.131 C 
BRANCH  11  12
ATOM     12  N   UNL A   1      30.826  22.387  26.160  1.00  0.00    -0.337 N 
ATOM     13  C   UNL A   1      30.080  23.263  26.846  1.00  0.00     0.314 C 
ATOM     14  H   UNL A   1      30.754  21.470  26.506  1.00  0.00     0.165 HD
ATOM     15  O   UNL A   1      29.511  22.847  27.858  1.00  0.00    -0.249 OA
ATOM     16  N   UNL A   1      29.937  24.552  26.534  1.00  0.00    -0.338 N 
ATOM     17  H   UNL A   1      29.493  25.063  27.249  1.00  0.00     0.165 HD
BRANCH  16  18
ATOM     18  C   UNL A   1      30.280  25.379  25.394  1.00  0.00     0.122 C 
BRANCH  18  19
ATOM     19  C   UNL A   1      31.197  26.479  25.847  1.00  0.00     0.021 C 
ATOM     20  C   UNL A   1      32.520  26.764  25.136  1.00  0.00    -0.025 C 
ATOM     21  C   UNL A   1      31.383  27.805  25.110  1.00  0.00    -0.025 C 
ATOM     22  C   UNL A   1      33.725  26.961  26.032  1.00  0.00     0.012 C 
ATOM     23  C   UNL A   1      32.895  26.052  23.854  1.00  0.00     0.012 C 
ATOM     24  C   UNL A   1      30.624  28.072  23.829  1.00  0.00     0.012 C 
ATOM     25  C   UNL A   1      31.534  29.059  25.949  1.00  0.00     0.012 C 
ENDBRANCH  18  19
ENDBRANCH  16  18
ENDBRANCH  11  12
ENDBRANCH   7  11
ENDBRANCH   4   7
ENDBRANCH   2   3
ENDBRANCH   1   2
BRANCH   1  26
ATOM     26  C   UNL A   1      37.825  23.546  26.162  1.00  0.00     0.002 C 
BRANCH  26  27
ATOM     27  C   UNL A   1      39.069  22.658  26.299  1.00  0.00     0.002 C 
BRANCH  27  28
ATOM     28  C   UNL A   1      39.007  21.312  25.572  1.00  0.00     0.021 C 
BRANCH  28  29
ATOM     29  C   UNL A   1      39.345  20.103  26.435  1.00  0.00     0.116 C 
BRANCH  29  30
ATOM     30  N   UNL A   1      40.520  19.397  25.955  1.00  0.00    -0.352 N 
ATOM     31  C   UNL A   1      41.814  19.835  25.837  1.00  0.00     0.251 C 
ATOM     32  H   UNL A   1      40.365  18.467  25.672  1.00  0.00     0.163 HD
ATOM     33  O   UNL A   1      42.641  19.159  25.233  1.00  0.00    -0.269 OA
BRANCH  31  34
ATOM     34  C   UNL A   1      42.211  21.131  26.424  1.00  0.00     0.039 A 
ATOM     35  C   UNL A   1      42.589  22.168  25.569  1.00  0.00     0.014 A 
ATOM     36  C   UNL A   1      42.233  21.319  27.810  1.00  0.00     0.014 A 
ATOM     37  C   UNL A   1      42.943  23.409  26.102  1.00  0.00     0.010 A 
ATOM     38  C   UNL A   1      42.510  22.577  28.334  1.00  0.00     0.010 A 
ATOM     39  C   UNL A   1      42.879  23.633  27.486  1.00  0.00    -0.014 A 
BRANCH  39  40
ATOM     40  C   UNL A   1      43.203  24.961  28.062  1.00  0.00     0.031 A 
ATOM     41  C   UNL A   1      42.112  25.968  28.308  1.00  0.00     0.074 A 
ATOM     42  C   UNL A   1      44.485  25.280  28.322  1.00  0.00     0.049 A 
ATOM     43  N   UNL A   1      42.204  27.188  28.774  1.00  0.00    -0.248 NA
ATOM     44  C   UNL A   1      40.740  25.560  27.963  1.00  0.00     0.031 C 
ATOM     45  C   UNL A   1      45.639  24.407  28.094  1.00  0.00     0.029 A 
ATOM     46  N   UNL A   1      45.035  26.428  28.835  1.00  0.00    -0.354 N 
ATOM     47  C   UNL A   1      40.910  27.694  28.764  1.00  0.00     0.074 A 
ATOM     48  C   UNL A   1      40.060  26.672  28.195  1.00  0.00     0.031 C 
ATOM     49  C   UNL A   1      46.753  25.038  28.495  1.00  0.00     0.029 A 
ATOM     50  C   UNL A   1      46.400  26.373  28.968  1.00  0.00     0.049 A 
ATOM     51  H   UNL A   1      44.500  27.217  29.084  1.00  0.00     0.167 HD
ATOM     52  C   UNL A   1      40.465  28.894  29.207  1.00  0.00     0.031 A 
ATOM     53  C   UNL A   1      47.273  27.296  29.414  1.00  0.00     0.031 A 
ATOM     54  C   UNL A   1      41.311  29.910  29.777  1.00  0.00     0.049 A 
ATOM     55  C   UNL A   1      46.756  28.629  29.881  1.00  0.00     0.074 A 
ATOM     56  C   UNL A   1      40.949  31.139  30.301  1.00  0.00     0.029 A 
ATOM     57  N   UNL A   1      42.689  29.815  29.891  1.00  0.00    -0.354 N 
ATOM     58  N   UNL A   1      45.521  29.066  29.929  1.00  0.00    -0.248 NA
ATOM     59  C   UNL A   1      47.755  29.590  30.367  1.00  0.00     0.031 C 
ATOM     60  C   UNL A   1      42.115  31.812  30.680  1.00  0.00     0.029 A 
ATOM     61  C   UNL A   1      43.196  30.975  30.454  1.00  0.00     0.049 A 
ATOM     62  H   UNL A   1      43.228  29.039  29.614  1.00  0.00     0.167 HD
ATOM     63  C   UNL A   1      45.591  30.339  30.480  1.00  0.00     0.074 A 
ATOM     64  C   UNL A   1      46.988  30.594  30.765  1.00  0.00     0.031 C 
ATOM     65  C   UNL A   1      44.589  31.217  30.731  1.00  0.00     0.031 A 
BRANCH  52  66
ATOM     66  C   UNL A   1      38.992  29.177  29.082  1.00  0.00    -0.014 A 
ATOM     67  C   UNL A   1      38.120  29.001  30.169  1.00  0.00     0.009 A 
ATOM     68  C   UNL A   1      38.474  29.659  27.870  1.00  0.00     0.009 A 
ATOM     69  C   UNL A   1      36.754  29.261  30.032  1.00  0.00     0.001 A 
ATOM     70  C   UNL A   1      37.114  29.950  27.745  1.00  0.00     0.001 A 
ATOM     71  C   UNL A   1      36.254  29.741  28.823  1.00  0.00     0.000 A 
ENDBRANCH  52  66
BRANCH  53  72
ATOM     72  C   UNL A   1      48.727  26.988  29.459  1.00  0.00    -0.014 A 
ATOM     73  C   UNL A   1      49.555  27.289  28.365  1.00  0.00     0.009 A 
ATOM     74  C   UNL A   1      49.294  26.381  30.591  1.00  0.00     0.009 A 
ATOM     75  C   UNL A   1      50.912  26.960  28.392  1.00  0.00     0.001 A 
ATOM     76  C   UNL A   1      50.658  26.083  30.627  1.00  0.00     0.001 A 
ATOM     77  C   UNL A   1      51.463  26.362  29.524  1.00  0.00     0.000 A 
ENDBRANCH  53  72
BRANCH  65  78
ATOM     78  C   UNL A   1      44.962  32.519  31.383  1.00  0.00    -0.014 A 
ATOM     79  C   UNL A   1      45.272  33.658  30.624  1.00  0.00     0.009 A 
ATOM     80  C   UNL A   1      44.974  32.612  32.784  1.00  0.00     0.009 A 
ATOM     81  C   UNL A   1      45.624  34.854  31.257  1.00  0.00     0.001 A 
ATOM     82  C   UNL A   1      45.293  33.815  33.413  1.00  0.00     0.001 A 
ATOM     83  C   UNL A   1      45.629  34.931  32.650  1.00  0.00     0.000 A 
ENDBRANCH  65  78
ENDBRANCH  39  40
ENDBRANCH  31  34
ENDBRANCH  29  30
ENDBRANCH  28  29
ENDBRANCH  27  28
ENDBRANCH  26  27
ENDBRANCH   1  26
TORSDOF 18
ENDMDL
MODEL 3
REMARK VINA RESULT:     -10.2      3.332      8.839
REMARK SMILES CC(C)[C@@H](CNC(=O)NCC1C(C)(C)C1(C)C)C(=O)NCCCCCCNC(=O)c1ccc(-c2c3nc(c(-c4ccccc4)c4ccc([nH]4)c(-c4ccccc4)c4nc(c(-c5ccccc5)c5ccc2[nH]5)C=C4)C=C3)cc1
REMARK SMILES IDX 22 1 21 2 20 3 18 4 19 5 4 7 2 8 1 9 3 10 5 11 6 12 7 13
REMARK SMILES IDX 8 15 9 16 10 18 11 19 12 20 15 21 13 22 14 23 16 24 17 25
REMARK SMILES IDX 23 26 24 27 25 28 26 29 27 30 28 31 29 33 30 34 31 35 77 36
REMARK SMILES IDX 32 37 76 38 33 39 34 40 35 41 70 42 36 43 75 44 69 45 71 46
REMARK SMILES IDX 37 47 74 48 68 49 67 50 38 52 60 53 45 54 59 55 46 56 49 57
REMARK SMILES IDX 58 58 72 59 47 60 48 61 57 63 73 64 50 65 39 66 40 67 44 68
REMARK SMILES IDX 41 69 43 70 42 71 61 72 62 73 66 74 63 75 65 76 64 77 51 78
REMARK SMILES IDX 52 79 56 80 53 81 55 82 54 83
REMARK H PARENT 20 6 6 14 9 17 27 32 71 51 49 62
REMARK Flexibility Score: inf
ROOT
ATOM      1  C   UNL A   1      33.453  28.976  27.246  1.00  0.00     0.021 C 
ENDROOT
BRANCH   1   2
ATOM      2  C   UNL A   1      32.688  27.719  26.847  1.00  0.00     0.116 C 
BRANCH   2   3
ATOM      3  N   UNL A   1      33.203  27.110  25.638  1.00  0.00    -0.356 N 
ATOM      4  C   UNL A   1      32.558  26.664  24.527  1.00  0.00     0.225 C 
ATOM      5  O   UNL A   1      33.255  26.367  23.551  1.00  0.00    -0.275 OA
ATOM      6  H   UNL A   1      34.181  27.001  25.617  1.00  0.00     0.163 HD
BRANCH   4   7
ATOM      7  C   UNL A   1      31.038  26.507  24.449  1.00  0.00     0.100 C 
BRANCH   7   8
ATOM      8  C   UNL A   1      30.356  27.461  23.422  1.00  0.00    -0.003 C 
ATOM      9  C   UNL A   1      28.831  27.310  23.393  1.00  0.00     0.008 C 
ATOM     10  C   UNL A   1      30.697  28.929  23.732  1.00  0.00     0.008 C 
ENDBRANCH   7   8
BRANCH   7  11
ATOM     11  C   UNL A   1      30.583  25.029  24.476  1.00  0.00     0.131 C 
BRANCH  11  12
ATOM     12  N   UNL A   1      30.090  24.514  25.737  1.00  0.00    -0.337 N 
ATOM     13  C   UNL A   1      30.546  23.624  26.627  1.00  0.00     0.314 C 
ATOM     14  H   UNL A   1      29.226  24.906  25.997  1.00  0.00     0.165 HD
ATOM     15  O   UNL A   1      29.800  23.331  27.565  1.00  0.00    -0.249 OA
ATOM     16  N   UNL A   1      31.728  23.009  26.555  1.00  0.00    -0.338 N 
ATOM     17  H   UNL A   1      31.807  22.272  27.202  1.00  0.00     0.165 HD
BRANCH  16  18
ATOM     18  C   UNL A   1      32.922  23.170  25.749  1.00  0.00     0.122 C 
BRANCH  18  19
ATOM     19  C   UNL A   1      33.545  21.820  25.526  1.00  0.00     0.021 C 
ATOM     20  C   UNL A   1      33.280  21.016  24.253  1.00  0.00    -0.025 C 
ATOM     21  C   UNL A   1      34.694  21.552  24.554  1.00  0.00    -0.025 C 
ATOM     22  C   UNL A   1      32.952  19.551  24.451  1.00  0.00     0.012 C 
ATOM     23  C   UNL A   1      32.502  21.605  23.095  1.00  0.00     0.012 C 
ATOM     24  C   UNL A   1      35.272  22.682  23.733  1.00  0.00     0.012 C 
ATOM     25  C   UNL A   1      35.762  20.565  24.987  1.00  0.00     0.012 C 
ENDBRANCH  18  19
ENDBRANCH  16  18
ENDBRANCH  11  12
ENDBRANCH   7  11
ENDBRANCH   4   7
ENDBRANCH   2   3
ENDBRANCH   1   2
BRANCH   1  26
ATOM     26  C   UNL A   1      33.090  30.216  26.423  1.00  0.00     0.002 C 
BRANCH  26  27
ATOM     27  C   UNL A   1      31.637  30.693  26.553  1.00  0.00     0.002 C 
BRANCH  27  28
ATOM     28  C   UNL A   1      31.452  32.187  26.833  1.00  0.00     0.021 C 
BRANCH  28  29
ATOM     29  C   UNL A   1      32.742  32.950  27.109  1.00  0.00     0.116 C 
BRANCH  29  30
ATOM     30  N   UNL A   1      32.505  34.183  27.840  1.00  0.00    -0.352 N 
ATOM     31  C   UNL A   1      33.181  34.706  28.912  1.00  0.00     0.251 C 
ATOM     32  H   UNL A   1      31.746  34.722  27.520  1.00  0.00     0.163 HD
ATOM     33  O   UNL A   1      32.723  35.667  29.521  1.00  0.00    -0.269 OA
BRANCH  31  34
ATOM     34  C   UNL A   1      34.459  34.102  29.345  1.00  0.00     0.039 A 
ATOM     35  C   UNL A   1      34.459  33.252  30.452  1.00  0.00     0.014 A 
ATOM     36  C   UNL A   1      35.654  34.388  28.677  1.00  0.00     0.014 A 
ATOM     37  C   UNL A   1      35.650  32.651  30.863  1.00  0.00     0.010 A 
ATOM     38  C   UNL A   1      36.824  33.727  29.039  1.00  0.00     0.010 A 
ATOM     39  C   UNL A   1      36.837  32.860  30.143  1.00  0.00    -0.014 A 
BRANCH  39  40
ATOM     40  C   UNL A   1      38.099  32.187  30.536  1.00  0.00     0.031 A 
ATOM     41  C   UNL A   1      39.009  32.817  31.556  1.00  0.00     0.074 A 
ATOM     42  C   UNL A   1      38.451  31.031  29.942  1.00  0.00     0.049 A 
ATOM     43  N   UNL A   1      40.165  32.395  32.004  1.00  0.00    -0.248 NA
ATOM     44  C   UNL A   1      38.574  34.100  32.132  1.00  0.00     0.031 C 
ATOM     45  C   UNL A   1      37.675  30.337  28.911  1.00  0.00     0.029 A 
ATOM     46  N   UNL A   1      39.554  30.234  30.118  1.00  0.00    -0.354 N 
ATOM     47  C   UNL A   1      40.599  33.365  32.899  1.00  0.00     0.074 A 
ATOM     48  C   UNL A   1      39.612  34.421  32.890  1.00  0.00     0.031 C 
ATOM     49  C   UNL A   1      38.309  29.205  28.572  1.00  0.00     0.029 A 
ATOM     50  C   UNL A   1      39.555  29.113  29.327  1.00  0.00     0.049 A 
ATOM     51  H   UNL A   1      40.277  30.447  30.753  1.00  0.00     0.167 HD
ATOM     52  C   UNL A   1      41.710  33.367  33.674  1.00  0.00     0.031 A 
ATOM     53  C   UNL A   1      40.460  28.122  29.215  1.00  0.00     0.031 A 
ATOM     54  C   UNL A   1      42.691  32.313  33.684  1.00  0.00     0.049 A 
ATOM     55  C   UNL A   1      41.696  28.159  30.071  1.00  0.00     0.074 A 
ATOM     56  C   UNL A   1      43.824  32.200  34.470  1.00  0.00     0.029 A 
ATOM     57  N   UNL A   1      42.655  31.196  32.865  1.00  0.00    -0.354 N 
ATOM     58  N   UNL A   1      42.059  29.049  30.963  1.00  0.00    -0.248 NA
ATOM     59  C   UNL A   1      42.642  27.045  29.913  1.00  0.00     0.031 C 
ATOM     60  C   UNL A   1      44.506  31.040  34.086  1.00  0.00     0.029 A 
ATOM     61  C   UNL A   1      43.762  30.399  33.109  1.00  0.00     0.049 A 
ATOM     62  H   UNL A   1      41.949  30.997  32.209  1.00  0.00     0.167 HD
ATOM     63  C   UNL A   1      43.255  28.587  31.496  1.00  0.00     0.074 A 
ATOM     64  C   UNL A   1      43.547  27.330  30.838  1.00  0.00     0.031 C 
ATOM     65  C   UNL A   1      44.041  29.150  32.445  1.00  0.00     0.031 A 
BRANCH  52  66
ATOM     66  C   UNL A   1      41.927  34.556  34.570  1.00  0.00    -0.014 A 
ATOM     67  C   UNL A   1      41.452  34.571  35.892  1.00  0.00     0.009 A 
ATOM     68  C   UNL A   1      42.647  35.665  34.097  1.00  0.00     0.009 A 
ATOM     69  C   UNL A   1      41.658  35.687  36.707  1.00  0.00     0.001 A 
ATOM     70  C   UNL A   1      42.879  36.766  34.925  1.00  0.00     0.001 A 
ATOM     71  C   UNL A   1      42.376  36.780  36.225  1.00  0.00     0.000 A 
ENDBRANCH  52  66
BRANCH  53  72
ATOM     72  C   UNL A   1      40.227  27.001  28.268  1.00  0.00    -0.014 A 
ATOM     73  C   UNL A   1      39.501  25.867  28.668  1.00  0.00     0.009 A 
ATOM     74  C   UNL A   1      40.738  27.051  26.961  1.00  0.00     0.009 A 
ATOM     75  C   UNL A   1      39.319  24.796  27.790  1.00  0.00     0.001 A 
ATOM     76  C   UNL A   1      40.526  25.992  26.075  1.00  0.00     0.001 A 
ATOM     77  C   UNL A   1      39.828  24.861  26.494  1.00  0.00     0.000 A 
ENDBRANCH  53  72
BRANCH  65  78
ATOM     78  C   UNL A   1      45.270  28.391  32.861  1.00  0.00    -0.014 A 
ATOM     79  C   UNL A   1      46.511  28.605  32.240  1.00  0.00     0.009 A 
ATOM     80  C   UNL A   1      45.188  27.467  33.914  1.00  0.00     0.009 A 
ATOM     81  C   UNL A   1      47.635  27.879  32.640  1.00  0.00     0.001 A 
ATOM     82  C   UNL A   1      46.320  26.768  34.335  1.00  0.00     0.001 A 
ATOM     83  C   UNL A   1      47.539  26.965  33.690  1.00  0.00     0.000 A 
ENDBRANCH  65  78
ENDBRANCH  39  40
ENDBRANCH  31  34
ENDBRANCH  29  30
ENDBRANCH  28  29
ENDBRANCH  27  28
ENDBRANCH  26  27
ENDBRANCH   1  26
TORSDOF 18
ENDMDL
