MODEL 1
REMARK VINA RESULT:     -10.7      0.000      0.000
REMARK SMILES Cc1cc(C)nc(N2CCCC[C@H]2C(=O)NCCCCCCNC(=O)c2ccc(-c3c4nc(c(-c5ccccc5)c5ccc([nH]5)c(-c5ccccc5)c5nc(c(-c6ccccc6)c6ccc3[nH]6)C=C5)C=C4)cc2)n1
REMARK SMILES IDX 20 1 19 2 18 3 17 4 16 5 14 6 15 7 13 9 8 10 9 11 10 12
REMARK SMILES IDX 12 13 11 14 7 15 1 16 2 17 3 18 74 19 4 20 5 21 6 22 21 23
REMARK SMILES IDX 22 24 23 25 24 26 25 28 26 29 27 30 73 31 28 32 72 33 29 34
REMARK SMILES IDX 30 35 31 36 66 37 32 38 71 39 65 40 67 41 33 42 70 43 64 44
REMARK SMILES IDX 63 45 34 47 56 48 41 49 55 50 42 51 45 52 54 53 68 54 43 55
REMARK SMILES IDX 44 56 53 58 69 59 46 60 35 61 36 62 40 63 37 64 39 65 38 66
REMARK SMILES IDX 57 67 58 68 62 69 59 70 61 71 60 72 47 73 48 74 52 75 49 76
REMARK SMILES IDX 51 77 50 78
REMARK H PARENT 16 8 23 27 67 46 45 57
REMARK Flexibility Score: inf
ROOT
ATOM      1  C   UNL A   1      36.443  20.466  24.992  1.00  0.00     0.002 C 
ENDROOT
BRANCH   1   2
ATOM      2  C   UNL A   1      36.603  21.989  24.921  1.00  0.00     0.002 C 
BRANCH   2   3
ATOM      3  C   UNL A   1      36.622  22.631  23.528  1.00  0.00     0.021 C 
BRANCH   3   4
ATOM      4  C   UNL A   1      35.531  23.658  23.242  1.00  0.00     0.116 C 
BRANCH   4   5
ATOM      5  N   UNL A   1      34.212  23.090  23.089  1.00  0.00    -0.354 N 
ATOM      6  C   UNL A   1      33.054  23.443  23.729  1.00  0.00     0.242 C 
ATOM      7  O   UNL A   1      32.017  22.945  23.276  1.00  0.00    -0.273 OA
ATOM      8  H   UNL A   1      34.136  22.353  22.441  1.00  0.00     0.163 HD
BRANCH   6   9
ATOM      9  C   UNL A   1      33.059  24.379  24.977  1.00  0.00     0.174 C 
ATOM     10  N   UNL A   1      31.763  25.015  25.213  1.00  0.00    -0.329 N 
ATOM     11  C   UNL A   1      30.627  24.217  25.612  1.00  0.00     0.120 C 
ATOM     12  C   UNL A   1      30.967  23.429  26.875  1.00  0.00     0.022 C 
ATOM     13  C   UNL A   1      33.424  23.580  26.250  1.00  0.00     0.035 C 
ATOM     14  C   UNL A   1      32.290  22.676  26.754  1.00  0.00     0.004 C 
BRANCH  10  15
ATOM     15  C   UNL A   1      31.609  26.358  25.029  1.00  0.00     0.226 A 
ATOM     16  C   UNL A   1      32.236  29.330  27.056  1.00  0.00     0.067 C 
ATOM     17  C   UNL A   1      31.822  28.487  25.896  1.00  0.00     0.043 A 
ATOM     18  C   UNL A   1      31.164  29.032  24.824  1.00  0.00     0.047 A 
ATOM     19  N   UNL A   1      32.055  27.165  25.999  1.00  0.00    -0.218 NA
ATOM     20  C   UNL A   1      30.790  28.149  23.833  1.00  0.00     0.043 A 
ATOM     21  C   UNL A   1      30.116  28.679  22.603  1.00  0.00     0.067 C 
ATOM     22  N   UNL A   1      30.989  26.814  23.931  1.00  0.00    -0.218 NA
ENDBRANCH  10  15
ENDBRANCH   6   9
ENDBRANCH   4   5
ENDBRANCH   3   4
ENDBRANCH   2   3
ENDBRANCH   1   2
BRANCH   1  23
ATOM     23  C   UNL A   1      37.722  19.630  24.987  1.00  0.00     0.021 C 
BRANCH  23  24
ATOM     24  C   UNL A   1      38.955  20.236  25.646  1.00  0.00     0.116 C 
BRANCH  24  25
ATOM     25  N   UNL A   1      40.061  19.303  25.747  1.00  0.00    -0.352 N 
ATOM     26  C   UNL A   1      41.373  19.536  26.086  1.00  0.00     0.251 C 
ATOM     27  H   UNL A   1      39.839  18.366  25.543  1.00  0.00     0.163 HD
ATOM     28  O   UNL A   1      42.202  18.638  25.970  1.00  0.00    -0.269 OA
BRANCH  26  29
ATOM     29  C   UNL A   1      41.808  20.866  26.579  1.00  0.00     0.039 A 
ATOM     30  C   UNL A   1      41.836  21.095  27.959  1.00  0.00     0.014 A 
ATOM     31  C   UNL A   1      42.135  21.902  25.700  1.00  0.00     0.014 A 
ATOM     32  C   UNL A   1      42.227  22.344  28.457  1.00  0.00     0.010 A 
ATOM     33  C   UNL A   1      42.591  23.125  26.197  1.00  0.00     0.010 A 
ATOM     34  C   UNL A   1      42.624  23.365  27.580  1.00  0.00    -0.014 A 
BRANCH  34  35
ATOM     35  C   UNL A   1      43.024  24.707  28.080  1.00  0.00     0.031 A 
ATOM     36  C   UNL A   1      41.974  25.752  28.348  1.00  0.00     0.074 A 
ATOM     37  C   UNL A   1      44.326  25.017  28.237  1.00  0.00     0.049 A 
ATOM     38  N   UNL A   1      42.122  27.008  28.692  1.00  0.00    -0.248 NA
ATOM     39  C   UNL A   1      40.573  25.336  28.181  1.00  0.00     0.031 C 
ATOM     40  C   UNL A   1      45.449  24.111  27.993  1.00  0.00     0.029 A 
ATOM     41  N   UNL A   1      44.922  26.191  28.628  1.00  0.00    -0.354 N 
ATOM     42  C   UNL A   1      40.838  27.535  28.757  1.00  0.00     0.074 A 
ATOM     43  C   UNL A   1      39.929  26.478  28.372  1.00  0.00     0.031 C 
ATOM     44  C   UNL A   1      46.597  24.759  28.251  1.00  0.00     0.029 A 
ATOM     45  C   UNL A   1      46.295  26.133  28.641  1.00  0.00     0.049 A 
ATOM     46  H   UNL A   1      44.415  26.998  28.874  1.00  0.00     0.167 HD
ATOM     47  C   UNL A   1      40.444  28.779  29.120  1.00  0.00     0.031 A 
ATOM     48  C   UNL A   1      47.208  27.081  28.923  1.00  0.00     0.031 A 
ATOM     49  C   UNL A   1      41.341  29.830  29.519  1.00  0.00     0.049 A 
ATOM     50  C   UNL A   1      46.753  28.460  29.317  1.00  0.00     0.074 A 
ATOM     51  C   UNL A   1      41.035  31.109  29.951  1.00  0.00     0.029 A 
ATOM     52  N   UNL A   1      42.723  29.721  29.537  1.00  0.00    -0.354 N 
ATOM     53  N   UNL A   1      45.533  28.927  29.417  1.00  0.00    -0.248 NA
ATOM     54  C   UNL A   1      47.803  29.435  29.647  1.00  0.00     0.031 C 
ATOM     55  C   UNL A   1      42.234  31.789  30.188  1.00  0.00     0.029 A 
ATOM     56  C   UNL A   1      43.285  30.916  29.955  1.00  0.00     0.049 A 
ATOM     57  H   UNL A   1      43.230  28.915  29.290  1.00  0.00     0.167 HD
ATOM     58  C   UNL A   1      45.666  30.242  29.847  1.00  0.00     0.074 A 
ATOM     59  C   UNL A   1      47.084  30.494  29.998  1.00  0.00     0.031 C 
ATOM     60  C   UNL A   1      44.698  31.155  30.101  1.00  0.00     0.031 A 
BRANCH  47  61
ATOM     61  C   UNL A   1      38.968  29.069  29.085  1.00  0.00    -0.014 A 
ATOM     62  C   UNL A   1      38.336  29.489  27.903  1.00  0.00     0.009 A 
ATOM     63  C   UNL A   1      38.198  28.912  30.247  1.00  0.00     0.009 A 
ATOM     64  C   UNL A   1      36.974  29.794  27.899  1.00  0.00     0.001 A 
ATOM     65  C   UNL A   1      36.829  29.188  30.232  1.00  0.00     0.001 A 
ATOM     66  C   UNL A   1      36.221  29.641  29.063  1.00  0.00     0.000 A 
ENDBRANCH  47  61
BRANCH  48  67
ATOM     67  C   UNL A   1      48.656  26.751  28.855  1.00  0.00    -0.014 A 
ATOM     68  C   UNL A   1      49.332  26.275  29.988  1.00  0.00     0.009 A 
ATOM     69  C   UNL A   1      49.364  26.893  27.651  1.00  0.00     0.009 A 
ATOM     70  C   UNL A   1      50.693  25.966  29.922  1.00  0.00     0.001 A 
ATOM     71  C   UNL A   1      50.716  26.558  27.581  1.00  0.00     0.001 A 
ATOM     72  C   UNL A   1      51.382  26.101  28.717  1.00  0.00     0.000 A 
ENDBRANCH  48  67
BRANCH  60  73
ATOM     73  C   UNL A   1      45.131  32.503  30.604  1.00  0.00    -0.014 A 
ATOM     74  C   UNL A   1      45.379  33.565  29.722  1.00  0.00     0.009 A 
ATOM     75  C   UNL A   1      45.235  32.725  31.986  1.00  0.00     0.009 A 
ATOM     76  C   UNL A   1      45.748  34.819  30.216  1.00  0.00     0.001 A 
ATOM     77  C   UNL A   1      45.579  33.986  32.477  1.00  0.00     0.001 A 
ATOM     78  C   UNL A   1      45.842  35.029  31.592  1.00  0.00     0.000 A 
ENDBRANCH  60  73
ENDBRANCH  34  35
ENDBRANCH  26  29
ENDBRANCH  24  25
ENDBRANCH  23  24
ENDBRANCH   1  23
TORSDOF 14
ENDMDL
MODEL 2
REMARK VINA RESULT:     -10.6      5.422     10.278
REMARK SMILES Cc1cc(C)nc(N2CCCC[C@H]2C(=O)NCCCCCCNC(=O)c2ccc(-c3c4nc(c(-c5ccccc5)c5ccc([nH]5)c(-c5ccccc5)c5nc(c(-c6ccccc6)c6ccc3[nH]6)C=C5)C=C4)cc2)n1
REMARK SMILES IDX 20 1 19 2 18 3 17 4 16 5 14 6 15 7 13 9 8 10 9 11 10 12
REMARK SMILES IDX 12 13 11 14 7 15 1 16 2 17 3 18 74 19 4 20 5 21 6 22 21 23
REMARK SMILES IDX 22 24 23 25 24 26 25 28 26 29 27 30 73 31 28 32 72 33 29 34
REMARK SMILES IDX 30 35 31 36 66 37 32 38 71 39 65 40 67 41 33 42 70 43 64 44
REMARK SMILES IDX 63 45 34 47 56 48 41 49 55 50 42 51 45 52 54 53 68 54 43 55
REMARK SMILES IDX 44 56 53 58 69 59 46 60 35 61 36 62 40 63 37 64 39 65 38 66
REMARK SMILES IDX 57 67 58 68 62 69 59 70 61 71 60 72 47 73 48 74 52 75 49 76
REMARK SMILES IDX 51 77 50 78
REMARK H PARENT 16 8 23 27 67 46 45 57
REMARK Flexibility Score: inf
ROOT
ATOM      1  C   UNL A   1      34.613  33.784  29.101  1.00  0.00     0.002 C 
ENDROOT
BRANCH   1   2
ATOM      2  C   UNL A   1      34.806  32.776  27.962  1.00  0.00     0.002 C 
BRANCH   2   3
ATOM      3  C   UNL A   1      34.543  31.299  28.277  1.00  0.00     0.021 C 
BRANCH   3   4
ATOM      4  C   UNL A   1      33.854  30.486  27.185  1.00  0.00     0.116 C 
BRANCH   4   5
ATOM      5  N   UNL A   1      32.704  29.743  27.641  1.00  0.00    -0.354 N 
ATOM      6  C   UNL A   1      32.233  28.539  27.187  1.00  0.00     0.242 C 
ATOM      7  O   UNL A   1      31.352  28.012  27.876  1.00  0.00    -0.273 OA
ATOM      8  H   UNL A   1      32.190  30.154  28.373  1.00  0.00     0.163 HD
BRANCH   6   9
ATOM      9  C   UNL A   1      32.750  27.905  25.859  1.00  0.00     0.174 C 
ATOM     10  N   UNL A   1      32.078  26.649  25.532  1.00  0.00    -0.329 N 
ATOM     11  C   UNL A   1      30.678  26.648  25.178  1.00  0.00     0.120 C 
ATOM     12  C   UNL A   1      30.441  27.592  24.002  1.00  0.00     0.022 C 
ATOM     13  C   UNL A   1      32.528  28.874  24.675  1.00  0.00     0.035 C 
ATOM     14  C   UNL A   1      31.062  28.969  24.226  1.00  0.00     0.004 C 
BRANCH  10  15
ATOM     15  C   UNL A   1      32.757  25.466  25.587  1.00  0.00     0.226 A 
ATOM     16  C   UNL A   1      34.882  23.598  23.280  1.00  0.00     0.067 C 
ATOM     17  C   UNL A   1      34.126  23.946  24.520  1.00  0.00     0.043 A 
ATOM     18  C   UNL A   1      33.987  23.042  25.541  1.00  0.00     0.047 A 
ATOM     19  N   UNL A   1      33.529  25.152  24.541  1.00  0.00    -0.218 NA
ATOM     20  C   UNL A   1      33.230  23.459  26.615  1.00  0.00     0.043 A 
ATOM     21  C   UNL A   1      33.078  22.546  27.795  1.00  0.00     0.067 C 
ATOM     22  N   UNL A   1      32.597  24.655  26.643  1.00  0.00    -0.218 NA
ENDBRANCH  10  15
ENDBRANCH   6   9
ENDBRANCH   4   5
ENDBRANCH   3   4
ENDBRANCH   2   3
ENDBRANCH   1   2
BRANCH   1  23
ATOM     23  C   UNL A   1      33.251  34.469  29.203  1.00  0.00     0.021 C 
BRANCH  23  24
ATOM     24  C   UNL A   1      33.241  35.962  29.509  1.00  0.00     0.116 C 
BRANCH  24  25
ATOM     25  N   UNL A   1      32.511  36.288  30.719  1.00  0.00    -0.352 N 
ATOM     26  C   UNL A   1      32.717  35.857  32.008  1.00  0.00     0.251 C 
ATOM     27  H   UNL A   1      31.757  36.910  30.598  1.00  0.00     0.163 HD
ATOM     28  O   UNL A   1      31.897  36.127  32.880  1.00  0.00    -0.269 OA
BRANCH  26  29
ATOM     29  C   UNL A   1      33.915  35.055  32.360  1.00  0.00     0.039 A 
ATOM     30  C   UNL A   1      35.178  35.644  32.237  1.00  0.00     0.014 A 
ATOM     31  C   UNL A   1      33.811  33.719  32.758  1.00  0.00     0.014 A 
ATOM     32  C   UNL A   1      36.329  34.910  32.547  1.00  0.00     0.010 A 
ATOM     33  C   UNL A   1      34.953  33.010  33.132  1.00  0.00     0.010 A 
ATOM     34  C   UNL A   1      36.226  33.591  33.013  1.00  0.00    -0.014 A 
BRANCH  34  35
ATOM     35  C   UNL A   1      37.432  32.781  33.330  1.00  0.00     0.031 A 
ATOM     36  C   UNL A   1      38.175  33.012  34.619  1.00  0.00     0.074 A 
ATOM     37  C   UNL A   1      37.903  31.882  32.444  1.00  0.00     0.049 A 
ATOM     38  N   UNL A   1      39.298  32.483  35.036  1.00  0.00    -0.248 NA
ATOM     39  C   UNL A   1      37.589  33.990  35.550  1.00  0.00     0.031 C 
ATOM     40  C   UNL A   1      37.298  31.571  31.148  1.00  0.00     0.029 A 
ATOM     41  N   UNL A   1      39.012  31.073  32.498  1.00  0.00    -0.354 N 
ATOM     42  C   UNL A   1      39.564  33.079  36.262  1.00  0.00     0.074 A 
ATOM     43  C   UNL A   1      38.512  34.044  36.498  1.00  0.00     0.031 C 
ATOM     44  C   UNL A   1      38.036  30.631  30.535  1.00  0.00     0.029 A 
ATOM     45  C   UNL A   1      39.184  30.300  31.375  1.00  0.00     0.049 A 
ATOM     46  H   UNL A   1      39.625  31.050  33.267  1.00  0.00     0.167 HD
ATOM     47  C   UNL A   1      40.580  32.839  37.125  1.00  0.00     0.031 A 
ATOM     48  C   UNL A   1      40.161  29.432  31.051  1.00  0.00     0.031 A 
ATOM     49  C   UNL A   1      41.621  31.872  36.903  1.00  0.00     0.049 A 
ATOM     50  C   UNL A   1      41.286  29.184  32.018  1.00  0.00     0.074 A 
ATOM     51  C   UNL A   1      42.666  31.522  37.741  1.00  0.00     0.029 A 
ATOM     52  N   UNL A   1      41.746  31.096  35.761  1.00  0.00    -0.354 N 
ATOM     53  N   UNL A   1      41.498  29.724  33.193  1.00  0.00    -0.248 NA
ATOM     54  C   UNL A   1      42.299  28.197  31.616  1.00  0.00     0.031 C 
ATOM     55  C   UNL A   1      43.450  30.565  37.085  1.00  0.00     0.029 A 
ATOM     56  C   UNL A   1      42.861  30.282  35.863  1.00  0.00     0.049 A 
ATOM     57  H   UNL A   1      41.133  31.121  34.992  1.00  0.00     0.167 HD
ATOM     58  C   UNL A   1      42.651  29.124  33.683  1.00  0.00     0.074 A 
ATOM     59  C   UNL A   1      43.088  28.173  32.682  1.00  0.00     0.031 C 
ATOM     60  C   UNL A   1      43.286  29.339  34.861  1.00  0.00     0.031 A 
BRANCH  47  61
ATOM     61  C   UNL A   1      40.617  33.657  38.387  1.00  0.00    -0.014 A 
ATOM     62  C   UNL A   1      41.304  34.881  38.443  1.00  0.00     0.009 A 
ATOM     63  C   UNL A   1      39.946  33.202  39.533  1.00  0.00     0.009 A 
ATOM     64  C   UNL A   1      41.363  35.605  39.635  1.00  0.00     0.001 A 
ATOM     65  C   UNL A   1      39.980  33.946  40.715  1.00  0.00     0.001 A 
ATOM     66  C   UNL A   1      40.699  35.139  40.769  1.00  0.00     0.000 A 
ENDBRANCH  47  61
BRANCH  48  67
ATOM     67  C   UNL A   1      40.110  28.720  29.747  1.00  0.00    -0.014 A 
ATOM     68  C   UNL A   1      39.494  27.464  29.646  1.00  0.00     0.009 A 
ATOM     69  C   UNL A   1      40.661  29.302  28.595  1.00  0.00     0.009 A 
ATOM     70  C   UNL A   1      39.448  26.797  28.420  1.00  0.00     0.001 A 
ATOM     71  C   UNL A   1      40.590  28.645  27.366  1.00  0.00     0.001 A 
ATOM     72  C   UNL A   1      39.989  27.390  27.280  1.00  0.00     0.000 A 
ENDBRANCH  48  67
BRANCH  60  73
ATOM     73  C   UNL A   1      44.502  28.507  35.154  1.00  0.00    -0.014 A 
ATOM     74  C   UNL A   1      45.790  28.954  34.821  1.00  0.00     0.009 A 
ATOM     75  C   UNL A   1      44.358  27.284  35.827  1.00  0.00     0.009 A 
ATOM     76  C   UNL A   1      46.908  28.177  35.134  1.00  0.00     0.001 A 
ATOM     77  C   UNL A   1      45.479  26.522  36.162  1.00  0.00     0.001 A 
ATOM     78  C   UNL A   1      46.752  26.966  35.809  1.00  0.00     0.000 A 
ENDBRANCH  60  73
ENDBRANCH  34  35
ENDBRANCH  26  29
ENDBRANCH  24  25
ENDBRANCH  23  24
ENDBRANCH   1  23
TORSDOF 14
ENDMDL
MODEL 3
REMARK VINA RESULT:     -10.6      2.642      7.160
REMARK SMILES Cc1cc(C)nc(N2CCCC[C@H]2C(=O)NCCCCCCNC(=O)c2ccc(-c3c4nc(c(-c5ccccc5)c5ccc([nH]5)c(-c5ccccc5)c5nc(c(-c6ccccc6)c6ccc3[nH]6)C=C5)C=C4)cc2)n1
REMARK SMILES IDX 20 1 19 2 18 3 17 4 16 5 14 6 15 7 13 9 8 10 9 11 10 12
REMARK SMILES IDX 12 13 11 14 7 15 1 16 2 17 3 18 74 19 4 20 5 21 6 22 21 23
REMARK SMILES IDX 22 24 23 25 24 26 25 28 26 29 27 30 73 31 28 32 72 33 29 34
REMARK SMILES IDX 30 35 31 36 66 37 32 38 71 39 65 40 67 41 33 42 70 43 64 44
REMARK SMILES IDX 63 45 34 47 56 48 41 49 55 50 42 51 45 52 54 53 68 54 43 55
REMARK SMILES IDX 44 56 53 58 69 59 46 60 35 61 36 62 40 63 37 64 39 65 38 66
REMARK SMILES IDX 57 67 58 68 62 69 59 70 61 71 60 72 47 73 48 74 52 75 49 76
REMARK SMILES IDX 51 77 50 78
REMARK H PARENT 16 8 23 27 67 46 45 57
REMARK Flexibility Score: inf
ROOT
ATOM      1  C   UNL A   1      35.416  21.735  24.623  1.00  0.00     0.002 C 
ENDROOT
BRANCH   1   2
ATOM      2  C   UNL A   1      33.886  21.779  24.696  1.00  0.00     0.002 C 
BRANCH   2   3
ATOM      3  C   UNL A   1      33.155  22.630  23.650  1.00  0.00     0.021 C 
BRANCH   3   4
ATOM      4  C   UNL A   1      32.734  24.029  24.089  1.00  0.00     0.116 C 
BRANCH   4   5
ATOM      5  N   UNL A   1      32.482  24.938  22.996  1.00  0.00    -0.354 N 
ATOM      6  C   UNL A   1      31.940  26.195  23.042  1.00  0.00     0.242 C 
ATOM      7  O   UNL A   1      32.017  26.852  21.998  1.00  0.00    -0.273 OA
ATOM      8  H   UNL A   1      32.732  24.613  22.101  1.00  0.00     0.163 HD
BRANCH   6   9
ATOM      9  C   UNL A   1      31.233  26.736  24.323  1.00  0.00     0.174 C 
ATOM     10  N   UNL A   1      30.980  28.175  24.265  1.00  0.00    -0.329 N 
ATOM     11  C   UNL A   1      30.028  28.705  23.317  1.00  0.00     0.120 C 
ATOM     12  C   UNL A   1      28.673  28.028  23.511  1.00  0.00     0.022 C 
ATOM     13  C   UNL A   1      29.871  26.032  24.527  1.00  0.00     0.035 C 
ATOM     14  C   UNL A   1      28.783  26.505  23.553  1.00  0.00     0.004 C 
BRANCH  10  15
ATOM     15  C   UNL A   1      31.661  29.030  25.082  1.00  0.00     0.226 A 
ATOM     16  C   UNL A   1      34.667  28.791  27.141  1.00  0.00     0.067 C 
ATOM     17  C   UNL A   1      33.450  29.372  26.499  1.00  0.00     0.043 A 
ATOM     18  C   UNL A   1      32.973  30.603  26.870  1.00  0.00     0.047 A 
ATOM     19  N   UNL A   1      32.811  28.593  25.606  1.00  0.00    -0.218 NA
ATOM     20  C   UNL A   1      31.818  31.015  26.241  1.00  0.00     0.043 A 
ATOM     21  C   UNL A   1      31.266  32.374  26.554  1.00  0.00     0.067 C 
ATOM     22  N   UNL A   1      31.144  30.236  25.364  1.00  0.00    -0.218 NA
ENDBRANCH  10  15
ENDBRANCH   6   9
ENDBRANCH   4   5
ENDBRANCH   3   4
ENDBRANCH   2   3
ENDBRANCH   1   2
BRANCH   1  23
ATOM     23  C   UNL A   1      36.132  23.017  24.199  1.00  0.00     0.021 C 
BRANCH  23  24
ATOM     24  C   UNL A   1      37.168  23.588  25.159  1.00  0.00     0.116 C 
BRANCH  24  25
ATOM     25  N   UNL A   1      38.243  22.660  25.452  1.00  0.00    -0.352 N 
ATOM     26  C   UNL A   1      39.427  22.875  26.117  1.00  0.00     0.251 C 
ATOM     27  H   UNL A   1      38.102  21.741  25.129  1.00  0.00     0.163 HD
ATOM     28  O   UNL A   1      40.284  21.996  26.136  1.00  0.00    -0.269 OA
BRANCH  26  29
ATOM     29  C   UNL A   1      39.693  24.163  26.802  1.00  0.00     0.039 A 
ATOM     30  C   UNL A   1      40.420  25.147  26.123  1.00  0.00     0.014 A 
ATOM     31  C   UNL A   1      39.282  24.392  28.118  1.00  0.00     0.014 A 
ATOM     32  C   UNL A   1      40.701  26.369  26.746  1.00  0.00     0.010 A 
ATOM     33  C   UNL A   1      39.503  25.635  28.714  1.00  0.00     0.010 A 
ATOM     34  C   UNL A   1      40.231  26.630  28.042  1.00  0.00    -0.014 A 
BRANCH  34  35
ATOM     35  C   UNL A   1      40.532  27.910  28.736  1.00  0.00     0.031 A 
ATOM     36  C   UNL A   1      41.856  28.096  29.429  1.00  0.00     0.074 A 
ATOM     37  C   UNL A   1      39.605  28.885  28.802  1.00  0.00     0.049 A 
ATOM     38  N   UNL A   1      42.273  29.093  30.169  1.00  0.00    -0.248 NA
ATOM     39  C   UNL A   1      42.829  27.001  29.292  1.00  0.00     0.031 C 
ATOM     40  C   UNL A   1      38.274  28.833  28.197  1.00  0.00     0.029 A 
ATOM     41  N   UNL A   1      39.641  30.110  29.424  1.00  0.00    -0.354 N 
ATOM     42  C   UNL A   1      43.542  28.735  30.604  1.00  0.00     0.074 A 
ATOM     43  C   UNL A   1      43.807  27.410  30.086  1.00  0.00     0.031 C 
ATOM     44  C   UNL A   1      37.624  29.978  28.467  1.00  0.00     0.029 A 
ATOM     45  C   UNL A   1      38.477  30.827  29.295  1.00  0.00     0.049 A 
ATOM     46  H   UNL A   1      40.426  30.441  29.917  1.00  0.00     0.167 HD
ATOM     47  C   UNL A   1      44.419  29.446  31.354  1.00  0.00     0.031 A 
ATOM     48  C   UNL A   1      38.128  32.028  29.794  1.00  0.00     0.031 A 
ATOM     49  C   UNL A   1      44.168  30.768  31.860  1.00  0.00     0.049 A 
ATOM     50  C   UNL A   1      39.111  32.800  30.631  1.00  0.00     0.074 A 
ATOM     51  C   UNL A   1      45.013  31.589  32.587  1.00  0.00     0.029 A 
ATOM     52  N   UNL A   1      42.983  31.466  31.687  1.00  0.00    -0.354 N 
ATOM     53  N   UNL A   1      40.324  32.465  30.996  1.00  0.00    -0.248 NA
ATOM     54  C   UNL A   1      38.679  34.119  31.114  1.00  0.00     0.031 C 
ATOM     55  C   UNL A   1      44.322  32.766  32.893  1.00  0.00     0.029 A 
ATOM     56  C   UNL A   1      43.066  32.699  32.311  1.00  0.00     0.049 A 
ATOM     57  H   UNL A   1      42.198  31.134  31.195  1.00  0.00     0.167 HD
ATOM     58  C   UNL A   1      40.811  33.542  31.727  1.00  0.00     0.074 A 
ATOM     59  C   UNL A   1      39.765  34.543  31.747  1.00  0.00     0.031 C 
ATOM     60  C   UNL A   1      42.019  33.688  32.323  1.00  0.00     0.031 A 
BRANCH  47  61
ATOM     61  C   UNL A   1      45.732  28.788  31.682  1.00  0.00    -0.014 A 
ATOM     62  C   UNL A   1      46.828  28.874  30.808  1.00  0.00     0.009 A 
ATOM     63  C   UNL A   1      45.877  28.080  32.885  1.00  0.00     0.009 A 
ATOM     64  C   UNL A   1      48.025  28.221  31.109  1.00  0.00     0.001 A 
ATOM     65  C   UNL A   1      47.086  27.455  33.198  1.00  0.00     0.001 A 
ATOM     66  C   UNL A   1      48.154  27.515  32.304  1.00  0.00     0.000 A 
ENDBRANCH  47  61
BRANCH  48  67
ATOM     67  C   UNL A   1      36.780  32.583  29.503  1.00  0.00    -0.014 A 
ATOM     68  C   UNL A   1      36.539  33.275  28.307  1.00  0.00     0.009 A 
ATOM     69  C   UNL A   1      35.725  32.407  30.412  1.00  0.00     0.009 A 
ATOM     70  C   UNL A   1      35.271  33.796  28.036  1.00  0.00     0.001 A 
ATOM     71  C   UNL A   1      34.454  32.906  30.126  1.00  0.00     0.001 A 
ATOM     72  C   UNL A   1      34.228  33.605  28.942  1.00  0.00     0.000 A 
ENDBRANCH  48  67
BRANCH  60  73
ATOM     73  C   UNL A   1      42.296  34.991  33.017  1.00  0.00    -0.014 A 
ATOM     74  C   UNL A   1      41.794  35.256  34.300  1.00  0.00     0.009 A 
ATOM     75  C   UNL A   1      43.121  35.944  32.398  1.00  0.00     0.009 A 
ATOM     76  C   UNL A   1      42.092  36.462  34.939  1.00  0.00     0.001 A 
ATOM     77  C   UNL A   1      43.439  37.137  33.050  1.00  0.00     0.001 A 
ATOM     78  C   UNL A   1      42.919  37.398  34.316  1.00  0.00     0.000 A 
ENDBRANCH  60  73
ENDBRANCH  34  35
ENDBRANCH  26  29
ENDBRANCH  24  25
ENDBRANCH  23  24
ENDBRANCH   1  23
TORSDOF 14
ENDMDL
