MODEL 1
REMARK VINA RESULT:     -10.9      0.000      0.000
REMARK SMILES O=C(NCCCCCCNC(=O)C1(NC(=O)c2nc(C3CC3)n[nH]2)CCCCC1)c1ccc(-c2c3nc(c(-c4ccccc4)c4ccc([nH]4)c(-c4ccccc4)c4nc(c(-c5ccccc5)c5ccc2[nH]5)C=C4)C=C3)cc1
REMARK SMILES IDX 7 1 6 2 5 3 4 4 3 5 1 6 2 7 30 9 31 10 77 11 32 12 76 13
REMARK SMILES IDX 33 14 34 15 35 16 70 17 36 18 75 19 69 20 71 21 37 22 74 23
REMARK SMILES IDX 68 24 67 25 38 27 60 28 45 29 59 30 46 31 49 32 58 33 72 34
REMARK SMILES IDX 47 35 48 36 57 38 73 39 50 40 39 41 40 42 44 43 41 44 43 45
REMARK SMILES IDX 42 46 61 47 62 48 66 49 63 50 65 51 64 52 51 53 52 54 56 55
REMARK SMILES IDX 53 56 55 57 54 58 8 59 9 60 10 61 11 62 12 64 13 65 25 66
REMARK SMILES IDX 29 67 26 68 28 69 27 70 14 71 15 72 16 74 17 75 18 76 24 77
REMARK SMILES IDX 19 78 23 79 20 81 21 82 22 83
REMARK H PARENT 3 8 71 26 49 37 10 63 14 73 24 80
REMARK Flexibility Score: inf
ROOT
ATOM      1  C   UNL A   1      38.417  22.453  25.907  1.00  0.00     0.002 C 
ENDROOT
BRANCH   1   2
ATOM      2  C   UNL A   1      37.770  21.407  24.991  1.00  0.00     0.002 C 
BRANCH   2   3
ATOM      3  C   UNL A   1      38.456  20.040  25.007  1.00  0.00     0.021 C 
BRANCH   3   4
ATOM      4  C   UNL A   1      39.311  19.798  26.240  1.00  0.00     0.116 C 
BRANCH   4   5
ATOM      5  N   UNL A   1      40.539  19.095  25.914  1.00  0.00    -0.352 N 
ATOM      6  O   UNL A   1      42.725  18.937  25.365  1.00  0.00    -0.269 OA
ATOM      7  C   UNL A   1      41.818  19.589  25.867  1.00  0.00     0.251 C 
ATOM      8  H   UNL A   1      40.442  18.139  25.698  1.00  0.00     0.163 HD
BRANCH   7   9
ATOM      9  C   UNL A   1      42.086  20.929  26.424  1.00  0.00     0.039 A 
ATOM     10  C   UNL A   1      42.073  21.129  27.807  1.00  0.00     0.014 A 
ATOM     11  C   UNL A   1      42.353  21.991  25.557  1.00  0.00     0.014 A 
ATOM     12  C   UNL A   1      42.209  22.412  28.318  1.00  0.00     0.010 A 
ATOM     13  C   UNL A   1      42.582  23.265  26.079  1.00  0.00     0.010 A 
ATOM     14  C   UNL A   1      42.498  23.487  27.463  1.00  0.00    -0.014 A 
BRANCH  14  15
ATOM     15  C   UNL A   1      42.812  24.810  28.053  1.00  0.00     0.031 A 
ATOM     16  C   UNL A   1      44.212  25.186  28.439  1.00  0.00     0.074 A 
ATOM     17  C   UNL A   1      41.799  25.684  28.218  1.00  0.00     0.049 A 
ATOM     18  N   UNL A   1      44.646  26.312  28.947  1.00  0.00    -0.248 NA
ATOM     19  C   UNL A   1      45.259  24.173  28.238  1.00  0.00     0.031 C 
ATOM     20  C   UNL A   1      40.396  25.422  27.885  1.00  0.00     0.029 A 
ATOM     21  N   UNL A   1      41.793  26.972  28.686  1.00  0.00    -0.354 N 
ATOM     22  C   UNL A   1      46.011  26.139  29.143  1.00  0.00     0.074 A 
ATOM     23  C   UNL A   1      46.330  24.792  28.721  1.00  0.00     0.031 C 
ATOM     24  C   UNL A   1      39.676  26.530  28.109  1.00  0.00     0.029 A 
ATOM     25  C   UNL A   1      40.549  27.552  28.668  1.00  0.00     0.049 A 
ATOM     26  H   UNL A   1      42.601  27.435  29.005  1.00  0.00     0.167 HD
ATOM     27  C   UNL A   1      46.913  27.026  29.628  1.00  0.00     0.031 A 
ATOM     28  C   UNL A   1      40.146  28.769  29.076  1.00  0.00     0.031 A 
ATOM     29  C   UNL A   1      46.585  28.363  30.055  1.00  0.00     0.049 A 
ATOM     30  C   UNL A   1      41.160  29.712  29.649  1.00  0.00     0.074 A 
ATOM     31  C   UNL A   1      47.431  29.347  30.535  1.00  0.00     0.029 A 
ATOM     32  N   UNL A   1      45.305  28.900  30.062  1.00  0.00    -0.354 N 
ATOM     33  N   UNL A   1      42.453  29.545  29.790  1.00  0.00    -0.248 NA
ATOM     34  C   UNL A   1      40.660  31.009  30.119  1.00  0.00     0.031 C 
ATOM     35  C   UNL A   1      46.658  30.458  30.885  1.00  0.00     0.029 A 
ATOM     36  C   UNL A   1      45.336  30.191  30.566  1.00  0.00     0.049 A 
ATOM     37  H   UNL A   1      44.495  28.433  29.755  1.00  0.00     0.167 HD
ATOM     38  C   UNL A   1      42.924  30.724  30.351  1.00  0.00     0.074 A 
ATOM     39  C   UNL A   1      41.782  31.604  30.497  1.00  0.00     0.031 C 
ATOM     40  C   UNL A   1      44.189  31.048  30.714  1.00  0.00     0.031 A 
BRANCH  27  41
ATOM     41  C   UNL A   1      48.341  26.573  29.755  1.00  0.00    -0.014 A 
ATOM     42  C   UNL A   1      49.280  26.822  28.741  1.00  0.00     0.009 A 
ATOM     43  C   UNL A   1      48.767  25.932  30.930  1.00  0.00     0.009 A 
ATOM     44  C   UNL A   1      50.608  26.414  28.891  1.00  0.00     0.001 A 
ATOM     45  C   UNL A   1      50.100  25.550  31.088  1.00  0.00     0.001 A 
ATOM     46  C   UNL A   1      51.018  25.785  30.065  1.00  0.00     0.000 A 
ENDBRANCH  27  41
BRANCH  28  47
ATOM     47  C   UNL A   1      38.713  29.147  28.976  1.00  0.00    -0.014 A 
ATOM     48  C   UNL A   1      37.852  28.990  30.071  1.00  0.00     0.009 A 
ATOM     49  C   UNL A   1      38.201  29.679  27.780  1.00  0.00     0.009 A 
ATOM     50  C   UNL A   1      36.503  29.335  29.965  1.00  0.00     0.001 A 
ATOM     51  C   UNL A   1      36.861  30.054  27.687  1.00  0.00     0.001 A 
ATOM     52  C   UNL A   1      36.011  29.872  28.775  1.00  0.00     0.000 A 
ENDBRANCH  28  47
BRANCH  40  53
ATOM     53  C   UNL A   1      44.400  32.424  31.278  1.00  0.00    -0.014 A 
ATOM     54  C   UNL A   1      44.330  32.664  32.659  1.00  0.00     0.009 A 
ATOM     55  C   UNL A   1      44.690  33.491  30.414  1.00  0.00     0.009 A 
ATOM     56  C   UNL A   1      44.510  33.954  33.160  1.00  0.00     0.001 A 
ATOM     57  C   UNL A   1      44.900  34.774  30.920  1.00  0.00     0.001 A 
ATOM     58  C   UNL A   1      44.799  35.007  32.291  1.00  0.00     0.000 A 
ENDBRANCH  40  53
ENDBRANCH  14  15
ENDBRANCH   7   9
ENDBRANCH   4   5
ENDBRANCH   3   4
ENDBRANCH   2   3
ENDBRANCH   1   2
BRANCH   1  59
ATOM     59  C   UNL A   1      37.727  23.823  25.898  1.00  0.00     0.021 C 
BRANCH  59  60
ATOM     60  C   UNL A   1      36.204  23.726  25.813  1.00  0.00     0.116 C 
BRANCH  60  61
ATOM     61  N   UNL A   1      35.780  24.071  24.477  1.00  0.00    -0.354 N 
ATOM     62  C   UNL A   1      34.589  23.802  23.867  1.00  0.00     0.245 C 
ATOM     63  H   UNL A   1      36.437  24.565  23.936  1.00  0.00     0.163 HD
ATOM     64  O   UNL A   1      34.656  23.171  22.808  1.00  0.00    -0.272 OA
BRANCH  62  65
ATOM     65  C   UNL A   1      33.223  24.292  24.468  1.00  0.00     0.119 C 
ATOM     66  C   UNL A   1      33.307  25.846  24.537  1.00  0.00     0.038 C 
ATOM     67  C   UNL A   1      32.061  23.856  23.535  1.00  0.00     0.038 C 
ATOM     68  C   UNL A   1      31.968  26.572  24.643  1.00  0.00     0.003 C 
ATOM     69  C   UNL A   1      30.768  24.660  23.625  1.00  0.00     0.003 C 
ATOM     70  C   UNL A   1      31.030  26.148  23.526  1.00  0.00     0.000 C 
BRANCH  65  71
ATOM     71  N   UNL A   1      32.899  23.775  25.834  1.00  0.00    -0.335 N 
ATOM     72  C   UNL A   1      32.692  22.530  26.378  1.00  0.00     0.289 C 
ATOM     73  H   UNL A   1      32.814  24.495  26.499  1.00  0.00     0.165 HD
ATOM     74  O   UNL A   1      32.156  22.509  27.491  1.00  0.00    -0.266 OA
BRANCH  72  75
ATOM     75  C   UNL A   1      32.982  21.309  25.676  1.00  0.00     0.214 A 
ATOM     76  N   UNL A   1      32.161  20.542  24.985  1.00  0.00    -0.207 NA
ATOM     77  N   UNL A   1      34.232  20.761  25.623  1.00  0.00    -0.255 N 
ATOM     78  C   UNL A   1      32.939  19.452  24.667  1.00  0.00     0.154 A 
ATOM     79  N   UNL A   1      34.209  19.534  25.080  1.00  0.00    -0.158 NA
ATOM     80  H   UNL A   1      35.046  21.211  25.944  1.00  0.00     0.192 HD
BRANCH  78  81
ATOM     81  C   UNL A   1      32.404  18.191  24.007  1.00  0.00     0.060 C 
ATOM     82  C   UNL A   1      32.347  18.137  22.492  1.00  0.00     0.012 C 
ATOM     83  C   UNL A   1      33.344  17.302  23.221  1.00  0.00     0.012 C 
ENDBRANCH  78  81
ENDBRANCH  72  75
ENDBRANCH  65  71
ENDBRANCH  62  65
ENDBRANCH  60  61
ENDBRANCH  59  60
ENDBRANCH   1  59
TORSDOF 16
ENDMDL
MODEL 2
REMARK VINA RESULT:     -10.8      1.667      7.179
REMARK SMILES O=C(NCCCCCCNC(=O)C1(NC(=O)c2nc(C3CC3)n[nH]2)CCCCC1)c1ccc(-c2c3nc(c(-c4ccccc4)c4ccc([nH]4)c(-c4ccccc4)c4nc(c(-c5ccccc5)c5ccc2[nH]5)C=C4)C=C3)cc1
REMARK SMILES IDX 7 1 6 2 5 3 4 4 3 5 1 6 2 7 30 9 31 10 77 11 32 12 76 13
REMARK SMILES IDX 33 14 34 15 35 16 70 17 36 18 75 19 69 20 71 21 37 22 74 23
REMARK SMILES IDX 68 24 67 25 38 27 60 28 45 29 59 30 46 31 49 32 58 33 72 34
REMARK SMILES IDX 47 35 48 36 57 38 73 39 50 40 39 41 40 42 44 43 41 44 43 45
REMARK SMILES IDX 42 46 61 47 62 48 66 49 63 50 65 51 64 52 51 53 52 54 56 55
REMARK SMILES IDX 53 56 55 57 54 58 8 59 9 60 10 61 11 62 12 64 13 65 25 66
REMARK SMILES IDX 29 67 26 68 28 69 27 70 14 71 15 72 16 74 17 75 18 76 24 77
REMARK SMILES IDX 19 78 23 79 20 81 21 82 22 83
REMARK H PARENT 3 8 71 26 49 37 10 63 14 73 24 80
REMARK Flexibility Score: inf
ROOT
ATOM      1  C   UNL A   1      31.557  26.894  25.153  1.00  0.00     0.002 C 
ENDROOT
BRANCH   1   2
ATOM      2  C   UNL A   1      32.287  26.652  26.479  1.00  0.00     0.002 C 
BRANCH   2   3
ATOM      3  C   UNL A   1      32.406  27.887  27.372  1.00  0.00     0.021 C 
BRANCH   3   4
ATOM      4  C   UNL A   1      33.745  28.599  27.261  1.00  0.00     0.116 C 
BRANCH   4   5
ATOM      5  N   UNL A   1      33.638  30.005  27.608  1.00  0.00    -0.352 N 
ATOM      6  O   UNL A   1      34.228  31.900  28.687  1.00  0.00    -0.269 OA
ATOM      7  C   UNL A   1      34.543  30.791  28.272  1.00  0.00     0.251 C 
ATOM      8  H   UNL A   1      32.806  30.452  27.329  1.00  0.00     0.163 HD
BRANCH   7   9
ATOM      9  C   UNL A   1      35.910  30.276  28.491  1.00  0.00     0.039 A 
ATOM     10  C   UNL A   1      36.862  30.360  27.472  1.00  0.00     0.014 A 
ATOM     11  C   UNL A   1      36.238  29.708  29.723  1.00  0.00     0.014 A 
ATOM     12  C   UNL A   1      38.107  29.770  27.643  1.00  0.00     0.010 A 
ATOM     13  C   UNL A   1      37.522  29.198  29.926  1.00  0.00     0.010 A 
ATOM     14  C   UNL A   1      38.461  29.213  28.881  1.00  0.00    -0.014 A 
BRANCH  14  15
ATOM     15  C   UNL A   1      39.853  28.749  29.089  1.00  0.00     0.031 A 
ATOM     16  C   UNL A   1      40.299  27.384  28.654  1.00  0.00     0.074 A 
ATOM     17  C   UNL A   1      40.724  29.600  29.666  1.00  0.00     0.049 A 
ATOM     18  N   UNL A   1      41.488  26.843  28.748  1.00  0.00    -0.248 NA
ATOM     19  C   UNL A   1      39.287  26.511  28.041  1.00  0.00     0.031 C 
ATOM     20  C   UNL A   1      40.397  30.950  30.136  1.00  0.00     0.029 A 
ATOM     21  N   UNL A   1      42.060  29.470  29.940  1.00  0.00    -0.354 N 
ATOM     22  C   UNL A   1      41.365  25.562  28.225  1.00  0.00     0.074 A 
ATOM     23  C   UNL A   1      39.981  25.397  27.835  1.00  0.00     0.031 C 
ATOM     24  C   UNL A   1      41.511  31.540  30.589  1.00  0.00     0.029 A 
ATOM     25  C   UNL A   1      42.612  30.589  30.511  1.00  0.00     0.049 A 
ATOM     26  H   UNL A   1      42.573  28.653  29.745  1.00  0.00     0.167 HD
ATOM     27  C   UNL A   1      42.322  24.613  28.082  1.00  0.00     0.031 A 
ATOM     28  C   UNL A   1      43.863  30.823  30.946  1.00  0.00     0.031 A 
ATOM     29  C   UNL A   1      43.696  24.783  28.482  1.00  0.00     0.049 A 
ATOM     30  C   UNL A   1      44.888  29.738  30.813  1.00  0.00     0.074 A 
ATOM     31  C   UNL A   1      44.748  23.892  28.354  1.00  0.00     0.029 A 
ATOM     32  N   UNL A   1      44.207  25.916  29.098  1.00  0.00    -0.354 N 
ATOM     33  N   UNL A   1      44.763  28.547  30.280  1.00  0.00    -0.248 NA
ATOM     34  C   UNL A   1      46.225  30.029  31.344  1.00  0.00     0.031 C 
ATOM     35  C   UNL A   1      45.881  24.463  28.941  1.00  0.00     0.029 A 
ATOM     36  C   UNL A   1      45.552  25.736  29.381  1.00  0.00     0.049 A 
ATOM     37  H   UNL A   1      43.691  26.729  29.303  1.00  0.00     0.167 HD
ATOM     38  C   UNL A   1      46.012  27.952  30.395  1.00  0.00     0.074 A 
ATOM     39  C   UNL A   1      46.882  28.924  31.024  1.00  0.00     0.031 C 
ATOM     40  C   UNL A   1      46.400  26.710  30.016  1.00  0.00     0.031 A 
BRANCH  27  41
ATOM     41  C   UNL A   1      41.913  23.290  27.494  1.00  0.00    -0.014 A 
ATOM     42  C   UNL A   1      42.230  22.950  26.170  1.00  0.00     0.009 A 
ATOM     43  C   UNL A   1      41.247  22.349  28.295  1.00  0.00     0.009 A 
ATOM     44  C   UNL A   1      41.862  21.705  25.653  1.00  0.00     0.001 A 
ATOM     45  C   UNL A   1      40.905  21.096  27.784  1.00  0.00     0.001 A 
ATOM     46  C   UNL A   1      41.206  20.778  26.461  1.00  0.00     0.000 A 
ENDBRANCH  27  41
BRANCH  28  47
ATOM     47  C   UNL A   1      44.200  32.130  31.565  1.00  0.00    -0.014 A 
ATOM     48  C   UNL A   1      44.664  33.196  30.781  1.00  0.00     0.009 A 
ATOM     49  C   UNL A   1      44.046  32.321  32.949  1.00  0.00     0.009 A 
ATOM     50  C   UNL A   1      44.992  34.418  31.373  1.00  0.00     0.001 A 
ATOM     51  C   UNL A   1      44.343  33.553  33.533  1.00  0.00     0.001 A 
ATOM     52  C   UNL A   1      44.825  34.597  32.746  1.00  0.00     0.000 A 
ENDBRANCH  28  47
BRANCH  40  53
ATOM     53  C   UNL A   1      47.841  26.351  30.250  1.00  0.00    -0.014 A 
ATOM     54  C   UNL A   1      48.266  25.797  31.467  1.00  0.00     0.009 A 
ATOM     55  C   UNL A   1      48.781  26.556  29.229  1.00  0.00     0.009 A 
ATOM     56  C   UNL A   1      49.612  25.489  31.670  1.00  0.00     0.001 A 
ATOM     57  C   UNL A   1      50.121  26.218  29.422  1.00  0.00     0.001 A 
ATOM     58  C   UNL A   1      50.537  25.697  30.646  1.00  0.00     0.000 A 
ENDBRANCH  40  53
ENDBRANCH  14  15
ENDBRANCH   7   9
ENDBRANCH   4   5
ENDBRANCH   3   4
ENDBRANCH   2   3
ENDBRANCH   1   2
BRANCH   1  59
ATOM     59  C   UNL A   1      32.452  26.830  23.909  1.00  0.00     0.021 C 
BRANCH  59  60
ATOM     60  C   UNL A   1      33.748  26.053  24.143  1.00  0.00     0.116 C 
BRANCH  60  61
ATOM     61  N   UNL A   1      33.626  24.739  23.562  1.00  0.00    -0.354 N 
ATOM     62  C   UNL A   1      34.560  23.745  23.503  1.00  0.00     0.245 C 
ATOM     63  H   UNL A   1      32.754  24.531  23.155  1.00  0.00     0.163 HD
ATOM     64  O   UNL A   1      34.835  23.329  22.373  1.00  0.00    -0.272 OA
BRANCH  62  65
ATOM     65  C   UNL A   1      35.220  23.152  24.799  1.00  0.00     0.119 C 
ATOM     66  C   UNL A   1      35.786  21.756  24.404  1.00  0.00     0.038 C 
ATOM     67  C   UNL A   1      36.369  24.087  25.268  1.00  0.00     0.038 C 
ATOM     68  C   UNL A   1      36.855  21.193  25.336  1.00  0.00     0.003 C 
ATOM     69  C   UNL A   1      37.454  23.458  26.137  1.00  0.00     0.003 C 
ATOM     70  C   UNL A   1      37.992  22.184  25.521  1.00  0.00     0.000 C 
BRANCH  65  71
ATOM     71  N   UNL A   1      34.301  22.977  25.966  1.00  0.00    -0.335 N 
ATOM     72  C   UNL A   1      33.253  22.139  26.261  1.00  0.00     0.289 C 
ATOM     73  H   UNL A   1      34.491  23.613  26.694  1.00  0.00     0.165 HD
ATOM     74  O   UNL A   1      32.539  22.480  27.210  1.00  0.00    -0.266 OA
BRANCH  72  75
ATOM     75  C   UNL A   1      32.927  20.983  25.472  1.00  0.00     0.214 A 
ATOM     76  N   UNL A   1      33.175  19.713  25.730  1.00  0.00    -0.207 NA
ATOM     77  N   UNL A   1      32.263  21.058  24.281  1.00  0.00    -0.255 N 
ATOM     78  C   UNL A   1      32.779  19.073  24.579  1.00  0.00     0.154 A 
ATOM     79  N   UNL A   1      32.250  19.875  23.648  1.00  0.00    -0.158 NA
ATOM     80  H   UNL A   1      31.846  21.879  23.932  1.00  0.00     0.192 HD
BRANCH  78  81
ATOM     81  C   UNL A   1      33.015  17.596  24.304  1.00  0.00     0.060 C 
ATOM     82  C   UNL A   1      33.888  17.209  23.126  1.00  0.00     0.012 C 
ATOM     83  C   UNL A   1      34.393  17.006  24.513  1.00  0.00     0.012 C 
ENDBRANCH  78  81
ENDBRANCH  72  75
ENDBRANCH  65  71
ENDBRANCH  62  65
ENDBRANCH  60  61
ENDBRANCH  59  60
ENDBRANCH   1  59
TORSDOF 16
ENDMDL
MODEL 3
REMARK VINA RESULT:     -10.8      1.751      7.184
REMARK SMILES O=C(NCCCCCCNC(=O)C1(NC(=O)c2nc(C3CC3)n[nH]2)CCCCC1)c1ccc(-c2c3nc(c(-c4ccccc4)c4ccc([nH]4)c(-c4ccccc4)c4nc(c(-c5ccccc5)c5ccc2[nH]5)C=C4)C=C3)cc1
REMARK SMILES IDX 7 1 6 2 5 3 4 4 3 5 1 6 2 7 30 9 31 10 77 11 32 12 76 13
REMARK SMILES IDX 33 14 34 15 35 16 70 17 36 18 75 19 69 20 71 21 37 22 74 23
REMARK SMILES IDX 68 24 67 25 38 27 60 28 45 29 59 30 46 31 49 32 58 33 72 34
REMARK SMILES IDX 47 35 48 36 57 38 73 39 50 40 39 41 40 42 44 43 41 44 43 45
REMARK SMILES IDX 42 46 61 47 62 48 66 49 63 50 65 51 64 52 51 53 52 54 56 55
REMARK SMILES IDX 53 56 55 57 54 58 8 59 9 60 10 61 11 62 12 64 13 65 25 66
REMARK SMILES IDX 29 67 26 68 28 69 27 70 14 71 15 72 16 74 17 75 18 76 24 77
REMARK SMILES IDX 19 78 23 79 20 81 21 82 22 83
REMARK H PARENT 3 8 71 26 49 37 10 63 14 73 24 80
REMARK Flexibility Score: inf
ROOT
ATOM      1  C   UNL A   1      31.569  26.917  25.048  1.00  0.00     0.002 C 
ENDROOT
BRANCH   1   2
ATOM      2  C   UNL A   1      32.134  26.605  26.438  1.00  0.00     0.002 C 
BRANCH   2   3
ATOM      3  C   UNL A   1      32.265  27.819  27.358  1.00  0.00     0.021 C 
BRANCH   3   4
ATOM      4  C   UNL A   1      33.613  28.517  27.265  1.00  0.00     0.116 C 
BRANCH   4   5
ATOM      5  N   UNL A   1      33.490  29.952  27.451  1.00  0.00    -0.352 N 
ATOM      6  O   UNL A   1      34.044  31.960  28.325  1.00  0.00    -0.269 OA
ATOM      7  C   UNL A   1      34.375  30.815  28.044  1.00  0.00     0.251 C 
ATOM      8  H   UNL A   1      32.662  30.359  27.105  1.00  0.00     0.163 HD
BRANCH   7   9
ATOM      9  C   UNL A   1      35.739  30.338  28.350  1.00  0.00     0.039 A 
ATOM     10  C   UNL A   1      36.744  30.420  27.383  1.00  0.00     0.014 A 
ATOM     11  C   UNL A   1      36.012  29.808  29.613  1.00  0.00     0.014 A 
ATOM     12  C   UNL A   1      37.990  29.864  27.637  1.00  0.00     0.010 A 
ATOM     13  C   UNL A   1      37.293  29.334  29.898  1.00  0.00     0.010 A 
ATOM     14  C   UNL A   1      38.288  29.346  28.906  1.00  0.00    -0.014 A 
BRANCH  14  15
ATOM     15  C   UNL A   1      39.676  28.921  29.201  1.00  0.00     0.031 A 
ATOM     16  C   UNL A   1      40.629  29.811  29.943  1.00  0.00     0.074 A 
ATOM     17  C   UNL A   1      40.061  27.694  28.798  1.00  0.00     0.049 A 
ATOM     18  N   UNL A   1      41.868  29.572  30.293  1.00  0.00    -0.248 NA
ATOM     19  C   UNL A   1      40.137  31.139  30.339  1.00  0.00     0.031 C 
ATOM     20  C   UNL A   1      39.219  26.746  28.061  1.00  0.00     0.029 A 
ATOM     21  N   UNL A   1      41.244  27.023  28.966  1.00  0.00    -0.354 N 
ATOM     22  C   UNL A   1      42.310  30.722  30.934  1.00  0.00     0.074 A 
ATOM     23  C   UNL A   1      41.216  31.669  30.905  1.00  0.00     0.031 C 
ATOM     24  C   UNL A   1      39.894  25.601  27.888  1.00  0.00     0.029 A 
ATOM     25  C   UNL A   1      41.235  25.758  28.433  1.00  0.00     0.049 A 
ATOM     26  H   UNL A   1      42.025  27.412  29.423  1.00  0.00     0.167 HD
ATOM     27  C   UNL A   1      43.520  30.963  31.497  1.00  0.00     0.031 A 
ATOM     28  C   UNL A   1      42.205  24.829  28.370  1.00  0.00     0.031 A 
ATOM     29  C   UNL A   1      44.608  30.018  31.513  1.00  0.00     0.049 A 
ATOM     30  C   UNL A   1      43.545  25.142  28.963  1.00  0.00     0.074 A 
ATOM     31  C   UNL A   1      45.862  30.157  32.082  1.00  0.00     0.029 A 
ATOM     32  N   UNL A   1      44.574  28.762  30.925  1.00  0.00    -0.354 N 
ATOM     33  N   UNL A   1      43.933  26.220  29.600  1.00  0.00    -0.248 NA
ATOM     34  C   UNL A   1      44.580  24.111  28.828  1.00  0.00     0.031 C 
ATOM     35  C   UNL A   1      46.605  29.009  31.791  1.00  0.00     0.029 A 
ATOM     36  C   UNL A   1      45.795  28.128  31.092  1.00  0.00     0.049 A 
ATOM     37  H   UNL A   1      43.798  28.378  30.457  1.00  0.00     0.167 HD
ATOM     38  C   UNL A   1      45.254  25.990  29.957  1.00  0.00     0.074 A 
ATOM     39  C   UNL A   1      45.589  24.661  29.488  1.00  0.00     0.031 C 
ATOM     40  C   UNL A   1      46.113  26.809  30.611  1.00  0.00     0.031 A 
BRANCH  27  41
ATOM     41  C   UNL A   1      43.746  32.315  32.117  1.00  0.00    -0.014 A 
ATOM     42  C   UNL A   1      44.221  33.397  31.360  1.00  0.00     0.009 A 
ATOM     43  C   UNL A   1      43.427  32.522  33.469  1.00  0.00     0.009 A 
ATOM     44  C   UNL A   1      44.398  34.650  31.952  1.00  0.00     0.001 A 
ATOM     45  C   UNL A   1      43.580  33.781  34.051  1.00  0.00     0.001 A 
ATOM     46  C   UNL A   1      44.073  34.843  33.294  1.00  0.00     0.000 A 
ENDBRANCH  27  41
BRANCH  28  47
ATOM     47  C   UNL A   1      41.943  23.529  27.700  1.00  0.00    -0.014 A 
ATOM     48  C   UNL A   1      41.336  22.474  28.395  1.00  0.00     0.009 A 
ATOM     49  C   UNL A   1      42.291  23.343  26.352  1.00  0.00     0.009 A 
ATOM     50  C   UNL A   1      41.106  21.250  27.762  1.00  0.00     0.001 A 
ATOM     51  C   UNL A   1      42.030  22.131  25.712  1.00  0.00     0.001 A 
ATOM     52  C   UNL A   1      41.447  21.083  26.420  1.00  0.00     0.000 A 
ENDBRANCH  28  47
BRANCH  40  53
ATOM     53  C   UNL A   1      47.490  26.269  30.881  1.00  0.00    -0.014 A 
ATOM     54  C   UNL A   1      47.814  25.686  32.116  1.00  0.00     0.009 A 
ATOM     55  C   UNL A   1      48.468  26.329  29.877  1.00  0.00     0.009 A 
ATOM     56  C   UNL A   1      49.104  25.208  32.352  1.00  0.00     0.001 A 
ATOM     57  C   UNL A   1      49.748  25.823  30.105  1.00  0.00     0.001 A 
ATOM     58  C   UNL A   1      50.069  25.274  31.346  1.00  0.00     0.000 A 
ENDBRANCH  40  53
ENDBRANCH  14  15
ENDBRANCH   7   9
ENDBRANCH   4   5
ENDBRANCH   3   4
ENDBRANCH   2   3
ENDBRANCH   1   2
BRANCH   1  59
ATOM     59  C   UNL A   1      32.595  26.853  23.910  1.00  0.00     0.021 C 
BRANCH  59  60
ATOM     60  C   UNL A   1      33.822  26.010  24.259  1.00  0.00     0.116 C 
BRANCH  60  61
ATOM     61  N   UNL A   1      33.685  24.703  23.663  1.00  0.00    -0.354 N 
ATOM     62  C   UNL A   1      34.616  23.708  23.570  1.00  0.00     0.245 C 
ATOM     63  H   UNL A   1      32.804  24.501  23.273  1.00  0.00     0.163 HD
ATOM     64  O   UNL A   1      34.865  23.308  22.429  1.00  0.00    -0.272 OA
BRANCH  62  65
ATOM     65  C   UNL A   1      35.304  23.098  24.843  1.00  0.00     0.119 C 
ATOM     66  C   UNL A   1      35.840  21.698  24.423  1.00  0.00     0.038 C 
ATOM     67  C   UNL A   1      36.478  24.014  25.286  1.00  0.00     0.038 C 
ATOM     68  C   UNL A   1      36.928  21.114  25.322  1.00  0.00     0.003 C 
ATOM     69  C   UNL A   1      37.578  23.366  26.121  1.00  0.00     0.003 C 
ATOM     70  C   UNL A   1      38.082  22.089  25.481  1.00  0.00     0.000 C 
BRANCH  65  71
ATOM     71  N   UNL A   1      34.415  22.927  26.034  1.00  0.00    -0.335 N 
ATOM     72  C   UNL A   1      33.362  22.103  26.351  1.00  0.00     0.289 C 
ATOM     73  H   UNL A   1      34.638  23.551  26.763  1.00  0.00     0.165 HD
ATOM     74  O   UNL A   1      32.682  22.446  27.323  1.00  0.00    -0.266 OA
BRANCH  72  75
ATOM     75  C   UNL A   1      32.994  20.961  25.560  1.00  0.00     0.214 A 
ATOM     76  N   UNL A   1      33.234  19.685  25.795  1.00  0.00    -0.207 NA
ATOM     77  N   UNL A   1      32.291  21.059  24.393  1.00  0.00    -0.255 N 
ATOM     78  C   UNL A   1      32.791  19.064  24.651  1.00  0.00     0.154 A 
ATOM     79  N   UNL A   1      32.241  19.884  23.747  1.00  0.00    -0.158 NA
ATOM     80  H   UNL A   1      31.874  21.889  24.068  1.00  0.00     0.192 HD
BRANCH  78  81
ATOM     81  C   UNL A   1      32.997  17.587  24.351  1.00  0.00     0.060 C 
ATOM     82  C   UNL A   1      33.742  17.202  23.087  1.00  0.00     0.012 C 
ATOM     83  C   UNL A   1      34.389  16.998  24.414  1.00  0.00     0.012 C 
ENDBRANCH  78  81
ENDBRANCH  72  75
ENDBRANCH  65  71
ENDBRANCH  62  65
ENDBRANCH  60  61
ENDBRANCH  59  60
ENDBRANCH   1  59
TORSDOF 16
ENDMDL
