MODEL 1
REMARK VINA RESULT:     -10.4      0.000      0.000
REMARK SMILES COC(=O)C[C@H](c1ccc(C(=O)NCCCCCCNC(=O)c2ccc(-c3c4nc(c(-c5ccccc5)c5ccc([nH]5)c(-c5ccccc5)c5nc(c(-c6ccccc6)c6ccc3[nH]6)C=C5)C=C4)cc2)cc1)c1c(O)n[nH]c1C
REMARK SMILES IDX 15 1 14 2 13 3 11 4 12 5 10 7 7 8 8 9 72 10 9 11 71 12 6 13
REMARK SMILES IDX 5 14 3 15 4 16 2 17 1 18 73 19 74 20 78 21 76 22 77 23 79 24
REMARK SMILES IDX 75 26 16 28 17 29 18 30 19 31 20 32 21 33 22 35 23 36 24 37
REMARK SMILES IDX 70 38 25 39 69 40 26 41 27 42 28 43 63 44 29 45 68 46 62 47
REMARK SMILES IDX 64 48 30 49 67 50 61 51 60 52 31 54 53 55 38 56 52 57 39 58
REMARK SMILES IDX 42 59 51 60 65 61 40 62 41 63 50 65 66 66 43 67 32 68 33 69
REMARK SMILES IDX 37 70 34 71 36 72 35 73 54 74 55 75 59 76 56 77 58 78 57 79
REMARK SMILES IDX 44 80 45 81 49 82 46 83 48 84 47 85
REMARK H PARENT 13 6 77 25 75 27 20 34 64 53 42 64
REMARK Flexibility Score: inf
ROOT
ATOM      1  C   UNL A   1      32.196  28.071  23.256  1.00  0.00     0.021 C 
ENDROOT
BRANCH   1   2
ATOM      2  C   UNL A   1      31.268  28.415  24.421  1.00  0.00     0.116 C 
BRANCH   2   3
ATOM      3  N   UNL A   1      29.906  28.037  24.100  1.00  0.00    -0.352 N 
ATOM      4  C   UNL A   1      29.320  26.807  23.962  1.00  0.00     0.251 C 
ATOM      5  O   UNL A   1      28.121  26.749  23.701  1.00  0.00    -0.269 OA
ATOM      6  H   UNL A   1      29.297  28.797  23.955  1.00  0.00     0.163 HD
BRANCH   4   7
ATOM      7  C   UNL A   1      30.077  25.555  24.201  1.00  0.00     0.039 A 
ATOM      8  C   UNL A   1      31.607  23.269  24.820  1.00  0.00    -0.040 A 
ATOM      9  C   UNL A   1      31.082  24.083  25.838  1.00  0.00     0.005 A 
ATOM     10  C   UNL A   1      31.296  23.588  23.487  1.00  0.00     0.005 A 
ATOM     11  C   UNL A   1      30.326  25.213  25.531  1.00  0.00     0.014 A 
ATOM     12  C   UNL A   1      30.521  24.711  23.181  1.00  0.00     0.014 A 
BRANCH   8  13
ATOM     13  C   UNL A   1      32.522  22.089  25.122  1.00  0.00     0.068 C 
BRANCH  13  14
ATOM     14  C   UNL A   1      32.535  20.984  24.059  1.00  0.00     0.136 C 
BRANCH  14  15
ATOM     15  C   UNL A   1      33.095  19.692  24.603  1.00  0.00     0.306 C 
ATOM     16  O   UNL A   1      34.292  19.445  24.673  1.00  0.00    -0.252 OA
BRANCH  15  17
ATOM     17  O   UNL A   1      32.102  18.870  25.041  1.00  0.00    -0.469 OA
ATOM     18  C   UNL A   1      32.544  17.558  25.390  1.00  0.00     0.282 C 
ENDBRANCH  15  17
ENDBRANCH  14  15
ENDBRANCH  13  14
BRANCH  13  19
ATOM     19  C   UNL A   1      33.900  22.621  25.416  1.00  0.00     0.044 A 
ATOM     20  C   UNL A   1      34.898  23.154  24.579  1.00  0.00     0.234 A 
ATOM     21  C   UNL A   1      34.519  22.657  26.664  1.00  0.00     0.040 A 
ATOM     22  N   UNL A   1      36.009  23.528  25.192  1.00  0.00    -0.137 NA
ATOM     23  N   UNL A   1      35.756  23.217  26.471  1.00  0.00    -0.279 N 
ATOM     24  C   UNL A   1      34.066  22.209  28.003  1.00  0.00     0.066 C 
ATOM     25  H   UNL A   1      36.396  23.376  27.202  1.00  0.00     0.190 HD
BRANCH  20  26
ATOM     26  O   UNL A   1      34.915  23.343  23.264  1.00  0.00    -0.492 OA
ATOM     27  H   UNL A   1      34.477  22.738  22.698  1.00  0.00     0.295 HD
ENDBRANCH  20  26
ENDBRANCH  13  19
ENDBRANCH   8  13
ENDBRANCH   4   7
ENDBRANCH   2   3
ENDBRANCH   1   2
BRANCH   1  28
ATOM     28  C   UNL A   1      33.331  27.114  23.645  1.00  0.00     0.002 C 
BRANCH  28  29
ATOM     29  C   UNL A   1      33.546  26.955  25.154  1.00  0.00     0.002 C 
BRANCH  29  30
ATOM     30  C   UNL A   1      34.240  28.137  25.838  1.00  0.00     0.021 C 
BRANCH  30  31
ATOM     31  C   UNL A   1      33.769  28.416  27.263  1.00  0.00     0.116 C 
BRANCH  31  32
ATOM     32  N   UNL A   1      33.702  29.840  27.542  1.00  0.00    -0.352 N 
ATOM     33  C   UNL A   1      34.599  30.651  28.186  1.00  0.00     0.251 C 
ATOM     34  H   UNL A   1      32.887  30.291  27.221  1.00  0.00     0.163 HD
ATOM     35  O   UNL A   1      34.269  31.788  28.512  1.00  0.00    -0.269 OA
BRANCH  33  36
ATOM     36  C   UNL A   1      35.961  30.166  28.498  1.00  0.00     0.039 A 
ATOM     37  C   UNL A   1      36.927  30.203  27.489  1.00  0.00     0.014 A 
ATOM     38  C   UNL A   1      36.276  29.626  29.750  1.00  0.00     0.014 A 
ATOM     39  C   UNL A   1      38.215  29.734  27.745  1.00  0.00     0.010 A 
ATOM     40  C   UNL A   1      37.579  29.215  30.024  1.00  0.00     0.010 A 
ATOM     41  C   UNL A   1      38.557  29.252  29.020  1.00  0.00    -0.014 A 
BRANCH  41  42
ATOM     42  C   UNL A   1      39.940  28.789  29.296  1.00  0.00     0.031 A 
ATOM     43  C   UNL A   1      40.400  27.430  28.846  1.00  0.00     0.074 A 
ATOM     44  C   UNL A   1      40.782  29.597  29.968  1.00  0.00     0.049 A 
ATOM     45  N   UNL A   1      41.591  26.893  28.939  1.00  0.00    -0.248 NA
ATOM     46  C   UNL A   1      39.391  26.553  28.233  1.00  0.00     0.031 C 
ATOM     47  C   UNL A   1      40.440  30.915  30.508  1.00  0.00     0.029 A 
ATOM     48  N   UNL A   1      42.103  29.433  30.299  1.00  0.00    -0.354 N 
ATOM     49  C   UNL A   1      41.473  25.616  28.404  1.00  0.00     0.074 A 
ATOM     50  C   UNL A   1      40.084  25.440  28.035  1.00  0.00     0.031 C 
ATOM     51  C   UNL A   1      41.536  31.458  31.064  1.00  0.00     0.029 A 
ATOM     52  C   UNL A   1      42.647  30.520  30.938  1.00  0.00     0.049 A 
ATOM     53  H   UNL A   1      42.612  28.614  30.097  1.00  0.00     0.167 HD
ATOM     54  C   UNL A   1      42.434  24.681  28.217  1.00  0.00     0.031 A 
ATOM     55  C   UNL A   1      43.904  30.744  31.361  1.00  0.00     0.031 A 
ATOM     56  C   UNL A   1      43.817  24.856  28.575  1.00  0.00     0.049 A 
ATOM     57  C   UNL A   1      44.959  29.705  31.114  1.00  0.00     0.074 A 
ATOM     58  C   UNL A   1      44.879  23.991  28.372  1.00  0.00     0.029 A 
ATOM     59  N   UNL A   1      44.329  25.974  29.214  1.00  0.00    -0.354 N 
ATOM     60  N   UNL A   1      44.847  28.536  30.532  1.00  0.00    -0.248 NA
ATOM     61  C   UNL A   1      46.319  30.029  31.567  1.00  0.00     0.031 C 
ATOM     62  C   UNL A   1      46.027  24.569  28.927  1.00  0.00     0.029 A 
ATOM     63  C   UNL A   1      45.688  25.814  29.431  1.00  0.00     0.049 A 
ATOM     64  H   UNL A   1      43.805  26.766  29.474  1.00  0.00     0.167 HD
ATOM     65  C   UNL A   1      46.124  27.992  30.531  1.00  0.00     0.074 A 
ATOM     66  C   UNL A   1      46.997  28.970  31.149  1.00  0.00     0.031 C 
ATOM     67  C   UNL A   1      46.539  26.789  30.062  1.00  0.00     0.031 A 
BRANCH  54  68
ATOM     68  C   UNL A   1      42.016  23.378  27.594  1.00  0.00    -0.014 A 
ATOM     69  C   UNL A   1      41.356  22.393  28.347  1.00  0.00     0.009 A 
ATOM     70  C   UNL A   1      42.259  23.142  26.231  1.00  0.00     0.009 A 
ATOM     71  C   UNL A   1      40.981  21.183  27.756  1.00  0.00     0.001 A 
ATOM     72  C   UNL A   1      41.859  21.943  25.638  1.00  0.00     0.001 A 
ATOM     73  C   UNL A   1      41.230  20.962  26.403  1.00  0.00     0.000 A 
ENDBRANCH  54  68
BRANCH  55  74
ATOM     74  C   UNL A   1      44.245  32.031  32.021  1.00  0.00    -0.014 A 
ATOM     75  C   UNL A   1      44.663  33.131  31.257  1.00  0.00     0.009 A 
ATOM     76  C   UNL A   1      44.150  32.165  33.413  1.00  0.00     0.009 A 
ATOM     77  C   UNL A   1      45.006  34.334  31.879  1.00  0.00     0.001 A 
ATOM     78  C   UNL A   1      44.469  33.376  34.030  1.00  0.00     0.001 A 
ATOM     79  C   UNL A   1      44.904  34.457  33.264  1.00  0.00     0.000 A 
ENDBRANCH  55  74
BRANCH  67  80
ATOM     80  C   UNL A   1      48.003  26.480  30.191  1.00  0.00    -0.014 A 
ATOM     81  C   UNL A   1      48.517  25.879  31.351  1.00  0.00     0.009 A 
ATOM     82  C   UNL A   1      48.876  26.786  29.138  1.00  0.00     0.009 A 
ATOM     83  C   UNL A   1      49.887  25.634  31.470  1.00  0.00     0.001 A 
ATOM     84  C   UNL A   1      50.241  26.514  29.248  1.00  0.00     0.001 A 
ATOM     85  C   UNL A   1      50.746  25.949  30.418  1.00  0.00     0.000 A 
ENDBRANCH  67  80
ENDBRANCH  41  42
ENDBRANCH  33  36
ENDBRANCH  31  32
ENDBRANCH  30  31
ENDBRANCH  29  30
ENDBRANCH  28  29
ENDBRANCH   1  28
TORSDOF 19
ENDMDL
MODEL 2
REMARK VINA RESULT:     -10.4      0.998      5.883
REMARK SMILES COC(=O)C[C@H](c1ccc(C(=O)NCCCCCCNC(=O)c2ccc(-c3c4nc(c(-c5ccccc5)c5ccc([nH]5)c(-c5ccccc5)c5nc(c(-c6ccccc6)c6ccc3[nH]6)C=C5)C=C4)cc2)cc1)c1c(O)n[nH]c1C
REMARK SMILES IDX 15 1 14 2 13 3 11 4 12 5 10 7 7 8 8 9 72 10 9 11 71 12 6 13
REMARK SMILES IDX 5 14 3 15 4 16 2 17 1 18 73 19 74 20 78 21 76 22 77 23 79 24
REMARK SMILES IDX 75 26 16 28 17 29 18 30 19 31 20 32 21 33 22 35 23 36 24 37
REMARK SMILES IDX 70 38 25 39 69 40 26 41 27 42 28 43 63 44 29 45 68 46 62 47
REMARK SMILES IDX 64 48 30 49 67 50 61 51 60 52 31 54 53 55 38 56 52 57 39 58
REMARK SMILES IDX 42 59 51 60 65 61 40 62 41 63 50 65 66 66 43 67 32 68 33 69
REMARK SMILES IDX 37 70 34 71 36 72 35 73 54 74 55 75 59 76 56 77 58 78 57 79
REMARK SMILES IDX 44 80 45 81 49 82 46 83 48 84 47 85
REMARK H PARENT 13 6 77 25 75 27 20 34 64 53 42 64
REMARK Flexibility Score: inf
ROOT
ATOM      1  C   UNL A   1      32.252  28.027  23.315  1.00  0.00     0.021 C 
ENDROOT
BRANCH   1   2
ATOM      2  C   UNL A   1      31.293  28.332  24.466  1.00  0.00     0.116 C 
BRANCH   2   3
ATOM      3  N   UNL A   1      29.941  27.959  24.097  1.00  0.00    -0.352 N 
ATOM      4  C   UNL A   1      29.360  26.732  23.924  1.00  0.00     0.251 C 
ATOM      5  O   UNL A   1      28.168  26.679  23.625  1.00  0.00    -0.269 OA
ATOM      6  H   UNL A   1      29.337  28.722  23.944  1.00  0.00     0.163 HD
BRANCH   4   7
ATOM      7  C   UNL A   1      30.108  25.476  24.168  1.00  0.00     0.039 A 
ATOM      8  C   UNL A   1      31.601  23.172  24.813  1.00  0.00    -0.040 A 
ATOM      9  C   UNL A   1      30.949  23.913  25.813  1.00  0.00     0.005 A 
ATOM     10  C   UNL A   1      31.437  23.573  23.476  1.00  0.00     0.005 A 
ATOM     11  C   UNL A   1      30.211  25.052  25.493  1.00  0.00     0.014 A 
ATOM     12  C   UNL A   1      30.681  24.705  23.154  1.00  0.00     0.014 A 
BRANCH   8  13
ATOM     13  C   UNL A   1      32.498  21.986  25.142  1.00  0.00     0.068 C 
BRANCH  13  14
ATOM     14  C   UNL A   1      32.506  20.864  24.097  1.00  0.00     0.136 C 
BRANCH  14  15
ATOM     15  C   UNL A   1      33.129  19.600  24.639  1.00  0.00     0.306 C 
ATOM     16  O   UNL A   1      34.288  19.268  24.432  1.00  0.00    -0.252 OA
BRANCH  15  17
ATOM     17  O   UNL A   1      32.248  18.913  25.419  1.00  0.00    -0.469 OA
ATOM     18  C   UNL A   1      32.620  17.555  25.657  1.00  0.00     0.282 C 
ENDBRANCH  15  17
ENDBRANCH  14  15
ENDBRANCH  13  14
BRANCH  13  19
ATOM     19  C   UNL A   1      33.880  22.505  25.440  1.00  0.00     0.044 A 
ATOM     20  C   UNL A   1      34.910  22.965  24.599  1.00  0.00     0.234 A 
ATOM     21  C   UNL A   1      34.467  22.604  26.700  1.00  0.00     0.040 A 
ATOM     22  N   UNL A   1      36.015  23.352  25.218  1.00  0.00    -0.137 NA
ATOM     23  N   UNL A   1      35.721  23.125  26.507  1.00  0.00    -0.279 N 
ATOM     24  C   UNL A   1      33.971  22.248  28.050  1.00  0.00     0.066 C 
ATOM     25  H   UNL A   1      36.347  23.314  27.244  1.00  0.00     0.190 HD
BRANCH  20  26
ATOM     26  O   UNL A   1      34.966  23.073  23.276  1.00  0.00    -0.492 OA
ATOM     27  H   UNL A   1      35.535  22.513  22.784  1.00  0.00     0.295 HD
ENDBRANCH  20  26
ENDBRANCH  13  19
ENDBRANCH   8  13
ENDBRANCH   4   7
ENDBRANCH   2   3
ENDBRANCH   1   2
BRANCH   1  28
ATOM     28  C   UNL A   1      33.413  27.107  23.720  1.00  0.00     0.002 C 
BRANCH  28  29
ATOM     29  C   UNL A   1      33.452  26.739  25.207  1.00  0.00     0.002 C 
BRANCH  29  30
ATOM     30  C   UNL A   1      34.195  27.737  26.102  1.00  0.00     0.021 C 
BRANCH  30  31
ATOM     31  C   UNL A   1      33.391  28.244  27.296  1.00  0.00     0.116 C 
BRANCH  31  32
ATOM     32  N   UNL A   1      33.329  29.695  27.330  1.00  0.00    -0.352 N 
ATOM     33  C   UNL A   1      34.238  30.601  27.810  1.00  0.00     0.251 C 
ATOM     34  H   UNL A   1      32.509  30.087  26.951  1.00  0.00     0.163 HD
ATOM     35  O   UNL A   1      33.914  31.778  27.943  1.00  0.00    -0.269 OA
BRANCH  33  36
ATOM     36  C   UNL A   1      35.604  30.172  28.177  1.00  0.00     0.039 A 
ATOM     37  C   UNL A   1      35.817  29.657  29.458  1.00  0.00     0.014 A 
ATOM     38  C   UNL A   1      36.680  30.324  27.296  1.00  0.00     0.014 A 
ATOM     39  C   UNL A   1      37.098  29.262  29.843  1.00  0.00     0.010 A 
ATOM     40  C   UNL A   1      37.949  29.872  27.659  1.00  0.00     0.010 A 
ATOM     41  C   UNL A   1      38.172  29.350  28.941  1.00  0.00    -0.014 A 
BRANCH  41  42
ATOM     42  C   UNL A   1      39.525  28.894  29.345  1.00  0.00     0.031 A 
ATOM     43  C   UNL A   1      40.372  29.722  30.269  1.00  0.00     0.074 A 
ATOM     44  C   UNL A   1      39.996  27.727  28.863  1.00  0.00     0.049 A 
ATOM     45  N   UNL A   1      41.545  29.444  30.781  1.00  0.00    -0.248 NA
ATOM     46  C   UNL A   1      39.847  31.042  30.653  1.00  0.00     0.031 C 
ATOM     47  C   UNL A   1      39.295  26.858  27.915  1.00  0.00     0.029 A 
ATOM     48  N   UNL A   1      41.170  27.066  29.118  1.00  0.00    -0.354 N 
ATOM     49  C   UNL A   1      41.900  30.553  31.539  1.00  0.00     0.074 A 
ATOM     50  C   UNL A   1      40.843  31.529  31.380  1.00  0.00     0.031 C 
ATOM     51  C   UNL A   1      40.035  25.758  27.702  1.00  0.00     0.029 A 
ATOM     52  C   UNL A   1      41.266  25.854  28.479  1.00  0.00     0.049 A 
ATOM     53  H   UNL A   1      41.877  27.426  29.703  1.00  0.00     0.167 HD
ATOM     54  C   UNL A   1      42.995  30.737  32.314  1.00  0.00     0.031 A 
ATOM     55  C   UNL A   1      42.228  24.916  28.529  1.00  0.00     0.031 A 
ATOM     56  C   UNL A   1      44.044  29.766  32.481  1.00  0.00     0.049 A 
ATOM     57  C   UNL A   1      43.419  25.130  29.418  1.00  0.00     0.074 A 
ATOM     58  C   UNL A   1      45.166  29.835  33.290  1.00  0.00     0.029 A 
ATOM     59  N   UNL A   1      44.100  28.547  31.823  1.00  0.00    -0.354 N 
ATOM     60  N   UNL A   1      43.699  26.149  30.193  1.00  0.00    -0.248 NA
ATOM     61  C   UNL A   1      44.415  24.050  29.454  1.00  0.00     0.031 C 
ATOM     62  C   UNL A   1      45.922  28.674  33.089  1.00  0.00     0.029 A 
ATOM     63  C   UNL A   1      45.246  27.863  32.191  1.00  0.00     0.049 A 
ATOM     64  H   UNL A   1      43.425  28.217  31.187  1.00  0.00     0.167 HD
ATOM     65  C   UNL A   1      44.893  25.827  30.823  1.00  0.00     0.074 A 
ATOM     66  C   UNL A   1      45.270  24.508  30.358  1.00  0.00     0.031 C 
ATOM     67  C   UNL A   1      45.615  26.558  31.707  1.00  0.00     0.031 A 
BRANCH  54  68
ATOM     68  C   UNL A   1      43.112  32.048  33.041  1.00  0.00    -0.014 A 
ATOM     69  C   UNL A   1      42.606  32.204  34.342  1.00  0.00     0.009 A 
ATOM     70  C   UNL A   1      43.763  33.132  32.431  1.00  0.00     0.009 A 
ATOM     71  C   UNL A   1      42.715  33.431  35.002  1.00  0.00     0.001 A 
ATOM     72  C   UNL A   1      43.893  34.350  33.103  1.00  0.00     0.001 A 
ATOM     73  C   UNL A   1      43.362  34.500  34.383  1.00  0.00     0.000 A 
ENDBRANCH  54  68
BRANCH  55  74
ATOM     74  C   UNL A   1      42.083  23.663  27.743  1.00  0.00    -0.014 A 
ATOM     75  C   UNL A   1      41.472  22.536  28.312  1.00  0.00     0.009 A 
ATOM     76  C   UNL A   1      42.550  23.592  26.423  1.00  0.00     0.009 A 
ATOM     77  C   UNL A   1      41.355  21.351  27.581  1.00  0.00     0.001 A 
ATOM     78  C   UNL A   1      42.410  22.414  25.686  1.00  0.00     0.001 A 
ATOM     79  C   UNL A   1      41.820  21.293  26.268  1.00  0.00     0.000 A 
ENDBRANCH  55  74
BRANCH  67  80
ATOM     80  C   UNL A   1      46.876  25.934  32.233  1.00  0.00    -0.014 A 
ATOM     81  C   UNL A   1      48.104  26.116  31.576  1.00  0.00     0.009 A 
ATOM     82  C   UNL A   1      46.836  25.159  33.401  1.00  0.00     0.009 A 
ATOM     83  C   UNL A   1      49.259  25.496  32.058  1.00  0.00     0.001 A 
ATOM     84  C   UNL A   1      47.997  24.564  33.896  1.00  0.00     0.001 A 
ATOM     85  C   UNL A   1      49.205  24.723  33.217  1.00  0.00     0.000 A 
ENDBRANCH  67  80
ENDBRANCH  41  42
ENDBRANCH  33  36
ENDBRANCH  31  32
ENDBRANCH  30  31
ENDBRANCH  29  30
ENDBRANCH  28  29
ENDBRANCH   1  28
TORSDOF 19
ENDMDL
MODEL 3
REMARK VINA RESULT:     -10.2      1.977      7.625
REMARK SMILES COC(=O)C[C@H](c1ccc(C(=O)NCCCCCCNC(=O)c2ccc(-c3c4nc(c(-c5ccccc5)c5ccc([nH]5)c(-c5ccccc5)c5nc(c(-c6ccccc6)c6ccc3[nH]6)C=C5)C=C4)cc2)cc1)c1c(O)n[nH]c1C
REMARK SMILES IDX 15 1 14 2 13 3 11 4 12 5 10 7 7 8 8 9 72 10 9 11 71 12 6 13
REMARK SMILES IDX 5 14 3 15 4 16 2 17 1 18 73 19 74 20 78 21 76 22 77 23 79 24
REMARK SMILES IDX 75 26 16 28 17 29 18 30 19 31 20 32 21 33 22 35 23 36 24 37
REMARK SMILES IDX 70 38 25 39 69 40 26 41 27 42 28 43 63 44 29 45 68 46 62 47
REMARK SMILES IDX 64 48 30 49 67 50 61 51 60 52 31 54 53 55 38 56 52 57 39 58
REMARK SMILES IDX 42 59 51 60 65 61 40 62 41 63 50 65 66 66 43 67 32 68 33 69
REMARK SMILES IDX 37 70 34 71 36 72 35 73 54 74 55 75 59 76 56 77 58 78 57 79
REMARK SMILES IDX 44 80 45 81 49 82 46 83 48 84 47 85
REMARK H PARENT 13 6 77 25 75 27 20 34 64 53 42 64
REMARK Flexibility Score: inf
ROOT
ATOM      1  C   UNL A   1      33.548  21.017  24.433  1.00  0.00     0.021 C 
ENDROOT
BRANCH   1   2
ATOM      2  C   UNL A   1      33.158  22.141  25.393  1.00  0.00     0.116 C 
BRANCH   2   3
ATOM      3  N   UNL A   1      31.850  21.876  25.962  1.00  0.00    -0.352 N 
ATOM      4  C   UNL A   1      30.704  22.626  25.975  1.00  0.00     0.251 C 
ATOM      5  O   UNL A   1      29.701  22.162  26.515  1.00  0.00    -0.269 OA
ATOM      6  H   UNL A   1      31.774  21.007  26.419  1.00  0.00     0.163 HD
BRANCH   4   7
ATOM      7  C   UNL A   1      30.624  23.935  25.286  1.00  0.00     0.039 A 
ATOM      8  C   UNL A   1      30.612  26.353  23.834  1.00  0.00    -0.040 A 
ATOM      9  C   UNL A   1      30.718  25.116  23.176  1.00  0.00     0.005 A 
ATOM     10  C   UNL A   1      30.447  26.350  25.230  1.00  0.00     0.005 A 
ATOM     11  C   UNL A   1      30.724  23.921  23.894  1.00  0.00     0.014 A 
ATOM     12  C   UNL A   1      30.435  25.150  25.948  1.00  0.00     0.014 A 
BRANCH   8  13
ATOM     13  C   UNL A   1      30.706  27.677  23.086  1.00  0.00     0.068 C 
BRANCH  13  14
ATOM     14  C   UNL A   1      29.694  28.744  23.518  1.00  0.00     0.136 C 
BRANCH  14  15
ATOM     15  C   UNL A   1      29.561  29.837  22.486  1.00  0.00     0.306 C 
ATOM     16  O   UNL A   1      29.765  29.675  21.291  1.00  0.00    -0.252 OA
BRANCH  15  17
ATOM     17  O   UNL A   1      29.142  31.002  23.055  1.00  0.00    -0.469 OA
ATOM     18  C   UNL A   1      27.793  30.968  23.524  1.00  0.00     0.282 C 
ENDBRANCH  15  17
ENDBRANCH  14  15
ENDBRANCH  13  14
BRANCH  13  19
ATOM     19  C   UNL A   1      32.129  28.166  23.167  1.00  0.00     0.044 A 
ATOM     20  C   UNL A   1      33.252  27.919  22.356  1.00  0.00     0.234 A 
ATOM     21  C   UNL A   1      32.660  28.990  24.156  1.00  0.00     0.040 A 
ATOM     22  N   UNL A   1      34.365  28.527  22.733  1.00  0.00    -0.137 NA
ATOM     23  N   UNL A   1      33.980  29.182  23.838  1.00  0.00    -0.279 N 
ATOM     24  C   UNL A   1      32.053  29.599  25.363  1.00  0.00     0.066 C 
ATOM     25  H   UNL A   1      34.588  29.745  24.370  1.00  0.00     0.190 HD
BRANCH  20  26
ATOM     26  O   UNL A   1      33.388  27.168  21.268  1.00  0.00    -0.492 OA
ATOM     27  H   UNL A   1      32.798  26.455  21.115  1.00  0.00     0.295 HD
ENDBRANCH  20  26
ENDBRANCH  13  19
ENDBRANCH   8  13
ENDBRANCH   4   7
ENDBRANCH   2   3
ENDBRANCH   1   2
BRANCH   1  28
ATOM     28  C   UNL A   1      34.725  20.170  24.937  1.00  0.00     0.002 C 
BRANCH  28  29
ATOM     29  C   UNL A   1      36.083  20.878  24.910  1.00  0.00     0.002 C 
BRANCH  29  30
ATOM     30  C   UNL A   1      37.300  19.948  24.938  1.00  0.00     0.021 C 
BRANCH  30  31
ATOM     31  C   UNL A   1      38.601  20.611  25.383  1.00  0.00     0.116 C 
BRANCH  31  32
ATOM     32  N   UNL A   1      39.662  19.640  25.586  1.00  0.00    -0.352 N 
ATOM     33  C   UNL A   1      40.944  19.823  26.034  1.00  0.00     0.251 C 
ATOM     34  H   UNL A   1      39.425  18.710  25.368  1.00  0.00     0.163 HD
ATOM     35  O   UNL A   1      41.760  18.911  25.937  1.00  0.00    -0.269 OA
BRANCH  33  36
ATOM     36  C   UNL A   1      41.356  21.114  26.626  1.00  0.00     0.039 A 
ATOM     37  C   UNL A   1      41.881  22.095  25.779  1.00  0.00     0.014 A 
ATOM     38  C   UNL A   1      41.284  21.344  28.003  1.00  0.00     0.014 A 
ATOM     39  C   UNL A   1      42.298  23.316  26.309  1.00  0.00     0.010 A 
ATOM     40  C   UNL A   1      41.644  22.587  28.524  1.00  0.00     0.010 A 
ATOM     41  C   UNL A   1      42.167  23.579  27.683  1.00  0.00    -0.014 A 
BRANCH  41  42
ATOM     42  C   UNL A   1      42.579  24.894  28.233  1.00  0.00     0.031 A 
ATOM     43  C   UNL A   1      41.566  25.979  28.472  1.00  0.00     0.074 A 
ATOM     44  C   UNL A   1      43.879  25.114  28.508  1.00  0.00     0.049 A 
ATOM     45  N   UNL A   1      41.738  27.160  29.012  1.00  0.00    -0.248 NA
ATOM     46  C   UNL A   1      40.188  25.715  28.029  1.00  0.00     0.031 C 
ATOM     47  C   UNL A   1      44.968  24.163  28.268  1.00  0.00     0.029 A 
ATOM     48  N   UNL A   1      44.502  26.202  29.063  1.00  0.00    -0.354 N 
ATOM     49  C   UNL A   1      40.495  27.780  28.967  1.00  0.00     0.074 A 
ATOM     50  C   UNL A   1      39.591  26.866  28.303  1.00  0.00     0.031 C 
ATOM     51  C   UNL A   1      46.118  24.694  28.714  1.00  0.00     0.029 A 
ATOM     52  C   UNL A   1      45.851  26.025  29.249  1.00  0.00     0.049 A 
ATOM     53  H   UNL A   1      44.028  27.031  29.304  1.00  0.00     0.167 HD
ATOM     54  C   UNL A   1      40.132  28.991  29.453  1.00  0.00     0.031 A 
ATOM     55  C   UNL A   1      46.769  26.837  29.806  1.00  0.00     0.031 A 
ATOM     56  C   UNL A   1      41.027  29.898  30.122  1.00  0.00     0.049 A 
ATOM     57  C   UNL A   1      46.336  28.162  30.364  1.00  0.00     0.074 A 
ATOM     58  C   UNL A   1      40.743  31.123  30.702  1.00  0.00     0.029 A 
ATOM     59  N   UNL A   1      42.384  29.679  30.298  1.00  0.00    -0.354 N 
ATOM     60  N   UNL A   1      45.141  28.697  30.388  1.00  0.00    -0.248 NA
ATOM     61  C   UNL A   1      47.381  28.983  30.992  1.00  0.00     0.031 C 
ATOM     62  C   UNL A   1      41.937  31.664  31.192  1.00  0.00     0.029 A 
ATOM     63  C   UNL A   1      42.956  30.753  30.959  1.00  0.00     0.049 A 
ATOM     64  H   UNL A   1      42.871  28.877  29.997  1.00  0.00     0.167 HD
ATOM     65  C   UNL A   1      45.284  29.910  31.049  1.00  0.00     0.074 A 
ATOM     66  C   UNL A   1      46.678  30.018  31.430  1.00  0.00     0.031 C 
ATOM     67  C   UNL A   1      44.347  30.852  31.316  1.00  0.00     0.031 A 
BRANCH  54  68
ATOM     68  C   UNL A   1      38.698  29.404  29.274  1.00  0.00    -0.014 A 
ATOM     69  C   UNL A   1      38.256  29.995  28.079  1.00  0.00     0.009 A 
ATOM     70  C   UNL A   1      37.768  29.172  30.301  1.00  0.00     0.009 A 
ATOM     71  C   UNL A   1      36.921  30.381  27.931  1.00  0.00     0.001 A 
ATOM     72  C   UNL A   1      36.429  29.535  30.140  1.00  0.00     0.001 A 
ATOM     73  C   UNL A   1      36.010  30.147  28.959  1.00  0.00     0.000 A 
ENDBRANCH  54  68
BRANCH  55  74
ATOM     74  C   UNL A   1      48.184  26.396  29.904  1.00  0.00    -0.014 A 
ATOM     75  C   UNL A   1      49.092  26.692  28.876  1.00  0.00     0.009 A 
ATOM     76  C   UNL A   1      48.633  25.684  31.025  1.00  0.00     0.009 A 
ATOM     77  C   UNL A   1      50.417  26.258  28.957  1.00  0.00     0.001 A 
ATOM     78  C   UNL A   1      49.965  25.274  31.115  1.00  0.00     0.001 A 
ATOM     79  C   UNL A   1      50.853  25.554  30.078  1.00  0.00     0.000 A 
ENDBRANCH  55  74
BRANCH  67  80
ATOM     80  C   UNL A   1      44.805  32.070  32.067  1.00  0.00    -0.014 A 
ATOM     81  C   UNL A   1      44.938  32.053  33.464  1.00  0.00     0.009 A 
ATOM     82  C   UNL A   1      45.113  33.245  31.367  1.00  0.00     0.009 A 
ATOM     83  C   UNL A   1      45.328  33.206  34.149  1.00  0.00     0.001 A 
ATOM     84  C   UNL A   1      45.529  34.388  32.052  1.00  0.00     0.001 A 
ATOM     85  C   UNL A   1      45.625  34.370  33.443  1.00  0.00     0.000 A 
ENDBRANCH  67  80
ENDBRANCH  41  42
ENDBRANCH  33  36
ENDBRANCH  31  32
ENDBRANCH  30  31
ENDBRANCH  29  30
ENDBRANCH  28  29
ENDBRANCH   1  28
TORSDOF 19
ENDMDL
