MODEL 1
REMARK VINA RESULT:      -9.1      0.000      0.000
REMARK SMILES O=C(NCCCCCCNC(=O)c1ccc([C@H]2CCCN(C(=O)c3ccc4[nH]ccc4c3)C2)cc1)c1ccc(-c2c3nc(c(-c4ccccc4)c4ccc([nH]4)c(-c4ccccc4)c4nc(c(-c5ccccc5)c5ccc2[nH]5)C=C4)C=C3)cc1
REMARK SMILES IDX 7 1 6 2 5 3 4 4 3 5 1 6 2 7 36 9 37 10 83 11 38 12 82 13
REMARK SMILES IDX 39 14 40 15 41 16 76 17 42 18 81 19 75 20 77 21 43 22 80 23
REMARK SMILES IDX 74 24 73 25 44 27 66 28 51 29 65 30 52 31 55 32 64 33 78 34
REMARK SMILES IDX 53 35 54 36 63 38 79 39 56 40 45 41 46 42 50 43 47 44 49 45
REMARK SMILES IDX 48 46 67 47 68 48 72 49 69 50 71 51 70 52 57 53 58 54 62 55
REMARK SMILES IDX 59 56 61 57 60 58 8 59 9 60 10 61 11 62 12 64 13 65 14 66
REMARK SMILES IDX 35 67 15 68 34 69 16 70 17 71 18 72 33 73 19 74 21 75 20 76
REMARK SMILES IDX 22 77 23 78 24 79 25 80 32 81 26 82 31 83 27 84 30 85 28 86
REMARK SMILES IDX 29 87
REMARK H PARENT 3 8 77 26 55 37 10 63 28 88
REMARK Flexibility Score: inf
ROOT
ATOM      1  C   UNL A   1      38.624  34.336  31.944  1.00  0.00     0.002 C 
ENDROOT
BRANCH   1   2
ATOM      2  C   UNL A   1      39.670  34.603  33.029  1.00  0.00     0.002 C 
BRANCH   2   3
ATOM      3  C   UNL A   1      39.111  34.870  34.425  1.00  0.00     0.021 C 
BRANCH   3   4
ATOM      4  C   UNL A   1      37.855  34.081  34.773  1.00  0.00     0.116 C 
BRANCH   4   5
ATOM      5  N   UNL A   1      37.952  33.412  36.061  1.00  0.00    -0.352 N 
ATOM      6  O   UNL A   1      38.520  31.770  37.503  1.00  0.00    -0.269 OA
ATOM      7  C   UNL A   1      38.674  32.295  36.409  1.00  0.00     0.251 C 
ATOM      8  H   UNL A   1      37.425  33.817  36.787  1.00  0.00     0.163 HD
BRANCH   7   9
ATOM      9  C   UNL A   1      39.625  31.713  35.437  1.00  0.00     0.039 A 
ATOM     10  C   UNL A   1      40.996  31.950  35.553  1.00  0.00     0.014 A 
ATOM     11  C   UNL A   1      39.134  30.925  34.393  1.00  0.00     0.014 A 
ATOM     12  C   UNL A   1      41.857  31.530  34.547  1.00  0.00     0.010 A 
ATOM     13  C   UNL A   1      40.014  30.424  33.431  1.00  0.00     0.010 A 
ATOM     14  C   UNL A   1      41.378  30.750  33.482  1.00  0.00    -0.014 A 
BRANCH  14  15
ATOM     15  C   UNL A   1      42.333  30.241  32.465  1.00  0.00     0.031 A 
ATOM     16  C   UNL A   1      42.748  31.083  31.291  1.00  0.00     0.074 A 
ATOM     17  C   UNL A   1      42.846  29.007  32.624  1.00  0.00     0.049 A 
ATOM     18  N   UNL A   1      43.592  30.798  30.332  1.00  0.00    -0.248 NA
ATOM     19  C   UNL A   1      42.130  32.413  31.172  1.00  0.00     0.031 C 
ATOM     20  C   UNL A   1      42.523  28.094  33.724  1.00  0.00     0.029 A 
ATOM     21  N   UNL A   1      43.763  28.314  31.876  1.00  0.00    -0.354 N 
ATOM     22  C   UNL A   1      43.592  31.898  29.484  1.00  0.00     0.074 A 
ATOM     23  C   UNL A   1      42.642  32.846  30.029  1.00  0.00     0.031 C 
ATOM     24  C   UNL A   1      43.270  26.987  33.609  1.00  0.00     0.029 A 
ATOM     25  C   UNL A   1      44.070  27.080  32.395  1.00  0.00     0.049 A 
ATOM     26  H   UNL A   1      44.162  28.667  31.048  1.00  0.00     0.167 HD
ATOM     27  C   UNL A   1      44.317  32.101  28.357  1.00  0.00     0.031 A 
ATOM     28  C   UNL A   1      44.892  26.119  31.938  1.00  0.00     0.031 A 
ATOM     29  C   UNL A   1      45.253  31.151  27.813  1.00  0.00     0.049 A 
ATOM     30  C   UNL A   1      45.646  26.349  30.662  1.00  0.00     0.074 A 
ATOM     31  C   UNL A   1      46.062  31.277  26.696  1.00  0.00     0.029 A 
ATOM     32  N   UNL A   1      45.496  29.889  28.339  1.00  0.00    -0.354 N 
ATOM     33  N   UNL A   1      45.665  27.411  29.895  1.00  0.00    -0.248 NA
ATOM     34  C   UNL A   1      46.493  25.246  30.193  1.00  0.00     0.031 C 
ATOM     35  C   UNL A   1      46.745  30.070  26.511  1.00  0.00     0.029 A 
ATOM     36  C   UNL A   1      46.417  29.217  27.552  1.00  0.00     0.049 A 
ATOM     37  H   UNL A   1      45.076  29.527  29.152  1.00  0.00     0.167 HD
ATOM     38  C   UNL A   1      46.544  27.116  28.864  1.00  0.00     0.074 A 
ATOM     39  C   UNL A   1      47.051  25.781  29.115  1.00  0.00     0.031 C 
ATOM     40  C   UNL A   1      46.905  27.884  27.807  1.00  0.00     0.031 A 
BRANCH  27  41
ATOM     41  C   UNL A   1      44.091  33.391  27.611  1.00  0.00    -0.014 A 
ATOM     42  C   UNL A   1      44.495  34.628  28.139  1.00  0.00     0.009 A 
ATOM     43  C   UNL A   1      43.479  33.363  26.348  1.00  0.00     0.009 A 
ATOM     44  C   UNL A   1      44.249  35.812  27.439  1.00  0.00     0.001 A 
ATOM     45  C   UNL A   1      43.263  34.545  25.636  1.00  0.00     0.001 A 
ATOM     46  C   UNL A   1      43.635  35.769  26.187  1.00  0.00     0.000 A 
ENDBRANCH  27  41
BRANCH  28  47
ATOM     47  C   UNL A   1      45.040  24.855  32.703  1.00  0.00    -0.014 A 
ATOM     48  C   UNL A   1      46.062  24.714  33.654  1.00  0.00     0.009 A 
ATOM     49  C   UNL A   1      44.141  23.794  32.509  1.00  0.00     0.009 A 
ATOM     50  C   UNL A   1      46.189  23.529  34.382  1.00  0.00     0.001 A 
ATOM     51  C   UNL A   1      44.252  22.623  33.262  1.00  0.00     0.001 A 
ATOM     52  C   UNL A   1      45.280  22.490  34.192  1.00  0.00     0.000 A 
ENDBRANCH  28  47
BRANCH  40  53
ATOM     53  C   UNL A   1      47.926  27.311  26.863  1.00  0.00    -0.014 A 
ATOM     54  C   UNL A   1      49.299  27.543  27.037  1.00  0.00     0.009 A 
ATOM     55  C   UNL A   1      47.503  26.505  25.795  1.00  0.00     0.009 A 
ATOM     56  C   UNL A   1      50.225  27.011  26.137  1.00  0.00     0.001 A 
ATOM     57  C   UNL A   1      48.432  25.947  24.916  1.00  0.00     0.001 A 
ATOM     58  C   UNL A   1      49.791  26.210  25.081  1.00  0.00     0.000 A 
ENDBRANCH  40  53
ENDBRANCH  14  15
ENDBRANCH   7   9
ENDBRANCH   4   5
ENDBRANCH   3   4
ENDBRANCH   2   3
ENDBRANCH   1   2
BRANCH   1  59
ATOM     59  C   UNL A   1      39.113  34.502  30.502  1.00  0.00     0.021 C 
BRANCH  59  60
ATOM     60  C   UNL A   1      38.077  34.181  29.428  1.00  0.00     0.116 C 
BRANCH  60  61
ATOM     61  N   UNL A   1      36.903  33.520  29.975  1.00  0.00    -0.352 N 
ATOM     62  C   UNL A   1      36.554  32.192  29.925  1.00  0.00     0.251 C 
ATOM     63  H   UNL A   1      36.269  34.106  30.449  1.00  0.00     0.163 HD
ATOM     64  O   UNL A   1      35.442  31.825  30.288  1.00  0.00    -0.269 OA
BRANCH  62  65
ATOM     65  C   UNL A   1      37.522  31.213  29.397  1.00  0.00     0.039 A 
ATOM     66  C   UNL A   1      38.619  30.858  30.177  1.00  0.00     0.014 A 
ATOM     67  C   UNL A   1      37.330  30.625  28.146  1.00  0.00     0.014 A 
ATOM     68  C   UNL A   1      39.459  29.827  29.752  1.00  0.00     0.005 A 
ATOM     69  C   UNL A   1      38.159  29.581  27.736  1.00  0.00     0.005 A 
ATOM     70  C   UNL A   1      39.202  29.125  28.557  1.00  0.00    -0.043 A 
BRANCH  70  71
ATOM     71  C   UNL A   1      40.038  27.890  28.219  1.00  0.00     0.039 C 
ATOM     72  C   UNL A   1      39.129  26.636  28.142  1.00  0.00     0.012 C 
ATOM     73  C   UNL A   1      40.849  28.004  26.908  1.00  0.00     0.128 C 
ATOM     74  C   UNL A   1      39.896  25.377  27.735  1.00  0.00     0.022 C 
ATOM     75  N   UNL A   1      41.541  26.760  26.586  1.00  0.00    -0.338 N 
ATOM     76  C   UNL A   1      40.677  25.592  26.445  1.00  0.00     0.120 C 
BRANCH  75  77
ATOM     77  C   UNL A   1      42.929  26.757  26.543  1.00  0.00     0.253 C 
ATOM     78  O   UNL A   1      43.621  27.771  26.588  1.00  0.00    -0.269 OA
BRANCH  77  79
ATOM     79  C   UNL A   1      43.633  25.466  26.459  1.00  0.00     0.040 A 
ATOM     80  C   UNL A   1      43.851  24.750  27.637  1.00  0.00     0.016 A 
ATOM     81  C   UNL A   1      44.123  25.023  25.222  1.00  0.00     0.024 A 
ATOM     82  C   UNL A   1      44.544  23.538  27.609  1.00  0.00     0.027 A 
ATOM     83  C   UNL A   1      44.848  23.817  25.185  1.00  0.00     0.000 A 
ATOM     84  C   UNL A   1      45.031  23.101  26.370  1.00  0.00     0.045 A 
ATOM     85  C   UNL A   1      45.519  23.100  24.155  1.00  0.00     0.028 A 
ATOM     86  N   UNL A   1      45.758  21.975  26.054  1.00  0.00    -0.361 N 
ATOM     87  C   UNL A   1      46.080  21.978  24.722  1.00  0.00     0.083 A 
ATOM     88  H   UNL A   1      46.010  21.269  26.692  1.00  0.00     0.166 HD
ENDBRANCH  77  79
ENDBRANCH  75  77
ENDBRANCH  70  71
ENDBRANCH  62  65
ENDBRANCH  60  61
ENDBRANCH  59  60
ENDBRANCH   1  59
TORSDOF 16
ENDMDL
MODEL 2
REMARK VINA RESULT:      -9.0      0.267      5.688
REMARK SMILES O=C(NCCCCCCNC(=O)c1ccc([C@H]2CCCN(C(=O)c3ccc4[nH]ccc4c3)C2)cc1)c1ccc(-c2c3nc(c(-c4ccccc4)c4ccc([nH]4)c(-c4ccccc4)c4nc(c(-c5ccccc5)c5ccc2[nH]5)C=C4)C=C3)cc1
REMARK SMILES IDX 7 1 6 2 5 3 4 4 3 5 1 6 2 7 36 9 37 10 83 11 38 12 82 13
REMARK SMILES IDX 39 14 40 15 41 16 76 17 42 18 81 19 75 20 77 21 43 22 80 23
REMARK SMILES IDX 74 24 73 25 44 27 66 28 51 29 65 30 52 31 55 32 64 33 78 34
REMARK SMILES IDX 53 35 54 36 63 38 79 39 56 40 45 41 46 42 50 43 47 44 49 45
REMARK SMILES IDX 48 46 67 47 68 48 72 49 69 50 71 51 70 52 57 53 58 54 62 55
REMARK SMILES IDX 59 56 61 57 60 58 8 59 9 60 10 61 11 62 12 64 13 65 14 66
REMARK SMILES IDX 35 67 15 68 34 69 16 70 17 71 18 72 33 73 19 74 21 75 20 76
REMARK SMILES IDX 22 77 23 78 24 79 25 80 32 81 26 82 31 83 27 84 30 85 28 86
REMARK SMILES IDX 29 87
REMARK H PARENT 3 8 77 26 55 37 10 63 28 88
REMARK Flexibility Score: inf
ROOT
ATOM      1  C   UNL A   1      38.495  34.314  31.970  1.00  0.00     0.002 C 
ENDROOT
BRANCH   1   2
ATOM      2  C   UNL A   1      39.458  34.562  33.135  1.00  0.00     0.002 C 
BRANCH   2   3
ATOM      3  C   UNL A   1      38.796  34.794  34.492  1.00  0.00     0.021 C 
BRANCH   3   4
ATOM      4  C   UNL A   1      37.554  33.950  34.751  1.00  0.00     0.116 C 
BRANCH   4   5
ATOM      5  N   UNL A   1      37.663  33.150  35.960  1.00  0.00    -0.352 N 
ATOM      6  O   UNL A   1      38.280  31.384  37.225  1.00  0.00    -0.269 OA
ATOM      7  C   UNL A   1      38.426  32.031  36.198  1.00  0.00     0.251 C 
ATOM      8  H   UNL A   1      37.110  33.451  36.717  1.00  0.00     0.163 HD
BRANCH   7   9
ATOM      9  C   UNL A   1      39.413  31.597  35.184  1.00  0.00     0.039 A 
ATOM     10  C   UNL A   1      39.007  30.876  34.060  1.00  0.00     0.014 A 
ATOM     11  C   UNL A   1      40.761  31.913  35.368  1.00  0.00     0.014 A 
ATOM     12  C   UNL A   1      39.961  30.342  33.202  1.00  0.00     0.010 A 
ATOM     13  C   UNL A   1      41.711  31.454  34.453  1.00  0.00     0.010 A 
ATOM     14  C   UNL A   1      41.322  30.636  33.381  1.00  0.00    -0.014 A 
BRANCH  14  15
ATOM     15  C   UNL A   1      42.313  30.124  32.400  1.00  0.00     0.031 A 
ATOM     16  C   UNL A   1      42.914  28.754  32.540  1.00  0.00     0.074 A 
ATOM     17  C   UNL A   1      42.652  30.906  31.358  1.00  0.00     0.049 A 
ATOM     18  N   UNL A   1      43.769  28.147  31.756  1.00  0.00    -0.248 NA
ATOM     19  C   UNL A   1      42.512  27.964  33.715  1.00  0.00     0.031 C 
ATOM     20  C   UNL A   1      42.134  32.255  31.112  1.00  0.00     0.029 A 
ATOM     21  N   UNL A   1      43.493  30.675  30.301  1.00  0.00    -0.354 N 
ATOM     22  C   UNL A   1      44.026  26.918  32.350  1.00  0.00     0.074 A 
ATOM     23  C   UNL A   1      43.255  26.876  33.575  1.00  0.00     0.031 C 
ATOM     24  C   UNL A   1      42.625  32.708  29.951  1.00  0.00     0.029 A 
ATOM     25  C   UNL A   1      43.544  31.716  29.406  1.00  0.00     0.049 A 
ATOM     26  H   UNL A   1      44.010  29.844  30.193  1.00  0.00     0.167 HD
ATOM     27  C   UNL A   1      44.828  25.916  31.914  1.00  0.00     0.031 A 
ATOM     28  C   UNL A   1      44.260  31.866  28.279  1.00  0.00     0.031 A 
ATOM     29  C   UNL A   1      45.602  25.966  30.699  1.00  0.00     0.049 A 
ATOM     30  C   UNL A   1      45.178  30.762  27.844  1.00  0.00     0.074 A 
ATOM     31  C   UNL A   1      46.417  24.990  30.153  1.00  0.00     0.029 A 
ATOM     32  N   UNL A   1      45.667  27.060  29.848  1.00  0.00    -0.354 N 
ATOM     33  N   UNL A   1      45.378  29.590  28.396  1.00  0.00    -0.248 NA
ATOM     34  C   UNL A   1      45.966  31.003  26.629  1.00  0.00     0.031 C 
ATOM     35  C   UNL A   1      47.024  25.515  29.008  1.00  0.00     0.029 A 
ATOM     36  C   UNL A   1      46.532  26.794  28.799  1.00  0.00     0.049 A 
ATOM     37  H   UNL A   1      45.171  27.901  29.971  1.00  0.00     0.167 HD
ATOM     38  C   UNL A   1      46.296  28.942  27.583  1.00  0.00     0.074 A 
ATOM     39  C   UNL A   1      46.600  29.847  26.491  1.00  0.00     0.031 C 
ATOM     40  C   UNL A   1      46.835  27.706  27.724  1.00  0.00     0.031 A 
BRANCH  27  41
ATOM     41  C   UNL A   1      44.942  24.692  32.785  1.00  0.00    -0.014 A 
ATOM     42  C   UNL A   1      44.038  23.622  32.675  1.00  0.00     0.009 A 
ATOM     43  C   UNL A   1      45.986  24.600  33.720  1.00  0.00     0.009 A 
ATOM     44  C   UNL A   1      44.149  22.511  33.514  1.00  0.00     0.001 A 
ATOM     45  C   UNL A   1      46.114  23.474  34.535  1.00  0.00     0.001 A 
ATOM     46  C   UNL A   1      45.189  22.436  34.441  1.00  0.00     0.000 A 
ENDBRANCH  27  41
BRANCH  28  47
ATOM     47  C   UNL A   1      44.129  33.115  27.486  1.00  0.00    -0.014 A 
ATOM     48  C   UNL A   1      43.571  33.086  26.200  1.00  0.00     0.009 A 
ATOM     49  C   UNL A   1      44.532  34.347  28.025  1.00  0.00     0.009 A 
ATOM     50  C   UNL A   1      43.435  34.265  25.463  1.00  0.00     0.001 A 
ATOM     51  C   UNL A   1      44.366  35.528  27.298  1.00  0.00     0.001 A 
ATOM     52  C   UNL A   1      43.825  35.484  26.015  1.00  0.00     0.000 A 
ENDBRANCH  28  47
BRANCH  40  53
ATOM     53  C   UNL A   1      47.780  27.247  26.649  1.00  0.00    -0.014 A 
ATOM     54  C   UNL A   1      47.319  26.594  25.495  1.00  0.00     0.009 A 
ATOM     55  C   UNL A   1      49.155  27.494  26.787  1.00  0.00     0.009 A 
ATOM     56  C   UNL A   1      48.221  26.164  24.519  1.00  0.00     0.001 A 
ATOM     57  C   UNL A   1      50.051  27.093  25.795  1.00  0.00     0.001 A 
ATOM     58  C   UNL A   1      49.584  26.418  24.668  1.00  0.00     0.000 A 
ENDBRANCH  40  53
ENDBRANCH  14  15
ENDBRANCH   7   9
ENDBRANCH   4   5
ENDBRANCH   3   4
ENDBRANCH   2   3
ENDBRANCH   1   2
BRANCH   1  59
ATOM     59  C   UNL A   1      39.124  34.364  30.575  1.00  0.00     0.021 C 
BRANCH  59  60
ATOM     60  C   UNL A   1      38.156  34.111  29.422  1.00  0.00     0.116 C 
BRANCH  60  61
ATOM     61  N   UNL A   1      36.930  33.467  29.863  1.00  0.00    -0.352 N 
ATOM     62  C   UNL A   1      36.549  32.152  29.742  1.00  0.00     0.251 C 
ATOM     63  H   UNL A   1      36.281  34.055  30.313  1.00  0.00     0.163 HD
ATOM     64  O   UNL A   1      35.405  31.806  30.014  1.00  0.00    -0.269 OA
BRANCH  62  65
ATOM     65  C   UNL A   1      37.526  31.163  29.247  1.00  0.00     0.039 A 
ATOM     66  C   UNL A   1      38.599  30.807  30.058  1.00  0.00     0.014 A 
ATOM     67  C   UNL A   1      37.364  30.568  27.995  1.00  0.00     0.014 A 
ATOM     68  C   UNL A   1      39.444  29.768  29.663  1.00  0.00     0.005 A 
ATOM     69  C   UNL A   1      38.196  29.516  27.615  1.00  0.00     0.005 A 
ATOM     70  C   UNL A   1      39.215  29.059  28.467  1.00  0.00    -0.043 A 
BRANCH  70  71
ATOM     71  C   UNL A   1      40.051  27.817  28.161  1.00  0.00     0.039 C 
ATOM     72  C   UNL A   1      39.171  26.544  28.256  1.00  0.00     0.012 C 
ATOM     73  C   UNL A   1      40.754  27.841  26.783  1.00  0.00     0.128 C 
ATOM     74  C   UNL A   1      39.934  25.271  27.888  1.00  0.00     0.022 C 
ATOM     75  N   UNL A   1      41.448  26.588  26.505  1.00  0.00    -0.338 N 
ATOM     76  C   UNL A   1      40.605  25.397  26.525  1.00  0.00     0.120 C 
BRANCH  75  77
ATOM     77  C   UNL A   1      42.828  26.607  26.349  1.00  0.00     0.253 C 
ATOM     78  O   UNL A   1      43.497  27.634  26.268  1.00  0.00    -0.269 OA
BRANCH  77  79
ATOM     79  C   UNL A   1      43.554  25.326  26.300  1.00  0.00     0.040 A 
ATOM     80  C   UNL A   1      43.760  24.633  27.493  1.00  0.00     0.016 A 
ATOM     81  C   UNL A   1      44.075  24.872  25.080  1.00  0.00     0.024 A 
ATOM     82  C   UNL A   1      44.473  23.432  27.498  1.00  0.00     0.027 A 
ATOM     83  C   UNL A   1      44.820  23.678  25.076  1.00  0.00     0.000 A 
ATOM     84  C   UNL A   1      44.991  22.983  26.276  1.00  0.00     0.045 A 
ATOM     85  C   UNL A   1      45.522  22.956  24.071  1.00  0.00     0.028 A 
ATOM     86  N   UNL A   1      45.742  21.865  25.992  1.00  0.00    -0.361 N 
ATOM     87  C   UNL A   1      46.090  21.852  24.667  1.00  0.00     0.083 A 
ATOM     88  H   UNL A   1      45.993  21.173  26.646  1.00  0.00     0.166 HD
ENDBRANCH  77  79
ENDBRANCH  75  77
ENDBRANCH  70  71
ENDBRANCH  62  65
ENDBRANCH  60  61
ENDBRANCH  59  60
ENDBRANCH   1  59
TORSDOF 16
ENDMDL
MODEL 3
REMARK VINA RESULT:      -8.6      5.288      8.910
REMARK SMILES O=C(NCCCCCCNC(=O)c1ccc([C@H]2CCCN(C(=O)c3ccc4[nH]ccc4c3)C2)cc1)c1ccc(-c2c3nc(c(-c4ccccc4)c4ccc([nH]4)c(-c4ccccc4)c4nc(c(-c5ccccc5)c5ccc2[nH]5)C=C4)C=C3)cc1
REMARK SMILES IDX 7 1 6 2 5 3 4 4 3 5 1 6 2 7 36 9 37 10 83 11 38 12 82 13
REMARK SMILES IDX 39 14 40 15 41 16 76 17 42 18 81 19 75 20 77 21 43 22 80 23
REMARK SMILES IDX 74 24 73 25 44 27 66 28 51 29 65 30 52 31 55 32 64 33 78 34
REMARK SMILES IDX 53 35 54 36 63 38 79 39 56 40 45 41 46 42 50 43 47 44 49 45
REMARK SMILES IDX 48 46 67 47 68 48 72 49 69 50 71 51 70 52 57 53 58 54 62 55
REMARK SMILES IDX 59 56 61 57 60 58 8 59 9 60 10 61 11 62 12 64 13 65 14 66
REMARK SMILES IDX 35 67 15 68 34 69 16 70 17 71 18 72 33 73 19 74 21 75 20 76
REMARK SMILES IDX 22 77 23 78 24 79 25 80 32 81 26 82 31 83 27 84 30 85 28 86
REMARK SMILES IDX 29 87
REMARK H PARENT 3 8 77 26 55 37 10 63 28 88
REMARK Flexibility Score: inf
ROOT
ATOM      1  C   UNL A   1      35.258  33.298  29.430  1.00  0.00     0.002 C 
ENDROOT
BRANCH   1   2
ATOM      2  C   UNL A   1      35.090  33.126  30.942  1.00  0.00     0.002 C 
BRANCH   2   3
ATOM      3  C   UNL A   1      36.313  33.488  31.782  1.00  0.00     0.021 C 
BRANCH   3   4
ATOM      4  C   UNL A   1      36.390  32.791  33.135  1.00  0.00     0.116 C 
BRANCH   4   5
ATOM      5  N   UNL A   1      36.224  31.350  33.032  1.00  0.00    -0.352 N 
ATOM      6  O   UNL A   1      36.636  29.269  32.260  1.00  0.00    -0.269 OA
ATOM      7  C   UNL A   1      37.007  30.428  32.378  1.00  0.00     0.251 C 
ATOM      8  H   UNL A   1      35.438  30.982  33.497  1.00  0.00     0.163 HD
BRANCH   7   9
ATOM      9  C   UNL A   1      38.295  30.856  31.792  1.00  0.00     0.039 A 
ATOM     10  C   UNL A   1      39.317  31.350  32.604  1.00  0.00     0.014 A 
ATOM     11  C   UNL A   1      38.478  30.764  30.409  1.00  0.00     0.014 A 
ATOM     12  C   UNL A   1      40.458  31.894  32.025  1.00  0.00     0.010 A 
ATOM     13  C   UNL A   1      39.665  31.226  29.836  1.00  0.00     0.010 A 
ATOM     14  C   UNL A   1      40.650  31.825  30.636  1.00  0.00    -0.014 A 
BRANCH  14  15
ATOM     15  C   UNL A   1      41.916  32.335  30.051  1.00  0.00     0.031 A 
ATOM     16  C   UNL A   1      43.121  31.449  29.902  1.00  0.00     0.074 A 
ATOM     17  C   UNL A   1      41.963  33.613  29.631  1.00  0.00     0.049 A 
ATOM     18  N   UNL A   1      44.291  31.731  29.386  1.00  0.00    -0.248 NA
ATOM     19  C   UNL A   1      43.002  30.070  30.403  1.00  0.00     0.031 C 
ATOM     20  C   UNL A   1      40.858  34.571  29.719  1.00  0.00     0.029 A 
ATOM     21  N   UNL A   1      42.970  34.321  29.026  1.00  0.00    -0.354 N 
ATOM     22  C   UNL A   1      45.055  30.579  29.520  1.00  0.00     0.074 A 
ATOM     23  C   UNL A   1      44.223  29.601  30.190  1.00  0.00     0.031 C 
ATOM     24  C   UNL A   1      41.228  35.722  29.140  1.00  0.00     0.029 A 
ATOM     25  C   UNL A   1      42.614  35.607  28.702  1.00  0.00     0.049 A 
ATOM     26  H   UNL A   1      43.860  33.943  28.840  1.00  0.00     0.167 HD
ATOM     27  C   UNL A   1      46.331  30.355  29.119  1.00  0.00     0.031 A 
ATOM     28  C   UNL A   1      43.325  36.594  28.131  1.00  0.00     0.031 A 
ATOM     29  C   UNL A   1      47.158  31.335  28.463  1.00  0.00     0.049 A 
ATOM     30  C   UNL A   1      44.751  36.337  27.742  1.00  0.00     0.074 A 
ATOM     31  C   UNL A   1      48.451  31.195  27.987  1.00  0.00     0.029 A 
ATOM     32  N   UNL A   1      46.778  32.644  28.201  1.00  0.00    -0.354 N 
ATOM     33  N   UNL A   1      45.444  35.228  27.838  1.00  0.00    -0.248 NA
ATOM     34  C   UNL A   1      45.488  37.466  27.164  1.00  0.00     0.031 C 
ATOM     35  C   UNL A   1      48.874  32.434  27.497  1.00  0.00     0.029 A 
ATOM     36  C   UNL A   1      47.821  33.330  27.601  1.00  0.00     0.049 A 
ATOM     37  H   UNL A   1      45.897  33.028  28.412  1.00  0.00     0.167 HD
ATOM     38  C   UNL A   1      46.694  35.519  27.310  1.00  0.00     0.074 A 
ATOM     39  C   UNL A   1      46.655  36.903  26.880  1.00  0.00     0.031 C 
ATOM     40  C   UNL A   1      47.775  34.710  27.187  1.00  0.00     0.031 A 
BRANCH  27  41
ATOM     41  C   UNL A   1      46.924  29.004  29.423  1.00  0.00    -0.014 A 
ATOM     42  C   UNL A   1      47.581  28.743  30.637  1.00  0.00     0.009 A 
ATOM     43  C   UNL A   1      46.806  27.967  28.484  1.00  0.00     0.009 A 
ATOM     44  C   UNL A   1      48.147  27.490  30.882  1.00  0.00     0.001 A 
ATOM     45  C   UNL A   1      47.345  26.706  28.745  1.00  0.00     0.001 A 
ATOM     46  C   UNL A   1      48.026  26.471  29.937  1.00  0.00     0.000 A 
ENDBRANCH  27  41
BRANCH  28  47
ATOM     47  C   UNL A   1      42.690  37.916  27.894  1.00  0.00    -0.014 A 
ATOM     48  C   UNL A   1      42.792  38.936  28.850  1.00  0.00     0.009 A 
ATOM     49  C   UNL A   1      42.004  38.172  26.696  1.00  0.00     0.009 A 
ATOM     50  C   UNL A   1      42.206  40.183  28.618  1.00  0.00     0.001 A 
ATOM     51  C   UNL A   1      41.446  39.429  26.453  1.00  0.00     0.001 A 
ATOM     52  C   UNL A   1      41.542  40.430  27.417  1.00  0.00     0.000 A 
ENDBRANCH  28  47
BRANCH  40  53
ATOM     53  C   UNL A   1      48.992  35.293  26.525  1.00  0.00    -0.014 A 
ATOM     54  C   UNL A   1      49.164  35.247  25.133  1.00  0.00     0.009 A 
ATOM     55  C   UNL A   1      49.970  35.921  27.310  1.00  0.00     0.009 A 
ATOM     56  C   UNL A   1      50.313  35.783  24.545  1.00  0.00     0.001 A 
ATOM     57  C   UNL A   1      51.101  36.486  26.718  1.00  0.00     0.001 A 
ATOM     58  C   UNL A   1      51.276  36.407  25.338  1.00  0.00     0.000 A 
ENDBRANCH  40  53
ENDBRANCH  14  15
ENDBRANCH   7   9
ENDBRANCH   4   5
ENDBRANCH   3   4
ENDBRANCH   2   3
ENDBRANCH   1   2
BRANCH   1  59
ATOM     59  C   UNL A   1      35.862  32.099  28.693  1.00  0.00     0.021 C 
BRANCH  59  60
ATOM     60  C   UNL A   1      34.848  31.072  28.193  1.00  0.00     0.116 C 
BRANCH  60  61
ATOM     61  N   UNL A   1      33.574  31.680  27.846  1.00  0.00    -0.352 N 
ATOM     62  C   UNL A   1      32.550  31.170  27.086  1.00  0.00     0.251 C 
ATOM     63  H   UNL A   1      33.423  32.584  28.207  1.00  0.00     0.163 HD
ATOM     64  O   UNL A   1      31.611  31.882  26.746  1.00  0.00    -0.269 OA
BRANCH  62  65
ATOM     65  C   UNL A   1      32.606  29.760  26.654  1.00  0.00     0.039 A 
ATOM     66  C   UNL A   1      31.832  28.816  27.324  1.00  0.00     0.014 A 
ATOM     67  C   UNL A   1      33.400  29.378  25.573  1.00  0.00     0.014 A 
ATOM     68  C   UNL A   1      31.765  27.511  26.833  1.00  0.00     0.005 A 
ATOM     69  C   UNL A   1      33.312  28.080  25.073  1.00  0.00     0.005 A 
ATOM     70  C   UNL A   1      32.450  27.139  25.659  1.00  0.00    -0.043 A 
BRANCH  70  71
ATOM     71  C   UNL A   1      32.207  25.755  25.057  1.00  0.00     0.039 C 
ATOM     72  C   UNL A   1      30.722  25.611  24.631  1.00  0.00     0.012 C 
ATOM     73  C   UNL A   1      33.111  25.414  23.849  1.00  0.00     0.128 C 
ATOM     74  C   UNL A   1      30.431  24.272  23.953  1.00  0.00     0.022 C 
ATOM     75  N   UNL A   1      32.762  24.128  23.254  1.00  0.00    -0.338 N 
ATOM     76  C   UNL A   1      31.382  24.017  22.790  1.00  0.00     0.120 C 
BRANCH  75  77
ATOM     77  C   UNL A   1      33.702  23.106  23.267  1.00  0.00     0.253 C 
ATOM     78  O   UNL A   1      34.731  23.110  22.596  1.00  0.00    -0.269 OA
BRANCH  77  79
ATOM     79  C   UNL A   1      33.479  21.948  24.150  1.00  0.00     0.040 A 
ATOM     80  C   UNL A   1      33.834  22.060  25.495  1.00  0.00     0.016 A 
ATOM     81  C   UNL A   1      32.987  20.751  23.612  1.00  0.00     0.024 A 
ATOM     82  C   UNL A   1      33.673  20.977  26.361  1.00  0.00     0.027 A 
ATOM     83  C   UNL A   1      32.847  19.643  24.468  1.00  0.00     0.000 A 
ATOM     84  C   UNL A   1      33.180  19.784  25.818  1.00  0.00     0.045 A 
ATOM     85  C   UNL A   1      32.438  18.293  24.277  1.00  0.00     0.028 A 
ATOM     86  N   UNL A   1      32.946  18.568  26.420  1.00  0.00    -0.361 N 
ATOM     87  C   UNL A   1      32.522  17.653  25.493  1.00  0.00     0.083 A 
ATOM     88  H   UNL A   1      33.066  18.382  27.379  1.00  0.00     0.166 HD
ENDBRANCH  77  79
ENDBRANCH  75  77
ENDBRANCH  70  71
ENDBRANCH  62  65
ENDBRANCH  60  61
ENDBRANCH  59  60
ENDBRANCH   1  59
TORSDOF 16
ENDMDL
