MODEL 1
REMARK VINA RESULT:      -8.5      0.000      0.000
REMARK SMILES O=C(NCCCCCCNC(=O)c1ccc2nc(C3CCCCC3)[nH]c2c1)c1ccc(-c2c3nc(c(-c4ccccc4)c4ccc([nH]4)c(-c4ccccc4)c4nc(c(-c5ccccc5)c5ccc2[nH]5)C=C4)C=C3)cc1
REMARK SMILES IDX 6 1 5 2 4 3 3 4 1 5 2 6 28 8 29 9 75 10 30 11 74 12 31 13
REMARK SMILES IDX 32 14 33 15 68 16 34 17 73 18 67 19 69 20 35 21 72 22 66 23
REMARK SMILES IDX 65 24 36 26 58 27 43 28 57 29 44 30 47 31 56 32 70 33 45 34
REMARK SMILES IDX 46 35 55 37 71 38 48 39 37 40 38 41 42 42 39 43 41 44 40 45
REMARK SMILES IDX 59 46 60 47 64 48 61 49 63 50 62 51 49 52 50 53 54 54 51 55
REMARK SMILES IDX 53 56 52 57 7 58 8 59 9 60 10 61 11 62 12 64 13 65 14 66
REMARK SMILES IDX 27 67 15 68 26 69 16 70 25 71 17 72 18 73 19 75 20 76 24 77
REMARK SMILES IDX 21 78 23 79 22 80
REMARK H PARENT 3 7 69 25 47 36 10 63 25 74
REMARK Flexibility Score: inf
ROOT
ATOM      1  C   UNL A   1      37.079  33.349  28.880  1.00  0.00     0.002 C 
ENDROOT
BRANCH   1   2
ATOM      2  C   UNL A   1      35.641  33.416  28.366  1.00  0.00     0.021 C 
BRANCH   2   3
ATOM      3  C   UNL A   1      34.629  32.605  29.161  1.00  0.00     0.116 C 
BRANCH   3   4
ATOM      4  N   UNL A   1      33.910  31.633  28.354  1.00  0.00    -0.352 N 
ATOM      5  O   UNL A   1      33.660  29.810  27.042  1.00  0.00    -0.269 OA
ATOM      6  C   UNL A   1      34.370  30.461  27.803  1.00  0.00     0.251 C 
ATOM      7  H   UNL A   1      32.964  31.845  28.178  1.00  0.00     0.163 HD
BRANCH   6   8
ATOM      8  C   UNL A   1      35.743  29.998  28.108  1.00  0.00     0.039 A 
ATOM      9  C   UNL A   1      36.049  29.456  29.356  1.00  0.00     0.014 A 
ATOM     10  C   UNL A   1      36.740  30.118  27.133  1.00  0.00     0.014 A 
ATOM     11  C   UNL A   1      37.371  29.179  29.683  1.00  0.00     0.010 A 
ATOM     12  C   UNL A   1      38.056  29.750  27.433  1.00  0.00     0.010 A 
ATOM     13  C   UNL A   1      38.388  29.306  28.721  1.00  0.00    -0.014 A 
BRANCH  13  14
ATOM     14  C   UNL A   1      39.767  28.895  29.087  1.00  0.00     0.031 A 
ATOM     15  C   UNL A   1      40.637  29.744  29.974  1.00  0.00     0.074 A 
ATOM     16  C   UNL A   1      40.206  27.694  28.663  1.00  0.00     0.049 A 
ATOM     17  N   UNL A   1      41.821  29.470  30.464  1.00  0.00    -0.248 NA
ATOM     18  C   UNL A   1      40.121  31.067  30.357  1.00  0.00     0.031 C 
ATOM     19  C   UNL A   1      39.461  26.790  27.781  1.00  0.00     0.029 A 
ATOM     20  N   UNL A   1      41.360  27.008  28.944  1.00  0.00    -0.354 N 
ATOM     21  C   UNL A   1      42.197  30.585  31.201  1.00  0.00     0.074 A 
ATOM     22  C   UNL A   1      41.127  31.552  31.074  1.00  0.00     0.031 C 
ATOM     23  C   UNL A   1      40.142  25.643  27.652  1.00  0.00     0.029 A 
ATOM     24  C   UNL A   1      41.395  25.752  28.389  1.00  0.00     0.049 A 
ATOM     25  H   UNL A   1      42.090  27.379  29.489  1.00  0.00     0.167 HD
ATOM     26  C   UNL A   1      43.328  30.782  31.923  1.00  0.00     0.031 A 
ATOM     27  C   UNL A   1      42.332  24.789  28.460  1.00  0.00     0.031 A 
ATOM     28  C   UNL A   1      44.394  29.823  32.044  1.00  0.00     0.049 A 
ATOM     29  C   UNL A   1      43.571  25.037  29.267  1.00  0.00     0.074 A 
ATOM     30  C   UNL A   1      45.577  29.932  32.758  1.00  0.00     0.029 A 
ATOM     31  N   UNL A   1      44.409  28.576  31.439  1.00  0.00    -0.354 N 
ATOM     32  N   UNL A   1      43.896  26.090  29.976  1.00  0.00    -0.248 NA
ATOM     33  C   UNL A   1      44.569  23.960  29.286  1.00  0.00     0.031 C 
ATOM     34  C   UNL A   1      46.324  28.766  32.552  1.00  0.00     0.029 A 
ATOM     35  C   UNL A   1      45.585  27.912  31.751  1.00  0.00     0.049 A 
ATOM     36  H   UNL A   1      43.690  28.215  30.871  1.00  0.00     0.167 HD
ATOM     37  C   UNL A   1      45.137  25.804  30.524  1.00  0.00     0.074 A 
ATOM     38  C   UNL A   1      45.487  24.465  30.099  1.00  0.00     0.031 C 
ATOM     39  C   UNL A   1      45.923  26.586  31.303  1.00  0.00     0.031 A 
BRANCH  26  40
ATOM     40  C   UNL A   1      43.478  32.099  32.634  1.00  0.00    -0.014 A 
ATOM     41  C   UNL A   1      43.186  32.223  34.000  1.00  0.00     0.009 A 
ATOM     42  C   UNL A   1      43.976  33.215  31.942  1.00  0.00     0.009 A 
ATOM     43  C   UNL A   1      43.368  33.445  34.655  1.00  0.00     0.001 A 
ATOM     44  C   UNL A   1      44.178  34.428  32.603  1.00  0.00     0.001 A 
ATOM     45  C   UNL A   1      43.868  34.544  33.957  1.00  0.00     0.000 A 
ENDBRANCH  26  40
BRANCH  27  46
ATOM     46  C   UNL A   1      42.132  23.510  27.732  1.00  0.00    -0.014 A 
ATOM     47  C   UNL A   1      41.476  22.431  28.342  1.00  0.00     0.009 A 
ATOM     48  C   UNL A   1      42.588  23.372  26.412  1.00  0.00     0.009 A 
ATOM     49  C   UNL A   1      41.301  21.231  27.650  1.00  0.00     0.001 A 
ATOM     50  C   UNL A   1      42.384  22.183  25.712  1.00  0.00     0.001 A 
ATOM     51  C   UNL A   1      41.749  21.110  26.335  1.00  0.00     0.000 A 
ENDBRANCH  27  46
BRANCH  39  52
ATOM     52  C   UNL A   1      47.233  25.998  31.741  1.00  0.00    -0.014 A 
ATOM     53  C   UNL A   1      48.360  26.038  30.904  1.00  0.00     0.009 A 
ATOM     54  C   UNL A   1      47.342  25.397  33.004  1.00  0.00     0.009 A 
ATOM     55  C   UNL A   1      49.559  25.449  31.307  1.00  0.00     0.001 A 
ATOM     56  C   UNL A   1      48.550  24.833  33.415  1.00  0.00     0.001 A 
ATOM     57  C   UNL A   1      49.654  24.849  32.562  1.00  0.00     0.000 A 
ENDBRANCH  39  52
ENDBRANCH  13  14
ENDBRANCH   6   8
ENDBRANCH   3   4
ENDBRANCH   2   3
ENDBRANCH   1   2
BRANCH   1  58
ATOM     58  C   UNL A   1      37.239  33.205  30.395  1.00  0.00     0.002 C 
BRANCH  58  59
ATOM     59  C   UNL A   1      37.884  34.391  31.120  1.00  0.00     0.021 C 
BRANCH  59  60
ATOM     60  C   UNL A   1      38.683  34.043  32.375  1.00  0.00     0.116 C 
BRANCH  60  61
ATOM     61  N   UNL A   1      37.839  33.924  33.547  1.00  0.00    -0.352 N 
ATOM     62  C   UNL A   1      37.511  32.804  34.264  1.00  0.00     0.251 C 
ATOM     63  H   UNL A   1      37.446  34.766  33.874  1.00  0.00     0.163 HD
ATOM     64  O   UNL A   1      36.652  32.852  35.140  1.00  0.00    -0.269 OA
BRANCH  62  65
ATOM     65  C   UNL A   1      38.176  31.520  33.960  1.00  0.00     0.042 A 
ATOM     66  C   UNL A   1      37.559  30.579  33.124  1.00  0.00     0.016 A 
ATOM     67  C   UNL A   1      39.445  31.295  34.513  1.00  0.00     0.042 A 
ATOM     68  C   UNL A   1      38.174  29.347  32.866  1.00  0.00     0.031 A 
ATOM     69  C   UNL A   1      40.029  30.060  34.232  1.00  0.00     0.066 A 
ATOM     70  C   UNL A   1      39.426  29.089  33.441  1.00  0.00     0.089 A 
ATOM     71  N   UNL A   1      41.225  29.503  34.598  1.00  0.00    -0.342 N 
ATOM     72  N   UNL A   1      40.219  27.973  33.350  1.00  0.00    -0.233 NA
ATOM     73  C   UNL A   1      41.301  28.243  34.053  1.00  0.00     0.110 A 
ATOM     74  H   UNL A   1      41.913  29.931  35.157  1.00  0.00     0.168 HD
BRANCH  73  75
ATOM     75  C   UNL A   1      42.484  27.341  34.232  1.00  0.00     0.055 C 
ATOM     76  C   UNL A   1      43.539  27.993  35.139  1.00  0.00     0.011 C 
ATOM     77  C   UNL A   1      42.073  25.958  34.759  1.00  0.00     0.011 C 
ATOM     78  C   UNL A   1      44.743  27.080  35.349  1.00  0.00     0.001 C 
ATOM     79  C   UNL A   1      43.286  25.054  34.971  1.00  0.00     0.001 C 
ATOM     80  C   UNL A   1      44.323  25.711  35.876  1.00  0.00     0.000 C 
ENDBRANCH  73  75
ENDBRANCH  62  65
ENDBRANCH  60  61
ENDBRANCH  59  60
ENDBRANCH  58  59
ENDBRANCH   1  58
TORSDOF 14
ENDMDL
MODEL 2
REMARK VINA RESULT:      -8.4      5.057     10.406
REMARK SMILES O=C(NCCCCCCNC(=O)c1ccc2nc(C3CCCCC3)[nH]c2c1)c1ccc(-c2c3nc(c(-c4ccccc4)c4ccc([nH]4)c(-c4ccccc4)c4nc(c(-c5ccccc5)c5ccc2[nH]5)C=C4)C=C3)cc1
REMARK SMILES IDX 6 1 5 2 4 3 3 4 1 5 2 6 28 8 29 9 75 10 30 11 74 12 31 13
REMARK SMILES IDX 32 14 33 15 68 16 34 17 73 18 67 19 69 20 35 21 72 22 66 23
REMARK SMILES IDX 65 24 36 26 58 27 43 28 57 29 44 30 47 31 56 32 70 33 45 34
REMARK SMILES IDX 46 35 55 37 71 38 48 39 37 40 38 41 42 42 39 43 41 44 40 45
REMARK SMILES IDX 59 46 60 47 64 48 61 49 63 50 62 51 49 52 50 53 54 54 51 55
REMARK SMILES IDX 53 56 52 57 7 58 8 59 9 60 10 61 11 62 12 64 13 65 14 66
REMARK SMILES IDX 27 67 15 68 26 69 16 70 25 71 17 72 18 73 19 75 20 76 24 77
REMARK SMILES IDX 21 78 23 79 22 80
REMARK H PARENT 3 7 69 25 47 36 10 63 25 74
REMARK Flexibility Score: inf
ROOT
ATOM      1  C   UNL A   1      34.497  24.202  25.981  1.00  0.00     0.002 C 
ENDROOT
BRANCH   1   2
ATOM      2  C   UNL A   1      35.871  23.707  26.431  1.00  0.00     0.021 C 
BRANCH   2   3
ATOM      3  C   UNL A   1      36.987  23.871  25.409  1.00  0.00     0.116 C 
BRANCH   3   4
ATOM      4  N   UNL A   1      38.032  22.869  25.535  1.00  0.00    -0.352 N 
ATOM      5  O   UNL A   1      40.090  22.074  26.026  1.00  0.00    -0.269 OA
ATOM      6  C   UNL A   1      39.275  22.987  26.110  1.00  0.00     0.251 C 
ATOM      7  H   UNL A   1      37.822  21.985  25.154  1.00  0.00     0.163 HD
BRANCH   6   8
ATOM      8  C   UNL A   1      39.641  24.239  26.812  1.00  0.00     0.039 A 
ATOM      9  C   UNL A   1      39.279  24.437  28.145  1.00  0.00     0.014 A 
ATOM     10  C   UNL A   1      40.346  25.231  26.123  1.00  0.00     0.014 A 
ATOM     11  C   UNL A   1      39.484  25.676  28.738  1.00  0.00     0.010 A 
ATOM     12  C   UNL A   1      40.635  26.446  26.754  1.00  0.00     0.010 A 
ATOM     13  C   UNL A   1      40.179  26.691  28.057  1.00  0.00    -0.014 A 
BRANCH  13  14
ATOM     14  C   UNL A   1      40.467  27.959  28.773  1.00  0.00     0.031 A 
ATOM     15  C   UNL A   1      39.445  29.058  28.878  1.00  0.00     0.074 A 
ATOM     16  C   UNL A   1      41.654  28.080  29.400  1.00  0.00     0.049 A 
ATOM     17  N   UNL A   1      39.514  30.177  29.556  1.00  0.00    -0.248 NA
ATOM     18  C   UNL A   1      38.193  28.888  28.127  1.00  0.00     0.031 C 
ATOM     19  C   UNL A   1      42.734  27.090  29.353  1.00  0.00     0.029 A 
ATOM     20  N   UNL A   1      42.138  29.061  30.227  1.00  0.00    -0.354 N 
ATOM     21  C   UNL A   1      38.324  30.849  29.306  1.00  0.00     0.074 A 
ATOM     22  C   UNL A   1      37.561  30.024  28.393  1.00  0.00     0.031 C 
ATOM     23  C   UNL A   1      43.720  27.478  30.173  1.00  0.00     0.029 A 
ATOM     24  C   UNL A   1      43.372  28.768  30.754  1.00  0.00     0.049 A 
ATOM     25  H   UNL A   1      41.649  29.892  30.424  1.00  0.00     0.167 HD
ATOM     26  C   UNL A   1      37.903  32.040  29.799  1.00  0.00     0.031 A 
ATOM     27  C   UNL A   1      44.145  29.460  31.610  1.00  0.00     0.031 A 
ATOM     28  C   UNL A   1      38.664  32.862  30.703  1.00  0.00     0.049 A 
ATOM     29  C   UNL A   1      43.652  30.774  32.138  1.00  0.00     0.074 A 
ATOM     30  C   UNL A   1      38.319  34.084  31.259  1.00  0.00     0.029 A 
ATOM     31  N   UNL A   1      39.925  32.549  31.186  1.00  0.00    -0.354 N 
ATOM     32  N   UNL A   1      42.514  31.380  31.906  1.00  0.00    -0.248 NA
ATOM     33  C   UNL A   1      44.551  31.496  33.047  1.00  0.00     0.031 C 
ATOM     34  C   UNL A   1      39.387  34.526  32.047  1.00  0.00     0.029 A 
ATOM     35  C   UNL A   1      40.377  33.558  32.022  1.00  0.00     0.049 A 
ATOM     36  H   UNL A   1      40.427  31.729  30.968  1.00  0.00     0.167 HD
ATOM     37  C   UNL A   1      42.558  32.556  32.640  1.00  0.00     0.074 A 
ATOM     38  C   UNL A   1      43.819  32.558  33.354  1.00  0.00     0.031 C 
ATOM     39  C   UNL A   1      41.642  33.551  32.709  1.00  0.00     0.031 A 
BRANCH  26  40
ATOM     40  C   UNL A   1      36.554  32.537  29.359  1.00  0.00    -0.014 A 
ATOM     41  C   UNL A   1      35.391  32.208  30.071  1.00  0.00     0.009 A 
ATOM     42  C   UNL A   1      36.452  33.395  28.251  1.00  0.00     0.009 A 
ATOM     43  C   UNL A   1      34.150  32.709  29.671  1.00  0.00     0.001 A 
ATOM     44  C   UNL A   1      35.213  33.913  27.867  1.00  0.00     0.001 A 
ATOM     45  C   UNL A   1      34.062  33.565  28.573  1.00  0.00     0.000 A 
ENDBRANCH  26  40
BRANCH  27  46
ATOM     46  C   UNL A   1      45.472  28.923  32.005  1.00  0.00    -0.014 A 
ATOM     47  C   UNL A   1      46.621  29.230  31.264  1.00  0.00     0.009 A 
ATOM     48  C   UNL A   1      45.592  28.106  33.141  1.00  0.00     0.009 A 
ATOM     49  C   UNL A   1      47.862  28.712  31.642  1.00  0.00     0.001 A 
ATOM     50  C   UNL A   1      46.837  27.616  33.534  1.00  0.00     0.001 A 
ATOM     51  C   UNL A   1      47.971  27.912  32.778  1.00  0.00     0.000 A 
ENDBRANCH  27  46
BRANCH  39  52
ATOM     52  C   UNL A   1      41.979  34.716  33.593  1.00  0.00    -0.014 A 
ATOM     53  C   UNL A   1      42.728  35.800  33.107  1.00  0.00     0.009 A 
ATOM     54  C   UNL A   1      41.545  34.731  34.927  1.00  0.00     0.009 A 
ATOM     55  C   UNL A   1      43.071  36.856  33.951  1.00  0.00     0.001 A 
ATOM     56  C   UNL A   1      41.867  35.801  35.762  1.00  0.00     0.001 A 
ATOM     57  C   UNL A   1      42.639  36.856  35.277  1.00  0.00     0.000 A 
ENDBRANCH  39  52
ENDBRANCH  13  14
ENDBRANCH   6   8
ENDBRANCH   3   4
ENDBRANCH   2   3
ENDBRANCH   1   2
BRANCH   1  58
ATOM     58  C   UNL A   1      34.473  25.567  25.289  1.00  0.00     0.002 C 
BRANCH  58  59
ATOM     59  C   UNL A   1      33.552  26.621  25.911  1.00  0.00     0.021 C 
BRANCH  59  60
ATOM     60  C   UNL A   1      32.250  26.888  25.158  1.00  0.00     0.116 C 
BRANCH  60  61
ATOM     61  N   UNL A   1      31.081  26.536  25.941  1.00  0.00    -0.352 N 
ATOM     62  C   UNL A   1      30.389  25.354  25.974  1.00  0.00     0.251 C 
ATOM     63  H   UNL A   1      30.737  27.245  26.531  1.00  0.00     0.163 HD
ATOM     64  O   UNL A   1      29.322  25.272  26.575  1.00  0.00    -0.269 OA
BRANCH  62  65
ATOM     65  C   UNL A   1      30.918  24.176  25.256  1.00  0.00     0.042 A 
ATOM     66  C   UNL A   1      30.940  24.149  23.854  1.00  0.00     0.016 A 
ATOM     67  C   UNL A   1      31.413  23.112  26.023  1.00  0.00     0.042 A 
ATOM     68  C   UNL A   1      31.408  23.016  23.174  1.00  0.00     0.031 A 
ATOM     69  C   UNL A   1      31.874  22.004  25.312  1.00  0.00     0.066 A 
ATOM     70  C   UNL A   1      31.872  21.927  23.925  1.00  0.00     0.089 A 
ATOM     71  N   UNL A   1      32.407  20.808  25.715  1.00  0.00    -0.342 N 
ATOM     72  N   UNL A   1      32.366  20.719  23.502  1.00  0.00    -0.233 NA
ATOM     73  C   UNL A   1      32.684  20.059  24.596  1.00  0.00     0.110 A 
ATOM     74  H   UNL A   1      32.564  20.532  26.647  1.00  0.00     0.168 HD
BRANCH  73  75
ATOM     75  C   UNL A   1      33.295  18.691  24.656  1.00  0.00     0.055 C 
ATOM     76  C   UNL A   1      32.652  17.850  25.769  1.00  0.00     0.011 C 
ATOM     77  C   UNL A   1      33.220  17.973  23.300  1.00  0.00     0.011 C 
ATOM     78  C   UNL A   1      33.248  16.447  25.831  1.00  0.00     0.001 C 
ATOM     79  C   UNL A   1      33.814  16.568  23.375  1.00  0.00     0.001 C 
ATOM     80  C   UNL A   1      33.164  15.743  24.481  1.00  0.00     0.000 C 
ENDBRANCH  73  75
ENDBRANCH  62  65
ENDBRANCH  60  61
ENDBRANCH  59  60
ENDBRANCH  58  59
ENDBRANCH   1  58
TORSDOF 14
ENDMDL
MODEL 3
REMARK VINA RESULT:      -8.4      4.347     10.621
REMARK SMILES O=C(NCCCCCCNC(=O)c1ccc2nc(C3CCCCC3)[nH]c2c1)c1ccc(-c2c3nc(c(-c4ccccc4)c4ccc([nH]4)c(-c4ccccc4)c4nc(c(-c5ccccc5)c5ccc2[nH]5)C=C4)C=C3)cc1
REMARK SMILES IDX 6 1 5 2 4 3 3 4 1 5 2 6 28 8 29 9 75 10 30 11 74 12 31 13
REMARK SMILES IDX 32 14 33 15 68 16 34 17 73 18 67 19 69 20 35 21 72 22 66 23
REMARK SMILES IDX 65 24 36 26 58 27 43 28 57 29 44 30 47 31 56 32 70 33 45 34
REMARK SMILES IDX 46 35 55 37 71 38 48 39 37 40 38 41 42 42 39 43 41 44 40 45
REMARK SMILES IDX 59 46 60 47 64 48 61 49 63 50 62 51 49 52 50 53 54 54 51 55
REMARK SMILES IDX 53 56 52 57 7 58 8 59 9 60 10 61 11 62 12 64 13 65 14 66
REMARK SMILES IDX 27 67 15 68 26 69 16 70 25 71 17 72 18 73 19 75 20 76 24 77
REMARK SMILES IDX 21 78 23 79 22 80
REMARK H PARENT 3 7 69 25 47 36 10 63 25 74
REMARK Flexibility Score: inf
ROOT
ATOM      1  C   UNL A   1      32.679  26.774  26.064  1.00  0.00     0.002 C 
ENDROOT
BRANCH   1   2
ATOM      2  C   UNL A   1      32.829  27.804  27.183  1.00  0.00     0.021 C 
BRANCH   2   3
ATOM      3  C   UNL A   1      34.034  28.724  27.062  1.00  0.00     0.116 C 
BRANCH   3   4
ATOM      4  N   UNL A   1      33.835  30.017  27.695  1.00  0.00    -0.352 N 
ATOM      5  O   UNL A   1      34.341  31.770  29.030  1.00  0.00    -0.269 OA
ATOM      6  C   UNL A   1      34.710  30.743  28.468  1.00  0.00     0.251 C 
ATOM      7  H   UNL A   1      32.952  30.429  27.551  1.00  0.00     0.163 HD
BRANCH   6   8
ATOM      8  C   UNL A   1      36.100  30.265  28.645  1.00  0.00     0.039 A 
ATOM      9  C   UNL A   1      37.031  30.388  27.613  1.00  0.00     0.014 A 
ATOM     10  C   UNL A   1      36.474  29.676  29.858  1.00  0.00     0.014 A 
ATOM     11  C   UNL A   1      38.278  29.789  27.735  1.00  0.00     0.010 A 
ATOM     12  C   UNL A   1      37.763  29.156  30.013  1.00  0.00     0.010 A 
ATOM     13  C   UNL A   1      38.667  29.181  28.941  1.00  0.00    -0.014 A 
BRANCH  13  14
ATOM     14  C   UNL A   1      40.050  28.651  29.056  1.00  0.00     0.031 A 
ATOM     15  C   UNL A   1      40.393  27.242  28.660  1.00  0.00     0.074 A 
ATOM     16  C   UNL A   1      41.021  29.493  29.461  1.00  0.00     0.049 A 
ATOM     17  N   UNL A   1      41.571  26.670  28.607  1.00  0.00    -0.248 NA
ATOM     18  C   UNL A   1      39.280  26.358  28.280  1.00  0.00     0.031 C 
ATOM     19  C   UNL A   1      40.808  30.878  29.892  1.00  0.00     0.029 A 
ATOM     20  N   UNL A   1      42.380  29.326  29.539  1.00  0.00    -0.354 N 
ATOM     21  C   UNL A   1      41.342  25.362  28.200  1.00  0.00     0.074 A 
ATOM     22  C   UNL A   1      39.911  25.215  28.045  1.00  0.00     0.031 C 
ATOM     23  C   UNL A   1      41.996  31.455  30.120  1.00  0.00     0.029 A 
ATOM     24  C   UNL A   1      43.048  30.468  29.911  1.00  0.00     0.049 A 
ATOM     25  H   UNL A   1      42.832  28.473  29.348  1.00  0.00     0.167 HD
ATOM     26  C   UNL A   1      42.244  24.375  27.971  1.00  0.00     0.031 A 
ATOM     27  C   UNL A   1      44.363  30.700  30.069  1.00  0.00     0.031 A 
ATOM     28  C   UNL A   1      43.668  24.520  28.131  1.00  0.00     0.049 A 
ATOM     29  C   UNL A   1      45.336  29.590  29.808  1.00  0.00     0.074 A 
ATOM     30  C   UNL A   1      44.661  23.578  27.918  1.00  0.00     0.029 A 
ATOM     31  N   UNL A   1      44.303  25.681  28.543  1.00  0.00    -0.354 N 
ATOM     32  N   UNL A   1      45.100  28.367  29.402  1.00  0.00    -0.248 NA
ATOM     33  C   UNL A   1      46.756  29.896  30.023  1.00  0.00     0.031 C 
ATOM     34  C   UNL A   1      45.894  24.159  28.239  1.00  0.00     0.029 A 
ATOM     35  C   UNL A   1      45.672  25.476  28.603  1.00  0.00     0.049 A 
ATOM     36  H   UNL A   1      43.849  26.528  28.760  1.00  0.00     0.167 HD
ATOM     37  C   UNL A   1      46.341  27.755  29.313  1.00  0.00     0.074 A 
ATOM     38  C   UNL A   1      47.328  28.753  29.670  1.00  0.00     0.031 C 
ATOM     39  C   UNL A   1      46.637  26.476  28.978  1.00  0.00     0.031 A 
BRANCH  26  40
ATOM     40  C   UNL A   1      41.716  23.038  27.531  1.00  0.00    -0.014 A 
ATOM     41  C   UNL A   1      41.363  22.801  26.194  1.00  0.00     0.009 A 
ATOM     42  C   UNL A   1      41.626  21.983  28.454  1.00  0.00     0.009 A 
ATOM     43  C   UNL A   1      40.909  21.541  25.794  1.00  0.00     0.001 A 
ATOM     44  C   UNL A   1      41.194  20.719  28.047  1.00  0.00     0.001 A 
ATOM     45  C   UNL A   1      40.830  20.501  26.719  1.00  0.00     0.000 A 
ENDBRANCH  26  40
BRANCH  27  46
ATOM     46  C   UNL A   1      44.827  32.040  30.511  1.00  0.00    -0.014 A 
ATOM     47  C   UNL A   1      45.130  33.040  29.577  1.00  0.00     0.009 A 
ATOM     48  C   UNL A   1      44.954  32.326  31.880  1.00  0.00     0.009 A 
ATOM     49  C   UNL A   1      45.573  34.293  30.005  1.00  0.00     0.001 A 
ATOM     50  C   UNL A   1      45.367  33.588  32.306  1.00  0.00     0.001 A 
ATOM     51  C   UNL A   1      45.685  34.569  31.367  1.00  0.00     0.000 A 
ENDBRANCH  27  46
BRANCH  39  52
ATOM     52  C   UNL A   1      48.090  26.100  28.980  1.00  0.00    -0.014 A 
ATOM     53  C   UNL A   1      48.732  25.699  30.163  1.00  0.00     0.009 A 
ATOM     54  C   UNL A   1      48.827  26.147  27.787  1.00  0.00     0.009 A 
ATOM     55  C   UNL A   1      50.094  25.393  30.159  1.00  0.00     0.001 A 
ATOM     56  C   UNL A   1      50.182  25.815  27.781  1.00  0.00     0.001 A 
ATOM     57  C   UNL A   1      50.817  25.450  28.968  1.00  0.00     0.000 A 
ENDBRANCH  39  52
ENDBRANCH  13  14
ENDBRANCH   6   8
ENDBRANCH   3   4
ENDBRANCH   2   3
ENDBRANCH   1   2
BRANCH   1  58
ATOM     58  C   UNL A   1      32.818  25.308  26.483  1.00  0.00     0.002 C 
BRANCH  58  59
ATOM     59  C   UNL A   1      33.947  24.520  25.810  1.00  0.00     0.021 C 
BRANCH  59  60
ATOM     60  C   UNL A   1      34.608  25.201  24.614  1.00  0.00     0.116 C 
BRANCH  60  61
ATOM     61  N   UNL A   1      34.468  24.427  23.396  1.00  0.00    -0.352 N 
ATOM     62  C   UNL A   1      33.369  24.277  22.590  1.00  0.00     0.251 C 
ATOM     63  H   UNL A   1      35.274  23.942  23.107  1.00  0.00     0.163 HD
ATOM     64  O   UNL A   1      33.371  23.456  21.679  1.00  0.00    -0.269 OA
BRANCH  62  65
ATOM     65  C   UNL A   1      32.162  25.092  22.840  1.00  0.00     0.042 A 
ATOM     66  C   UNL A   1      31.086  24.565  23.569  1.00  0.00     0.016 A 
ATOM     67  C   UNL A   1      32.147  26.405  22.349  1.00  0.00     0.042 A 
ATOM     68  C   UNL A   1      29.928  25.326  23.774  1.00  0.00     0.031 A 
ATOM     69  C   UNL A   1      30.980  27.134  22.575  1.00  0.00     0.066 A 
ATOM     70  C   UNL A   1      29.879  26.628  23.257  1.00  0.00     0.089 A 
ATOM     71  N   UNL A   1      30.612  28.410  22.241  1.00  0.00    -0.342 N 
ATOM     72  N   UNL A   1      28.872  27.557  23.314  1.00  0.00    -0.233 NA
ATOM     73  C   UNL A   1      29.333  28.626  22.698  1.00  0.00     0.110 A 
ATOM     74  H   UNL A   1      31.167  29.062  21.756  1.00  0.00     0.168 HD
BRANCH  73  75
ATOM     75  C   UNL A   1      28.608  29.926  22.525  1.00  0.00     0.055 C 
ATOM     76  C   UNL A   1      28.978  30.914  23.642  1.00  0.00     0.011 C 
ATOM     77  C   UNL A   1      28.854  30.536  21.136  1.00  0.00     0.011 C 
ATOM     78  C   UNL A   1      28.264  32.252  23.470  1.00  0.00     0.001 C 
ATOM     79  C   UNL A   1      28.141  31.877  20.977  1.00  0.00     0.001 C 
ATOM     80  C   UNL A   1      28.519  32.849  22.090  1.00  0.00     0.000 C 
ENDBRANCH  73  75
ENDBRANCH  62  65
ENDBRANCH  60  61
ENDBRANCH  59  60
ENDBRANCH  58  59
ENDBRANCH   1  58
TORSDOF 14
ENDMDL
