MODEL 1
REMARK VINA RESULT:     -11.4      0.000      0.000
REMARK SMILES Cc1cc(F)cc(N[C@@](C)(C(=O)NCCCCCCNC(=O)c2ccc(-c3c4nc(c(-c5ccccc5)c5ccc([nH]5)c(-c5ccccc5)c5nc(c(-c6ccccc6)c6ccc3[nH]6)C=C5)C=C4)cc2)c2cccc(F)c2)c1
REMARK SMILES IDX 16 1 15 2 14 3 13 4 11 5 12 6 9 8 10 9 8 10 7 12 1 13 2 14
REMARK SMILES IDX 3 15 78 16 4 17 5 18 6 19 71 20 72 21 77 22 73 23 75 24
REMARK SMILES IDX 74 25 76 26 17 27 18 28 19 29 20 30 21 31 22 33 23 34 24 35
REMARK SMILES IDX 70 36 25 37 69 38 26 39 27 40 28 41 63 42 29 43 68 44 62 45
REMARK SMILES IDX 64 46 30 47 67 48 61 49 60 50 31 52 53 53 38 54 52 55 39 56
REMARK SMILES IDX 42 57 51 58 65 59 40 60 41 61 50 63 66 64 43 65 32 66 33 67
REMARK SMILES IDX 37 68 34 69 36 70 35 71 54 72 55 73 59 74 56 75 58 76 57 77
REMARK SMILES IDX 44 78 45 79 49 80 46 81 48 82 47 83
REMARK H PARENT 13 7 8 11 20 32 64 51 42 62
REMARK Flexibility Score: inf
ROOT
ATOM      1  C   UNL A   1      33.009  24.501  25.783  1.00  0.00     0.002 C 
ENDROOT
BRANCH   1   2
ATOM      2  C   UNL A   1      31.747  23.831  25.246  1.00  0.00     0.021 C 
BRANCH   2   3
ATOM      3  C   UNL A   1      30.770  24.760  24.519  1.00  0.00     0.116 C 
BRANCH   3   4
ATOM      4  N   UNL A   1      31.252  25.073  23.191  1.00  0.00    -0.354 N 
ATOM      5  C   UNL A   1      31.475  26.252  22.538  1.00  0.00     0.250 C 
ATOM      6  O   UNL A   1      31.735  26.111  21.332  1.00  0.00    -0.272 OA
ATOM      7  H   UNL A   1      31.461  24.279  22.650  1.00  0.00     0.163 HD
BRANCH   5   8
ATOM      8  C   UNL A   1      31.438  27.704  23.207  1.00  0.00     0.139 C 
ATOM      9  C   UNL A   1      32.722  28.391  22.626  1.00  0.00     0.051 C 
BRANCH   8  10
ATOM     10  N   UNL A   1      31.737  27.617  24.669  1.00  0.00    -0.368 N 
ATOM     11  H   UNL A   1      31.585  26.710  25.023  1.00  0.00     0.161 HD
BRANCH  10  12
ATOM     12  C   UNL A   1      32.171  28.484  25.645  1.00  0.00     0.038 A 
ATOM     13  C   UNL A   1      31.384  32.117  26.634  1.00  0.00     0.044 C 
ATOM     14  C   UNL A   1      32.060  30.782  26.552  1.00  0.00    -0.046 A 
ATOM     15  C   UNL A   1      33.206  30.542  27.307  1.00  0.00     0.042 A 
ATOM     16  C   UNL A   1      31.576  29.762  25.711  1.00  0.00     0.029 A 
ATOM     17  C   UNL A   1      33.754  29.272  27.308  1.00  0.00     0.125 A 
ATOM     18  F   UNL A   1      34.835  29.023  28.059  1.00  0.00    -0.207 F 
ATOM     19  C   UNL A   1      33.208  28.247  26.538  1.00  0.00     0.065 A 
ENDBRANCH  10  12
ENDBRANCH   8  10
BRANCH   8  20
ATOM     20  C   UNL A   1      30.176  28.496  22.796  1.00  0.00    -0.011 A 
ATOM     21  C   UNL A   1      30.216  29.662  22.004  1.00  0.00     0.007 A 
ATOM     22  C   UNL A   1      28.898  28.104  23.226  1.00  0.00     0.046 A 
ATOM     23  C   UNL A   1      29.057  30.392  21.691  1.00  0.00     0.003 A 
ATOM     24  C   UNL A   1      27.748  28.832  22.927  1.00  0.00     0.123 A 
ATOM     25  C   UNL A   1      27.817  29.980  22.162  1.00  0.00     0.039 A 
ATOM     26  F   UNL A   1      26.572  28.435  23.432  1.00  0.00    -0.207 F 
ENDBRANCH   8  20
ENDBRANCH   5   8
ENDBRANCH   3   4
ENDBRANCH   2   3
ENDBRANCH   1   2
BRANCH   1  27
ATOM     27  C   UNL A   1      34.129  23.539  26.185  1.00  0.00     0.002 C 
BRANCH  27  28
ATOM     28  C   UNL A   1      35.332  23.505  25.239  1.00  0.00     0.021 C 
BRANCH  28  29
ATOM     29  C   UNL A   1      36.648  23.956  25.866  1.00  0.00     0.116 C 
BRANCH  29  30
ATOM     30  N   UNL A   1      37.607  22.864  25.958  1.00  0.00    -0.352 N 
ATOM     31  C   UNL A   1      38.935  22.909  26.301  1.00  0.00     0.251 C 
ATOM     32  H   UNL A   1      37.254  21.970  25.746  1.00  0.00     0.163 HD
ATOM     33  O   UNL A   1      39.667  21.943  26.115  1.00  0.00    -0.269 OA
BRANCH  31  34
ATOM     34  C   UNL A   1      39.480  24.149  26.886  1.00  0.00     0.039 A 
ATOM     35  C   UNL A   1      40.156  25.056  26.068  1.00  0.00     0.014 A 
ATOM     36  C   UNL A   1      39.287  24.419  28.243  1.00  0.00     0.014 A 
ATOM     37  C   UNL A   1      40.579  26.276  26.600  1.00  0.00     0.010 A 
ATOM     38  C   UNL A   1      39.641  25.662  28.750  1.00  0.00     0.010 A 
ATOM     39  C   UNL A   1      40.289  26.602  27.934  1.00  0.00    -0.014 A 
BRANCH  39  40
ATOM     40  C   UNL A   1      40.646  27.919  28.516  1.00  0.00     0.031 A 
ATOM     41  C   UNL A   1      42.030  28.147  29.053  1.00  0.00     0.074 A 
ATOM     42  C   UNL A   1      39.700  28.867  28.657  1.00  0.00     0.049 A 
ATOM     43  N   UNL A   1      42.503  29.171  29.715  1.00  0.00    -0.248 NA
ATOM     44  C   UNL A   1      43.003  27.063  28.842  1.00  0.00     0.031 C 
ATOM     45  C   UNL A   1      38.315  28.763  28.193  1.00  0.00     0.029 A 
ATOM     46  N   UNL A   1      39.761  30.104  29.247  1.00  0.00    -0.354 N 
ATOM     47  C   UNL A   1      43.816  28.841  30.026  1.00  0.00     0.074 A 
ATOM     48  C   UNL A   1      44.050  27.506  29.522  1.00  0.00     0.031 C 
ATOM     49  C   UNL A   1      37.667  29.900  28.491  1.00  0.00     0.029 A 
ATOM     50  C   UNL A   1      38.571  30.789  29.212  1.00  0.00     0.049 A 
ATOM     51  H   UNL A   1      40.581  30.467  29.654  1.00  0.00     0.167 HD
ATOM     52  C   UNL A   1      44.749  29.587  30.665  1.00  0.00     0.031 A 
ATOM     53  C   UNL A   1      38.244  31.993  29.717  1.00  0.00     0.031 A 
ATOM     54  C   UNL A   1      44.512  30.915  31.167  1.00  0.00     0.049 A 
ATOM     55  C   UNL A   1      39.281  32.784  30.465  1.00  0.00     0.074 A 
ATOM     56  C   UNL A   1      45.405  31.778  31.778  1.00  0.00     0.029 A 
ATOM     57  N   UNL A   1      43.291  31.567  31.122  1.00  0.00    -0.354 N 
ATOM     58  N   UNL A   1      40.536  32.486  30.700  1.00  0.00    -0.248 NA
ATOM     59  C   UNL A   1      38.854  34.080  31.011  1.00  0.00     0.031 C 
ATOM     60  C   UNL A   1      44.707  32.929  32.158  1.00  0.00     0.029 A 
ATOM     61  C   UNL A   1      43.396  32.810  31.723  1.00  0.00     0.049 A 
ATOM     62  H   UNL A   1      42.468  31.201  30.723  1.00  0.00     0.167 HD
ATOM     63  C   UNL A   1      41.060  33.574  31.388  1.00  0.00     0.074 A 
ATOM     64  C   UNL A   1      39.986  34.537  31.527  1.00  0.00     0.031 C 
ATOM     65  C   UNL A   1      42.319  33.761  31.852  1.00  0.00     0.031 A 
BRANCH  52  66
ATOM     66  C   UNL A   1      46.100  28.960  30.881  1.00  0.00    -0.014 A 
ATOM     67  C   UNL A   1      47.112  29.042  29.910  1.00  0.00     0.009 A 
ATOM     68  C   UNL A   1      46.364  28.271  32.076  1.00  0.00     0.009 A 
ATOM     69  C   UNL A   1      48.337  28.400  30.108  1.00  0.00     0.001 A 
ATOM     70  C   UNL A   1      47.602  27.662  32.287  1.00  0.00     0.001 A 
ATOM     71  C   UNL A   1      48.582  27.714  31.296  1.00  0.00     0.000 A 
ENDBRANCH  52  66
BRANCH  53  72
ATOM     72  C   UNL A   1      36.877  32.539  29.507  1.00  0.00    -0.014 A 
ATOM     73  C   UNL A   1      35.880  32.324  30.471  1.00  0.00     0.009 A 
ATOM     74  C   UNL A   1      36.562  33.281  28.359  1.00  0.00     0.009 A 
ATOM     75  C   UNL A   1      34.590  32.823  30.279  1.00  0.00     0.001 A 
ATOM     76  C   UNL A   1      35.278  33.803  28.183  1.00  0.00     0.001 A 
ATOM     77  C   UNL A   1      34.291  33.566  29.138  1.00  0.00     0.000 A 
ENDBRANCH  53  72
BRANCH  65  78
ATOM     78  C   UNL A   1      42.626  35.079  32.509  1.00  0.00    -0.014 A 
ATOM     79  C   UNL A   1      42.256  35.342  33.837  1.00  0.00     0.009 A 
ATOM     80  C   UNL A   1      43.343  36.052  31.796  1.00  0.00     0.009 A 
ATOM     81  C   UNL A   1      42.575  36.567  34.427  1.00  0.00     0.001 A 
ATOM     82  C   UNL A   1      43.687  37.263  32.398  1.00  0.00     0.001 A 
ATOM     83  C   UNL A   1      43.296  37.523  33.710  1.00  0.00     0.000 A 
ENDBRANCH  65  78
ENDBRANCH  39  40
ENDBRANCH  31  34
ENDBRANCH  29  30
ENDBRANCH  28  29
ENDBRANCH  27  28
ENDBRANCH   1  27
TORSDOF 16
ENDMDL
MODEL 2
REMARK VINA RESULT:     -11.3      2.922      7.694
REMARK SMILES Cc1cc(F)cc(N[C@@](C)(C(=O)NCCCCCCNC(=O)c2ccc(-c3c4nc(c(-c5ccccc5)c5ccc([nH]5)c(-c5ccccc5)c5nc(c(-c6ccccc6)c6ccc3[nH]6)C=C5)C=C4)cc2)c2cccc(F)c2)c1
REMARK SMILES IDX 16 1 15 2 14 3 13 4 11 5 12 6 9 8 10 9 8 10 7 12 1 13 2 14
REMARK SMILES IDX 3 15 78 16 4 17 5 18 6 19 71 20 72 21 77 22 73 23 75 24
REMARK SMILES IDX 74 25 76 26 17 27 18 28 19 29 20 30 21 31 22 33 23 34 24 35
REMARK SMILES IDX 70 36 25 37 69 38 26 39 27 40 28 41 63 42 29 43 68 44 62 45
REMARK SMILES IDX 64 46 30 47 67 48 61 49 60 50 31 52 53 53 38 54 52 55 39 56
REMARK SMILES IDX 42 57 51 58 65 59 40 60 41 61 50 63 66 64 43 65 32 66 33 67
REMARK SMILES IDX 37 68 34 69 36 70 35 71 54 72 55 73 59 74 56 75 58 76 57 77
REMARK SMILES IDX 44 78 45 79 49 80 46 81 48 82 47 83
REMARK H PARENT 13 7 8 11 20 32 64 51 42 62
REMARK Flexibility Score: inf
ROOT
ATOM      1  C   UNL A   1      32.272  29.903  27.133  1.00  0.00     0.002 C 
ENDROOT
BRANCH   1   2
ATOM      2  C   UNL A   1      31.658  28.532  27.404  1.00  0.00     0.021 C 
BRANCH   2   3
ATOM      3  C   UNL A   1      32.370  27.351  26.735  1.00  0.00     0.116 C 
BRANCH   3   4
ATOM      4  N   UNL A   1      31.558  26.155  26.807  1.00  0.00    -0.354 N 
ATOM      5  C   UNL A   1      31.003  25.352  25.854  1.00  0.00     0.250 C 
ATOM      6  O   UNL A   1      30.220  24.503  26.312  1.00  0.00    -0.272 OA
ATOM      7  H   UNL A   1      31.369  25.863  27.727  1.00  0.00     0.163 HD
BRANCH   5   8
ATOM      8  C   UNL A   1      31.300  25.432  24.285  1.00  0.00     0.139 C 
ATOM      9  C   UNL A   1      30.471  24.233  23.708  1.00  0.00     0.051 C 
BRANCH   8  10
ATOM     10  N   UNL A   1      32.711  25.033  23.996  1.00  0.00    -0.368 N 
ATOM     11  H   UNL A   1      33.144  25.646  23.358  1.00  0.00     0.161 HD
BRANCH  10  12
ATOM     12  C   UNL A   1      33.557  24.025  24.397  1.00  0.00     0.038 A 
ATOM     13  C   UNL A   1      37.192  23.822  25.636  1.00  0.00     0.044 C 
ATOM     14  C   UNL A   1      35.845  23.423  25.117  1.00  0.00    -0.046 A 
ATOM     15  C   UNL A   1      35.572  22.079  24.871  1.00  0.00     0.042 A 
ATOM     16  C   UNL A   1      34.846  24.378  24.849  1.00  0.00     0.029 A 
ATOM     17  C   UNL A   1      34.290  21.712  24.500  1.00  0.00     0.125 A 
ATOM     18  F   UNL A   1      34.010  20.419  24.295  1.00  0.00    -0.207 F 
ATOM     19  C   UNL A   1      33.287  22.664  24.326  1.00  0.00     0.065 A 
ENDBRANCH  10  12
ENDBRANCH   8  10
BRANCH   8  20
ATOM     20  C   UNL A   1      30.809  26.764  23.672  1.00  0.00    -0.011 A 
ATOM     21  C   UNL A   1      31.680  27.770  23.206  1.00  0.00     0.007 A 
ATOM     22  C   UNL A   1      29.440  27.061  23.575  1.00  0.00     0.046 A 
ATOM     23  C   UNL A   1      31.206  28.994  22.702  1.00  0.00     0.003 A 
ATOM     24  C   UNL A   1      28.967  28.277  23.088  1.00  0.00     0.123 A 
ATOM     25  C   UNL A   1      29.842  29.253  22.652  1.00  0.00     0.039 A 
ATOM     26  F   UNL A   1      27.649  28.516  23.092  1.00  0.00    -0.207 F 
ENDBRANCH   8  20
ENDBRANCH   5   8
ENDBRANCH   3   4
ENDBRANCH   2   3
ENDBRANCH   1   2
BRANCH   1  27
ATOM     27  C   UNL A   1      31.510  30.763  26.124  1.00  0.00     0.002 C 
BRANCH  27  28
ATOM     28  C   UNL A   1      31.390  32.245  26.487  1.00  0.00     0.021 C 
BRANCH  28  29
ATOM     29  C   UNL A   1      32.578  32.809  27.260  1.00  0.00     0.116 C 
BRANCH  29  30
ATOM     30  N   UNL A   1      32.387  34.212  27.601  1.00  0.00    -0.352 N 
ATOM     31  C   UNL A   1      32.985  34.948  28.593  1.00  0.00     0.251 C 
ATOM     32  H   UNL A   1      31.740  34.700  27.042  1.00  0.00     0.163 HD
ATOM     33  O   UNL A   1      32.557  36.055  28.902  1.00  0.00    -0.269 OA
BRANCH  31  34
ATOM     34  C   UNL A   1      34.149  34.381  29.299  1.00  0.00     0.039 A 
ATOM     35  C   UNL A   1      33.959  33.711  30.510  1.00  0.00     0.014 A 
ATOM     36  C   UNL A   1      35.423  34.490  28.737  1.00  0.00     0.014 A 
ATOM     37  C   UNL A   1      35.046  33.084  31.125  1.00  0.00     0.010 A 
ATOM     38  C   UNL A   1      36.485  33.803  29.310  1.00  0.00     0.010 A 
ATOM     39  C   UNL A   1      36.307  33.094  30.508  1.00  0.00    -0.014 A 
BRANCH  39  40
ATOM     40  C   UNL A   1      37.467  32.370  31.084  1.00  0.00     0.031 A 
ATOM     41  C   UNL A   1      38.130  32.894  32.326  1.00  0.00     0.074 A 
ATOM     42  C   UNL A   1      37.986  31.312  30.433  1.00  0.00     0.049 A 
ATOM     43  N   UNL A   1      39.228  32.491  32.911  1.00  0.00    -0.248 NA
ATOM     44  C   UNL A   1      37.486  34.045  32.979  1.00  0.00     0.031 C 
ATOM     45  C   UNL A   1      37.447  30.718  29.209  1.00  0.00     0.029 A 
ATOM     46  N   UNL A   1      39.098  30.557  30.708  1.00  0.00    -0.354 N 
ATOM     47  C   UNL A   1      39.423  33.357  33.980  1.00  0.00     0.074 A 
ATOM     48  C   UNL A   1      38.356  34.333  33.935  1.00  0.00     0.031 C 
ATOM     49  C   UNL A   1      38.212  29.673  28.856  1.00  0.00     0.029 A 
ATOM     50  C   UNL A   1      39.323  29.557  29.794  1.00  0.00     0.049 A 
ATOM     51  H   UNL A   1      39.678  30.715  31.488  1.00  0.00     0.167 HD
ATOM     52  C   UNL A   1      40.395  33.335  34.923  1.00  0.00     0.031 A 
ATOM     53  C   UNL A   1      40.321  28.657  29.714  1.00  0.00     0.031 A 
ATOM     54  C   UNL A   1      41.454  32.362  34.964  1.00  0.00     0.049 A 
ATOM     55  C   UNL A   1      41.416  28.682  30.744  1.00  0.00     0.074 A 
ATOM     56  C   UNL A   1      42.456  32.216  35.907  1.00  0.00     0.029 A 
ATOM     57  N   UNL A   1      41.654  31.374  34.012  1.00  0.00    -0.354 N 
ATOM     58  N   UNL A   1      41.557  29.468  31.783  1.00  0.00    -0.248 NA
ATOM     59  C   UNL A   1      42.488  27.688  30.588  1.00  0.00     0.031 C 
ATOM     60  C   UNL A   1      43.297  31.178  35.493  1.00  0.00     0.029 A 
ATOM     61  C   UNL A   1      42.780  30.633  34.328  1.00  0.00     0.049 A 
ATOM     62  H   UNL A   1      41.079  31.221  33.227  1.00  0.00     0.167 HD
ATOM     63  C   UNL A   1      42.710  29.040  32.429  1.00  0.00     0.074 A 
ATOM     64  C   UNL A   1      43.228  27.923  31.664  1.00  0.00     0.031 C 
ATOM     65  C   UNL A   1      43.282  29.522  33.559  1.00  0.00     0.031 A 
BRANCH  52  66
ATOM     66  C   UNL A   1      40.366  34.421  35.965  1.00  0.00    -0.014 A 
ATOM     67  C   UNL A   1      41.071  35.623  35.791  1.00  0.00     0.009 A 
ATOM     68  C   UNL A   1      39.625  34.234  37.142  1.00  0.00     0.009 A 
ATOM     69  C   UNL A   1      41.078  36.592  36.799  1.00  0.00     0.001 A 
ATOM     70  C   UNL A   1      39.604  35.219  38.132  1.00  0.00     0.001 A 
ATOM     71  C   UNL A   1      40.343  36.390  37.966  1.00  0.00     0.000 A 
ENDBRANCH  52  66
BRANCH  53  72
ATOM     72  C   UNL A   1      40.315  27.636  28.634  1.00  0.00    -0.014 A 
ATOM     73  C   UNL A   1      39.695  26.395  28.846  1.00  0.00     0.009 A 
ATOM     74  C   UNL A   1      40.914  27.892  27.392  1.00  0.00     0.009 A 
ATOM     75  C   UNL A   1      39.694  25.423  27.843  1.00  0.00     0.001 A 
ATOM     76  C   UNL A   1      40.887  26.928  26.380  1.00  0.00     0.001 A 
ATOM     77  C   UNL A   1      40.285  25.693  26.609  1.00  0.00     0.000 A 
ENDBRANCH  53  72
BRANCH  65  78
ATOM     78  C   UNL A   1      44.506  28.814  34.071  1.00  0.00    -0.014 A 
ATOM     79  C   UNL A   1      44.410  27.713  34.936  1.00  0.00     0.009 A 
ATOM     80  C   UNL A   1      45.774  29.229  33.635  1.00  0.00     0.009 A 
ATOM     81  C   UNL A   1      45.564  27.061  35.376  1.00  0.00     0.001 A 
ATOM     82  C   UNL A   1      46.923  28.556  34.052  1.00  0.00     0.001 A 
ATOM     83  C   UNL A   1      46.818  27.478  34.929  1.00  0.00     0.000 A 
ENDBRANCH  65  78
ENDBRANCH  39  40
ENDBRANCH  31  34
ENDBRANCH  29  30
ENDBRANCH  28  29
ENDBRANCH  27  28
ENDBRANCH   1  27
TORSDOF 16
ENDMDL
MODEL 3
REMARK VINA RESULT:     -11.3      3.185      7.449
REMARK SMILES Cc1cc(F)cc(N[C@@](C)(C(=O)NCCCCCCNC(=O)c2ccc(-c3c4nc(c(-c5ccccc5)c5ccc([nH]5)c(-c5ccccc5)c5nc(c(-c6ccccc6)c6ccc3[nH]6)C=C5)C=C4)cc2)c2cccc(F)c2)c1
REMARK SMILES IDX 16 1 15 2 14 3 13 4 11 5 12 6 9 8 10 9 8 10 7 12 1 13 2 14
REMARK SMILES IDX 3 15 78 16 4 17 5 18 6 19 71 20 72 21 77 22 73 23 75 24
REMARK SMILES IDX 74 25 76 26 17 27 18 28 19 29 20 30 21 31 22 33 23 34 24 35
REMARK SMILES IDX 70 36 25 37 69 38 26 39 27 40 28 41 63 42 29 43 68 44 62 45
REMARK SMILES IDX 64 46 30 47 67 48 61 49 60 50 31 52 53 53 38 54 52 55 39 56
REMARK SMILES IDX 42 57 51 58 65 59 40 60 41 61 50 63 66 64 43 65 32 66 33 67
REMARK SMILES IDX 37 68 34 69 36 70 35 71 54 72 55 73 59 74 56 75 58 76 57 77
REMARK SMILES IDX 44 78 45 79 49 80 46 81 48 82 47 83
REMARK H PARENT 13 7 8 11 20 32 64 51 42 62
REMARK Flexibility Score: inf
ROOT
ATOM      1  C   UNL A   1      32.121  29.253  27.308  1.00  0.00     0.002 C 
ENDROOT
BRANCH   1   2
ATOM      2  C   UNL A   1      31.451  27.897  27.103  1.00  0.00     0.021 C 
BRANCH   2   3
ATOM      3  C   UNL A   1      32.398  26.742  26.760  1.00  0.00     0.116 C 
BRANCH   3   4
ATOM      4  N   UNL A   1      31.677  25.489  26.698  1.00  0.00    -0.354 N 
ATOM      5  C   UNL A   1      31.189  24.750  25.659  1.00  0.00     0.250 C 
ATOM      6  O   UNL A   1      30.469  23.803  26.017  1.00  0.00    -0.272 OA
ATOM      7  H   UNL A   1      31.505  25.089  27.580  1.00  0.00     0.163 HD
BRANCH   5   8
ATOM      8  C   UNL A   1      31.488  25.015  24.111  1.00  0.00     0.139 C 
ATOM      9  C   UNL A   1      30.552  23.984  23.390  1.00  0.00     0.051 C 
BRANCH   8  10
ATOM     10  N   UNL A   1      32.856  24.533  23.750  1.00  0.00    -0.368 N 
ATOM     11  H   UNL A   1      33.205  24.982  22.945  1.00  0.00     0.161 HD
BRANCH  10  12
ATOM     12  C   UNL A   1      33.752  23.621  24.259  1.00  0.00     0.038 A 
ATOM     13  C   UNL A   1      37.354  23.765  25.599  1.00  0.00     0.044 C 
ATOM     14  C   UNL A   1      36.050  23.235  25.085  1.00  0.00    -0.046 A 
ATOM     15  C   UNL A   1      35.869  21.860  24.953  1.00  0.00     0.042 A 
ATOM     16  C   UNL A   1      35.002  24.096  24.709  1.00  0.00     0.029 A 
ATOM     17  C   UNL A   1      34.625  21.379  24.586  1.00  0.00     0.125 A 
ATOM     18  F   UNL A   1      34.432  20.057  24.491  1.00  0.00    -0.207 F 
ATOM     19  C   UNL A   1      33.570  22.244  24.304  1.00  0.00     0.065 A 
ENDBRANCH  10  12
ENDBRANCH   8  10
BRANCH   8  20
ATOM     20  C   UNL A   1      31.120  26.456  23.690  1.00  0.00    -0.011 A 
ATOM     21  C   UNL A   1      29.802  26.959  23.717  1.00  0.00     0.007 A 
ATOM     22  C   UNL A   1      32.095  27.349  23.218  1.00  0.00     0.046 A 
ATOM     23  C   UNL A   1      29.489  28.257  23.278  1.00  0.00     0.003 A 
ATOM     24  C   UNL A   1      31.786  28.632  22.771  1.00  0.00     0.123 A 
ATOM     25  C   UNL A   1      30.486  29.095  22.793  1.00  0.00     0.039 A 
ATOM     26  F   UNL A   1      32.761  29.402  22.268  1.00  0.00    -0.207 F 
ENDBRANCH   8  20
ENDBRANCH   5   8
ENDBRANCH   3   4
ENDBRANCH   2   3
ENDBRANCH   1   2
BRANCH   1  27
ATOM     27  C   UNL A   1      31.942  30.242  26.154  1.00  0.00     0.002 C 
BRANCH  27  28
ATOM     28  C   UNL A   1      31.625  31.681  26.569  1.00  0.00     0.021 C 
BRANCH  28  29
ATOM     29  C   UNL A   1      32.761  32.399  27.291  1.00  0.00     0.116 C 
BRANCH  29  30
ATOM     30  N   UNL A   1      32.460  33.807  27.511  1.00  0.00    -0.352 N 
ATOM     31  C   UNL A   1      33.000  34.671  28.430  1.00  0.00     0.251 C 
ATOM     32  H   UNL A   1      31.775  34.192  26.918  1.00  0.00     0.163 HD
ATOM     33  O   UNL A   1      32.485  35.764  28.645  1.00  0.00    -0.269 OA
BRANCH  31  34
ATOM     34  C   UNL A   1      34.206  34.262  29.172  1.00  0.00     0.039 A 
ATOM     35  C   UNL A   1      34.070  33.625  30.408  1.00  0.00     0.014 A 
ATOM     36  C   UNL A   1      35.470  34.485  28.621  1.00  0.00     0.014 A 
ATOM     37  C   UNL A   1      35.208  33.144  31.060  1.00  0.00     0.010 A 
ATOM     38  C   UNL A   1      36.590  33.941  29.234  1.00  0.00     0.010 A 
ATOM     39  C   UNL A   1      36.470  33.265  30.459  1.00  0.00    -0.014 A 
BRANCH  39  40
ATOM     40  C   UNL A   1      37.692  32.694  31.076  1.00  0.00     0.031 A 
ATOM     41  C   UNL A   1      38.350  31.494  30.457  1.00  0.00     0.074 A 
ATOM     42  C   UNL A   1      38.144  33.187  32.245  1.00  0.00     0.049 A 
ATOM     43  N   UNL A   1      39.340  30.768  30.908  1.00  0.00    -0.248 NA
ATOM     44  C   UNL A   1      37.798  31.033  29.173  1.00  0.00     0.031 C 
ATOM     45  C   UNL A   1      37.584  34.337  32.957  1.00  0.00     0.029 A 
ATOM     46  N   UNL A   1      39.175  32.768  33.048  1.00  0.00    -0.354 N 
ATOM     47  C   UNL A   1      39.508  29.747  29.980  1.00  0.00     0.074 A 
ATOM     48  C   UNL A   1      38.490  29.922  28.967  1.00  0.00     0.031 C 
ATOM     49  C   UNL A   1      38.297  34.549  34.075  1.00  0.00     0.029 A 
ATOM     50  C   UNL A   1      39.325  33.521  34.186  1.00  0.00     0.049 A 
ATOM     51  H   UNL A   1      39.754  32.002  32.827  1.00  0.00     0.167 HD
ATOM     52  C   UNL A   1      40.435  28.759  29.965  1.00  0.00     0.031 A 
ATOM     53  C   UNL A   1      40.188  33.388  35.212  1.00  0.00     0.031 A 
ATOM     54  C   UNL A   1      41.445  28.588  30.976  1.00  0.00     0.049 A 
ATOM     55  C   UNL A   1      41.176  32.255  35.198  1.00  0.00     0.074 A 
ATOM     56  C   UNL A   1      42.466  27.655  31.025  1.00  0.00     0.029 A 
ATOM     57  N   UNL A   1      41.555  29.364  32.119  1.00  0.00    -0.354 N 
ATOM     58  N   UNL A   1      41.364  31.332  34.287  1.00  0.00    -0.248 NA
ATOM     59  C   UNL A   1      42.075  32.151  36.357  1.00  0.00     0.031 C 
ATOM     60  C   UNL A   1      43.156  27.828  32.230  1.00  0.00     0.029 A 
ATOM     61  C   UNL A   1      42.607  28.912  32.897  1.00  0.00     0.049 A 
ATOM     62  H   UNL A   1      40.971  30.124  32.344  1.00  0.00     0.167 HD
ATOM     63  C   UNL A   1      42.427  30.561  34.741  1.00  0.00     0.074 A 
ATOM     64  C   UNL A   1      42.843  31.129  36.008  1.00  0.00     0.031 C 
ATOM     65  C   UNL A   1      43.011  29.488  34.155  1.00  0.00     0.031 A 
BRANCH  52  66
ATOM     66  C   UNL A   1      40.367  27.771  28.831  1.00  0.00    -0.014 A 
ATOM     67  C   UNL A   1      41.035  28.000  27.618  1.00  0.00     0.009 A 
ATOM     68  C   UNL A   1      39.619  26.593  28.979  1.00  0.00     0.009 A 
ATOM     69  C   UNL A   1      40.909  27.098  26.558  1.00  0.00     0.001 A 
ATOM     70  C   UNL A   1      39.524  25.675  27.932  1.00  0.00     0.001 A 
ATOM     71  C   UNL A   1      40.156  25.936  26.717  1.00  0.00     0.000 A 
ENDBRANCH  52  66
BRANCH  53  72
ATOM     72  C   UNL A   1      40.175  34.372  36.325  1.00  0.00    -0.014 A 
ATOM     73  C   UNL A   1      39.422  34.113  37.481  1.00  0.00     0.009 A 
ATOM     74  C   UNL A   1      40.914  35.562  36.249  1.00  0.00     0.009 A 
ATOM     75  C   UNL A   1      39.394  35.036  38.529  1.00  0.00     0.001 A 
ATOM     76  C   UNL A   1      40.905  36.471  37.310  1.00  0.00     0.001 A 
ATOM     77  C   UNL A   1      40.139  36.211  38.445  1.00  0.00     0.000 A 
ENDBRANCH  53  72
BRANCH  65  78
ATOM     78  C   UNL A   1      44.200  28.884  34.851  1.00  0.00    -0.014 A 
ATOM     79  C   UNL A   1      44.053  27.884  35.824  1.00  0.00     0.009 A 
ATOM     80  C   UNL A   1      45.492  29.291  34.483  1.00  0.00     0.009 A 
ATOM     81  C   UNL A   1      45.178  27.326  36.436  1.00  0.00     0.001 A 
ATOM     82  C   UNL A   1      46.615  28.709  35.073  1.00  0.00     0.001 A 
ATOM     83  C   UNL A   1      46.457  27.733  36.055  1.00  0.00     0.000 A 
ENDBRANCH  65  78
ENDBRANCH  39  40
ENDBRANCH  31  34
ENDBRANCH  29  30
ENDBRANCH  28  29
ENDBRANCH  27  28
ENDBRANCH   1  27
TORSDOF 16
ENDMDL
