MODEL 1
REMARK VINA RESULT:     -11.1      0.000      0.000
REMARK SMILES COc1ccc(-c2noc(C[N@H+]3CCCC[C@@H]3C(=O)NCCCCCCNC(=O)c3ccc(-c4c5nc(c(-c6ccccc6)c6ccc([nH]6)c(-c6ccccc6)c6nc(c(-c7ccccc7)c7ccc4[nH]7)C=C6)C=C5)cc3)n2)cc1OC
REMARK SMILES IDX 22 1 21 2 20 3 18 4 19 5 17 7 12 8 13 9 14 11 16 12 15 13
REMARK SMILES IDX 11 14 10 15 7 16 8 17 78 18 9 19 6 20 3 21 4 22 80 23 5 24
REMARK SMILES IDX 79 25 2 26 1 27 81 28 82 29 23 30 24 31 25 32 26 33 27 34
REMARK SMILES IDX 28 35 29 37 30 38 31 39 77 40 32 41 76 42 33 43 34 44 35 45
REMARK SMILES IDX 70 46 36 47 75 48 69 49 71 50 37 51 74 52 68 53 67 54 38 56
REMARK SMILES IDX 60 57 45 58 59 59 46 60 49 61 58 62 72 63 47 64 48 65 57 67
REMARK SMILES IDX 73 68 50 69 39 70 40 71 44 72 41 73 43 74 42 75 61 76 62 77
REMARK SMILES IDX 66 78 63 79 65 80 64 81 51 82 52 83 56 84 53 85 55 86 54 87
REMARK H PARENT 20 6 12 10 27 36 71 55 49 66
REMARK Flexibility Score: inf
ROOT
ATOM      1  C   UNL A   1      33.681  25.512  24.122  1.00  0.00     0.021 C 
ENDROOT
BRANCH   1   2
ATOM      2  C   UNL A   1      33.816  26.951  24.617  1.00  0.00     0.116 C 
BRANCH   2   3
ATOM      3  N   UNL A   1      33.296  27.058  25.967  1.00  0.00    -0.351 N 
ATOM      4  C   UNL A   1      32.107  27.560  26.402  1.00  0.00     0.278 C 
ATOM      5  O   UNL A   1      31.926  27.632  27.620  1.00  0.00    -0.268 OA
ATOM      6  H   UNL A   1      33.892  26.717  26.673  1.00  0.00     0.163 HD
BRANCH   4   7
ATOM      7  C   UNL A   1      30.992  27.950  25.406  1.00  0.00     0.274 C 
ATOM      8  N   UNL A   1      30.408  26.725  24.795  1.00  0.00    -0.317 N 
ATOM      9  C   UNL A   1      29.410  27.028  23.764  1.00  0.00     0.263 C 
ATOM     10  H   UNL A   1      31.188  26.257  24.333  1.00  0.00     0.349 HD
ATOM     11  C   UNL A   1      29.986  27.945  22.688  1.00  0.00     0.062 C 
ATOM     12  C   UNL A   1      31.500  28.983  24.387  1.00  0.00     0.076 C 
ATOM     13  C   UNL A   1      30.472  29.253  23.296  1.00  0.00     0.012 C 
BRANCH   8  14
ATOM     14  C   UNL A   1      29.871  25.769  25.803  1.00  0.00     0.364 C 
BRANCH  14  15
ATOM     15  C   UNL A   1      30.682  24.543  26.072  1.00  0.00     0.282 A 
ATOM     16  C   UNL A   1      31.716  22.724  26.082  1.00  0.00     0.202 A 
ATOM     17  N   UNL A   1      31.831  23.149  27.347  1.00  0.00    -0.057 NA
ATOM     18  N   UNL A   1      30.996  23.560  25.261  1.00  0.00    -0.186 NA
ATOM     19  O   UNL A   1      31.183  24.382  27.331  1.00  0.00    -0.333 OA
BRANCH  16  20
ATOM     20  C   UNL A   1      32.385  21.550  25.571  1.00  0.00     0.027 A 
ATOM     21  C   UNL A   1      33.635  19.299  24.485  1.00  0.00     0.160 A 
ATOM     22  C   UNL A   1      33.977  19.749  25.770  1.00  0.00     0.051 A 
ATOM     23  C   UNL A   1      32.649  19.960  23.744  1.00  0.00     0.161 A 
ATOM     24  C   UNL A   1      33.365  20.883  26.308  1.00  0.00     0.016 A 
ATOM     25  C   UNL A   1      32.029  21.080  24.303  1.00  0.00     0.062 A 
BRANCH  21  26
ATOM     26  O   UNL A   1      34.209  18.140  24.036  1.00  0.00    -0.493 OA
ATOM     27  C   UNL A   1      33.292  17.046  24.081  1.00  0.00     0.278 C 
ENDBRANCH  21  26
BRANCH  23  28
ATOM     28  O   UNL A   1      32.151  19.650  22.509  1.00  0.00    -0.493 OA
ATOM     29  C   UNL A   1      31.769  20.715  21.656  1.00  0.00     0.278 C 
ENDBRANCH  23  28
ENDBRANCH  16  20
ENDBRANCH  14  15
ENDBRANCH   8  14
ENDBRANCH   4   7
ENDBRANCH   2   3
ENDBRANCH   1   2
BRANCH   1  30
ATOM     30  C   UNL A   1      34.638  24.539  24.819  1.00  0.00     0.002 C 
BRANCH  30  31
ATOM     31  C   UNL A   1      35.125  23.384  23.937  1.00  0.00     0.002 C 
BRANCH  31  32
ATOM     32  C   UNL A   1      36.641  23.184  23.932  1.00  0.00     0.021 C 
BRANCH  32  33
ATOM     33  C   UNL A   1      37.327  23.611  25.224  1.00  0.00     0.116 C 
BRANCH  33  34
ATOM     34  N   UNL A   1      38.417  22.715  25.579  1.00  0.00    -0.352 N 
ATOM     35  C   UNL A   1      39.589  23.005  26.235  1.00  0.00     0.251 C 
ATOM     36  H   UNL A   1      38.298  21.774  25.315  1.00  0.00     0.163 HD
ATOM     37  O   UNL A   1      40.500  22.192  26.279  1.00  0.00    -0.269 OA
BRANCH  35  38
ATOM     38  C   UNL A   1      39.739  24.329  26.873  1.00  0.00     0.039 A 
ATOM     39  C   UNL A   1      39.234  24.527  28.159  1.00  0.00     0.014 A 
ATOM     40  C   UNL A   1      40.403  25.360  26.202  1.00  0.00     0.014 A 
ATOM     41  C   UNL A   1      39.453  25.748  28.802  1.00  0.00     0.010 A 
ATOM     42  C   UNL A   1      40.682  26.546  26.871  1.00  0.00     0.010 A 
ATOM     43  C   UNL A   1      40.208  26.753  28.177  1.00  0.00    -0.014 A 
BRANCH  43  44
ATOM     44  C   UNL A   1      40.510  28.040  28.849  1.00  0.00     0.031 A 
ATOM     45  C   UNL A   1      41.825  28.213  29.560  1.00  0.00     0.074 A 
ATOM     46  C   UNL A   1      39.581  29.015  28.891  1.00  0.00     0.049 A 
ATOM     47  N   UNL A   1      42.223  29.190  30.335  1.00  0.00    -0.248 NA
ATOM     48  C   UNL A   1      42.814  27.134  29.396  1.00  0.00     0.031 C 
ATOM     49  C   UNL A   1      38.266  28.968  28.250  1.00  0.00     0.029 A 
ATOM     50  N   UNL A   1      39.598  30.235  29.521  1.00  0.00    -0.354 N 
ATOM     51  C   UNL A   1      43.497  28.837  30.758  1.00  0.00     0.074 A 
ATOM     52  C   UNL A   1      43.789  27.535  30.200  1.00  0.00     0.031 C 
ATOM     53  C   UNL A   1      37.609  30.111  28.508  1.00  0.00     0.029 A 
ATOM     54  C   UNL A   1      38.430  30.947  29.377  1.00  0.00     0.049 A 
ATOM     55  H   UNL A   1      40.374  30.570  30.028  1.00  0.00     0.167 HD
ATOM     56  C   UNL A   1      44.359  29.544  31.526  1.00  0.00     0.031 A 
ATOM     57  C   UNL A   1      38.057  32.128  29.906  1.00  0.00     0.031 A 
ATOM     58  C   UNL A   1      44.073  30.840  32.075  1.00  0.00     0.049 A 
ATOM     59  C   UNL A   1      39.012  32.862  30.810  1.00  0.00     0.074 A 
ATOM     60  C   UNL A   1      44.888  31.643  32.853  1.00  0.00     0.029 A 
ATOM     61  N   UNL A   1      42.882  31.525  31.898  1.00  0.00    -0.354 N 
ATOM     62  N   UNL A   1      40.227  32.530  31.174  1.00  0.00    -0.248 NA
ATOM     63  C   UNL A   1      38.548  34.140  31.370  1.00  0.00     0.031 C 
ATOM     64  C   UNL A   1      44.172  32.796  33.186  1.00  0.00     0.029 A 
ATOM     65  C   UNL A   1      42.938  32.738  32.561  1.00  0.00     0.049 A 
ATOM     66  H   UNL A   1      42.112  31.197  31.379  1.00  0.00     0.167 HD
ATOM     67  C   UNL A   1      40.687  33.579  31.959  1.00  0.00     0.074 A 
ATOM     68  C   UNL A   1      39.625  34.559  32.018  1.00  0.00     0.031 C 
ATOM     69  C   UNL A   1      41.886  33.719  32.575  1.00  0.00     0.031 A 
BRANCH  56  70
ATOM     70  C   UNL A   1      45.704  28.935  31.811  1.00  0.00    -0.014 A 
ATOM     71  C   UNL A   1      45.880  28.051  32.886  1.00  0.00     0.009 A 
ATOM     72  C   UNL A   1      46.788  29.193  30.957  1.00  0.00     0.009 A 
ATOM     73  C   UNL A   1      47.121  27.453  33.115  1.00  0.00     0.001 A 
ATOM     74  C   UNL A   1      48.018  28.571  31.170  1.00  0.00     0.001 A 
ATOM     75  C   UNL A   1      48.186  27.707  32.251  1.00  0.00     0.000 A 
ENDBRANCH  56  70
BRANCH  57  76
ATOM     76  C   UNL A   1      36.712  32.698  29.619  1.00  0.00    -0.014 A 
ATOM     77  C   UNL A   1      36.472  33.397  28.425  1.00  0.00     0.009 A 
ATOM     78  C   UNL A   1      35.676  32.599  30.561  1.00  0.00     0.009 A 
ATOM     79  C   UNL A   1      35.244  34.024  28.202  1.00  0.00     0.001 A 
ATOM     80  C   UNL A   1      34.435  33.196  30.320  1.00  0.00     0.001 A 
ATOM     81  C   UNL A   1      34.227  33.922  29.150  1.00  0.00     0.000 A 
ENDBRANCH  57  76
BRANCH  69  82
ATOM     82  C   UNL A   1      42.157  35.011  33.293  1.00  0.00    -0.014 A 
ATOM     83  C   UNL A   1      41.703  35.236  34.600  1.00  0.00     0.009 A 
ATOM     84  C   UNL A   1      42.955  35.985  32.670  1.00  0.00     0.009 A 
ATOM     85  C   UNL A   1      42.027  36.422  35.262  1.00  0.00     0.001 A 
ATOM     86  C   UNL A   1      43.302  37.155  33.345  1.00  0.00     0.001 A 
ATOM     87  C   UNL A   1      42.832  37.375  34.638  1.00  0.00     0.000 A 
ENDBRANCH  69  82
ENDBRANCH  43  44
ENDBRANCH  35  38
ENDBRANCH  33  34
ENDBRANCH  32  33
ENDBRANCH  31  32
ENDBRANCH  30  31
ENDBRANCH   1  30
TORSDOF 18
ENDMDL
MODEL 2
REMARK VINA RESULT:     -10.8      3.198      7.757
REMARK SMILES COc1ccc(-c2noc(C[N@H+]3CCCC[C@@H]3C(=O)NCCCCCCNC(=O)c3ccc(-c4c5nc(c(-c6ccccc6)c6ccc([nH]6)c(-c6ccccc6)c6nc(c(-c7ccccc7)c7ccc4[nH]7)C=C6)C=C5)cc3)n2)cc1OC
REMARK SMILES IDX 22 1 21 2 20 3 18 4 19 5 17 7 12 8 13 9 14 11 16 12 15 13
REMARK SMILES IDX 11 14 10 15 7 16 8 17 78 18 9 19 6 20 3 21 4 22 80 23 5 24
REMARK SMILES IDX 79 25 2 26 1 27 81 28 82 29 23 30 24 31 25 32 26 33 27 34
REMARK SMILES IDX 28 35 29 37 30 38 31 39 77 40 32 41 76 42 33 43 34 44 35 45
REMARK SMILES IDX 70 46 36 47 75 48 69 49 71 50 37 51 74 52 68 53 67 54 38 56
REMARK SMILES IDX 60 57 45 58 59 59 46 60 49 61 58 62 72 63 47 64 48 65 57 67
REMARK SMILES IDX 73 68 50 69 39 70 40 71 44 72 41 73 43 74 42 75 61 76 62 77
REMARK SMILES IDX 66 78 63 79 65 80 64 81 51 82 52 83 56 84 53 85 55 86 54 87
REMARK H PARENT 20 6 12 10 27 36 71 55 49 66
REMARK Flexibility Score: inf
ROOT
ATOM      1  C   UNL A   1      34.675  31.226  27.838  1.00  0.00     0.021 C 
ENDROOT
BRANCH   1   2
ATOM      2  C   UNL A   1      33.702  30.213  27.236  1.00  0.00     0.116 C 
BRANCH   2   3
ATOM      3  N   UNL A   1      34.268  29.648  26.025  1.00  0.00    -0.351 N 
ATOM      4  C   UNL A   1      33.677  28.882  25.065  1.00  0.00     0.278 C 
ATOM      5  O   UNL A   1      34.393  28.435  24.166  1.00  0.00    -0.268 OA
ATOM      6  H   UNL A   1      35.220  29.848  25.875  1.00  0.00     0.163 HD
BRANCH   4   7
ATOM      7  C   UNL A   1      32.149  28.649  25.058  1.00  0.00     0.274 C 
ATOM      8  N   UNL A   1      31.859  27.196  24.912  1.00  0.00    -0.317 N 
ATOM      9  C   UNL A   1      30.424  26.916  24.798  1.00  0.00     0.263 C 
ATOM     10  H   UNL A   1      32.293  26.924  24.030  1.00  0.00     0.349 HD
ATOM     11  C   UNL A   1      29.793  27.709  23.656  1.00  0.00     0.062 C 
ATOM     12  C   UNL A   1      31.461  29.539  24.010  1.00  0.00     0.076 C 
ATOM     13  C   UNL A   1      29.982  29.204  23.869  1.00  0.00     0.012 C 
BRANCH   8  14
ATOM     14  C   UNL A   1      32.490  26.365  25.975  1.00  0.00     0.364 C 
BRANCH  14  15
ATOM     15  C   UNL A   1      33.202  25.128  25.533  1.00  0.00     0.282 A 
ATOM     16  C   UNL A   1      33.922  23.206  25.123  1.00  0.00     0.202 A 
ATOM     17  N   UNL A   1      34.861  24.004  24.597  1.00  0.00    -0.057 NA
ATOM     18  N   UNL A   1      32.878  23.870  25.725  1.00  0.00    -0.186 NA
ATOM     19  O   UNL A   1      34.359  25.283  24.829  1.00  0.00    -0.333 OA
BRANCH  16  20
ATOM     20  C   UNL A   1      33.923  21.769  24.976  1.00  0.00     0.027 A 
ATOM     21  C   UNL A   1      34.033  18.989  24.714  1.00  0.00     0.160 A 
ATOM     22  C   UNL A   1      32.795  19.650  24.735  1.00  0.00     0.051 A 
ATOM     23  C   UNL A   1      35.225  19.717  24.801  1.00  0.00     0.161 A 
ATOM     24  C   UNL A   1      32.737  21.039  24.882  1.00  0.00     0.016 A 
ATOM     25  C   UNL A   1      35.153  21.106  24.925  1.00  0.00     0.062 A 
BRANCH  21  26
ATOM     26  O   UNL A   1      34.036  17.638  24.491  1.00  0.00    -0.493 OA
ATOM     27  C   UNL A   1      33.410  17.308  23.251  1.00  0.00     0.278 C 
ENDBRANCH  21  26
BRANCH  23  28
ATOM     28  O   UNL A   1      36.514  19.264  24.752  1.00  0.00    -0.493 OA
ATOM     29  C   UNL A   1      37.556  20.183  25.025  1.00  0.00     0.278 C 
ENDBRANCH  23  28
ENDBRANCH  16  20
ENDBRANCH  14  15
ENDBRANCH   8  14
ENDBRANCH   4   7
ENDBRANCH   2   3
ENDBRANCH   1   2
BRANCH   1  30
ATOM     30  C   UNL A   1      34.010  32.194  28.823  1.00  0.00     0.002 C 
BRANCH  30  31
ATOM     31  C   UNL A   1      34.274  33.676  28.537  1.00  0.00     0.002 C 
BRANCH  31  32
ATOM     32  C   UNL A   1      33.081  34.596  28.796  1.00  0.00     0.021 C 
BRANCH  32  33
ATOM     33  C   UNL A   1      33.459  35.953  29.377  1.00  0.00     0.116 C 
BRANCH  33  34
ATOM     34  N   UNL A   1      32.576  36.338  30.468  1.00  0.00    -0.352 N 
ATOM     35  C   UNL A   1      32.585  35.908  31.773  1.00  0.00     0.251 C 
ATOM     36  H   UNL A   1      31.880  36.996  30.241  1.00  0.00     0.163 HD
ATOM     37  O   UNL A   1      31.654  36.163  32.523  1.00  0.00    -0.269 OA
BRANCH  35  38
ATOM     38  C   UNL A   1      33.734  35.113  32.253  1.00  0.00     0.039 A 
ATOM     39  C   UNL A   1      33.524  33.797  32.672  1.00  0.00     0.014 A 
ATOM     40  C   UNL A   1      35.017  35.666  32.262  1.00  0.00     0.014 A 
ATOM     41  C   UNL A   1      34.618  33.012  33.040  1.00  0.00     0.010 A 
ATOM     42  C   UNL A   1      36.110  34.861  32.559  1.00  0.00     0.010 A 
ATOM     43  C   UNL A   1      35.922  33.527  32.953  1.00  0.00    -0.014 A 
BRANCH  43  44
ATOM     44  C   UNL A   1      37.113  32.707  33.282  1.00  0.00     0.031 A 
ATOM     45  C   UNL A   1      37.853  32.958  34.568  1.00  0.00     0.074 A 
ATOM     46  C   UNL A   1      37.576  31.801  32.397  1.00  0.00     0.049 A 
ATOM     47  N   UNL A   1      38.997  32.467  34.972  1.00  0.00    -0.248 NA
ATOM     48  C   UNL A   1      37.237  33.904  35.513  1.00  0.00     0.031 C 
ATOM     49  C   UNL A   1      36.956  31.470  31.113  1.00  0.00     0.029 A 
ATOM     50  N   UNL A   1      38.693  31.004  32.440  1.00  0.00    -0.354 N 
ATOM     51  C   UNL A   1      39.239  33.052  36.208  1.00  0.00     0.074 A 
ATOM     52  C   UNL A   1      38.155  33.974  36.466  1.00  0.00     0.031 C 
ATOM     53  C   UNL A   1      37.693  30.531  30.497  1.00  0.00     0.029 A 
ATOM     54  C   UNL A   1      38.865  30.234  31.314  1.00  0.00     0.049 A 
ATOM     55  H   UNL A   1      39.313  30.986  33.205  1.00  0.00     0.167 HD
ATOM     56  C   UNL A   1      40.263  32.826  37.064  1.00  0.00     0.031 A 
ATOM     57  C   UNL A   1      39.867  29.402  30.970  1.00  0.00     0.031 A 
ATOM     58  C   UNL A   1      41.338  31.906  36.812  1.00  0.00     0.049 A 
ATOM     59  C   UNL A   1      41.026  29.219  31.914  1.00  0.00     0.074 A 
ATOM     60  C   UNL A   1      42.414  31.597  37.624  1.00  0.00     0.029 A 
ATOM     61  N   UNL A   1      41.467  31.143  35.663  1.00  0.00    -0.354 N 
ATOM     62  N   UNL A   1      41.224  29.755  33.094  1.00  0.00    -0.248 NA
ATOM     63  C   UNL A   1      42.097  28.308  31.483  1.00  0.00     0.031 C 
ATOM     64  C   UNL A   1      43.221  30.679  36.947  1.00  0.00     0.029 A 
ATOM     65  C   UNL A   1      42.612  30.369  35.743  1.00  0.00     0.049 A 
ATOM     66  H   UNL A   1      40.840  31.150  34.904  1.00  0.00     0.167 HD
ATOM     67  C   UNL A   1      42.411  29.208  33.564  1.00  0.00     0.074 A 
ATOM     68  C   UNL A   1      42.888  28.298  32.546  1.00  0.00     0.031 C 
ATOM     69  C   UNL A   1      43.049  29.438  34.737  1.00  0.00     0.031 A 
BRANCH  56  70
ATOM     70  C   UNL A   1      40.269  33.581  38.364  1.00  0.00    -0.014 A 
ATOM     71  C   UNL A   1      39.627  33.064  39.500  1.00  0.00     0.009 A 
ATOM     72  C   UNL A   1      40.981  34.785  38.475  1.00  0.00     0.009 A 
ATOM     73  C   UNL A   1      39.678  33.749  40.715  1.00  0.00     0.001 A 
ATOM     74  C   UNL A   1      41.057  35.452  39.698  1.00  0.00     0.001 A 
ATOM     75  C   UNL A   1      40.401  34.937  40.815  1.00  0.00     0.000 A 
ENDBRANCH  56  70
BRANCH  57  76
ATOM     76  C   UNL A   1      39.842  28.680  29.668  1.00  0.00    -0.014 A 
ATOM     77  C   UNL A   1      39.361  27.364  29.589  1.00  0.00     0.009 A 
ATOM     78  C   UNL A   1      40.354  29.281  28.507  1.00  0.00     0.009 A 
ATOM     79  C   UNL A   1      39.437  26.649  28.392  1.00  0.00     0.001 A 
ATOM     80  C   UNL A   1      40.396  28.577  27.301  1.00  0.00     0.001 A 
ATOM     81  C   UNL A   1      39.954  27.257  27.248  1.00  0.00     0.000 A 
ENDBRANCH  57  76
BRANCH  69  82
ATOM     82  C   UNL A   1      44.283  28.634  35.033  1.00  0.00    -0.014 A 
ATOM     83  C   UNL A   1      44.213  27.376  35.647  1.00  0.00     0.009 A 
ATOM     84  C   UNL A   1      45.532  29.119  34.610  1.00  0.00     0.009 A 
ATOM     85  C   UNL A   1      45.374  26.627  35.851  1.00  0.00     0.001 A 
ATOM     86  C   UNL A   1      46.686  28.355  34.786  1.00  0.00     0.001 A 
ATOM     87  C   UNL A   1      46.606  27.113  35.413  1.00  0.00     0.000 A 
ENDBRANCH  69  82
ENDBRANCH  43  44
ENDBRANCH  35  38
ENDBRANCH  33  34
ENDBRANCH  32  33
ENDBRANCH  31  32
ENDBRANCH  30  31
ENDBRANCH   1  30
TORSDOF 18
ENDMDL
MODEL 3
REMARK VINA RESULT:     -10.7      2.401      7.058
REMARK SMILES COc1ccc(-c2noc(C[N@H+]3CCCC[C@@H]3C(=O)NCCCCCCNC(=O)c3ccc(-c4c5nc(c(-c6ccccc6)c6ccc([nH]6)c(-c6ccccc6)c6nc(c(-c7ccccc7)c7ccc4[nH]7)C=C6)C=C5)cc3)n2)cc1OC
REMARK SMILES IDX 22 1 21 2 20 3 18 4 19 5 17 7 12 8 13 9 14 11 16 12 15 13
REMARK SMILES IDX 11 14 10 15 7 16 8 17 78 18 9 19 6 20 3 21 4 22 80 23 5 24
REMARK SMILES IDX 79 25 2 26 1 27 81 28 82 29 23 30 24 31 25 32 26 33 27 34
REMARK SMILES IDX 28 35 29 37 30 38 31 39 77 40 32 41 76 42 33 43 34 44 35 45
REMARK SMILES IDX 70 46 36 47 75 48 69 49 71 50 37 51 74 52 68 53 67 54 38 56
REMARK SMILES IDX 60 57 45 58 59 59 46 60 49 61 58 62 72 63 47 64 48 65 57 67
REMARK SMILES IDX 73 68 50 69 39 70 40 71 44 72 41 73 43 74 42 75 61 76 62 77
REMARK SMILES IDX 66 78 63 79 65 80 64 81 51 82 52 83 56 84 53 85 55 86 54 87
REMARK H PARENT 20 6 12 10 27 36 71 55 49 66
REMARK Flexibility Score: inf
ROOT
ATOM      1  C   UNL A   1      34.326  29.056  26.716  1.00  0.00     0.021 C 
ENDROOT
BRANCH   1   2
ATOM      2  C   UNL A   1      33.190  29.651  25.886  1.00  0.00     0.116 C 
BRANCH   2   3
ATOM      3  N   UNL A   1      33.409  29.371  24.480  1.00  0.00    -0.351 N 
ATOM      4  C   UNL A   1      32.544  28.887  23.545  1.00  0.00     0.278 C 
ATOM      5  O   UNL A   1      32.991  28.640  22.422  1.00  0.00    -0.268 OA
ATOM      6  H   UNL A   1      34.319  29.558  24.153  1.00  0.00     0.163 HD
BRANCH   4   7
ATOM      7  C   UNL A   1      31.039  28.732  23.855  1.00  0.00     0.274 C 
ATOM      8  N   UNL A   1      30.656  27.294  23.800  1.00  0.00    -0.317 N 
ATOM      9  C   UNL A   1      29.217  27.085  23.988  1.00  0.00     0.263 C 
ATOM     10  H   UNL A   1      30.886  26.991  22.854  1.00  0.00     0.349 HD
ATOM     11  C   UNL A   1      28.403  27.898  22.983  1.00  0.00     0.062 C 
ATOM     12  C   UNL A   1      30.193  29.644  22.952  1.00  0.00     0.076 C 
ATOM     13  C   UNL A   1      28.702  29.384  23.123  1.00  0.00     0.012 C 
BRANCH   8  14
ATOM     14  C   UNL A   1      31.452  26.443  24.728  1.00  0.00     0.364 C 
BRANCH  14  15
ATOM     15  C   UNL A   1      31.946  25.138  24.193  1.00  0.00     0.282 A 
ATOM     16  C   UNL A   1      32.715  23.228  23.822  1.00  0.00     0.202 A 
ATOM     17  N   UNL A   1      32.535  23.730  22.593  1.00  0.00    -0.057 NA
ATOM     18  N   UNL A   1      32.370  24.080  24.845  1.00  0.00    -0.186 NA
ATOM     19  O   UNL A   1      31.980  24.984  22.838  1.00  0.00    -0.333 OA
BRANCH  16  20
ATOM     20  C   UNL A   1      33.121  21.864  24.074  1.00  0.00     0.027 A 
ATOM     21  C   UNL A   1      33.993  19.265  24.618  1.00  0.00     0.160 A 
ATOM     22  C   UNL A   1      32.723  19.485  24.061  1.00  0.00     0.051 A 
ATOM     23  C   UNL A   1      34.843  20.344  24.887  1.00  0.00     0.161 A 
ATOM     24  C   UNL A   1      32.279  20.785  23.803  1.00  0.00     0.016 A 
ATOM     25  C   UNL A   1      34.395  21.636  24.603  1.00  0.00     0.062 A 
BRANCH  21  26
ATOM     26  O   UNL A   1      34.408  17.971  24.779  1.00  0.00    -0.493 OA
ATOM     27  C   UNL A   1      34.275  17.221  23.572  1.00  0.00     0.278 C 
ENDBRANCH  21  26
BRANCH  23  28
ATOM     28  O   UNL A   1      36.118  20.330  25.379  1.00  0.00    -0.493 OA
ATOM     29  C   UNL A   1      37.133  20.965  24.623  1.00  0.00     0.278 C 
ENDBRANCH  23  28
ENDBRANCH  16  20
ENDBRANCH  14  15
ENDBRANCH   8  14
ENDBRANCH   4   7
ENDBRANCH   2   3
ENDBRANCH   1   2
BRANCH   1  30
ATOM     30  C   UNL A   1      34.645  29.867  27.977  1.00  0.00     0.002 C 
BRANCH  30  31
ATOM     31  C   UNL A   1      34.869  31.363  27.732  1.00  0.00     0.002 C 
BRANCH  31  32
ATOM     32  C   UNL A   1      33.670  32.249  28.074  1.00  0.00     0.021 C 
BRANCH  32  33
ATOM     33  C   UNL A   1      33.907  33.734  27.826  1.00  0.00     0.116 C 
BRANCH  33  34
ATOM     34  N   UNL A   1      33.337  34.556  28.884  1.00  0.00    -0.352 N 
ATOM     35  C   UNL A   1      33.649  34.571  30.221  1.00  0.00     0.251 C 
ATOM     36  H   UNL A   1      32.635  35.185  28.603  1.00  0.00     0.163 HD
ATOM     37  O   UNL A   1      32.943  35.167  31.023  1.00  0.00    -0.269 OA
BRANCH  35  38
ATOM     38  C   UNL A   1      34.846  33.838  30.683  1.00  0.00     0.039 A 
ATOM     39  C   UNL A   1      34.691  32.768  31.567  1.00  0.00     0.014 A 
ATOM     40  C   UNL A   1      36.113  34.199  30.217  1.00  0.00     0.014 A 
ATOM     41  C   UNL A   1      35.808  32.015  31.935  1.00  0.00     0.010 A 
ATOM     42  C   UNL A   1      37.210  33.404  30.527  1.00  0.00     0.010 A 
ATOM     43  C   UNL A   1      37.070  32.306  31.390  1.00  0.00    -0.014 A 
BRANCH  43  44
ATOM     44  C   UNL A   1      38.269  31.494  31.712  1.00  0.00     0.031 A 
ATOM     45  C   UNL A   1      39.153  31.905  32.859  1.00  0.00     0.074 A 
ATOM     46  C   UNL A   1      38.607  30.448  30.933  1.00  0.00     0.049 A 
ATOM     47  N   UNL A   1      40.322  31.432  33.210  1.00  0.00    -0.248 NA
ATOM     48  C   UNL A   1      38.671  33.007  33.708  1.00  0.00     0.031 C 
ATOM     49  C   UNL A   1      37.839  29.955  29.789  1.00  0.00     0.029 A 
ATOM     50  N   UNL A   1      39.701  29.620  30.979  1.00  0.00    -0.354 N 
ATOM     51  C   UNL A   1      40.716  32.185  34.308  1.00  0.00     0.074 A 
ATOM     52  C   UNL A   1      39.691  33.180  34.535  1.00  0.00     0.031 C 
ATOM     53  C   UNL A   1      38.478  28.903  29.250  1.00  0.00     0.029 A 
ATOM     54  C   UNL A   1      39.726  28.683  29.973  1.00  0.00     0.049 A 
ATOM     55  H   UNL A   1      40.402  29.690  31.668  1.00  0.00     0.167 HD
ATOM     56  C   UNL A   1      41.823  32.047  35.075  1.00  0.00     0.031 A 
ATOM     57  C   UNL A   1      40.662  27.767  29.657  1.00  0.00     0.031 A 
ATOM     58  C   UNL A   1      42.839  31.055  34.854  1.00  0.00     0.049 A 
ATOM     59  C   UNL A   1      41.914  27.679  30.489  1.00  0.00     0.074 A 
ATOM     60  C   UNL A   1      43.991  30.826  35.585  1.00  0.00     0.029 A 
ATOM     61  N   UNL A   1      42.820  30.124  33.829  1.00  0.00    -0.354 N 
ATOM     62  N   UNL A   1      42.257  28.378  31.544  1.00  0.00    -0.248 NA
ATOM     63  C   UNL A   1      42.907  26.670  30.091  1.00  0.00     0.031 C 
ATOM     64  C   UNL A   1      44.693  29.784  34.975  1.00  0.00     0.029 A 
ATOM     65  C   UNL A   1      43.946  29.323  33.904  1.00  0.00     0.049 A 
ATOM     66  H   UNL A   1      42.112  30.043  33.149  1.00  0.00     0.167 HD
ATOM     67  C   UNL A   1      43.474  27.858  31.964  1.00  0.00     0.074 A 
ATOM     68  C   UNL A   1      43.812  26.786  31.053  1.00  0.00     0.031 C 
ATOM     69  C   UNL A   1      44.245  28.234  33.013  1.00  0.00     0.031 A 
BRANCH  56  70
ATOM     70  C   UNL A   1      41.993  32.987  36.235  1.00  0.00    -0.014 A 
ATOM     71  C   UNL A   1      42.674  34.204  36.082  1.00  0.00     0.009 A 
ATOM     72  C   UNL A   1      41.406  32.687  37.474  1.00  0.00     0.009 A 
ATOM     73  C   UNL A   1      42.785  35.092  37.154  1.00  0.00     0.001 A 
ATOM     74  C   UNL A   1      41.491  33.590  38.534  1.00  0.00     0.001 A 
ATOM     75  C   UNL A   1      42.186  34.788  38.376  1.00  0.00     0.000 A 
ENDBRANCH  56  70
BRANCH  57  76
ATOM     76  C   UNL A   1      40.474  26.860  28.491  1.00  0.00    -0.014 A 
ATOM     77  C   UNL A   1      41.060  27.159  27.251  1.00  0.00     0.009 A 
ATOM     78  C   UNL A   1      39.659  25.721  28.594  1.00  0.00     0.009 A 
ATOM     79  C   UNL A   1      40.796  26.369  26.130  1.00  0.00     0.001 A 
ATOM     80  C   UNL A   1      39.427  24.910  27.480  1.00  0.00     0.001 A 
ATOM     81  C   UNL A   1      39.981  25.244  26.247  1.00  0.00     0.000 A 
ENDBRANCH  57  76
BRANCH  69  82
ATOM     82  C   UNL A   1      45.483  27.432  33.296  1.00  0.00    -0.014 A 
ATOM     83  C   UNL A   1      46.733  27.799  32.778  1.00  0.00     0.009 A 
ATOM     84  C   UNL A   1      45.401  26.332  34.167  1.00  0.00     0.009 A 
ATOM     85  C   UNL A   1      47.875  27.068  33.112  1.00  0.00     0.001 A 
ATOM     86  C   UNL A   1      46.548  25.623  34.523  1.00  0.00     0.001 A 
ATOM     87  C   UNL A   1      47.783  25.987  33.990  1.00  0.00     0.000 A 
ENDBRANCH  69  82
ENDBRANCH  43  44
ENDBRANCH  35  38
ENDBRANCH  33  34
ENDBRANCH  32  33
ENDBRANCH  31  32
ENDBRANCH  30  31
ENDBRANCH   1  30
TORSDOF 18
ENDMDL
