MODEL 1
REMARK VINA RESULT:      -8.2      0.000      0.000
REMARK SMILES CCOC(=O)c1ccc(-c2ccc(C(=O)NCCCCCCNC(=O)c3ccc(-c4c5nc(c(-c6ccccc6)c6ccc([nH]6)c(-c6ccccc6)c6nc(c(-c7ccccc7)c7ccc4[nH]7)C=C6)C=C5)cc3)o2)cc1
REMARK SMILES IDX 18 1 17 2 16 3 14 4 15 5 13 7 10 8 11 9 74 10 12 11 9 12
REMARK SMILES IDX 6 13 7 14 76 15 8 16 75 17 4 18 5 19 3 20 2 21 1 22 19 23
REMARK SMILES IDX 20 24 21 25 22 26 23 27 24 28 25 30 26 31 27 32 73 33 28 34
REMARK SMILES IDX 72 35 29 36 30 37 31 38 66 39 32 40 71 41 65 42 67 43 33 44
REMARK SMILES IDX 70 45 64 46 63 47 34 49 56 50 41 51 55 52 42 53 45 54 54 55
REMARK SMILES IDX 68 56 43 57 44 58 53 60 69 61 46 62 35 63 36 64 40 65 37 66
REMARK SMILES IDX 39 67 38 68 57 69 58 70 62 71 59 72 61 73 60 74 47 75 48 76
REMARK SMILES IDX 52 77 49 78 51 79 50 80
REMARK H PARENT 16 6 23 29 67 48 45 59
REMARK Flexibility Score: inf
ROOT
ATOM      1  C   UNL A   1      45.666  22.233  25.690  1.00  0.00     0.021 C 
ENDROOT
BRANCH   1   2
ATOM      2  C   UNL A   1      45.696  23.444  24.759  1.00  0.00     0.116 C 
BRANCH   2   3
ATOM      3  N   UNL A   1      47.011  24.048  24.736  1.00  0.00    -0.349 N 
ATOM      4  C   UNL A   1      47.427  25.326  25.031  1.00  0.00     0.287 C 
ATOM      5  O   UNL A   1      48.646  25.510  25.013  1.00  0.00    -0.266 OA
ATOM      6  H   UNL A   1      47.734  23.438  24.461  1.00  0.00     0.163 HD
BRANCH   4   7
ATOM      7  C   UNL A   1      46.474  26.368  25.365  1.00  0.00     0.192 A 
ATOM      8  C   UNL A   1      45.957  28.400  26.058  1.00  0.00     0.135 A 
ATOM      9  C   UNL A   1      44.761  27.761  25.832  1.00  0.00     0.052 A 
ATOM     10  O   UNL A   1      46.995  27.575  25.771  1.00  0.00    -0.451 OA
ATOM     11  C   UNL A   1      45.092  26.473  25.347  1.00  0.00     0.057 A 
BRANCH   8  12
ATOM     12  C   UNL A   1      46.300  29.737  26.497  1.00  0.00     0.017 A 
ATOM     13  C   UNL A   1      47.027  32.359  27.139  1.00  0.00     0.060 A 
ATOM     14  C   UNL A   1      47.986  31.342  27.173  1.00  0.00     0.016 A 
ATOM     15  C   UNL A   1      45.699  32.066  26.809  1.00  0.00     0.016 A 
ATOM     16  C   UNL A   1      47.618  30.031  26.866  1.00  0.00     0.013 A 
ATOM     17  C   UNL A   1      45.339  30.755  26.482  1.00  0.00     0.013 A 
BRANCH  13  18
ATOM     18  C   UNL A   1      47.465  33.751  27.373  1.00  0.00     0.338 C 
ATOM     19  O   UNL A   1      48.459  34.040  28.018  1.00  0.00    -0.246 OA
BRANCH  18  20
ATOM     20  O   UNL A   1      46.593  34.607  26.791  1.00  0.00    -0.462 OA
BRANCH  20  21
ATOM     21  C   UNL A   1      46.997  35.984  26.762  1.00  0.00     0.230 C 
ATOM     22  C   UNL A   1      45.902  36.911  27.259  1.00  0.00     0.049 C 
ENDBRANCH  20  21
ENDBRANCH  18  20
ENDBRANCH  13  18
ENDBRANCH   8  12
ENDBRANCH   4   7
ENDBRANCH   2   3
ENDBRANCH   1   2
BRANCH   1  23
ATOM     23  C   UNL A   1      46.049  20.917  24.998  1.00  0.00     0.002 C 
BRANCH  23  24
ATOM     24  C   UNL A   1      44.950  20.294  24.126  1.00  0.00     0.002 C 
BRANCH  24  25
ATOM     25  C   UNL A   1      44.531  18.873  24.514  1.00  0.00     0.021 C 
BRANCH  25  26
ATOM     26  C   UNL A   1      43.781  18.767  25.839  1.00  0.00     0.116 C 
BRANCH  26  27
ATOM     27  N   UNL A   1      42.343  18.738  25.646  1.00  0.00    -0.352 N 
ATOM     28  C   UNL A   1      41.387  19.643  26.031  1.00  0.00     0.251 C 
ATOM     29  H   UNL A   1      42.001  17.949  25.168  1.00  0.00     0.163 HD
ATOM     30  O   UNL A   1      40.200  19.342  25.953  1.00  0.00    -0.269 OA
BRANCH  28  31
ATOM     31  C   UNL A   1      41.769  20.978  26.542  1.00  0.00     0.039 A 
ATOM     32  C   UNL A   1      41.869  21.158  27.926  1.00  0.00     0.014 A 
ATOM     33  C   UNL A   1      41.953  22.066  25.683  1.00  0.00     0.014 A 
ATOM     34  C   UNL A   1      42.164  22.421  28.445  1.00  0.00     0.010 A 
ATOM     35  C   UNL A   1      42.310  23.311  26.199  1.00  0.00     0.010 A 
ATOM     36  C   UNL A   1      42.391  23.507  27.585  1.00  0.00    -0.014 A 
BRANCH  36  37
ATOM     37  C   UNL A   1      42.652  24.862  28.130  1.00  0.00     0.031 A 
ATOM     38  C   UNL A   1      44.055  25.267  28.496  1.00  0.00     0.074 A 
ATOM     39  C   UNL A   1      41.633  25.722  28.315  1.00  0.00     0.049 A 
ATOM     40  N   UNL A   1      44.487  26.404  28.986  1.00  0.00    -0.248 NA
ATOM     41  C   UNL A   1      45.109  24.257  28.309  1.00  0.00     0.031 C 
ATOM     42  C   UNL A   1      40.224  25.441  28.033  1.00  0.00     0.029 A 
ATOM     43  N   UNL A   1      41.630  27.011  28.783  1.00  0.00    -0.354 N 
ATOM     44  C   UNL A   1      45.853  26.237  29.180  1.00  0.00     0.074 A 
ATOM     45  C   UNL A   1      46.170  24.877  28.802  1.00  0.00     0.031 C 
ATOM     46  C   UNL A   1      39.497  26.537  28.304  1.00  0.00     0.029 A 
ATOM     47  C   UNL A   1      40.383  27.586  28.801  1.00  0.00     0.049 A 
ATOM     48  H   UNL A   1      42.443  27.480  29.077  1.00  0.00     0.167 HD
ATOM     49  C   UNL A   1      46.766  27.137  29.613  1.00  0.00     0.031 A 
ATOM     50  C   UNL A   1      39.998  28.823  29.166  1.00  0.00     0.031 A 
ATOM     51  C   UNL A   1      46.458  28.496  29.970  1.00  0.00     0.049 A 
ATOM     52  C   UNL A   1      41.033  29.813  29.620  1.00  0.00     0.074 A 
ATOM     53  C   UNL A   1      47.319  29.498  30.381  1.00  0.00     0.029 A 
ATOM     54  N   UNL A   1      45.186  29.044  29.949  1.00  0.00    -0.354 N 
ATOM     55  N   UNL A   1      42.328  29.655  29.747  1.00  0.00    -0.248 NA
ATOM     56  C   UNL A   1      40.554  31.161  29.958  1.00  0.00     0.031 C 
ATOM     57  C   UNL A   1      46.562  30.646  30.639  1.00  0.00     0.029 A 
ATOM     58  C   UNL A   1      45.237  30.369  30.345  1.00  0.00     0.049 A 
ATOM     59  H   UNL A   1      44.366  28.563  29.690  1.00  0.00     0.167 HD
ATOM     60  C   UNL A   1      42.823  30.890  30.145  1.00  0.00     0.074 A 
ATOM     61  C   UNL A   1      41.689  31.789  30.228  1.00  0.00     0.031 C 
ATOM     62  C   UNL A   1      44.101  31.251  30.413  1.00  0.00     0.031 A 
BRANCH  49  63
ATOM     63  C   UNL A   1      48.191  26.672  29.724  1.00  0.00    -0.014 A 
ATOM     64  C   UNL A   1      49.086  26.814  28.652  1.00  0.00     0.009 A 
ATOM     65  C   UNL A   1      48.651  26.104  30.922  1.00  0.00     0.009 A 
ATOM     66  C   UNL A   1      50.403  26.361  28.763  1.00  0.00     0.001 A 
ATOM     67  C   UNL A   1      49.976  25.677  31.041  1.00  0.00     0.001 A 
ATOM     68  C   UNL A   1      50.846  25.796  29.958  1.00  0.00     0.000 A 
ENDBRANCH  49  63
BRANCH  50  69
ATOM     69  C   UNL A   1      38.568  29.214  29.074  1.00  0.00    -0.014 A 
ATOM     70  C   UNL A   1      37.733  29.121  30.198  1.00  0.00     0.009 A 
ATOM     71  C   UNL A   1      38.030  29.675  27.862  1.00  0.00     0.009 A 
ATOM     72  C   UNL A   1      36.380  29.454  30.102  1.00  0.00     0.001 A 
ATOM     73  C   UNL A   1      36.683  30.031  27.777  1.00  0.00     0.001 A 
ATOM     74  C   UNL A   1      35.857  29.912  28.894  1.00  0.00     0.000 A 
ENDBRANCH  50  69
BRANCH  62  75
ATOM     75  C   UNL A   1      44.346  32.688  30.771  1.00  0.00    -0.014 A 
ATOM     76  C   UNL A   1      44.360  33.117  32.107  1.00  0.00     0.009 A 
ATOM     77  C   UNL A   1      44.592  33.622  29.752  1.00  0.00     0.009 A 
ATOM     78  C   UNL A   1      44.578  34.462  32.412  1.00  0.00     0.001 A 
ATOM     79  C   UNL A   1      44.836  34.960  30.062  1.00  0.00     0.001 A 
ATOM     80  C   UNL A   1      44.819  35.381  31.390  1.00  0.00     0.000 A 
ENDBRANCH  62  75
ENDBRANCH  36  37
ENDBRANCH  28  31
ENDBRANCH  26  27
ENDBRANCH  25  26
ENDBRANCH  24  25
ENDBRANCH  23  24
ENDBRANCH   1  23
TORSDOF 17
ENDMDL
MODEL 2
REMARK VINA RESULT:      -8.2      0.706      5.914
REMARK SMILES CCOC(=O)c1ccc(-c2ccc(C(=O)NCCCCCCNC(=O)c3ccc(-c4c5nc(c(-c6ccccc6)c6ccc([nH]6)c(-c6ccccc6)c6nc(c(-c7ccccc7)c7ccc4[nH]7)C=C6)C=C5)cc3)o2)cc1
REMARK SMILES IDX 18 1 17 2 16 3 14 4 15 5 13 7 10 8 11 9 74 10 12 11 9 12
REMARK SMILES IDX 6 13 7 14 76 15 8 16 75 17 4 18 5 19 3 20 2 21 1 22 19 23
REMARK SMILES IDX 20 24 21 25 22 26 23 27 24 28 25 30 26 31 27 32 73 33 28 34
REMARK SMILES IDX 72 35 29 36 30 37 31 38 66 39 32 40 71 41 65 42 67 43 33 44
REMARK SMILES IDX 70 45 64 46 63 47 34 49 56 50 41 51 55 52 42 53 45 54 54 55
REMARK SMILES IDX 68 56 43 57 44 58 53 60 69 61 46 62 35 63 36 64 40 65 37 66
REMARK SMILES IDX 39 67 38 68 57 69 58 70 62 71 59 72 61 73 60 74 47 75 48 76
REMARK SMILES IDX 52 77 49 78 51 79 50 80
REMARK H PARENT 16 6 23 29 67 48 45 59
REMARK Flexibility Score: inf
ROOT
ATOM      1  C   UNL A   1      45.677  22.001  25.698  1.00  0.00     0.021 C 
ENDROOT
BRANCH   1   2
ATOM      2  C   UNL A   1      45.538  23.184  24.740  1.00  0.00     0.116 C 
BRANCH   2   3
ATOM      3  N   UNL A   1      46.783  23.916  24.637  1.00  0.00    -0.349 N 
ATOM      4  C   UNL A   1      47.077  25.239  24.872  1.00  0.00     0.287 C 
ATOM      5  O   UNL A   1      48.269  25.546  24.792  1.00  0.00    -0.266 OA
ATOM      6  H   UNL A   1      47.552  23.373  24.350  1.00  0.00     0.163 HD
BRANCH   4   7
ATOM      7  C   UNL A   1      46.037  26.192  25.213  1.00  0.00     0.192 A 
ATOM      8  C   UNL A   1      45.340  28.127  26.018  1.00  0.00     0.135 A 
ATOM      9  C   UNL A   1      44.208  27.436  25.659  1.00  0.00     0.052 A 
ATOM     10  O   UNL A   1      46.448  27.392  25.745  1.00  0.00    -0.451 OA
ATOM     11  C   UNL A   1      44.655  26.214  25.104  1.00  0.00     0.057 A 
BRANCH   8  12
ATOM     12  C   UNL A   1      45.564  29.443  26.579  1.00  0.00     0.017 A 
ATOM     13  C   UNL A   1      45.991  32.063  27.459  1.00  0.00     0.060 A 
ATOM     14  C   UNL A   1      47.077  31.274  27.067  1.00  0.00     0.016 A 
ATOM     15  C   UNL A   1      44.693  31.538  27.437  1.00  0.00     0.016 A 
ATOM     16  C   UNL A   1      46.863  29.962  26.642  1.00  0.00     0.013 A 
ATOM     17  C   UNL A   1      44.482  30.230  26.990  1.00  0.00     0.013 A 
BRANCH  13  18
ATOM     18  C   UNL A   1      46.235  33.477  27.811  1.00  0.00     0.338 C 
ATOM     19  O   UNL A   1      47.096  33.830  28.599  1.00  0.00    -0.246 OA
BRANCH  18  20
ATOM     20  O   UNL A   1      45.357  34.270  27.152  1.00  0.00    -0.462 OA
BRANCH  20  21
ATOM     21  C   UNL A   1      44.891  35.418  27.875  1.00  0.00     0.230 C 
ATOM     22  C   UNL A   1      43.391  35.378  28.104  1.00  0.00     0.049 C 
ENDBRANCH  20  21
ENDBRANCH  18  20
ENDBRANCH  13  18
ENDBRANCH   8  12
ENDBRANCH   4   7
ENDBRANCH   2   3
ENDBRANCH   1   2
BRANCH   1  23
ATOM     23  C   UNL A   1      45.971  20.670  24.992  1.00  0.00     0.002 C 
BRANCH  23  24
ATOM     24  C   UNL A   1      44.767  20.019  24.298  1.00  0.00     0.002 C 
BRANCH  24  25
ATOM     25  C   UNL A   1      44.330  18.668  24.871  1.00  0.00     0.021 C 
BRANCH  25  26
ATOM     26  C   UNL A   1      43.485  18.755  26.139  1.00  0.00     0.116 C 
BRANCH  26  27
ATOM     27  N   UNL A   1      42.070  18.867  25.840  1.00  0.00    -0.352 N 
ATOM     28  C   UNL A   1      41.187  19.874  26.134  1.00  0.00     0.251 C 
ATOM     29  H   UNL A   1      41.684  18.105  25.352  1.00  0.00     0.163 HD
ATOM     30  O   UNL A   1      39.984  19.694  25.973  1.00  0.00    -0.269 OA
BRANCH  28  31
ATOM     31  C   UNL A   1      41.667  21.177  26.648  1.00  0.00     0.039 A 
ATOM     32  C   UNL A   1      41.729  21.366  28.032  1.00  0.00     0.014 A 
ATOM     33  C   UNL A   1      41.980  22.233  25.786  1.00  0.00     0.014 A 
ATOM     34  C   UNL A   1      42.115  22.604  28.551  1.00  0.00     0.010 A 
ATOM     35  C   UNL A   1      42.427  23.448  26.304  1.00  0.00     0.010 A 
ATOM     36  C   UNL A   1      42.471  23.654  27.690  1.00  0.00    -0.014 A 
BRANCH  36  37
ATOM     37  C   UNL A   1      42.832  24.987  28.232  1.00  0.00     0.031 A 
ATOM     38  C   UNL A   1      41.762  26.023  28.453  1.00  0.00     0.074 A 
ATOM     39  C   UNL A   1      44.117  25.277  28.508  1.00  0.00     0.049 A 
ATOM     40  N   UNL A   1      41.875  27.243  28.917  1.00  0.00    -0.248 NA
ATOM     41  C   UNL A   1      40.387  25.647  28.085  1.00  0.00     0.031 C 
ATOM     42  C   UNL A   1      45.252  24.375  28.308  1.00  0.00     0.029 A 
ATOM     43  N   UNL A   1      44.682  26.417  29.022  1.00  0.00    -0.354 N 
ATOM     44  C   UNL A   1      40.595  27.782  28.878  1.00  0.00     0.074 A 
ATOM     45  C   UNL A   1      39.730  26.777  28.301  1.00  0.00     0.031 C 
ATOM     46  C   UNL A   1      46.374  24.985  28.723  1.00  0.00     0.029 A 
ATOM     47  C   UNL A   1      46.041  26.326  29.195  1.00  0.00     0.049 A 
ATOM     48  H   UNL A   1      44.163  27.223  29.245  1.00  0.00     0.167 HD
ATOM     49  C   UNL A   1      40.170  28.996  29.302  1.00  0.00     0.031 A 
ATOM     50  C   UNL A   1      46.919  27.219  29.688  1.00  0.00     0.031 A 
ATOM     51  C   UNL A   1      41.023  29.991  29.895  1.00  0.00     0.049 A 
ATOM     52  C   UNL A   1      46.420  28.550  30.177  1.00  0.00     0.074 A 
ATOM     53  C   UNL A   1      40.681  31.235  30.394  1.00  0.00     0.029 A 
ATOM     54  N   UNL A   1      42.389  29.848  30.076  1.00  0.00    -0.354 N 
ATOM     55  N   UNL A   1      45.198  29.024  30.181  1.00  0.00    -0.248 NA
ATOM     56  C   UNL A   1      47.422  29.461  30.748  1.00  0.00     0.031 C 
ATOM     57  C   UNL A   1      41.848  31.859  30.849  1.00  0.00     0.029 A 
ATOM     58  C   UNL A   1      42.907  30.983  30.674  1.00  0.00     0.049 A 
ATOM     59  H   UNL A   1      42.914  29.056  29.817  1.00  0.00     0.167 HD
ATOM     60  C   UNL A   1      45.278  30.271  30.788  1.00  0.00     0.074 A 
ATOM     61  C   UNL A   1      46.667  30.475  31.146  1.00  0.00     0.031 C 
ATOM     62  C   UNL A   1      44.290  31.165  31.031  1.00  0.00     0.031 A 
BRANCH  49  63
ATOM     63  C   UNL A   1      38.710  29.310  29.135  1.00  0.00    -0.014 A 
ATOM     64  C   UNL A   1      38.201  29.767  27.909  1.00  0.00     0.009 A 
ATOM     65  C   UNL A   1      37.827  29.129  30.211  1.00  0.00     0.009 A 
ATOM     66  C   UNL A   1      36.845  30.073  27.774  1.00  0.00     0.001 A 
ATOM     67  C   UNL A   1      36.466  29.408  30.066  1.00  0.00     0.001 A 
ATOM     68  C   UNL A   1      35.980  29.890  28.852  1.00  0.00     0.000 A 
ENDBRANCH  49  63
BRANCH  50  69
ATOM     69  C   UNL A   1      48.358  26.868  29.792  1.00  0.00    -0.014 A 
ATOM     70  C   UNL A   1      48.853  26.233  30.942  1.00  0.00     0.009 A 
ATOM     71  C   UNL A   1      49.245  27.173  28.748  1.00  0.00     0.009 A 
ATOM     72  C   UNL A   1      50.213  25.936  31.055  1.00  0.00     0.001 A 
ATOM     73  C   UNL A   1      50.599  26.852  28.855  1.00  0.00     0.001 A 
ATOM     74  C   UNL A   1      51.084  26.242  30.011  1.00  0.00     0.000 A 
ENDBRANCH  50  69
BRANCH  62  75
ATOM     75  C   UNL A   1      44.668  32.421  31.762  1.00  0.00    -0.014 A 
ATOM     76  C   UNL A   1      44.802  33.646  31.091  1.00  0.00     0.009 A 
ATOM     77  C   UNL A   1      44.868  32.379  33.151  1.00  0.00     0.009 A 
ATOM     78  C   UNL A   1      45.167  34.797  31.792  1.00  0.00     0.001 A 
ATOM     79  C   UNL A   1      45.206  33.536  33.853  1.00  0.00     0.001 A 
ATOM     80  C   UNL A   1      45.365  34.741  33.172  1.00  0.00     0.000 A 
ENDBRANCH  62  75
ENDBRANCH  36  37
ENDBRANCH  28  31
ENDBRANCH  26  27
ENDBRANCH  25  26
ENDBRANCH  24  25
ENDBRANCH  23  24
ENDBRANCH   1  23
TORSDOF 17
ENDMDL
MODEL 3
REMARK VINA RESULT:      -8.0      5.821     11.533
REMARK SMILES CCOC(=O)c1ccc(-c2ccc(C(=O)NCCCCCCNC(=O)c3ccc(-c4c5nc(c(-c6ccccc6)c6ccc([nH]6)c(-c6ccccc6)c6nc(c(-c7ccccc7)c7ccc4[nH]7)C=C6)C=C5)cc3)o2)cc1
REMARK SMILES IDX 18 1 17 2 16 3 14 4 15 5 13 7 10 8 11 9 74 10 12 11 9 12
REMARK SMILES IDX 6 13 7 14 76 15 8 16 75 17 4 18 5 19 3 20 2 21 1 22 19 23
REMARK SMILES IDX 20 24 21 25 22 26 23 27 24 28 25 30 26 31 27 32 73 33 28 34
REMARK SMILES IDX 72 35 29 36 30 37 31 38 66 39 32 40 71 41 65 42 67 43 33 44
REMARK SMILES IDX 70 45 64 46 63 47 34 49 56 50 41 51 55 52 42 53 45 54 54 55
REMARK SMILES IDX 68 56 43 57 44 58 53 60 69 61 46 62 35 63 36 64 40 65 37 66
REMARK SMILES IDX 39 67 38 68 57 69 58 70 62 71 59 72 61 73 60 74 47 75 48 76
REMARK SMILES IDX 52 77 49 78 51 79 50 80
REMARK H PARENT 16 6 23 29 67 48 45 59
REMARK Flexibility Score: inf
ROOT
ATOM      1  C   UNL A   1      31.383  24.169  26.598  1.00  0.00     0.021 C 
ENDROOT
BRANCH   1   2
ATOM      2  C   UNL A   1      32.787  23.695  26.223  1.00  0.00     0.116 C 
BRANCH   2   3
ATOM      3  N   UNL A   1      32.750  22.832  25.062  1.00  0.00    -0.349 N 
ATOM      4  C   UNL A   1      32.877  23.111  23.721  1.00  0.00     0.287 C 
ATOM      5  O   UNL A   1      32.901  22.133  22.969  1.00  0.00    -0.266 OA
ATOM      6  H   UNL A   1      32.609  21.879  25.268  1.00  0.00     0.163 HD
BRANCH   4   7
ATOM      7  C   UNL A   1      32.998  24.477  23.246  1.00  0.00     0.192 A 
ATOM      8  C   UNL A   1      32.187  26.494  22.855  1.00  0.00     0.135 A 
ATOM      9  C   UNL A   1      33.485  26.514  22.404  1.00  0.00     0.052 A 
ATOM     10  O   UNL A   1      31.885  25.276  23.372  1.00  0.00    -0.451 OA
ATOM     11  C   UNL A   1      34.019  25.235  22.693  1.00  0.00     0.057 A 
BRANCH   8  12
ATOM     12  C   UNL A   1      31.139  27.491  22.905  1.00  0.00     0.017 A 
ATOM     13  C   UNL A   1      29.071  29.371  22.792  1.00  0.00     0.060 A 
ATOM     14  C   UNL A   1      30.362  29.730  22.393  1.00  0.00     0.016 A 
ATOM     15  C   UNL A   1      28.815  28.081  23.273  1.00  0.00     0.016 A 
ATOM     16  C   UNL A   1      31.395  28.794  22.463  1.00  0.00     0.013 A 
ATOM     17  C   UNL A   1      29.848  27.141  23.322  1.00  0.00     0.013 A 
BRANCH  13  18
ATOM     18  C   UNL A   1      27.978  30.349  22.616  1.00  0.00     0.338 C 
ATOM     19  O   UNL A   1      26.972  30.360  23.306  1.00  0.00    -0.246 OA
BRANCH  18  20
ATOM     20  O   UNL A   1      28.269  31.177  21.585  1.00  0.00    -0.462 OA
BRANCH  20  21
ATOM     21  C   UNL A   1      28.012  32.570  21.814  1.00  0.00     0.230 C 
ATOM     22  C   UNL A   1      28.898  33.141  22.907  1.00  0.00     0.049 C 
ENDBRANCH  20  21
ENDBRANCH  18  20
ENDBRANCH  13  18
ENDBRANCH   8  12
ENDBRANCH   4   7
ENDBRANCH   2   3
ENDBRANCH   1   2
BRANCH   1  23
ATOM     23  C   UNL A   1      31.217  25.694  26.553  1.00  0.00     0.002 C 
BRANCH  23  24
ATOM     24  C   UNL A   1      32.526  26.491  26.464  1.00  0.00     0.002 C 
BRANCH  24  25
ATOM     25  C   UNL A   1      32.374  28.013  26.530  1.00  0.00     0.021 C 
BRANCH  25  26
ATOM     26  C   UNL A   1      33.660  28.795  26.277  1.00  0.00     0.116 C 
BRANCH  26  27
ATOM     27  N   UNL A   1      33.583  30.147  26.798  1.00  0.00    -0.352 N 
ATOM     28  C   UNL A   1      34.412  30.799  27.675  1.00  0.00     0.251 C 
ATOM     29  H   UNL A   1      32.821  30.678  26.474  1.00  0.00     0.163 HD
ATOM     30  O   UNL A   1      34.067  31.876  28.151  1.00  0.00    -0.269 OA
BRANCH  28  31
ATOM     31  C   UNL A   1      35.718  30.217  28.058  1.00  0.00     0.039 A 
ATOM     32  C   UNL A   1      35.852  29.661  29.334  1.00  0.00     0.014 A 
ATOM     33  C   UNL A   1      36.827  30.284  27.207  1.00  0.00     0.014 A 
ATOM     34  C   UNL A   1      37.087  29.162  29.752  1.00  0.00     0.010 A 
ATOM     35  C   UNL A   1      38.043  29.727  27.601  1.00  0.00     0.010 A 
ATOM     36  C   UNL A   1      38.192  29.188  28.887  1.00  0.00    -0.014 A 
BRANCH  36  37
ATOM     37  C   UNL A   1      39.521  28.708  29.341  1.00  0.00     0.031 A 
ATOM     38  C   UNL A   1      40.322  29.527  30.318  1.00  0.00     0.074 A 
ATOM     39  C   UNL A   1      40.018  27.551  28.866  1.00  0.00     0.049 A 
ATOM     40  N   UNL A   1      41.501  29.280  30.834  1.00  0.00    -0.248 NA
ATOM     41  C   UNL A   1      39.733  30.803  30.756  1.00  0.00     0.031 C 
ATOM     42  C   UNL A   1      39.358  26.680  27.892  1.00  0.00     0.029 A 
ATOM     43  N   UNL A   1      41.197  26.906  29.146  1.00  0.00    -0.354 N 
ATOM     44  C   UNL A   1      41.798  30.373  31.639  1.00  0.00     0.074 A 
ATOM     45  C   UNL A   1      40.701  31.306  31.506  1.00  0.00     0.031 C 
ATOM     46  C   UNL A   1      40.128  25.600  27.678  1.00  0.00     0.029 A 
ATOM     47  C   UNL A   1      41.342  25.714  28.480  1.00  0.00     0.049 A 
ATOM     48  H   UNL A   1      41.873  27.264  29.765  1.00  0.00     0.167 HD
ATOM     49  C   UNL A   1      42.875  30.576  32.434  1.00  0.00     0.031 A 
ATOM     50  C   UNL A   1      42.338  24.810  28.519  1.00  0.00     0.031 A 
ATOM     51  C   UNL A   1      43.958  29.641  32.584  1.00  0.00     0.049 A 
ATOM     52  C   UNL A   1      43.511  25.044  29.429  1.00  0.00     0.074 A 
ATOM     53  C   UNL A   1      45.074  29.736  33.396  1.00  0.00     0.029 A 
ATOM     54  N   UNL A   1      44.053  28.434  31.911  1.00  0.00    -0.354 N 
ATOM     55  N   UNL A   1      43.751  26.059  30.224  1.00  0.00    -0.248 NA
ATOM     56  C   UNL A   1      44.540  23.995  29.461  1.00  0.00     0.031 C 
ATOM     57  C   UNL A   1      45.862  28.597  33.190  1.00  0.00     0.029 A 
ATOM     58  C   UNL A   1      45.212  27.776  32.285  1.00  0.00     0.049 A 
ATOM     59  H   UNL A   1      43.394  28.094  31.263  1.00  0.00     0.167 HD
ATOM     60  C   UNL A   1      44.938  25.754  30.877  1.00  0.00     0.074 A 
ATOM     61  C   UNL A   1      45.364  24.457  30.393  1.00  0.00     0.031 C 
ATOM     62  C   UNL A   1      45.614  26.481  31.799  1.00  0.00     0.031 A 
BRANCH  49  63
ATOM     63  C   UNL A   1      42.929  31.866  33.202  1.00  0.00    -0.014 A 
ATOM     64  C   UNL A   1      43.538  33.009  32.660  1.00  0.00     0.009 A 
ATOM     65  C   UNL A   1      42.347  31.947  34.476  1.00  0.00     0.009 A 
ATOM     66  C   UNL A   1      43.597  34.196  33.393  1.00  0.00     0.001 A 
ATOM     67  C   UNL A   1      42.383  33.143  35.197  1.00  0.00     0.001 A 
ATOM     68  C   UNL A   1      43.017  34.262  34.659  1.00  0.00     0.000 A 
ENDBRANCH  49  63
BRANCH  50  69
ATOM     69  C   UNL A   1      42.249  23.570  27.706  1.00  0.00    -0.014 A 
ATOM     70  C   UNL A   1      41.658  22.413  28.238  1.00  0.00     0.009 A 
ATOM     71  C   UNL A   1      42.760  23.534  26.400  1.00  0.00     0.009 A 
ATOM     72  C   UNL A   1      41.608  21.236  27.488  1.00  0.00     0.001 A 
ATOM     73  C   UNL A   1      42.685  22.363  25.644  1.00  0.00     0.001 A 
ATOM     74  C   UNL A   1      42.118  21.213  26.191  1.00  0.00     0.000 A 
ENDBRANCH  50  69
BRANCH  62  75
ATOM     75  C   UNL A   1      46.854  25.867  32.380  1.00  0.00    -0.014 A 
ATOM     76  C   UNL A   1      46.807  25.081  33.542  1.00  0.00     0.009 A 
ATOM     77  C   UNL A   1      48.088  26.059  31.737  1.00  0.00     0.009 A 
ATOM     78  C   UNL A   1      47.977  24.531  34.069  1.00  0.00     0.001 A 
ATOM     79  C   UNL A   1      49.251  25.486  32.251  1.00  0.00     0.001 A 
ATOM     80  C   UNL A   1      49.196  24.732  33.422  1.00  0.00     0.000 A 
ENDBRANCH  62  75
ENDBRANCH  36  37
ENDBRANCH  28  31
ENDBRANCH  26  27
ENDBRANCH  25  26
ENDBRANCH  24  25
ENDBRANCH  23  24
ENDBRANCH   1  23
TORSDOF 17
ENDMDL
