MODEL 1
REMARK VINA RESULT:     -11.0      0.000      0.000
REMARK SMILES COC(=O)[C@@H]1CN(C(=O)NC(=O)CCCC(=O)NCCCCCCNC(=O)c2ccc(-c3c4nc(c(-c5ccccc5)c5ccc([nH]5)c(-c5ccccc5)c5nc(c(-c6ccccc6)c6ccc3[nH]6)C=C5)C=C4)cc2)C[C@H]1C
REMARK SMILES IDX 19 1 18 2 16 3 17 4 15 6 14 7 13 8 11 9 8 10 9 11 10 12
REMARK SMILES IDX 12 14 7 15 5 16 6 17 77 18 76 19 78 20 3 21 4 22 2 23 1 24
REMARK SMILES IDX 20 25 21 26 22 27 23 28 24 29 25 30 26 31 27 33 28 34 29 35
REMARK SMILES IDX 75 36 30 37 74 38 31 39 32 40 33 41 68 42 34 43 73 44 67 45
REMARK SMILES IDX 69 46 35 47 72 48 66 49 65 50 36 52 58 53 43 54 57 55 44 56
REMARK SMILES IDX 47 57 56 58 70 59 45 60 46 61 55 63 71 64 48 65 37 66 38 67
REMARK SMILES IDX 42 68 39 69 41 70 40 71 59 72 60 73 64 74 61 75 63 76 62 77
REMARK SMILES IDX 49 78 50 79 54 80 51 81 53 82 52 83
REMARK H PARENT 18 5 10 13 25 32 69 51 47 62
REMARK Flexibility Score: inf
ROOT
ATOM      1  C   UNL A   1      30.209  26.272  25.346  1.00  0.00     0.116 C 
ENDROOT
BRANCH   1   2
ATOM      2  N   UNL A   1      29.671  24.929  26.119  1.00  0.00    -0.356 N 
ATOM      3  C   UNL A   1      30.144  23.035  26.380  1.00  0.00     0.220 C 
ATOM      4  O   UNL A   1      29.473  22.100  26.879  1.00  0.00    -0.275 OA
ATOM      5  H   UNL A   1      28.846  25.138  26.613  1.00  0.00     0.163 HD
BRANCH   3   6
ATOM      6  C   UNL A   1      31.677  22.230  25.841  1.00  0.00     0.100 C 
BRANCH   6   7
ATOM      7  C   UNL A   1      32.137  21.654  24.456  1.00  0.00     0.020 C 
BRANCH   7   8
ATOM      8  C   UNL A   1      32.127  22.370  23.090  1.00  0.00     0.101 C 
BRANCH   8   9
ATOM      9  C   UNL A   1      31.488  23.717  22.909  1.00  0.00     0.227 C 
ATOM     10  C   UNL A   1      33.533  25.129  22.644  1.00  0.00     0.324 C 
ATOM     11  O   UNL A   1      33.917  26.106  21.996  1.00  0.00    -0.248 OA
ATOM     12  N   UNL A   1      32.225  24.806  22.580  1.00  0.00    -0.278 N 
ATOM     13  H   UNL A   1      31.676  25.533  22.208  1.00  0.00     0.174 HD
ATOM     14  O   UNL A   1      30.284  23.871  23.131  1.00  0.00    -0.275 OA
BRANCH  10  15
ATOM     15  N   UNL A   1      34.405  24.423  23.427  1.00  0.00    -0.323 N 
ATOM     16  C   UNL A   1      36.251  22.355  25.116  1.00  0.00     0.123 C 
ATOM     17  C   UNL A   1      35.734  22.940  23.228  1.00  0.00     0.137 C 
ATOM     18  C   UNL A   1      35.270  23.583  26.413  1.00  0.00     0.021 C 
ATOM     19  C   UNL A   1      34.144  24.828  25.307  1.00  0.00     0.125 C 
ATOM     20  C   UNL A   1      34.389  22.843  27.463  1.00  0.00     0.010 C 
BRANCH  16  21
ATOM     21  C   UNL A   1      37.717  22.103  25.472  1.00  0.00     0.310 C 
ATOM     22  O   UNL A   1      38.497  23.005  25.757  1.00  0.00    -0.252 OA
BRANCH  21  23
ATOM     23  O   UNL A   1      37.997  20.822  25.838  1.00  0.00    -0.469 OA
ATOM     24  C   UNL A   1      38.116  19.810  24.842  1.00  0.00     0.282 C 
ENDBRANCH  21  23
ENDBRANCH  16  21
ENDBRANCH  10  15
ENDBRANCH   8   9
ENDBRANCH   7   8
ENDBRANCH   6   7
ENDBRANCH   3   6
ENDBRANCH   1   2
BRANCH   1  25
ATOM     25  C   UNL A   1      31.040  27.115  26.328  1.00  0.00     0.021 C 
BRANCH  25  26
ATOM     26  C   UNL A   1      31.487  28.452  25.762  1.00  0.00     0.002 C 
BRANCH  26  27
ATOM     27  C   UNL A   1      32.853  28.394  25.080  1.00  0.00     0.002 C 
BRANCH  27  28
ATOM     28  C   UNL A   1      34.038  28.708  25.999  1.00  0.00     0.021 C 
BRANCH  28  29
ATOM     29  C   UNL A   1      33.665  28.906  27.466  1.00  0.00     0.116 C 
BRANCH  29  30
ATOM     30  N   UNL A   1      33.740  30.304  27.853  1.00  0.00    -0.352 N 
ATOM     31  C   UNL A   1      34.745  30.959  28.512  1.00  0.00     0.251 C 
ATOM     32  H   UNL A   1      32.962  30.856  27.609  1.00  0.00     0.163 HD
ATOM     33  O   UNL A   1      34.562  32.072  28.990  1.00  0.00    -0.269 OA
BRANCH  31  34
ATOM     34  C   UNL A   1      36.050  30.290  28.649  1.00  0.00     0.039 A 
ATOM     35  C   UNL A   1      36.932  30.308  27.569  1.00  0.00     0.014 A 
ATOM     36  C   UNL A   1      36.406  29.687  29.859  1.00  0.00     0.014 A 
ATOM     37  C   UNL A   1      38.207  29.769  27.725  1.00  0.00     0.010 A 
ATOM     38  C   UNL A   1      37.702  29.218  30.035  1.00  0.00     0.010 A 
ATOM     39  C   UNL A   1      38.614  29.258  28.970  1.00  0.00    -0.014 A 
BRANCH  39  40
ATOM     40  C   UNL A   1      40.004  28.792  29.180  1.00  0.00     0.031 A 
ATOM     41  C   UNL A   1      41.031  29.713  29.774  1.00  0.00     0.074 A 
ATOM     42  C   UNL A   1      40.348  27.552  28.782  1.00  0.00     0.049 A 
ATOM     43  N   UNL A   1      42.301  29.494  29.996  1.00  0.00    -0.248 NA
ATOM     44  C   UNL A   1      40.578  31.063  30.151  1.00  0.00     0.031 C 
ATOM     45  C   UNL A   1      39.445  26.581  28.158  1.00  0.00     0.029 A 
ATOM     46  N   UNL A   1      41.551  26.895  28.842  1.00  0.00    -0.354 N 
ATOM     47  C   UNL A   1      42.799  30.674  30.533  1.00  0.00     0.074 A 
ATOM     48  C   UNL A   1      41.709  31.624  30.555  1.00  0.00     0.031 C 
ATOM     49  C   UNL A   1      40.118  25.444  27.921  1.00  0.00     0.029 A 
ATOM     50  C   UNL A   1      41.507  25.620  28.329  1.00  0.00     0.049 A 
ATOM     51  H   UNL A   1      42.367  27.299  29.215  1.00  0.00     0.167 HD
ATOM     52  C   UNL A   1      44.048  30.934  30.987  1.00  0.00     0.031 A 
ATOM     53  C   UNL A   1      42.481  24.702  28.193  1.00  0.00     0.031 A 
ATOM     54  C   UNL A   1      45.130  29.986  30.960  1.00  0.00     0.049 A 
ATOM     55  C   UNL A   1      43.869  25.038  28.662  1.00  0.00     0.074 A 
ATOM     56  C   UNL A   1      46.420  30.140  31.437  1.00  0.00     0.029 A 
ATOM     57  N   UNL A   1      45.050  28.712  30.419  1.00  0.00    -0.354 N 
ATOM     58  N   UNL A   1      44.305  26.132  29.238  1.00  0.00    -0.248 NA
ATOM     59  C   UNL A   1      44.899  24.009  28.468  1.00  0.00     0.031 C 
ATOM     60  C   UNL A   1      47.140  28.982  31.128  1.00  0.00     0.029 A 
ATOM     61  C   UNL A   1      46.279  28.081  30.519  1.00  0.00     0.049 A 
ATOM     62  H   UNL A   1      44.242  28.315  30.023  1.00  0.00     0.167 HD
ATOM     63  C   UNL A   1      45.652  25.913  29.496  1.00  0.00     0.074 A 
ATOM     64  C   UNL A   1      45.953  24.572  29.038  1.00  0.00     0.031 C 
ATOM     65  C   UNL A   1      46.561  26.748  30.056  1.00  0.00     0.031 A 
BRANCH  52  66
ATOM     66  C   UNL A   1      44.314  32.302  31.551  1.00  0.00    -0.014 A 
ATOM     67  C   UNL A   1      44.144  32.570  32.919  1.00  0.00     0.009 A 
ATOM     68  C   UNL A   1      44.799  33.320  30.716  1.00  0.00     0.009 A 
ATOM     69  C   UNL A   1      44.430  33.837  33.433  1.00  0.00     0.001 A 
ATOM     70  C   UNL A   1      45.112  34.577  31.238  1.00  0.00     0.001 A 
ATOM     71  C   UNL A   1      44.920  34.836  32.594  1.00  0.00     0.000 A 
ENDBRANCH  52  66
BRANCH  53  72
ATOM     72  C   UNL A   1      42.188  23.381  27.577  1.00  0.00    -0.014 A 
ATOM     73  C   UNL A   1      42.503  23.132  26.232  1.00  0.00     0.009 A 
ATOM     74  C   UNL A   1      41.563  22.369  28.323  1.00  0.00     0.009 A 
ATOM     75  C   UNL A   1      42.164  21.914  25.638  1.00  0.00     0.001 A 
ATOM     76  C   UNL A   1      41.258  21.139  27.737  1.00  0.00     0.001 A 
ATOM     77  C   UNL A   1      41.545  20.917  26.391  1.00  0.00     0.000 A 
ENDBRANCH  53  72
BRANCH  65  78
ATOM     78  C   UNL A   1      47.959  26.224  30.226  1.00  0.00    -0.014 A 
ATOM     79  C   UNL A   1      48.889  26.270  29.175  1.00  0.00     0.009 A 
ATOM     80  C   UNL A   1      48.363  25.710  31.469  1.00  0.00     0.009 A 
ATOM     81  C   UNL A   1      50.183  25.779  29.355  1.00  0.00     0.001 A 
ATOM     82  C   UNL A   1      49.667  25.252  31.656  1.00  0.00     0.001 A 
ATOM     83  C   UNL A   1      50.573  25.277  30.596  1.00  0.00     0.000 A 
ENDBRANCH  65  78
ENDBRANCH  39  40
ENDBRANCH  31  34
ENDBRANCH  29  30
ENDBRANCH  28  29
ENDBRANCH  27  28
ENDBRANCH  26  27
ENDBRANCH  25  26
ENDBRANCH   1  25
TORSDOF 19
ENDMDL
MODEL 2
REMARK VINA RESULT:     -10.6      1.952      7.653
REMARK SMILES COC(=O)[C@@H]1CN(C(=O)NC(=O)CCCC(=O)NCCCCCCNC(=O)c2ccc(-c3c4nc(c(-c5ccccc5)c5ccc([nH]5)c(-c5ccccc5)c5nc(c(-c6ccccc6)c6ccc3[nH]6)C=C5)C=C4)cc2)C[C@H]1C
REMARK SMILES IDX 19 1 18 2 16 3 17 4 15 6 14 7 13 8 11 9 8 10 9 11 10 12
REMARK SMILES IDX 12 14 7 15 5 16 6 17 77 18 76 19 78 20 3 21 4 22 2 23 1 24
REMARK SMILES IDX 20 25 21 26 22 27 23 28 24 29 25 30 26 31 27 33 28 34 29 35
REMARK SMILES IDX 75 36 30 37 74 38 31 39 32 40 33 41 68 42 34 43 73 44 67 45
REMARK SMILES IDX 69 46 35 47 72 48 66 49 65 50 36 52 58 53 43 54 57 55 44 56
REMARK SMILES IDX 47 57 56 58 70 59 45 60 46 61 55 63 71 64 48 65 37 66 38 67
REMARK SMILES IDX 42 68 39 69 41 70 40 71 59 72 60 73 64 74 61 75 63 76 62 77
REMARK SMILES IDX 49 78 50 79 54 80 51 81 53 82 52 83
REMARK H PARENT 18 5 10 13 25 32 69 51 47 62
REMARK Flexibility Score: inf
ROOT
ATOM      1  C   UNL A   1      34.806  24.093  26.142  1.00  0.00     0.116 C 
ENDROOT
BRANCH   1   2
ATOM      2  N   UNL A   1      34.537  25.016  24.813  1.00  0.00    -0.356 N 
ATOM      3  C   UNL A   1      33.992  24.842  22.929  1.00  0.00     0.220 C 
ATOM      4  O   UNL A   1      34.028  25.684  22.000  1.00  0.00    -0.275 OA
ATOM      5  H   UNL A   1      34.701  25.962  25.027  1.00  0.00     0.163 HD
BRANCH   3   6
ATOM      6  C   UNL A   1      33.392  23.333  22.122  1.00  0.00     0.100 C 
BRANCH   6   7
ATOM      7  C   UNL A   1      32.396  22.212  22.584  1.00  0.00     0.020 C 
BRANCH   7   8
ATOM      8  C   UNL A   1      31.411  22.260  23.770  1.00  0.00     0.101 C 
BRANCH   8   9
ATOM      9  C   UNL A   1      31.777  21.722  25.124  1.00  0.00     0.227 C 
ATOM     10  C   UNL A   1      30.504  23.309  26.576  1.00  0.00     0.324 C 
ATOM     11  O   UNL A   1      29.857  23.302  27.626  1.00  0.00    -0.248 OA
ATOM     12  N   UNL A   1      31.190  22.194  26.251  1.00  0.00    -0.278 N 
ATOM     13  H   UNL A   1      31.286  21.577  27.012  1.00  0.00     0.174 HD
ATOM     14  O   UNL A   1      32.678  20.887  25.240  1.00  0.00    -0.275 OA
BRANCH  10  15
ATOM     15  N   UNL A   1      30.549  24.428  25.789  1.00  0.00    -0.323 N 
ATOM     16  C   UNL A   1      30.932  26.821  23.629  1.00  0.00     0.123 C 
ATOM     17  C   UNL A   1      30.174  24.942  23.891  1.00  0.00     0.137 C 
ATOM     18  C   UNL A   1      31.672  27.425  25.429  1.00  0.00     0.021 C 
ATOM     19  C   UNL A   1      31.411  25.900  26.714  1.00  0.00     0.125 C 
ATOM     20  C   UNL A   1      33.167  27.861  25.400  1.00  0.00     0.010 C 
BRANCH  16  21
ATOM     21  C   UNL A   1      30.119  27.886  22.891  1.00  0.00     0.310 C 
ATOM     22  O   UNL A   1      30.328  28.191  21.723  1.00  0.00    -0.252 OA
BRANCH  21  23
ATOM     23  O   UNL A   1      28.921  28.180  23.467  1.00  0.00    -0.469 OA
ATOM     24  C   UNL A   1      27.958  28.946  22.750  1.00  0.00     0.282 C 
ENDBRANCH  21  23
ENDBRANCH  16  21
ENDBRANCH  10  15
ENDBRANCH   8   9
ENDBRANCH   7   8
ENDBRANCH   6   7
ENDBRANCH   3   6
ENDBRANCH   1   2
BRANCH   1  25
ATOM     25  C   UNL A   1      35.282  22.700  25.694  1.00  0.00     0.021 C 
BRANCH  25  26
ATOM     26  C   UNL A   1      36.749  22.651  25.302  1.00  0.00     0.002 C 
BRANCH  26  27
ATOM     27  C   UNL A   1      37.059  21.585  24.252  1.00  0.00     0.002 C 
BRANCH  27  28
ATOM     28  C   UNL A   1      37.781  20.348  24.794  1.00  0.00     0.021 C 
BRANCH  28  29
ATOM     29  C   UNL A   1      38.897  20.652  25.790  1.00  0.00     0.116 C 
BRANCH  29  30
ATOM     30  N   UNL A   1      39.838  19.551  25.893  1.00  0.00    -0.352 N 
ATOM     31  C   UNL A   1      41.187  19.594  26.122  1.00  0.00     0.251 C 
ATOM     32  H   UNL A   1      39.455  18.651  25.783  1.00  0.00     0.163 HD
ATOM     33  O   UNL A   1      41.888  18.608  25.932  1.00  0.00    -0.269 OA
BRANCH  31  34
ATOM     34  C   UNL A   1      41.782  20.858  26.586  1.00  0.00     0.039 A 
ATOM     35  C   UNL A   1      42.228  21.780  25.640  1.00  0.00     0.014 A 
ATOM     36  C   UNL A   1      41.856  21.140  27.955  1.00  0.00     0.014 A 
ATOM     37  C   UNL A   1      42.695  23.020  26.067  1.00  0.00     0.010 A 
ATOM     38  C   UNL A   1      42.253  22.404  28.373  1.00  0.00     0.010 A 
ATOM     39  C   UNL A   1      42.673  23.355  27.433  1.00  0.00    -0.014 A 
BRANCH  39  40
ATOM     40  C   UNL A   1      43.056  24.712  27.886  1.00  0.00     0.031 A 
ATOM     41  C   UNL A   1      42.001  25.747  28.158  1.00  0.00     0.074 A 
ATOM     42  C   UNL A   1      44.362  25.022  27.999  1.00  0.00     0.049 A 
ATOM     43  N   UNL A   1      42.149  26.993  28.524  1.00  0.00    -0.248 NA
ATOM     44  C   UNL A   1      40.599  25.333  27.978  1.00  0.00     0.031 C 
ATOM     45  C   UNL A   1      45.476  24.111  27.726  1.00  0.00     0.029 A 
ATOM     46  N   UNL A   1      44.974  26.192  28.373  1.00  0.00    -0.354 N 
ATOM     47  C   UNL A   1      40.864  27.514  28.615  1.00  0.00     0.074 A 
ATOM     48  C   UNL A   1      39.952  26.465  28.215  1.00  0.00     0.031 C 
ATOM     49  C   UNL A   1      46.633  24.747  27.970  1.00  0.00     0.029 A 
ATOM     50  C   UNL A   1      46.347  26.119  28.369  1.00  0.00     0.049 A 
ATOM     51  H   UNL A   1      44.477  27.005  28.620  1.00  0.00     0.167 HD
ATOM     52  C   UNL A   1      40.479  28.748  29.016  1.00  0.00     0.031 A 
ATOM     53  C   UNL A   1      47.270  27.059  28.644  1.00  0.00     0.031 A 
ATOM     54  C   UNL A   1      41.391  29.789  29.410  1.00  0.00     0.049 A 
ATOM     55  C   UNL A   1      46.812  28.435  29.041  1.00  0.00     0.074 A 
ATOM     56  C   UNL A   1      41.097  31.059  29.874  1.00  0.00     0.029 A 
ATOM     57  N   UNL A   1      42.773  29.682  29.377  1.00  0.00    -0.354 N 
ATOM     58  N   UNL A   1      45.591  28.888  29.195  1.00  0.00    -0.248 NA
ATOM     59  C   UNL A   1      47.861  29.428  29.307  1.00  0.00     0.031 C 
ATOM     60  C   UNL A   1      42.302  31.743  30.063  1.00  0.00     0.029 A 
ATOM     61  C   UNL A   1      43.347  30.877  29.780  1.00  0.00     0.049 A 
ATOM     62  H   UNL A   1      43.272  28.878  29.108  1.00  0.00     0.167 HD
ATOM     63  C   UNL A   1      45.727  30.210  29.598  1.00  0.00     0.074 A 
ATOM     64  C   UNL A   1      47.147  30.476  29.691  1.00  0.00     0.031 C 
ATOM     65  C   UNL A   1      44.762  31.125  29.863  1.00  0.00     0.031 A 
BRANCH  52  66
ATOM     66  C   UNL A   1      39.006  29.044  29.047  1.00  0.00    -0.014 A 
ATOM     67  C   UNL A   1      38.255  28.879  30.222  1.00  0.00     0.009 A 
ATOM     68  C   UNL A   1      38.370  29.552  27.903  1.00  0.00     0.009 A 
ATOM     69  C   UNL A   1      36.894  29.192  30.243  1.00  0.00     0.001 A 
ATOM     70  C   UNL A   1      37.016  29.892  27.935  1.00  0.00     0.001 A 
ATOM     71  C   UNL A   1      36.279  29.705  29.103  1.00  0.00     0.000 A 
ENDBRANCH  52  66
BRANCH  53  72
ATOM     72  C   UNL A   1      48.719  26.741  28.546  1.00  0.00    -0.014 A 
ATOM     73  C   UNL A   1      49.429  26.288  29.668  1.00  0.00     0.009 A 
ATOM     74  C   UNL A   1      49.408  26.919  27.336  1.00  0.00     0.009 A 
ATOM     75  C   UNL A   1      50.806  26.057  29.590  1.00  0.00     0.001 A 
ATOM     76  C   UNL A   1      50.775  26.652  27.251  1.00  0.00     0.001 A 
ATOM     77  C   UNL A   1      51.477  26.235  28.382  1.00  0.00     0.000 A 
ENDBRANCH  53  72
BRANCH  65  78
ATOM     78  C   UNL A   1      45.214  32.489  30.303  1.00  0.00    -0.014 A 
ATOM     79  C   UNL A   1      45.420  33.523  29.376  1.00  0.00     0.009 A 
ATOM     80  C   UNL A   1      45.400  32.753  31.669  1.00  0.00     0.009 A 
ATOM     81  C   UNL A   1      45.839  34.783  29.805  1.00  0.00     0.001 A 
ATOM     82  C   UNL A   1      45.784  34.024  32.098  1.00  0.00     0.001 A 
ATOM     83  C   UNL A   1      46.014  35.034  31.166  1.00  0.00     0.000 A 
ENDBRANCH  65  78
ENDBRANCH  39  40
ENDBRANCH  31  34
ENDBRANCH  29  30
ENDBRANCH  28  29
ENDBRANCH  27  28
ENDBRANCH  26  27
ENDBRANCH  25  26
ENDBRANCH   1  25
TORSDOF 19
ENDMDL
MODEL 3
REMARK VINA RESULT:     -10.3      1.794      2.306
REMARK SMILES COC(=O)[C@@H]1CN(C(=O)NC(=O)CCCC(=O)NCCCCCCNC(=O)c2ccc(-c3c4nc(c(-c5ccccc5)c5ccc([nH]5)c(-c5ccccc5)c5nc(c(-c6ccccc6)c6ccc3[nH]6)C=C5)C=C4)cc2)C[C@H]1C
REMARK SMILES IDX 19 1 18 2 16 3 17 4 15 6 14 7 13 8 11 9 8 10 9 11 10 12
REMARK SMILES IDX 12 14 7 15 5 16 6 17 77 18 76 19 78 20 3 21 4 22 2 23 1 24
REMARK SMILES IDX 20 25 21 26 22 27 23 28 24 29 25 30 26 31 27 33 28 34 29 35
REMARK SMILES IDX 75 36 30 37 74 38 31 39 32 40 33 41 68 42 34 43 73 44 67 45
REMARK SMILES IDX 69 46 35 47 72 48 66 49 65 50 36 52 58 53 43 54 57 55 44 56
REMARK SMILES IDX 47 57 56 58 70 59 45 60 46 61 55 63 71 64 48 65 37 66 38 67
REMARK SMILES IDX 42 68 39 69 41 70 40 71 59 72 60 73 64 74 61 75 63 76 62 77
REMARK SMILES IDX 49 78 50 79 54 80 51 81 53 82 52 83
REMARK H PARENT 18 5 10 13 25 32 69 51 47 62
REMARK Flexibility Score: inf
ROOT
ATOM      1  C   UNL A   1      30.053  26.270  25.414  1.00  0.00     0.116 C 
ENDROOT
BRANCH   1   2
ATOM      2  N   UNL A   1      29.544  24.918  26.191  1.00  0.00    -0.356 N 
ATOM      3  C   UNL A   1      30.028  23.022  26.415  1.00  0.00     0.220 C 
ATOM      4  O   UNL A   1      29.376  22.081  26.926  1.00  0.00    -0.275 OA
ATOM      5  H   UNL A   1      28.736  25.120  26.715  1.00  0.00     0.163 HD
BRANCH   3   6
ATOM      6  C   UNL A   1      31.542  22.225  25.815  1.00  0.00     0.100 C 
BRANCH   6   7
ATOM      7  C   UNL A   1      31.960  21.675  24.406  1.00  0.00     0.020 C 
BRANCH   7   8
ATOM      8  C   UNL A   1      32.019  22.450  23.074  1.00  0.00     0.101 C 
BRANCH   8   9
ATOM      9  C   UNL A   1      31.446  23.831  22.938  1.00  0.00     0.227 C 
ATOM     10  C   UNL A   1      33.554  25.149  22.683  1.00  0.00     0.324 C 
ATOM     11  O   UNL A   1      33.978  26.124  22.056  1.00  0.00    -0.248 OA
ATOM     12  N   UNL A   1      32.231  24.892  22.628  1.00  0.00    -0.278 N 
ATOM     13  H   UNL A   1      31.714  25.655  22.282  1.00  0.00     0.174 HD
ATOM     14  O   UNL A   1      30.253  24.038  23.180  1.00  0.00    -0.275 OA
BRANCH  10  15
ATOM     15  N   UNL A   1      34.400  24.380  23.435  1.00  0.00    -0.323 N 
ATOM     16  C   UNL A   1      36.165  22.178  25.039  1.00  0.00     0.123 C 
ATOM     17  C   UNL A   1      35.660  22.846  23.176  1.00  0.00     0.137 C 
ATOM     18  C   UNL A   1      35.250  23.406  26.384  1.00  0.00     0.021 C 
ATOM     19  C   UNL A   1      34.172  24.735  25.329  1.00  0.00     0.125 C 
ATOM     20  C   UNL A   1      34.346  22.672  27.418  1.00  0.00     0.010 C 
BRANCH  16  21
ATOM     21  C   UNL A   1      37.621  21.850  25.374  1.00  0.00     0.310 C 
ATOM     22  O   UNL A   1      38.082  20.717  25.294  1.00  0.00    -0.252 OA
BRANCH  21  23
ATOM     23  O   UNL A   1      38.455  22.925  25.376  1.00  0.00    -0.469 OA
ATOM     24  C   UNL A   1      38.665  23.658  26.580  1.00  0.00     0.282 C 
ENDBRANCH  21  23
ENDBRANCH  16  21
ENDBRANCH  10  15
ENDBRANCH   8   9
ENDBRANCH   7   8
ENDBRANCH   6   7
ENDBRANCH   3   6
ENDBRANCH   1   2
BRANCH   1  25
ATOM     25  C   UNL A   1      31.374  26.741  26.046  1.00  0.00     0.021 C 
BRANCH  25  26
ATOM     26  C   UNL A   1      31.564  28.249  26.017  1.00  0.00     0.002 C 
BRANCH  26  27
ATOM     27  C   UNL A   1      32.610  28.708  25.002  1.00  0.00     0.002 C 
BRANCH  27  28
ATOM     28  C   UNL A   1      34.062  28.499  25.444  1.00  0.00     0.021 C 
BRANCH  28  29
ATOM     29  C   UNL A   1      34.354  28.929  26.879  1.00  0.00     0.116 C 
BRANCH  29  30
ATOM     30  N   UNL A   1      34.118  30.349  27.071  1.00  0.00    -0.352 N 
ATOM     31  C   UNL A   1      34.736  31.212  27.935  1.00  0.00     0.251 C 
ATOM     32  H   UNL A   1      33.418  30.745  26.502  1.00  0.00     0.163 HD
ATOM     33  O   UNL A   1      34.262  32.319  28.164  1.00  0.00    -0.269 OA
BRANCH  31  34
ATOM     34  C   UNL A   1      35.975  30.776  28.599  1.00  0.00     0.039 A 
ATOM     35  C   UNL A   1      35.909  29.753  29.544  1.00  0.00     0.014 A 
ATOM     36  C   UNL A   1      37.200  31.355  28.250  1.00  0.00     0.014 A 
ATOM     37  C   UNL A   1      37.089  29.264  30.099  1.00  0.00     0.010 A 
ATOM     38  C   UNL A   1      38.379  30.816  28.750  1.00  0.00     0.010 A 
ATOM     39  C   UNL A   1      38.333  29.764  29.676  1.00  0.00    -0.014 A 
BRANCH  39  40
ATOM     40  C   UNL A   1      39.596  29.170  30.172  1.00  0.00     0.031 A 
ATOM     41  C   UNL A   1      40.282  29.746  31.378  1.00  0.00     0.074 A 
ATOM     42  C   UNL A   1      40.148  28.143  29.497  1.00  0.00     0.049 A 
ATOM     43  N   UNL A   1      41.410  29.384  31.932  1.00  0.00    -0.248 NA
ATOM     44  C   UNL A   1      39.627  30.888  32.036  1.00  0.00     0.031 C 
ATOM     45  C   UNL A   1      39.592  27.525  28.290  1.00  0.00     0.029 A 
ATOM     46  N   UNL A   1      41.302  27.439  29.729  1.00  0.00    -0.354 N 
ATOM     47  C   UNL A   1      41.602  30.252  32.999  1.00  0.00     0.074 A 
ATOM     48  C   UNL A   1      40.503  31.192  32.984  1.00  0.00     0.031 C 
ATOM     49  C   UNL A   1      40.389  26.516  27.907  1.00  0.00     0.029 A 
ATOM     50  C   UNL A   1      41.534  26.445  28.808  1.00  0.00     0.049 A 
ATOM     51  H   UNL A   1      41.907  27.627  30.482  1.00  0.00     0.167 HD
ATOM     52  C   UNL A   1      42.593  30.252  33.921  1.00  0.00     0.031 A 
ATOM     53  C   UNL A   1      42.561  25.583  28.695  1.00  0.00     0.031 A 
ATOM     54  C   UNL A   1      43.686  29.316  33.929  1.00  0.00     0.049 A 
ATOM     55  C   UNL A   1      43.672  25.639  29.707  1.00  0.00     0.074 A 
ATOM     56  C   UNL A   1      44.716  29.206  34.847  1.00  0.00     0.029 A 
ATOM     57  N   UNL A   1      43.894  28.336  32.971  1.00  0.00    -0.354 N 
ATOM     58  N   UNL A   1      43.799  26.418  30.754  1.00  0.00    -0.248 NA
ATOM     59  C   UNL A   1      44.780  24.692  29.523  1.00  0.00     0.031 C 
ATOM     60  C   UNL A   1      45.584  28.200  34.409  1.00  0.00     0.029 A 
ATOM     61  C   UNL A   1      45.057  27.639  33.256  1.00  0.00     0.049 A 
ATOM     62  H   UNL A   1      43.304  28.161  32.203  1.00  0.00     0.167 HD
ATOM     63  C   UNL A   1      44.987  26.038  31.366  1.00  0.00     0.074 A 
ATOM     64  C   UNL A   1      45.527  24.943  30.588  1.00  0.00     0.031 C 
ATOM     65  C   UNL A   1      45.581  26.554  32.470  1.00  0.00     0.031 A 
BRANCH  52  66
ATOM     66  C   UNL A   1      42.545  31.299  34.997  1.00  0.00    -0.014 A 
ATOM     67  C   UNL A   1      41.774  31.116  36.157  1.00  0.00     0.009 A 
ATOM     68  C   UNL A   1      43.327  32.459  34.882  1.00  0.00     0.009 A 
ATOM     69  C   UNL A   1      41.767  32.083  37.164  1.00  0.00     0.001 A 
ATOM     70  C   UNL A   1      43.342  33.410  35.903  1.00  0.00     0.001 A 
ATOM     71  C   UNL A   1      42.557  33.225  37.040  1.00  0.00     0.000 A 
ENDBRANCH  52  66
BRANCH  53  72
ATOM     72  C   UNL A   1      42.599  24.600  27.581  1.00  0.00    -0.014 A 
ATOM     73  C   UNL A   1      43.092  24.967  26.319  1.00  0.00     0.009 A 
ATOM     74  C   UNL A   1      42.114  23.295  27.764  1.00  0.00     0.009 A 
ATOM     75  C   UNL A   1      43.062  24.060  25.255  1.00  0.00     0.001 A 
ATOM     76  C   UNL A   1      42.119  22.380  26.710  1.00  0.00     0.001 A 
ATOM     77  C   UNL A   1      42.580  22.768  25.452  1.00  0.00     0.000 A 
ENDBRANCH  53  72
BRANCH  65  78
ATOM     78  C   UNL A   1      46.869  25.920  32.913  1.00  0.00    -0.014 A 
ATOM     79  C   UNL A   1      46.880  24.855  33.828  1.00  0.00     0.009 A 
ATOM     80  C   UNL A   1      48.086  26.370  32.379  1.00  0.00     0.009 A 
ATOM     81  C   UNL A   1      48.088  24.279  34.226  1.00  0.00     0.001 A 
ATOM     82  C   UNL A   1      49.289  25.769  32.752  1.00  0.00     0.001 A 
ATOM     83  C   UNL A   1      49.290  24.732  33.683  1.00  0.00     0.000 A 
ENDBRANCH  65  78
ENDBRANCH  39  40
ENDBRANCH  31  34
ENDBRANCH  29  30
ENDBRANCH  28  29
ENDBRANCH  27  28
ENDBRANCH  26  27
ENDBRANCH  25  26
ENDBRANCH   1  25
TORSDOF 19
ENDMDL
