MODEL 1
REMARK VINA RESULT:     -10.1      0.000      0.000
REMARK SMILES C[C@H](CC(=O)NCCCCCCNC(=O)c1ccc(-c2c3nc(c(-c4ccccc4)c4ccc([nH]4)c(-c4ccccc4)c4nc(c(-c5ccccc5)c5ccc2[nH]5)C=C4)C=C3)cc1)N1C(=O)CCCC1=O
REMARK SMILES IDX 9 1 8 2 7 3 6 4 4 5 5 6 3 8 2 9 1 10 64 11 65 12 70 13 66 14
REMARK SMILES IDX 67 15 69 16 71 17 68 18 10 19 11 20 12 21 13 22 14 23 15 25
REMARK SMILES IDX 16 26 17 27 63 28 18 29 62 30 19 31 20 32 21 33 56 34 22 35
REMARK SMILES IDX 61 36 55 37 57 38 23 39 60 40 54 41 53 42 24 44 46 45 31 46
REMARK SMILES IDX 45 47 32 48 35 49 44 50 58 51 33 52 34 53 43 55 59 56 36 57
REMARK SMILES IDX 25 58 26 59 30 60 27 61 29 62 28 63 47 64 48 65 52 66 49 67
REMARK SMILES IDX 51 68 50 69 37 70 38 71 42 72 39 73 41 74 40 75
REMARK H PARENT 6 7 13 24 57 43 35 54
REMARK Flexibility Score: inf
ROOT
ATOM      1  C   UNL A   1      32.126  29.608  27.098  1.00  0.00     0.002 C 
ENDROOT
BRANCH   1   2
ATOM      2  C   UNL A   1      32.641  28.307  26.476  1.00  0.00     0.021 C 
BRANCH   2   3
ATOM      3  C   UNL A   1      31.530  27.399  25.951  1.00  0.00     0.116 C 
BRANCH   3   4
ATOM      4  N   UNL A   1      31.433  26.202  26.749  1.00  0.00    -0.356 N 
ATOM      5  C   UNL A   1      31.749  24.921  26.433  1.00  0.00     0.222 C 
ATOM      6  O   UNL A   1      31.509  24.048  27.270  1.00  0.00    -0.275 OA
ATOM      7  H   UNL A   1      31.086  26.336  27.662  1.00  0.00     0.163 HD
BRANCH   5   8
ATOM      8  C   UNL A   1      32.431  24.572  25.119  1.00  0.00     0.125 C 
BRANCH   8   9
ATOM      9  C   UNL A   1      32.819  23.089  24.827  1.00  0.00     0.099 C 
ATOM     10  C   UNL A   1      31.952  22.522  23.680  1.00  0.00     0.032 C 
BRANCH   9  11
ATOM     11  N   UNL A   1      34.301  22.861  24.761  1.00  0.00    -0.279 N 
ATOM     12  C   UNL A   1      35.042  23.235  23.643  1.00  0.00     0.229 C 
ATOM     13  C   UNL A   1      34.789  21.784  25.511  1.00  0.00     0.229 C 
ATOM     14  O   UNL A   1      34.569  23.525  22.548  1.00  0.00    -0.274 OA
ATOM     15  C   UNL A   1      36.548  23.247  23.824  1.00  0.00     0.101 C 
ATOM     16  C   UNL A   1      36.285  21.738  25.731  1.00  0.00     0.101 C 
ATOM     17  O   UNL A   1      34.075  20.910  26.002  1.00  0.00    -0.274 OA
ATOM     18  C   UNL A   1      37.021  21.949  24.431  1.00  0.00     0.020 C 
ENDBRANCH   9  11
ENDBRANCH   8   9
ENDBRANCH   5   8
ENDBRANCH   3   4
ENDBRANCH   2   3
ENDBRANCH   1   2
BRANCH   1  19
ATOM     19  C   UNL A   1      31.381  30.527  26.124  1.00  0.00     0.002 C 
BRANCH  19  20
ATOM     20  C   UNL A   1      31.352  32.005  26.526  1.00  0.00     0.021 C 
BRANCH  20  21
ATOM     21  C   UNL A   1      32.674  32.525  27.080  1.00  0.00     0.116 C 
BRANCH  21  22
ATOM     22  N   UNL A   1      32.527  33.854  27.652  1.00  0.00    -0.352 N 
ATOM     23  C   UNL A   1      33.232  34.441  28.670  1.00  0.00     0.251 C 
ATOM     24  H   UNL A   1      31.820  34.412  27.252  1.00  0.00     0.163 HD
ATOM     25  O   UNL A   1      32.819  35.467  29.205  1.00  0.00    -0.269 OA
BRANCH  23  26
ATOM     26  C   UNL A   1      34.496  33.830  29.124  1.00  0.00     0.039 A 
ATOM     27  C   UNL A   1      34.498  33.025  30.266  1.00  0.00     0.014 A 
ATOM     28  C   UNL A   1      35.681  34.067  28.423  1.00  0.00     0.014 A 
ATOM     29  C   UNL A   1      35.684  32.413  30.677  1.00  0.00     0.010 A 
ATOM     30  C   UNL A   1      36.842  33.397  28.788  1.00  0.00     0.010 A 
ATOM     31  C   UNL A   1      36.859  32.574  29.925  1.00  0.00    -0.014 A 
BRANCH  31  32
ATOM     32  C   UNL A   1      38.133  31.924  30.313  1.00  0.00     0.031 A 
ATOM     33  C   UNL A   1      39.090  32.654  31.216  1.00  0.00     0.074 A 
ATOM     34  C   UNL A   1      38.471  30.730  29.791  1.00  0.00     0.049 A 
ATOM     35  N   UNL A   1      40.312  32.332  31.559  1.00  0.00    -0.248 NA
ATOM     36  C   UNL A   1      38.622  33.930  31.782  1.00  0.00     0.031 C 
ATOM     37  C   UNL A   1      37.637  29.930  28.891  1.00  0.00     0.029 A 
ATOM     38  N   UNL A   1      39.618  29.991  29.926  1.00  0.00    -0.354 N 
ATOM     39  C   UNL A   1      40.764  33.377  32.355  1.00  0.00     0.074 A 
ATOM     40  C   UNL A   1      39.707  34.362  32.406  1.00  0.00     0.031 C 
ATOM     41  C   UNL A   1      38.295  28.804  28.569  1.00  0.00     0.029 A 
ATOM     42  C   UNL A   1      39.614  28.828  29.194  1.00  0.00     0.049 A 
ATOM     43  H   UNL A   1      40.374  30.267  30.494  1.00  0.00     0.167 HD
ATOM     44  C   UNL A   1      41.948  33.498  33.000  1.00  0.00     0.031 A 
ATOM     45  C   UNL A   1      40.571  27.895  29.030  1.00  0.00     0.031 A 
ATOM     46  C   UNL A   1      42.991  32.510  32.957  1.00  0.00     0.049 A 
ATOM     47  C   UNL A   1      41.892  28.067  29.730  1.00  0.00     0.074 A 
ATOM     48  C   UNL A   1      44.209  32.515  33.615  1.00  0.00     0.029 A 
ATOM     49  N   UNL A   1      42.940  31.341  32.215  1.00  0.00    -0.354 N 
ATOM     50  N   UNL A   1      42.288  29.036  30.520  1.00  0.00    -0.248 NA
ATOM     51  C   UNL A   1      42.896  27.013  29.524  1.00  0.00     0.031 C 
ATOM     52  C   UNL A   1      44.919  31.377  33.224  1.00  0.00     0.029 A 
ATOM     53  C   UNL A   1      44.115  30.628  32.380  1.00  0.00     0.049 A 
ATOM     54  H   UNL A   1      42.181  31.060  31.654  1.00  0.00     0.167 HD
ATOM     55  C   UNL A   1      43.567  28.687  30.938  1.00  0.00     0.074 A 
ATOM     56  C   UNL A   1      43.880  27.418  30.316  1.00  0.00     0.031 C 
ATOM     57  C   UNL A   1      44.402  29.356  31.769  1.00  0.00     0.031 A 
BRANCH  44  58
ATOM     58  C   UNL A   1      42.182  34.753  33.795  1.00  0.00    -0.014 A 
ATOM     59  C   UNL A   1      42.749  35.896  33.207  1.00  0.00     0.009 A 
ATOM     60  C   UNL A   1      41.797  34.805  35.144  1.00  0.00     0.009 A 
ATOM     61  C   UNL A   1      42.963  37.049  33.964  1.00  0.00     0.001 A 
ATOM     62  C   UNL A   1      41.981  35.971  35.889  1.00  0.00     0.001 A 
ATOM     63  C   UNL A   1      42.573  37.088  35.302  1.00  0.00     0.000 A 
ENDBRANCH  44  58
BRANCH  45  64
ATOM     64  C   UNL A   1      40.319  26.710  28.168  1.00  0.00    -0.014 A 
ATOM     65  C   UNL A   1      40.775  26.686  26.840  1.00  0.00     0.009 A 
ATOM     66  C   UNL A   1      39.616  25.600  28.662  1.00  0.00     0.009 A 
ATOM     67  C   UNL A   1      40.504  25.589  26.018  1.00  0.00     0.001 A 
ATOM     68  C   UNL A   1      39.376  24.491  27.847  1.00  0.00     0.001 A 
ATOM     69  C   UNL A   1      39.809  24.492  26.523  1.00  0.00     0.000 A 
ENDBRANCH  45  64
BRANCH  57  70
ATOM     70  C   UNL A   1      45.712  28.706  32.115  1.00  0.00    -0.014 A 
ATOM     71  C   UNL A   1      46.890  29.005  31.416  1.00  0.00     0.009 A 
ATOM     72  C   UNL A   1      45.775  27.839  33.219  1.00  0.00     0.009 A 
ATOM     73  C   UNL A   1      48.104  28.434  31.806  1.00  0.00     0.001 A 
ATOM     74  C   UNL A   1      46.993  27.294  33.624  1.00  0.00     0.001 A 
ATOM     75  C   UNL A   1      48.155  27.587  32.913  1.00  0.00     0.000 A 
ENDBRANCH  57  70
ENDBRANCH  31  32
ENDBRANCH  23  26
ENDBRANCH  21  22
ENDBRANCH  20  21
ENDBRANCH  19  20
ENDBRANCH   1  19
TORSDOF 15
ENDMDL
MODEL 2
REMARK VINA RESULT:     -10.1      2.375      3.895
REMARK SMILES C[C@H](CC(=O)NCCCCCCNC(=O)c1ccc(-c2c3nc(c(-c4ccccc4)c4ccc([nH]4)c(-c4ccccc4)c4nc(c(-c5ccccc5)c5ccc2[nH]5)C=C4)C=C3)cc1)N1C(=O)CCCC1=O
REMARK SMILES IDX 9 1 8 2 7 3 6 4 4 5 5 6 3 8 2 9 1 10 64 11 65 12 70 13 66 14
REMARK SMILES IDX 67 15 69 16 71 17 68 18 10 19 11 20 12 21 13 22 14 23 15 25
REMARK SMILES IDX 16 26 17 27 63 28 18 29 62 30 19 31 20 32 21 33 56 34 22 35
REMARK SMILES IDX 61 36 55 37 57 38 23 39 60 40 54 41 53 42 24 44 46 45 31 46
REMARK SMILES IDX 45 47 32 48 35 49 44 50 58 51 33 52 34 53 43 55 59 56 36 57
REMARK SMILES IDX 25 58 26 59 30 60 27 61 29 62 28 63 47 64 48 65 52 66 49 67
REMARK SMILES IDX 51 68 50 69 37 70 38 71 42 72 39 73 41 74 40 75
REMARK H PARENT 6 7 13 24 57 43 35 54
REMARK Flexibility Score: inf
ROOT
ATOM      1  C   UNL A   1      31.455  27.932  25.466  1.00  0.00     0.002 C 
ENDROOT
BRANCH   1   2
ATOM      2  C   UNL A   1      30.541  26.749  25.799  1.00  0.00     0.021 C 
BRANCH   2   3
ATOM      3  C   UNL A   1      31.028  25.420  25.224  1.00  0.00     0.116 C 
BRANCH   3   4
ATOM      4  N   UNL A   1      31.156  24.434  26.268  1.00  0.00    -0.356 N 
ATOM      5  C   UNL A   1      32.264  23.800  26.731  1.00  0.00     0.222 C 
ATOM      6  O   UNL A   1      32.109  22.933  27.594  1.00  0.00    -0.275 OA
ATOM      7  H   UNL A   1      30.313  24.182  26.711  1.00  0.00     0.163 HD
BRANCH   5   8
ATOM      8  C   UNL A   1      33.656  24.182  26.253  1.00  0.00     0.125 C 
BRANCH   8   9
ATOM      9  C   UNL A   1      34.182  23.619  24.896  1.00  0.00     0.099 C 
ATOM     10  C   UNL A   1      35.727  23.571  24.897  1.00  0.00     0.032 C 
BRANCH   9  11
ATOM     11  N   UNL A   1      33.444  22.397  24.431  1.00  0.00    -0.279 N 
ATOM     12  C   UNL A   1      33.658  21.154  25.021  1.00  0.00     0.229 C 
ATOM     13  C   UNL A   1      33.042  22.399  23.090  1.00  0.00     0.229 C 
ATOM     14  O   UNL A   1      34.602  20.874  25.755  1.00  0.00    -0.274 OA
ATOM     15  C   UNL A   1      32.638  20.082  24.687  1.00  0.00     0.101 C 
ATOM     16  C   UNL A   1      32.023  21.354  22.690  1.00  0.00     0.101 C 
ATOM     17  O   UNL A   1      33.452  23.201  22.251  1.00  0.00    -0.274 OA
ATOM     18  C   UNL A   1      32.431  19.992  23.195  1.00  0.00     0.020 C 
ENDBRANCH   9  11
ENDBRANCH   8   9
ENDBRANCH   5   8
ENDBRANCH   3   4
ENDBRANCH   2   3
ENDBRANCH   1   2
BRANCH   1  19
ATOM     19  C   UNL A   1      32.900  27.545  25.135  1.00  0.00     0.002 C 
BRANCH  19  20
ATOM     20  C   UNL A   1      33.969  28.323  25.908  1.00  0.00     0.021 C 
BRANCH  20  21
ATOM     21  C   UNL A   1      33.604  28.607  27.361  1.00  0.00     0.116 C 
BRANCH  21  22
ATOM     22  N   UNL A   1      33.612  30.033  27.644  1.00  0.00    -0.352 N 
ATOM     23  C   UNL A   1      34.570  30.785  28.273  1.00  0.00     0.251 C 
ATOM     24  H   UNL A   1      32.816  30.530  27.342  1.00  0.00     0.163 HD
ATOM     25  O   UNL A   1      34.314  31.923  28.662  1.00  0.00    -0.269 OA
BRANCH  23  26
ATOM     26  C   UNL A   1      35.916  30.219  28.483  1.00  0.00     0.039 A 
ATOM     27  C   UNL A   1      36.820  30.183  27.419  1.00  0.00     0.014 A 
ATOM     28  C   UNL A   1      36.275  29.712  29.734  1.00  0.00     0.014 A 
ATOM     29  C   UNL A   1      38.108  29.685  27.625  1.00  0.00     0.010 A 
ATOM     30  C   UNL A   1      37.579  29.288  29.957  1.00  0.00     0.010 A 
ATOM     31  C   UNL A   1      38.505  29.258  28.902  1.00  0.00    -0.014 A 
BRANCH  31  32
ATOM     32  C   UNL A   1      39.869  28.743  29.168  1.00  0.00     0.031 A 
ATOM     33  C   UNL A   1      40.907  29.662  29.752  1.00  0.00     0.074 A 
ATOM     34  C   UNL A   1      40.200  27.489  28.806  1.00  0.00     0.049 A 
ATOM     35  N   UNL A   1      42.188  29.457  29.927  1.00  0.00    -0.248 NA
ATOM     36  C   UNL A   1      40.448  30.999  30.165  1.00  0.00     0.031 C 
ATOM     37  C   UNL A   1      39.289  26.505  28.216  1.00  0.00     0.029 A 
ATOM     38  N   UNL A   1      41.404  26.833  28.864  1.00  0.00    -0.354 N 
ATOM     39  C   UNL A   1      42.689  30.646  30.441  1.00  0.00     0.074 A 
ATOM     40  C   UNL A   1      41.587  31.581  30.507  1.00  0.00     0.031 C 
ATOM     41  C   UNL A   1      39.964  25.368  27.981  1.00  0.00     0.029 A 
ATOM     42  C   UNL A   1      41.362  25.558  28.354  1.00  0.00     0.049 A 
ATOM     43  H   UNL A   1      42.221  27.238  29.236  1.00  0.00     0.167 HD
ATOM     44  C   UNL A   1      43.951  30.930  30.840  1.00  0.00     0.031 A 
ATOM     45  C   UNL A   1      42.344  24.651  28.187  1.00  0.00     0.031 A 
ATOM     46  C   UNL A   1      45.041  29.994  30.785  1.00  0.00     0.049 A 
ATOM     47  C   UNL A   1      43.746  25.001  28.606  1.00  0.00     0.074 A 
ATOM     48  C   UNL A   1      46.347  30.168  31.210  1.00  0.00     0.029 A 
ATOM     49  N   UNL A   1      44.951  28.710  30.275  1.00  0.00    -0.354 N 
ATOM     50  N   UNL A   1      44.196  26.112  29.137  1.00  0.00    -0.248 NA
ATOM     51  C   UNL A   1      44.775  23.969  28.412  1.00  0.00     0.031 C 
ATOM     52  C   UNL A   1      47.062  29.008  30.902  1.00  0.00     0.029 A 
ATOM     53  C   UNL A   1      46.185  28.087  30.352  1.00  0.00     0.049 A 
ATOM     54  H   UNL A   1      44.133  28.301  29.911  1.00  0.00     0.167 HD
ATOM     55  C   UNL A   1      45.548  25.897  29.380  1.00  0.00     0.074 A 
ATOM     56  C   UNL A   1      45.844  24.550  28.939  1.00  0.00     0.031 C 
ATOM     57  C   UNL A   1      46.458  26.738  29.926  1.00  0.00     0.031 A 
BRANCH  44  58
ATOM     58  C   UNL A   1      44.222  32.317  31.355  1.00  0.00    -0.014 A 
ATOM     59  C   UNL A   1      44.109  32.626  32.720  1.00  0.00     0.009 A 
ATOM     60  C   UNL A   1      44.632  33.322  30.464  1.00  0.00     0.009 A 
ATOM     61  C   UNL A   1      44.359  33.922  33.177  1.00  0.00     0.001 A 
ATOM     62  C   UNL A   1      44.915  34.609  30.929  1.00  0.00     0.001 A 
ATOM     63  C   UNL A   1      44.768  34.909  32.281  1.00  0.00     0.000 A 
ENDBRANCH  44  58
BRANCH  45  64
ATOM     64  C   UNL A   1      42.039  23.321  27.597  1.00  0.00    -0.014 A 
ATOM     65  C   UNL A   1      41.635  22.255  28.416  1.00  0.00     0.009 A 
ATOM     66  C   UNL A   1      42.157  23.105  26.215  1.00  0.00     0.009 A 
ATOM     67  C   UNL A   1      41.386  20.994  27.868  1.00  0.00     0.001 A 
ATOM     68  C   UNL A   1      41.875  21.852  25.665  1.00  0.00     0.001 A 
ATOM     69  C   UNL A   1      41.502  20.795  26.493  1.00  0.00     0.000 A 
ENDBRANCH  45  64
BRANCH  57  70
ATOM     70  C   UNL A   1      47.850  26.216  30.145  1.00  0.00    -0.014 A 
ATOM     71  C   UNL A   1      48.811  26.228  29.124  1.00  0.00     0.009 A 
ATOM     72  C   UNL A   1      48.224  25.780  31.427  1.00  0.00     0.009 A 
ATOM     73  C   UNL A   1      50.114  25.797  29.378  1.00  0.00     0.001 A 
ATOM     74  C   UNL A   1      49.534  25.378  31.686  1.00  0.00     0.001 A 
ATOM     75  C   UNL A   1      50.477  25.381  30.659  1.00  0.00     0.000 A 
ENDBRANCH  57  70
ENDBRANCH  31  32
ENDBRANCH  23  26
ENDBRANCH  21  22
ENDBRANCH  20  21
ENDBRANCH  19  20
ENDBRANCH   1  19
TORSDOF 15
ENDMDL
MODEL 3
REMARK VINA RESULT:     -10.0      2.722      3.887
REMARK SMILES C[C@H](CC(=O)NCCCCCCNC(=O)c1ccc(-c2c3nc(c(-c4ccccc4)c4ccc([nH]4)c(-c4ccccc4)c4nc(c(-c5ccccc5)c5ccc2[nH]5)C=C4)C=C3)cc1)N1C(=O)CCCC1=O
REMARK SMILES IDX 9 1 8 2 7 3 6 4 4 5 5 6 3 8 2 9 1 10 64 11 65 12 70 13 66 14
REMARK SMILES IDX 67 15 69 16 71 17 68 18 10 19 11 20 12 21 13 22 14 23 15 25
REMARK SMILES IDX 16 26 17 27 63 28 18 29 62 30 19 31 20 32 21 33 56 34 22 35
REMARK SMILES IDX 61 36 55 37 57 38 23 39 60 40 54 41 53 42 24 44 46 45 31 46
REMARK SMILES IDX 45 47 32 48 35 49 44 50 58 51 33 52 34 53 43 55 59 56 36 57
REMARK SMILES IDX 25 58 26 59 30 60 27 61 29 62 28 63 47 64 48 65 52 66 49 67
REMARK SMILES IDX 51 68 50 69 37 70 38 71 42 72 39 73 41 74 40 75
REMARK H PARENT 6 7 13 24 57 43 35 54
REMARK Flexibility Score: inf
ROOT
ATOM      1  C   UNL A   1      34.216  32.126  28.848  1.00  0.00     0.002 C 
ENDROOT
BRANCH   1   2
ATOM      2  C   UNL A   1      34.321  31.507  27.451  1.00  0.00     0.021 C 
BRANCH   2   3
ATOM      3  C   UNL A   1      32.994  30.969  26.919  1.00  0.00     0.116 C 
BRANCH   3   4
ATOM      4  N   UNL A   1      32.547  29.849  27.711  1.00  0.00    -0.356 N 
ATOM      5  C   UNL A   1      31.923  28.708  27.324  1.00  0.00     0.222 C 
ATOM      6  O   UNL A   1      31.572  27.920  28.205  1.00  0.00    -0.275 OA
ATOM      7  H   UNL A   1      32.722  29.925  28.677  1.00  0.00     0.163 HD
BRANCH   5   8
ATOM      8  C   UNL A   1      31.714  28.375  25.854  1.00  0.00     0.125 C 
BRANCH   8   9
ATOM      9  C   UNL A   1      31.057  27.016  25.462  1.00  0.00     0.099 C 
ATOM     10  C   UNL A   1      30.303  27.150  24.119  1.00  0.00     0.032 C 
BRANCH   9  11
ATOM     11  N   UNL A   1      31.971  25.837  25.636  1.00  0.00    -0.279 N 
ATOM     12  C   UNL A   1      33.012  25.591  24.744  1.00  0.00     0.229 C 
ATOM     13  C   UNL A   1      31.421  24.727  26.287  1.00  0.00     0.229 C 
ATOM     14  O   UNL A   1      33.132  26.112  23.639  1.00  0.00    -0.274 OA
ATOM     15  C   UNL A   1      34.043  24.576  25.199  1.00  0.00     0.101 C 
ATOM     16  C   UNL A   1      32.397  23.676  26.769  1.00  0.00     0.101 C 
ATOM     17  O   UNL A   1      30.218  24.580  26.497  1.00  0.00    -0.274 OA
ATOM     18  C   UNL A   1      33.371  23.312  25.675  1.00  0.00     0.020 C 
ENDBRANCH   9  11
ENDBRANCH   8   9
ENDBRANCH   5   8
ENDBRANCH   3   4
ENDBRANCH   2   3
ENDBRANCH   1   2
BRANCH   1  19
ATOM     19  C   UNL A   1      34.460  33.638  28.892  1.00  0.00     0.002 C 
BRANCH  19  20
ATOM     20  C   UNL A   1      33.191  34.495  28.959  1.00  0.00     0.021 C 
BRANCH  20  21
ATOM     21  C   UNL A   1      33.439  35.944  29.360  1.00  0.00     0.116 C 
BRANCH  21  22
ATOM     22  N   UNL A   1      32.638  36.324  30.512  1.00  0.00    -0.352 N 
ATOM     23  C   UNL A   1      32.685  35.845  31.795  1.00  0.00     0.251 C 
ATOM     24  H   UNL A   1      31.966  37.026  30.348  1.00  0.00     0.163 HD
ATOM     25  O   UNL A   1      31.773  36.084  32.584  1.00  0.00    -0.269 OA
BRANCH  23  26
ATOM     26  C   UNL A   1      33.839  35.033  32.225  1.00  0.00     0.039 A 
ATOM     27  C   UNL A   1      33.635  33.713  32.634  1.00  0.00     0.014 A 
ATOM     28  C   UNL A   1      35.121  35.587  32.236  1.00  0.00     0.014 A 
ATOM     29  C   UNL A   1      34.730  32.929  33.004  1.00  0.00     0.010 A 
ATOM     30  C   UNL A   1      36.216  34.784  32.530  1.00  0.00     0.010 A 
ATOM     31  C   UNL A   1      36.031  33.451  32.929  1.00  0.00    -0.014 A 
BRANCH  31  32
ATOM     32  C   UNL A   1      37.221  32.646  33.292  1.00  0.00     0.031 A 
ATOM     33  C   UNL A   1      37.941  32.930  34.583  1.00  0.00     0.074 A 
ATOM     34  C   UNL A   1      37.706  31.730  32.433  1.00  0.00     0.049 A 
ATOM     35  N   UNL A   1      39.076  32.447  35.019  1.00  0.00    -0.248 NA
ATOM     36  C   UNL A   1      37.316  33.911  35.486  1.00  0.00     0.031 C 
ATOM     37  C   UNL A   1      37.109  31.374  31.144  1.00  0.00     0.029 A 
ATOM     38  N   UNL A   1      38.829  30.945  32.507  1.00  0.00    -0.354 N 
ATOM     39  C   UNL A   1      39.313  33.085  36.230  1.00  0.00     0.074 A 
ATOM     40  C   UNL A   1      38.230  34.022  36.438  1.00  0.00     0.031 C 
ATOM     41  C   UNL A   1      37.863  30.430  30.557  1.00  0.00     0.029 A 
ATOM     42  C   UNL A   1      39.021  30.153  31.401  1.00  0.00     0.049 A 
ATOM     43  H   UNL A   1      39.439  30.948  33.280  1.00  0.00     0.167 HD
ATOM     44  C   UNL A   1      40.332  32.896  37.101  1.00  0.00     0.031 A 
ATOM     45  C   UNL A   1      40.028  29.313  31.092  1.00  0.00     0.031 A 
ATOM     46  C   UNL A   1      41.399  31.955  36.899  1.00  0.00     0.049 A 
ATOM     47  C   UNL A   1      41.167  29.144  32.061  1.00  0.00     0.074 A 
ATOM     48  C   UNL A   1      42.452  31.652  37.744  1.00  0.00     0.029 A 
ATOM     49  N   UNL A   1      41.547  31.164  35.771  1.00  0.00    -0.354 N 
ATOM     50  N   UNL A   1      41.352  29.718  33.225  1.00  0.00    -0.248 NA
ATOM     51  C   UNL A   1      42.232  28.206  31.677  1.00  0.00     0.031 C 
ATOM     52  C   UNL A   1      43.271  30.721  37.101  1.00  0.00     0.029 A 
ATOM     53  C   UNL A   1      42.690  30.390  35.888  1.00  0.00     0.049 A 
ATOM     54  H   UNL A   1      40.933  31.153  35.002  1.00  0.00     0.167 HD
ATOM     55  C   UNL A   1      42.529  29.178  33.731  1.00  0.00     0.074 A 
ATOM     56  C   UNL A   1      43.013  28.232  32.748  1.00  0.00     0.031 C 
ATOM     57  C   UNL A   1      43.147  29.439  34.908  1.00  0.00     0.031 A 
BRANCH  44  58
ATOM     58  C   UNL A   1      40.347  33.739  38.347  1.00  0.00    -0.014 A 
ATOM     59  C   UNL A   1      39.714  33.314  39.527  1.00  0.00     0.009 A 
ATOM     60  C   UNL A   1      41.035  34.962  38.351  1.00  0.00     0.009 A 
ATOM     61  C   UNL A   1      39.734  34.114  40.670  1.00  0.00     0.001 A 
ATOM     62  C   UNL A   1      41.083  35.745  39.507  1.00  0.00     0.001 A 
ATOM     63  C   UNL A   1      40.424  35.326  40.661  1.00  0.00     0.000 A 
ENDBRANCH  44  58
BRANCH  45  64
ATOM     64  C   UNL A   1      40.006  28.562  29.809  1.00  0.00    -0.014 A 
ATOM     65  C   UNL A   1      40.524  29.139  28.638  1.00  0.00     0.009 A 
ATOM     66  C   UNL A   1      39.462  27.270  29.743  1.00  0.00     0.009 A 
ATOM     67  C   UNL A   1      40.468  28.449  27.424  1.00  0.00     0.001 A 
ATOM     68  C   UNL A   1      39.438  26.570  28.534  1.00  0.00     0.001 A 
ATOM     69  C   UNL A   1      39.930  27.165  27.374  1.00  0.00     0.000 A 
ENDBRANCH  45  64
BRANCH  57  70
ATOM     70  C   UNL A   1      44.380  28.648  35.240  1.00  0.00    -0.014 A 
ATOM     71  C   UNL A   1      44.308  27.411  35.897  1.00  0.00     0.009 A 
ATOM     72  C   UNL A   1      45.633  29.119  34.811  1.00  0.00     0.009 A 
ATOM     73  C   UNL A   1      45.468  26.669  36.132  1.00  0.00     0.001 A 
ATOM     74  C   UNL A   1      46.785  28.363  35.021  1.00  0.00     0.001 A 
ATOM     75  C   UNL A   1      46.703  27.141  35.687  1.00  0.00     0.000 A 
ENDBRANCH  57  70
ENDBRANCH  31  32
ENDBRANCH  23  26
ENDBRANCH  21  22
ENDBRANCH  20  21
ENDBRANCH  19  20
ENDBRANCH   1  19
TORSDOF 15
ENDMDL
