MODEL 1
REMARK VINA RESULT:     -11.4      0.000      0.000
REMARK SMILES O=C(C[C@H]1C[C@H]2CC[C@@H](C1)[N@H+]2C[C@@H]1CNC(=O)O1)NCCCCCCNC(=O)c1ccc(-c2c3nc(c(-c4ccccc4)c4ccc([nH]4)c(-c4ccccc4)c4nc(c(-c5ccccc5)c5ccc2[nH]5)C=C4)C=C3)cc1
REMARK SMILES IDX 22 1 21 2 20 3 19 4 1 5 2 6 3 8 4 9 5 10 10 11 6 12 9 13
REMARK SMILES IDX 7 14 11 15 8 16 12 18 13 19 14 20 18 21 15 22 16 23 17 25
REMARK SMILES IDX 23 26 24 27 25 28 26 29 27 30 28 32 29 33 30 34 76 35 31 36
REMARK SMILES IDX 75 37 32 38 33 39 34 40 69 41 35 42 74 43 68 44 70 45 36 46
REMARK SMILES IDX 73 47 67 48 66 49 37 51 59 52 44 53 58 54 45 55 48 56 57 57
REMARK SMILES IDX 71 58 46 59 47 60 56 62 72 63 49 64 38 65 39 66 43 67 40 68
REMARK SMILES IDX 42 69 41 70 60 71 61 72 65 73 62 74 64 75 63 76 50 77 51 78
REMARK SMILES IDX 55 79 52 80 54 81 53 82
REMARK H PARENT 19 7 11 17 15 24 26 31 70 50 48 61
REMARK Flexibility Score: inf
ROOT
ATOM      1  C   UNL A   1      31.139  29.260  24.215  1.00  0.00     0.002 C 
ENDROOT
BRANCH   1   2
ATOM      2  C   UNL A   1      30.658  27.820  23.973  1.00  0.00     0.021 C 
BRANCH   2   3
ATOM      3  C   UNL A   1      31.603  26.957  23.132  1.00  0.00     0.116 C 
BRANCH   3   4
ATOM      4  N   UNL A   1      32.659  26.417  23.957  1.00  0.00    -0.356 N 
ATOM      5  O   UNL A   1      33.810  25.378  22.282  1.00  0.00    -0.275 OA
ATOM      6  C   UNL A   1      33.654  25.599  23.479  1.00  0.00     0.220 C 
ATOM      7  H   UNL A   1      32.667  26.649  24.913  1.00  0.00     0.163 HD
BRANCH   6   8
ATOM      8  C   UNL A   1      34.491  24.865  24.529  1.00  0.00     0.104 C 
BRANCH   8   9
ATOM      9  C   UNL A   1      34.640  23.347  24.326  1.00  0.00     0.010 C 
ATOM     10  C   UNL A   1      35.672  22.737  25.316  1.00  0.00     0.069 C 
ATOM     11  C   UNL A   1      33.265  22.629  24.273  1.00  0.00     0.069 C 
ATOM     12  C   UNL A   1      35.152  21.678  26.277  1.00  0.00     0.184 C 
ATOM     13  C   UNL A   1      33.031  21.592  25.370  1.00  0.00     0.184 C 
ATOM     14  C   UNL A   1      34.255  22.337  27.333  1.00  0.00     0.071 C 
ATOM     15  N   UNL A   1      34.216  20.795  25.627  1.00  0.00    -0.327 N 
ATOM     16  C   UNL A   1      32.857  22.317  26.716  1.00  0.00     0.071 C 
ATOM     17  H   UNL A   1      33.994  20.003  26.230  1.00  0.00     0.348 HD
BRANCH  15  18
ATOM     18  C   UNL A   1      34.615  19.665  24.803  1.00  0.00     0.310 C 
BRANCH  18  19
ATOM     19  C   UNL A   1      33.892  18.313  24.548  1.00  0.00     0.252 C 
ATOM     20  C   UNL A   1      32.862  17.812  25.539  1.00  0.00     0.170 C 
ATOM     21  O   UNL A   1      34.788  17.214  24.331  1.00  0.00    -0.438 OA
ATOM     22  N   UNL A   1      33.395  16.564  25.956  1.00  0.00    -0.318 N 
ATOM     23  C   UNL A   1      34.458  16.199  25.182  1.00  0.00     0.407 C 
ATOM     24  H   UNL A   1      33.044  16.032  26.707  1.00  0.00     0.167 HD
ATOM     25  O   UNL A   1      35.042  15.135  25.260  1.00  0.00    -0.225 OA
ENDBRANCH  18  19
ENDBRANCH  15  18
ENDBRANCH   8   9
ENDBRANCH   6   8
ENDBRANCH   3   4
ENDBRANCH   2   3
ENDBRANCH   1   2
BRANCH   1  26
ATOM     26  C   UNL A   1      31.635  29.566  25.632  1.00  0.00     0.002 C 
BRANCH  26  27
ATOM     27  C   UNL A   1      31.411  31.003  26.107  1.00  0.00     0.021 C 
BRANCH  27  28
ATOM     28  C   UNL A   1      32.545  31.595  26.939  1.00  0.00     0.116 C 
BRANCH  28  29
ATOM     29  N   UNL A   1      32.282  32.968  27.339  1.00  0.00    -0.352 N 
ATOM     30  C   UNL A   1      33.012  33.802  28.151  1.00  0.00     0.251 C 
ATOM     31  H   UNL A   1      31.456  33.359  26.974  1.00  0.00     0.163 HD
ATOM     32  O   UNL A   1      32.531  34.872  28.512  1.00  0.00    -0.269 OA
BRANCH  30  33
ATOM     33  C   UNL A   1      34.361  33.409  28.619  1.00  0.00     0.039 A 
ATOM     34  C   UNL A   1      34.472  32.691  29.812  1.00  0.00     0.014 A 
ATOM     35  C   UNL A   1      35.512  33.753  27.905  1.00  0.00     0.014 A 
ATOM     36  C   UNL A   1      35.727  32.266  30.254  1.00  0.00     0.010 A 
ATOM     37  C   UNL A   1      36.754  33.258  28.303  1.00  0.00     0.010 A 
ATOM     38  C   UNL A   1      36.876  32.510  29.481  1.00  0.00    -0.014 A 
BRANCH  38  39
ATOM     39  C   UNL A   1      38.191  31.949  29.890  1.00  0.00     0.031 A 
ATOM     40  C   UNL A   1      39.088  32.688  30.845  1.00  0.00     0.074 A 
ATOM     41  C   UNL A   1      38.594  30.773  29.368  1.00  0.00     0.049 A 
ATOM     42  N   UNL A   1      40.243  32.320  31.343  1.00  0.00    -0.248 NA
ATOM     43  C   UNL A   1      38.646  34.020  31.281  1.00  0.00     0.031 C 
ATOM     44  C   UNL A   1      37.842  29.978  28.395  1.00  0.00     0.029 A 
ATOM     45  N   UNL A   1      39.728  30.035  29.593  1.00  0.00    -0.354 N 
ATOM     46  C   UNL A   1      40.668  33.376  32.140  1.00  0.00     0.074 A 
ATOM     47  C   UNL A   1      39.674  34.420  32.015  1.00  0.00     0.031 C 
ATOM     48  C   UNL A   1      38.506  28.838  28.152  1.00  0.00     0.029 A 
ATOM     49  C   UNL A   1      39.750  28.841  28.913  1.00  0.00     0.049 A 
ATOM     50  H   UNL A   1      40.456  30.330  30.186  1.00  0.00     0.167 HD
ATOM     51  C   UNL A   1      41.775  33.464  32.917  1.00  0.00     0.031 A 
ATOM     52  C   UNL A   1      40.665  27.853  28.907  1.00  0.00     0.031 A 
ATOM     53  C   UNL A   1      42.770  32.428  33.032  1.00  0.00     0.049 A 
ATOM     54  C   UNL A   1      41.894  27.986  29.760  1.00  0.00     0.074 A 
ATOM     55  C   UNL A   1      43.892  32.397  33.843  1.00  0.00     0.029 A 
ATOM     56  N   UNL A   1      42.772  31.249  32.303  1.00  0.00    -0.354 N 
ATOM     57  N   UNL A   1      42.233  28.950  30.581  1.00  0.00    -0.248 NA
ATOM     58  C   UNL A   1      42.861  26.881  29.692  1.00  0.00     0.031 C 
ATOM     59  C   UNL A   1      44.611  31.232  33.550  1.00  0.00     0.029 A 
ATOM     60  C   UNL A   1      43.898  30.501  32.613  1.00  0.00     0.049 A 
ATOM     61  H   UNL A   1      42.076  30.981  31.661  1.00  0.00     0.167 HD
ATOM     62  C   UNL A   1      43.440  28.558  31.146  1.00  0.00     0.074 A 
ATOM     63  C   UNL A   1      43.756  27.256  30.594  1.00  0.00     0.031 C 
ATOM     64  C   UNL A   1      44.217  29.217  32.041  1.00  0.00     0.031 A 
BRANCH  51  65
ATOM     65  C   UNL A   1      41.983  34.745  33.683  1.00  0.00    -0.014 A 
ATOM     66  C   UNL A   1      42.762  35.793  33.167  1.00  0.00     0.009 A 
ATOM     67  C   UNL A   1      41.367  34.915  34.934  1.00  0.00     0.009 A 
ATOM     68  C   UNL A   1      42.959  36.962  33.906  1.00  0.00     0.001 A 
ATOM     69  C   UNL A   1      41.536  36.099  35.655  1.00  0.00     0.001 A 
ATOM     70  C   UNL A   1      42.343  37.116  35.147  1.00  0.00     0.000 A 
ENDBRANCH  51  65
BRANCH  52  71
ATOM     71  C   UNL A   1      40.438  26.633  28.087  1.00  0.00    -0.014 A 
ATOM     72  C   UNL A   1      40.993  26.526  26.803  1.00  0.00     0.009 A 
ATOM     73  C   UNL A   1      39.663  25.572  28.580  1.00  0.00     0.009 A 
ATOM     74  C   UNL A   1      40.756  25.394  26.020  1.00  0.00     0.001 A 
ATOM     75  C   UNL A   1      39.454  24.427  27.809  1.00  0.00     0.001 A 
ATOM     76  C   UNL A   1      39.992  24.343  26.525  1.00  0.00     0.000 A 
ENDBRANCH  52  71
BRANCH  64  77
ATOM     77  C   UNL A   1      45.474  28.523  32.492  1.00  0.00    -0.014 A 
ATOM     78  C   UNL A   1      46.696  28.710  31.825  1.00  0.00     0.009 A 
ATOM     79  C   UNL A   1      45.436  27.666  33.603  1.00  0.00     0.009 A 
ATOM     80  C   UNL A   1      47.837  28.012  32.227  1.00  0.00     0.001 A 
ATOM     81  C   UNL A   1      46.586  26.999  34.027  1.00  0.00     0.001 A 
ATOM     82  C   UNL A   1      47.782  27.159  33.329  1.00  0.00     0.000 A 
ENDBRANCH  64  77
ENDBRANCH  38  39
ENDBRANCH  30  33
ENDBRANCH  28  29
ENDBRANCH  27  28
ENDBRANCH  26  27
ENDBRANCH   1  26
TORSDOF 16
ENDMDL
MODEL 2
REMARK VINA RESULT:     -11.3      4.540      8.577
REMARK SMILES O=C(C[C@H]1C[C@H]2CC[C@@H](C1)[N@H+]2C[C@@H]1CNC(=O)O1)NCCCCCCNC(=O)c1ccc(-c2c3nc(c(-c4ccccc4)c4ccc([nH]4)c(-c4ccccc4)c4nc(c(-c5ccccc5)c5ccc2[nH]5)C=C4)C=C3)cc1
REMARK SMILES IDX 22 1 21 2 20 3 19 4 1 5 2 6 3 8 4 9 5 10 10 11 6 12 9 13
REMARK SMILES IDX 7 14 11 15 8 16 12 18 13 19 14 20 18 21 15 22 16 23 17 25
REMARK SMILES IDX 23 26 24 27 25 28 26 29 27 30 28 32 29 33 30 34 76 35 31 36
REMARK SMILES IDX 75 37 32 38 33 39 34 40 69 41 35 42 74 43 68 44 70 45 36 46
REMARK SMILES IDX 73 47 67 48 66 49 37 51 59 52 44 53 58 54 45 55 48 56 57 57
REMARK SMILES IDX 71 58 46 59 47 60 56 62 72 63 49 64 38 65 39 66 43 67 40 68
REMARK SMILES IDX 42 69 41 70 60 71 61 72 65 73 62 74 64 75 63 76 50 77 51 78
REMARK SMILES IDX 55 79 52 80 54 81 53 82
REMARK H PARENT 19 7 11 17 15 24 26 31 70 50 48 61
REMARK Flexibility Score: inf
ROOT
ATOM      1  C   UNL A   1      35.211  33.240  28.595  1.00  0.00     0.002 C 
ENDROOT
BRANCH   1   2
ATOM      2  C   UNL A   1      34.443  31.919  28.416  1.00  0.00     0.021 C 
BRANCH   2   3
ATOM      3  C   UNL A   1      35.310  30.716  28.033  1.00  0.00     0.116 C 
BRANCH   3   4
ATOM      4  N   UNL A   1      34.869  30.158  26.776  1.00  0.00    -0.356 N 
ATOM      5  O   UNL A   1      33.582  28.489  27.653  1.00  0.00    -0.275 OA
ATOM      6  C   UNL A   1      34.089  29.032  26.675  1.00  0.00     0.220 C 
ATOM      7  H   UNL A   1      35.141  30.611  25.945  1.00  0.00     0.163 HD
BRANCH   6   8
ATOM      8  C   UNL A   1      33.984  28.401  25.285  1.00  0.00     0.104 C 
BRANCH   8   9
ATOM      9  C   UNL A   1      32.972  29.052  24.328  1.00  0.00     0.010 C 
ATOM     10  C   UNL A   1      33.006  28.389  22.921  1.00  0.00     0.069 C 
ATOM     11  C   UNL A   1      31.564  29.180  24.968  1.00  0.00     0.069 C 
ATOM     12  C   UNL A   1      31.718  27.735  22.444  1.00  0.00     0.184 C 
ATOM     13  C   UNL A   1      30.452  28.418  24.250  1.00  0.00     0.184 C 
ATOM     14  C   UNL A   1      31.465  26.451  23.245  1.00  0.00     0.071 C 
ATOM     15  N   UNL A   1      30.565  28.521  22.808  1.00  0.00    -0.327 N 
ATOM     16  C   UNL A   1      30.662  26.908  24.462  1.00  0.00     0.071 C 
ATOM     17  H   UNL A   1      29.728  28.158  22.353  1.00  0.00     0.348 HD
BRANCH  15  18
ATOM     18  C   UNL A   1      30.107  29.674  22.049  1.00  0.00     0.310 C 
BRANCH  18  19
ATOM     19  C   UNL A   1      28.792  30.493  22.177  1.00  0.00     0.252 C 
ATOM     20  C   UNL A   1      28.086  30.983  20.930  1.00  0.00     0.170 C 
ATOM     21  O   UNL A   1      28.910  31.639  23.031  1.00  0.00    -0.438 OA
ATOM     22  N   UNL A   1      28.071  32.392  21.099  1.00  0.00    -0.318 N 
ATOM     23  C   UNL A   1      28.471  32.742  22.356  1.00  0.00     0.407 C 
ATOM     24  H   UNL A   1      27.808  33.034  20.400  1.00  0.00     0.167 HD
ATOM     25  O   UNL A   1      28.462  33.874  22.799  1.00  0.00    -0.225 OA
ENDBRANCH  18  19
ENDBRANCH  15  18
ENDBRANCH   8   9
ENDBRANCH   6   8
ENDBRANCH   3   4
ENDBRANCH   2   3
ENDBRANCH   1   2
BRANCH   1  26
ATOM     26  C   UNL A   1      34.504  34.495  28.075  1.00  0.00     0.002 C 
BRANCH  26  27
ATOM     27  C   UNL A   1      33.235  34.892  28.831  1.00  0.00     0.021 C 
BRANCH  27  28
ATOM     28  C   UNL A   1      33.274  36.270  29.486  1.00  0.00     0.116 C 
BRANCH  28  29
ATOM     29  N   UNL A   1      32.493  36.326  30.711  1.00  0.00    -0.352 N 
ATOM     30  C   UNL A   1      32.681  35.670  31.903  1.00  0.00     0.251 C 
ATOM     31  H   UNL A   1      31.711  36.923  30.682  1.00  0.00     0.163 HD
ATOM     32  O   UNL A   1      31.808  35.715  32.765  1.00  0.00    -0.269 OA
BRANCH  30  33
ATOM     33  C   UNL A   1      33.913  34.885  32.148  1.00  0.00     0.039 A 
ATOM     34  C   UNL A   1      35.134  35.560  32.207  1.00  0.00     0.014 A 
ATOM     35  C   UNL A   1      33.877  33.497  32.303  1.00  0.00     0.014 A 
ATOM     36  C   UNL A   1      36.307  34.853  32.484  1.00  0.00     0.010 A 
ATOM     37  C   UNL A   1      35.034  32.805  32.661  1.00  0.00     0.010 A 
ATOM     38  C   UNL A   1      36.262  33.474  32.755  1.00  0.00    -0.014 A 
BRANCH  38  39
ATOM     39  C   UNL A   1      37.490  32.747  33.171  1.00  0.00     0.031 A 
ATOM     40  C   UNL A   1      38.137  31.733  32.268  1.00  0.00     0.074 A 
ATOM     41  C   UNL A   1      38.011  32.984  34.392  1.00  0.00     0.049 A 
ATOM     42  N   UNL A   1      39.238  31.046  32.455  1.00  0.00    -0.248 NA
ATOM     43  C   UNL A   1      37.452  31.432  31.003  1.00  0.00     0.031 C 
ATOM     44  C   UNL A   1      37.455  33.907  35.384  1.00  0.00     0.029 A 
ATOM     45  N   UNL A   1      39.132  32.480  35.001  1.00  0.00    -0.354 N 
ATOM     46  C   UNL A   1      39.369  30.228  31.340  1.00  0.00     0.074 A 
ATOM     47  C   UNL A   1      38.209  30.464  30.509  1.00  0.00     0.031 C 
ATOM     48  C   UNL A   1      38.266  33.947  36.452  1.00  0.00     0.029 A 
ATOM     49  C   UNL A   1      39.373  33.020  36.242  1.00  0.00     0.049 A 
ATOM     50  H   UNL A   1      39.709  31.797  34.589  1.00  0.00     0.167 HD
ATOM     51  C   UNL A   1      40.371  29.370  31.028  1.00  0.00     0.031 A 
ATOM     52  C   UNL A   1      40.376  32.801  37.113  1.00  0.00     0.031 A 
ATOM     53  C   UNL A   1      41.522  29.128  31.861  1.00  0.00     0.049 A 
ATOM     54  C   UNL A   1      41.462  31.828  36.752  1.00  0.00     0.074 A 
ATOM     55  C   UNL A   1      42.621  28.327  31.601  1.00  0.00     0.029 A 
ATOM     56  N   UNL A   1      41.712  29.670  33.123  1.00  0.00    -0.354 N 
ATOM     57  N   UNL A   1      41.621  31.134  35.651  1.00  0.00    -0.248 NA
ATOM     58  C   UNL A   1      42.516  31.621  37.754  1.00  0.00     0.031 C 
ATOM     59  C   UNL A   1      43.440  28.327  32.737  1.00  0.00     0.029 A 
ATOM     60  C   UNL A   1      42.891  29.188  33.674  1.00  0.00     0.049 A 
ATOM     61  H   UNL A   1      41.102  30.304  33.563  1.00  0.00     0.167 HD
ATOM     62  C   UNL A   1      42.804  30.426  35.817  1.00  0.00     0.074 A 
ATOM     63  C   UNL A   1      43.335  30.800  37.113  1.00  0.00     0.031 C 
ATOM     64  C   UNL A   1      43.398  29.546  34.974  1.00  0.00     0.031 A 
BRANCH  51  65
ATOM     65  C   UNL A   1      40.249  28.604  29.735  1.00  0.00    -0.014 A 
ATOM     66  C   UNL A   1      40.745  29.118  28.526  1.00  0.00     0.009 A 
ATOM     67  C   UNL A   1      39.649  27.335  29.733  1.00  0.00     0.009 A 
ATOM     68  C   UNL A   1      40.600  28.400  27.337  1.00  0.00     0.001 A 
ATOM     69  C   UNL A   1      39.537  26.603  28.549  1.00  0.00     0.001 A 
ATOM     70  C   UNL A   1      40.000  27.142  27.349  1.00  0.00     0.000 A 
ENDBRANCH  51  65
BRANCH  52  71
ATOM     71  C   UNL A   1      40.418  33.542  38.401  1.00  0.00    -0.014 A 
ATOM     72  C   UNL A   1      41.111  34.758  38.500  1.00  0.00     0.009 A 
ATOM     73  C   UNL A   1      39.771  33.037  39.540  1.00  0.00     0.009 A 
ATOM     74  C   UNL A   1      41.177  35.440  39.717  1.00  0.00     0.001 A 
ATOM     75  C   UNL A   1      39.811  33.737  40.748  1.00  0.00     0.001 A 
ATOM     76  C   UNL A   1      40.522  34.933  40.837  1.00  0.00     0.000 A 
ENDBRANCH  52  71
BRANCH  64  77
ATOM     77  C   UNL A   1      44.703  28.946  35.424  1.00  0.00    -0.014 A 
ATOM     78  C   UNL A   1      45.933  29.564  35.140  1.00  0.00     0.009 A 
ATOM     79  C   UNL A   1      44.704  27.741  36.145  1.00  0.00     0.009 A 
ATOM     80  C   UNL A   1      47.134  28.960  35.518  1.00  0.00     0.001 A 
ATOM     81  C   UNL A   1      45.904  27.159  36.556  1.00  0.00     0.001 A 
ATOM     82  C   UNL A   1      47.119  27.760  36.228  1.00  0.00     0.000 A 
ENDBRANCH  64  77
ENDBRANCH  38  39
ENDBRANCH  30  33
ENDBRANCH  28  29
ENDBRANCH  27  28
ENDBRANCH  26  27
ENDBRANCH   1  26
TORSDOF 16
ENDMDL
MODEL 3
REMARK VINA RESULT:     -11.2      3.128      9.588
REMARK SMILES O=C(C[C@H]1C[C@H]2CC[C@@H](C1)[N@H+]2C[C@@H]1CNC(=O)O1)NCCCCCCNC(=O)c1ccc(-c2c3nc(c(-c4ccccc4)c4ccc([nH]4)c(-c4ccccc4)c4nc(c(-c5ccccc5)c5ccc2[nH]5)C=C4)C=C3)cc1
REMARK SMILES IDX 22 1 21 2 20 3 19 4 1 5 2 6 3 8 4 9 5 10 10 11 6 12 9 13
REMARK SMILES IDX 7 14 11 15 8 16 12 18 13 19 14 20 18 21 15 22 16 23 17 25
REMARK SMILES IDX 23 26 24 27 25 28 26 29 27 30 28 32 29 33 30 34 76 35 31 36
REMARK SMILES IDX 75 37 32 38 33 39 34 40 69 41 35 42 74 43 68 44 70 45 36 46
REMARK SMILES IDX 73 47 67 48 66 49 37 51 59 52 44 53 58 54 45 55 48 56 57 57
REMARK SMILES IDX 71 58 46 59 47 60 56 62 72 63 49 64 38 65 39 66 43 67 40 68
REMARK SMILES IDX 42 69 41 70 60 71 61 72 65 73 62 74 64 75 63 76 50 77 51 78
REMARK SMILES IDX 55 79 52 80 54 81 53 82
REMARK H PARENT 19 7 11 17 15 24 26 31 70 50 48 61
REMARK Flexibility Score: inf
ROOT
ATOM      1  C   UNL A   1      35.464  21.947  25.862  1.00  0.00     0.002 C 
ENDROOT
BRANCH   1   2
ATOM      2  C   UNL A   1      34.098  21.455  26.368  1.00  0.00     0.021 C 
BRANCH   2   3
ATOM      3  C   UNL A   1      32.895  22.251  25.856  1.00  0.00     0.116 C 
BRANCH   3   4
ATOM      4  N   UNL A   1      33.187  23.666  25.868  1.00  0.00    -0.356 N 
ATOM      5  O   UNL A   1      31.462  24.290  27.227  1.00  0.00    -0.275 OA
ATOM      6  C   UNL A   1      32.401  24.600  26.498  1.00  0.00     0.220 C 
ATOM      7  H   UNL A   1      33.994  23.978  25.399  1.00  0.00     0.163 HD
BRANCH   6   8
ATOM      8  C   UNL A   1      32.671  26.064  26.145  1.00  0.00     0.104 C 
BRANCH   8   9
ATOM      9  C   UNL A   1      31.475  26.848  25.577  1.00  0.00     0.010 C 
ATOM     10  C   UNL A   1      31.611  28.373  25.849  1.00  0.00     0.069 C 
ATOM     11  C   UNL A   1      31.170  26.460  24.106  1.00  0.00     0.069 C 
ATOM     12  C   UNL A   1      31.669  29.281  24.629  1.00  0.00     0.184 C 
ATOM     13  C   UNL A   1      31.295  27.597  23.094  1.00  0.00     0.184 C 
ATOM     14  C   UNL A   1      33.016  29.102  23.917  1.00  0.00     0.071 C 
ATOM     15  N   UNL A   1      30.753  28.842  23.606  1.00  0.00    -0.327 N 
ATOM     16  C   UNL A   1      32.781  27.960  22.929  1.00  0.00     0.071 C 
ATOM     17  H   UNL A   1      30.687  29.538  22.864  1.00  0.00     0.348 HD
BRANCH  15  18
ATOM     18  C   UNL A   1      29.333  29.156  23.610  1.00  0.00     0.310 C 
BRANCH  18  19
ATOM     19  C   UNL A   1      28.538  30.186  22.760  1.00  0.00     0.252 C 
ATOM     20  C   UNL A   1      29.055  30.596  21.396  1.00  0.00     0.170 C 
ATOM     21  O   UNL A   1      28.260  31.412  23.453  1.00  0.00    -0.438 OA
ATOM     22  N   UNL A   1      29.232  31.999  21.525  1.00  0.00    -0.318 N 
ATOM     23  C   UNL A   1      28.684  32.459  22.687  1.00  0.00     0.407 C 
ATOM     24  H   UNL A   1      29.691  32.565  20.863  1.00  0.00     0.167 HD
ATOM     25  O   UNL A   1      28.611  33.631  23.005  1.00  0.00    -0.225 OA
ENDBRANCH  18  19
ENDBRANCH  15  18
ENDBRANCH   8   9
ENDBRANCH   6   8
ENDBRANCH   3   4
ENDBRANCH   2   3
ENDBRANCH   1   2
BRANCH   1  26
ATOM     26  C   UNL A   1      36.027  21.207  24.644  1.00  0.00     0.002 C 
BRANCH  26  27
ATOM     27  C   UNL A   1      37.083  20.146  24.956  1.00  0.00     0.021 C 
BRANCH  27  28
ATOM     28  C   UNL A   1      38.386  20.680  25.544  1.00  0.00     0.116 C 
BRANCH  28  29
ATOM     29  N   UNL A   1      39.432  19.672  25.586  1.00  0.00    -0.352 N 
ATOM     30  C   UNL A   1      40.749  19.787  25.959  1.00  0.00     0.251 C 
ATOM     31  H   UNL A   1      39.156  18.770  25.304  1.00  0.00     0.163 HD
ATOM     32  O   UNL A   1      41.522  18.854  25.757  1.00  0.00    -0.269 OA
BRANCH  30  33
ATOM     33  C   UNL A   1      41.253  21.035  26.576  1.00  0.00     0.039 A 
ATOM     34  C   UNL A   1      41.812  22.010  25.748  1.00  0.00     0.014 A 
ATOM     35  C   UNL A   1      41.195  21.245  27.956  1.00  0.00     0.014 A 
ATOM     36  C   UNL A   1      42.253  23.218  26.294  1.00  0.00     0.010 A 
ATOM     37  C   UNL A   1      41.558  22.481  28.490  1.00  0.00     0.010 A 
ATOM     38  C   UNL A   1      42.092  23.482  27.666  1.00  0.00    -0.014 A 
BRANCH  38  39
ATOM     39  C   UNL A   1      42.445  24.813  28.224  1.00  0.00     0.031 A 
ATOM     40  C   UNL A   1      43.863  25.147  28.601  1.00  0.00     0.074 A 
ATOM     41  C   UNL A   1      41.470  25.722  28.422  1.00  0.00     0.049 A 
ATOM     42  N   UNL A   1      44.352  26.275  29.054  1.00  0.00    -0.248 NA
ATOM     43  C   UNL A   1      44.858  24.071  28.475  1.00  0.00     0.031 C 
ATOM     44  C   UNL A   1      40.047  25.511  28.145  1.00  0.00     0.029 A 
ATOM     45  N   UNL A   1      41.528  27.012  28.889  1.00  0.00    -0.354 N 
ATOM     46  C   UNL A   1      45.704  26.042  29.276  1.00  0.00     0.074 A 
ATOM     47  C   UNL A   1      45.946  24.651  28.960  1.00  0.00     0.031 C 
ATOM     48  C   UNL A   1      39.377  26.646  28.391  1.00  0.00     0.029 A 
ATOM     49  C   UNL A   1      40.311  27.651  28.887  1.00  0.00     0.049 A 
ATOM     50  H   UNL A   1      42.360  27.438  29.195  1.00  0.00     0.167 HD
ATOM     51  C   UNL A   1      46.660  26.909  29.689  1.00  0.00     0.031 A 
ATOM     52  C   UNL A   1      39.982  28.909  29.237  1.00  0.00     0.031 A 
ATOM     53  C   UNL A   1      46.416  28.292  30.013  1.00  0.00     0.049 A 
ATOM     54  C   UNL A   1      41.058  29.843  29.714  1.00  0.00     0.074 A 
ATOM     55  C   UNL A   1      47.331  29.266  30.378  1.00  0.00     0.029 A 
ATOM     56  N   UNL A   1      45.167  28.892  30.029  1.00  0.00    -0.354 N 
ATOM     57  N   UNL A   1      42.347  29.634  29.827  1.00  0.00    -0.248 NA
ATOM     58  C   UNL A   1      40.629  31.194  30.099  1.00  0.00     0.031 C 
ATOM     59  C   UNL A   1      46.625  30.435  30.686  1.00  0.00     0.029 A 
ATOM     60  C   UNL A   1      45.280  30.212  30.439  1.00  0.00     0.049 A 
ATOM     61  H   UNL A   1      44.324  28.447  29.785  1.00  0.00     0.167 HD
ATOM     62  C   UNL A   1      42.887  30.833  30.272  1.00  0.00     0.074 A 
ATOM     63  C   UNL A   1      41.788  31.771  30.380  1.00  0.00     0.031 C 
ATOM     64  C   UNL A   1      44.177  31.132  30.566  1.00  0.00     0.031 A 
BRANCH  51  65
ATOM     65  C   UNL A   1      48.061  26.373  29.843  1.00  0.00    -0.014 A 
ATOM     66  C   UNL A   1      48.500  25.798  31.046  1.00  0.00     0.009 A 
ATOM     67  C   UNL A   1      48.948  26.423  28.756  1.00  0.00     0.009 A 
ATOM     68  C   UNL A   1      49.810  25.329  31.173  1.00  0.00     0.001 A 
ATOM     69  C   UNL A   1      50.245  25.921  28.873  1.00  0.00     0.001 A 
ATOM     70  C   UNL A   1      50.681  25.387  30.086  1.00  0.00     0.000 A 
ENDBRANCH  51  65
BRANCH  52  71
ATOM     71  C   UNL A   1      38.574  29.370  29.120  1.00  0.00    -0.014 A 
ATOM     72  C   UNL A   1      38.102  29.917  27.917  1.00  0.00     0.009 A 
ATOM     73  C   UNL A   1      37.694  29.271  30.210  1.00  0.00     0.009 A 
ATOM     74  C   UNL A   1      36.787  30.379  27.815  1.00  0.00     0.001 A 
ATOM     75  C   UNL A   1      36.371  29.702  30.095  1.00  0.00     0.001 A 
ATOM     76  C   UNL A   1      35.922  30.265  28.901  1.00  0.00     0.000 A 
ENDBRANCH  52  71
BRANCH  64  77
ATOM     77  C   UNL A   1      44.466  32.540  31.011  1.00  0.00    -0.014 A 
ATOM     78  C   UNL A   1      44.747  33.560  30.086  1.00  0.00     0.009 A 
ATOM     79  C   UNL A   1      44.458  32.854  32.380  1.00  0.00     0.009 A 
ATOM     80  C   UNL A   1      45.068  34.846  30.525  1.00  0.00     0.001 A 
ATOM     81  C   UNL A   1      44.741  34.150  32.814  1.00  0.00     0.001 A 
ATOM     82  C   UNL A   1      45.062  35.141  31.888  1.00  0.00     0.000 A 
ENDBRANCH  64  77
ENDBRANCH  38  39
ENDBRANCH  30  33
ENDBRANCH  28  29
ENDBRANCH  27  28
ENDBRANCH  26  27
ENDBRANCH   1  26
TORSDOF 16
ENDMDL
