MODEL 1
REMARK VINA RESULT:     -11.0      0.000      0.000
REMARK SMILES CC(C)c1ccc([C@]2(C(=O)NCCCCCCNC(=O)c3ccc(-c4c5nc(c(-c6ccccc6)c6ccc([nH]6)c(-c6ccccc6)c6nc(c(-c7ccccc7)c7ccc4[nH]7)C=C6)C=C5)cc3)CCC[C@@H]2C)cc1
REMARK SMILES IDX 14 1 13 2 12 3 11 4 9 5 10 6 8 8 69 9 72 10 70 11 71 12
REMARK SMILES IDX 73 13 7 14 4 15 5 16 75 17 6 18 74 19 2 20 1 21 3 22 15 23
REMARK SMILES IDX 16 24 17 25 18 26 19 27 20 29 21 30 22 31 68 32 23 33 67 34
REMARK SMILES IDX 24 35 25 36 26 37 61 38 27 39 66 40 60 41 62 42 28 43 65 44
REMARK SMILES IDX 59 45 58 46 29 48 51 49 36 50 50 51 37 52 40 53 49 54 63 55
REMARK SMILES IDX 38 56 39 57 48 59 64 60 41 61 30 62 31 63 35 64 32 65 34 66
REMARK SMILES IDX 33 67 52 68 53 69 57 70 54 71 56 72 55 73 42 74 43 75 47 76
REMARK SMILES IDX 44 77 46 78 45 79
REMARK H PARENT 11 7 18 28 62 47 40 58
REMARK Flexibility Score: inf
ROOT
ATOM      1  C   UNL A   1      38.510  22.299  25.946  1.00  0.00     0.002 C 
ENDROOT
BRANCH   1   2
ATOM      2  C   UNL A   1      37.763  23.622  26.097  1.00  0.00     0.021 C 
BRANCH   2   3
ATOM      3  C   UNL A   1      36.305  23.597  25.667  1.00  0.00     0.116 C 
BRANCH   3   4
ATOM      4  N   UNL A   1      35.364  23.253  26.698  1.00  0.00    -0.355 N 
ATOM      5  C   UNL A   1      34.235  22.493  26.685  1.00  0.00     0.230 C 
ATOM      6  O   UNL A   1      33.952  22.042  27.807  1.00  0.00    -0.274 OA
ATOM      7  H   UNL A   1      35.576  23.639  27.579  1.00  0.00     0.163 HD
BRANCH   5   8
ATOM      8  C   UNL A   1      33.301  22.188  25.421  1.00  0.00     0.077 C 
ATOM      9  C   UNL A   1      31.802  22.503  25.686  1.00  0.00     0.022 C 
ATOM     10  C   UNL A   1      33.617  23.094  24.165  1.00  0.00     0.006 C 
ATOM     11  C   UNL A   1      31.443  23.806  24.960  1.00  0.00     0.002 C 
ATOM     12  C   UNL A   1      32.723  24.331  24.314  1.00  0.00     0.005 C 
ATOM     13  C   UNL A   1      33.270  22.557  22.757  1.00  0.00     0.009 C 
BRANCH   8  14
ATOM     14  C   UNL A   1      33.500  20.663  25.161  1.00  0.00    -0.032 A 
ATOM     15  C   UNL A   1      33.862  17.869  24.720  1.00  0.00    -0.045 A 
ATOM     16  C   UNL A   1      32.584  18.414  24.875  1.00  0.00     0.004 A 
ATOM     17  C   UNL A   1      34.948  18.752  24.676  1.00  0.00     0.004 A 
ATOM     18  C   UNL A   1      32.407  19.790  25.041  1.00  0.00     0.005 A 
ATOM     19  C   UNL A   1      34.770  20.124  24.899  1.00  0.00     0.005 A 
BRANCH  15  20
ATOM     20  C   UNL A   1      34.010  16.368  24.559  1.00  0.00     0.013 C 
ATOM     21  C   UNL A   1      35.323  15.887  25.177  1.00  0.00     0.012 C 
ATOM     22  C   UNL A   1      32.824  15.571  25.111  1.00  0.00     0.012 C 
ENDBRANCH  15  20
ENDBRANCH   8  14
ENDBRANCH   5   8
ENDBRANCH   3   4
ENDBRANCH   2   3
ENDBRANCH   1   2
BRANCH   1  23
ATOM     23  C   UNL A   1      37.919  21.309  24.935  1.00  0.00     0.002 C 
BRANCH  23  24
ATOM     24  C   UNL A   1      38.475  19.880  24.985  1.00  0.00     0.021 C 
BRANCH  24  25
ATOM     25  C   UNL A   1      39.337  19.561  26.204  1.00  0.00     0.116 C 
BRANCH  25  26
ATOM     26  N   UNL A   1      40.646  19.053  25.830  1.00  0.00    -0.352 N 
ATOM     27  C   UNL A   1      41.859  19.693  25.784  1.00  0.00     0.251 C 
ATOM     28  H   UNL A   1      40.667  18.103  25.571  1.00  0.00     0.163 HD
ATOM     29  O   UNL A   1      42.816  19.162  25.233  1.00  0.00    -0.269 OA
BRANCH  27  30
ATOM     30  C   UNL A   1      42.008  21.035  26.385  1.00  0.00     0.039 A 
ATOM     31  C   UNL A   1      41.922  21.167  27.772  1.00  0.00     0.014 A 
ATOM     32  C   UNL A   1      42.217  22.159  25.581  1.00  0.00     0.014 A 
ATOM     33  C   UNL A   1      42.123  22.417  28.362  1.00  0.00     0.010 A 
ATOM     34  C   UNL A   1      42.479  23.391  26.173  1.00  0.00     0.010 A 
ATOM     35  C   UNL A   1      42.446  23.530  27.569  1.00  0.00    -0.014 A 
BRANCH  35  36
ATOM     36  C   UNL A   1      42.803  24.834  28.182  1.00  0.00     0.031 A 
ATOM     37  C   UNL A   1      41.751  25.885  28.405  1.00  0.00     0.074 A 
ATOM     38  C   UNL A   1      44.096  25.101  28.452  1.00  0.00     0.049 A 
ATOM     39  N   UNL A   1      41.893  27.112  28.838  1.00  0.00    -0.248 NA
ATOM     40  C   UNL A   1      40.363  25.521  28.076  1.00  0.00     0.031 C 
ATOM     41  C   UNL A   1      45.215  24.178  28.241  1.00  0.00     0.029 A 
ATOM     42  N   UNL A   1      44.693  26.235  28.944  1.00  0.00    -0.354 N 
ATOM     43  C   UNL A   1      40.623  27.672  28.814  1.00  0.00     0.074 A 
ATOM     44  C   UNL A   1      39.725  26.663  28.294  1.00  0.00     0.031 C 
ATOM     45  C   UNL A   1      46.357  24.778  28.610  1.00  0.00     0.029 A 
ATOM     46  C   UNL A   1      46.062  26.141  29.038  1.00  0.00     0.049 A 
ATOM     47  H   UNL A   1      44.189  27.039  29.205  1.00  0.00     0.167 HD
ATOM     48  C   UNL A   1      40.240  28.912  29.198  1.00  0.00     0.031 A 
ATOM     49  C   UNL A   1      46.980  27.056  29.402  1.00  0.00     0.031 A 
ATOM     50  C   UNL A   1      41.133  29.906  29.733  1.00  0.00     0.049 A 
ATOM     51  C   UNL A   1      46.523  28.433  29.799  1.00  0.00     0.074 A 
ATOM     52  C   UNL A   1      40.822  31.157  30.236  1.00  0.00     0.029 A 
ATOM     53  N   UNL A   1      42.508  29.767  29.821  1.00  0.00    -0.354 N 
ATOM     54  N   UNL A   1      45.305  28.910  29.869  1.00  0.00    -0.248 NA
ATOM     55  C   UNL A   1      47.570  29.398  30.169  1.00  0.00     0.031 C 
ATOM     56  C   UNL A   1      42.017  31.804  30.561  1.00  0.00     0.029 A 
ATOM     57  C   UNL A   1      43.065  30.931  30.321  1.00  0.00     0.049 A 
ATOM     58  H   UNL A   1      43.013  28.962  29.565  1.00  0.00     0.167 HD
ATOM     59  C   UNL A   1      45.437  30.221  30.309  1.00  0.00     0.074 A 
ATOM     60  C   UNL A   1      46.851  30.456  30.514  1.00  0.00     0.031 C 
ATOM     61  C   UNL A   1      44.473  31.150  30.518  1.00  0.00     0.031 A 
BRANCH  48  62
ATOM     62  C   UNL A   1      38.791  29.285  29.044  1.00  0.00    -0.014 A 
ATOM     63  C   UNL A   1      38.270  29.698  27.810  1.00  0.00     0.009 A 
ATOM     64  C   UNL A   1      37.919  29.135  30.135  1.00  0.00     0.009 A 
ATOM     65  C   UNL A   1      36.906  29.973  27.675  1.00  0.00     0.001 A 
ATOM     66  C   UNL A   1      36.553  29.384  29.991  1.00  0.00     0.001 A 
ATOM     67  C   UNL A   1      36.049  29.808  28.763  1.00  0.00     0.000 A 
ENDBRANCH  48  62
BRANCH  49  68
ATOM     68  C   UNL A   1      48.428  26.720  29.378  1.00  0.00    -0.014 A 
ATOM     69  C   UNL A   1      49.056  26.173  30.508  1.00  0.00     0.009 A 
ATOM     70  C   UNL A   1      49.201  26.978  28.233  1.00  0.00     0.009 A 
ATOM     71  C   UNL A   1      50.433  25.931  30.504  1.00  0.00     0.001 A 
ATOM     72  C   UNL A   1      50.569  26.701  28.222  1.00  0.00     0.001 A 
ATOM     73  C   UNL A   1      51.187  26.191  29.362  1.00  0.00     0.000 A 
ENDBRANCH  49  68
BRANCH  61  74
ATOM     74  C   UNL A   1      44.912  32.500  31.009  1.00  0.00    -0.014 A 
ATOM     75  C   UNL A   1      45.059  32.760  32.380  1.00  0.00     0.009 A 
ATOM     76  C   UNL A   1      45.240  33.506  30.085  1.00  0.00     0.009 A 
ATOM     77  C   UNL A   1      45.501  34.010  32.817  1.00  0.00     0.001 A 
ATOM     78  C   UNL A   1      45.711  34.743  30.525  1.00  0.00     0.001 A 
ATOM     79  C   UNL A   1      45.834  34.997  31.890  1.00  0.00     0.000 A 
ENDBRANCH  61  74
ENDBRANCH  35  36
ENDBRANCH  27  30
ENDBRANCH  25  26
ENDBRANCH  24  25
ENDBRANCH  23  24
ENDBRANCH   1  23
TORSDOF 15
ENDMDL
MODEL 2
REMARK VINA RESULT:     -10.8      2.107      7.085
REMARK SMILES CC(C)c1ccc([C@]2(C(=O)NCCCCCCNC(=O)c3ccc(-c4c5nc(c(-c6ccccc6)c6ccc([nH]6)c(-c6ccccc6)c6nc(c(-c7ccccc7)c7ccc4[nH]7)C=C6)C=C5)cc3)CCC[C@@H]2C)cc1
REMARK SMILES IDX 14 1 13 2 12 3 11 4 9 5 10 6 8 8 69 9 72 10 70 11 71 12
REMARK SMILES IDX 73 13 7 14 4 15 5 16 75 17 6 18 74 19 2 20 1 21 3 22 15 23
REMARK SMILES IDX 16 24 17 25 18 26 19 27 20 29 21 30 22 31 68 32 23 33 67 34
REMARK SMILES IDX 24 35 25 36 26 37 61 38 27 39 66 40 60 41 62 42 28 43 65 44
REMARK SMILES IDX 59 45 58 46 29 48 51 49 36 50 50 51 37 52 40 53 49 54 63 55
REMARK SMILES IDX 38 56 39 57 48 59 64 60 41 61 30 62 31 63 35 64 32 65 34 66
REMARK SMILES IDX 33 67 52 68 53 69 57 70 54 71 56 72 55 73 42 74 43 75 47 76
REMARK SMILES IDX 44 77 46 78 45 79
REMARK H PARENT 11 7 18 28 62 47 40 58
REMARK Flexibility Score: inf
ROOT
ATOM      1  C   UNL A   1      33.274  27.394  23.993  1.00  0.00     0.002 C 
ENDROOT
BRANCH   1   2
ATOM      2  C   UNL A   1      32.024  26.586  24.330  1.00  0.00     0.021 C 
BRANCH   2   3
ATOM      3  C   UNL A   1      32.155  25.082  24.150  1.00  0.00     0.116 C 
BRANCH   3   4
ATOM      4  N   UNL A   1      33.142  24.660  23.194  1.00  0.00    -0.355 N 
ATOM      5  C   UNL A   1      34.058  23.653  23.215  1.00  0.00     0.230 C 
ATOM      6  O   UNL A   1      34.402  23.299  22.075  1.00  0.00    -0.274 OA
ATOM      7  H   UNL A   1      33.159  25.199  22.371  1.00  0.00     0.163 HD
BRANCH   5   8
ATOM      8  C   UNL A   1      34.695  22.965  24.512  1.00  0.00     0.077 C 
ATOM      9  C   UNL A   1      36.249  23.020  24.524  1.00  0.00     0.022 C 
ATOM     10  C   UNL A   1      34.323  23.693  25.864  1.00  0.00     0.006 C 
ATOM     11  C   UNL A   1      36.690  24.088  25.535  1.00  0.00     0.002 C 
ATOM     12  C   UNL A   1      35.423  24.738  26.086  1.00  0.00     0.005 C 
ATOM     13  C   UNL A   1      34.328  22.871  27.175  1.00  0.00     0.009 C 
BRANCH   8  14
ATOM     14  C   UNL A   1      34.204  21.487  24.439  1.00  0.00    -0.032 A 
ATOM     15  C   UNL A   1      33.317  18.781  24.272  1.00  0.00    -0.045 A 
ATOM     16  C   UNL A   1      34.620  19.088  24.672  1.00  0.00     0.004 A 
ATOM     17  C   UNL A   1      32.429  19.844  24.066  1.00  0.00     0.004 A 
ATOM     18  C   UNL A   1      35.037  20.416  24.801  1.00  0.00     0.005 A 
ATOM     19  C   UNL A   1      32.867  21.173  24.142  1.00  0.00     0.005 A 
BRANCH  15  20
ATOM     20  C   UNL A   1      32.912  17.326  24.130  1.00  0.00     0.013 C 
ATOM     21  C   UNL A   1      33.957  16.553  23.325  1.00  0.00     0.012 C 
ATOM     22  C   UNL A   1      32.632  16.633  25.467  1.00  0.00     0.012 C 
ENDBRANCH  15  20
ENDBRANCH   8  14
ENDBRANCH   5   8
ENDBRANCH   3   4
ENDBRANCH   2   3
ENDBRANCH   1   2
BRANCH   1  23
ATOM     23  C   UNL A   1      33.644  28.501  24.988  1.00  0.00     0.002 C 
BRANCH  23  24
ATOM     24  C   UNL A   1      34.070  28.037  26.386  1.00  0.00     0.021 C 
BRANCH  24  25
ATOM     25  C   UNL A   1      33.318  28.687  27.544  1.00  0.00     0.116 C 
BRANCH  25  26
ATOM     26  N   UNL A   1      33.482  30.131  27.562  1.00  0.00    -0.352 N 
ATOM     27  C   UNL A   1      34.545  30.891  27.980  1.00  0.00     0.251 C 
ATOM     28  H   UNL A   1      32.713  30.642  27.221  1.00  0.00     0.163 HD
ATOM     29  O   UNL A   1      34.418  32.102  28.126  1.00  0.00    -0.269 OA
BRANCH  27  30
ATOM     30  C   UNL A   1      35.842  30.248  28.271  1.00  0.00     0.039 A 
ATOM     31  C   UNL A   1      36.806  30.182  27.263  1.00  0.00     0.014 A 
ATOM     32  C   UNL A   1      36.102  29.700  29.530  1.00  0.00     0.014 A 
ATOM     33  C   UNL A   1      38.061  29.634  27.539  1.00  0.00     0.010 A 
ATOM     34  C   UNL A   1      37.372  29.212  29.823  1.00  0.00     0.010 A 
ATOM     35  C   UNL A   1      38.367  29.185  28.833  1.00  0.00    -0.014 A 
BRANCH  35  36
ATOM     36  C   UNL A   1      39.736  28.731  29.186  1.00  0.00     0.031 A 
ATOM     37  C   UNL A   1      40.705  29.673  29.846  1.00  0.00     0.074 A 
ATOM     38  C   UNL A   1      40.131  27.493  28.828  1.00  0.00     0.049 A 
ATOM     39  N   UNL A   1      41.966  29.483  30.141  1.00  0.00    -0.248 NA
ATOM     40  C   UNL A   1      40.201  31.011  30.198  1.00  0.00     0.031 C 
ATOM     41  C   UNL A   1      39.296  26.501  28.145  1.00  0.00     0.029 A 
ATOM     42  N   UNL A   1      41.344  26.864  28.968  1.00  0.00    -0.354 N 
ATOM     43  C   UNL A   1      42.410  30.678  30.691  1.00  0.00     0.074 A 
ATOM     44  C   UNL A   1      41.295  31.599  30.661  1.00  0.00     0.031 C 
ATOM     45  C   UNL A   1      40.016  25.388  27.938  1.00  0.00     0.029 A 
ATOM     46  C   UNL A   1      41.374  25.601  28.425  1.00  0.00     0.049 A 
ATOM     47  H   UNL A   1      42.117  27.278  29.415  1.00  0.00     0.167 HD
ATOM     48  C   UNL A   1      43.636  30.976  31.183  1.00  0.00     0.031 A 
ATOM     49  C   UNL A   1      42.388  24.723  28.308  1.00  0.00     0.031 A 
ATOM     50  C   UNL A   1      44.737  30.050  31.228  1.00  0.00     0.049 A 
ATOM     51  C   UNL A   1      43.744  25.095  28.843  1.00  0.00     0.074 A 
ATOM     52  C   UNL A   1      45.988  30.231  31.792  1.00  0.00     0.029 A 
ATOM     53  N   UNL A   1      44.724  28.779  30.678  1.00  0.00    -0.354 N 
ATOM     54  N   UNL A   1      44.118  26.192  29.454  1.00  0.00    -0.248 NA
ATOM     55  C   UNL A   1      44.819  24.105  28.671  1.00  0.00     0.031 C 
ATOM     56  C   UNL A   1      46.756  29.097  31.520  1.00  0.00     0.029 A 
ATOM     57  C   UNL A   1      45.963  28.185  30.843  1.00  0.00     0.049 A 
ATOM     58  H   UNL A   1      43.950  28.362  30.234  1.00  0.00     0.167 HD
ATOM     59  C   UNL A   1      45.462  26.016  29.758  1.00  0.00     0.074 A 
ATOM     60  C   UNL A   1      45.832  24.698  29.287  1.00  0.00     0.031 C 
ATOM     61  C   UNL A   1      46.316  26.874  30.367  1.00  0.00     0.031 A 
BRANCH  48  62
ATOM     62  C   UNL A   1      43.870  32.367  31.703  1.00  0.00    -0.014 A 
ATOM     63  C   UNL A   1      44.304  33.400  30.859  1.00  0.00     0.009 A 
ATOM     64  C   UNL A   1      43.567  32.664  33.042  1.00  0.00     0.009 A 
ATOM     65  C   UNL A   1      44.450  34.699  31.351  1.00  0.00     0.001 A 
ATOM     66  C   UNL A   1      43.687  33.969  33.524  1.00  0.00     0.001 A 
ATOM     67  C   UNL A   1      44.134  34.984  32.679  1.00  0.00     0.000 A 
ENDBRANCH  48  62
BRANCH  49  68
ATOM     68  C   UNL A   1      42.178  23.417  27.629  1.00  0.00    -0.014 A 
ATOM     69  C   UNL A   1      42.541  23.241  26.285  1.00  0.00     0.009 A 
ATOM     70  C   UNL A   1      41.577  22.347  28.313  1.00  0.00     0.009 A 
ATOM     71  C   UNL A   1      42.271  22.035  25.631  1.00  0.00     0.001 A 
ATOM     72  C   UNL A   1      41.342  21.132  27.666  1.00  0.00     0.001 A 
ATOM     73  C   UNL A   1      41.675  20.982  26.322  1.00  0.00     0.000 A 
ENDBRANCH  49  68
BRANCH  61  74
ATOM     74  C   UNL A   1      47.729  26.408  30.574  1.00  0.00    -0.014 A 
ATOM     75  C   UNL A   1      48.718  26.640  29.607  1.00  0.00     0.009 A 
ATOM     76  C   UNL A   1      48.087  25.783  31.779  1.00  0.00     0.009 A 
ATOM     77  C   UNL A   1      50.033  26.231  29.831  1.00  0.00     0.001 A 
ATOM     78  C   UNL A   1      49.409  25.403  32.013  1.00  0.00     0.001 A 
ATOM     79  C   UNL A   1      50.379  25.621  31.036  1.00  0.00     0.000 A 
ENDBRANCH  61  74
ENDBRANCH  35  36
ENDBRANCH  27  30
ENDBRANCH  25  26
ENDBRANCH  24  25
ENDBRANCH  23  24
ENDBRANCH   1  23
TORSDOF 15
ENDMDL
MODEL 3
REMARK VINA RESULT:     -10.7      4.401      9.570
REMARK SMILES CC(C)c1ccc([C@]2(C(=O)NCCCCCCNC(=O)c3ccc(-c4c5nc(c(-c6ccccc6)c6ccc([nH]6)c(-c6ccccc6)c6nc(c(-c7ccccc7)c7ccc4[nH]7)C=C6)C=C5)cc3)CCC[C@@H]2C)cc1
REMARK SMILES IDX 14 1 13 2 12 3 11 4 9 5 10 6 8 8 69 9 72 10 70 11 71 12
REMARK SMILES IDX 73 13 7 14 4 15 5 16 75 17 6 18 74 19 2 20 1 21 3 22 15 23
REMARK SMILES IDX 16 24 17 25 18 26 19 27 20 29 21 30 22 31 68 32 23 33 67 34
REMARK SMILES IDX 24 35 25 36 26 37 61 38 27 39 66 40 60 41 62 42 28 43 65 44
REMARK SMILES IDX 59 45 58 46 29 48 51 49 36 50 50 51 37 52 40 53 49 54 63 55
REMARK SMILES IDX 38 56 39 57 48 59 64 60 41 61 30 62 31 63 35 64 32 65 34 66
REMARK SMILES IDX 33 67 52 68 53 69 57 70 54 71 56 72 55 73 42 74 43 75 47 76
REMARK SMILES IDX 44 77 46 78 45 79
REMARK H PARENT 11 7 18 28 62 47 40 58
REMARK Flexibility Score: inf
ROOT
ATOM      1  C   UNL A   1      33.166  29.053  27.204  1.00  0.00     0.002 C 
ENDROOT
BRANCH   1   2
ATOM      2  C   UNL A   1      33.980  28.543  26.017  1.00  0.00     0.021 C 
BRANCH   2   3
ATOM      3  C   UNL A   1      33.954  27.037  25.812  1.00  0.00     0.116 C 
BRANCH   3   4
ATOM      4  N   UNL A   1      33.911  26.603  24.442  1.00  0.00    -0.355 N 
ATOM      5  C   UNL A   1      32.873  26.349  23.598  1.00  0.00     0.230 C 
ATOM      6  O   UNL A   1      33.195  26.452  22.404  1.00  0.00    -0.274 OA
ATOM      7  H   UNL A   1      34.798  26.463  24.038  1.00  0.00     0.163 HD
BRANCH   5   8
ATOM      8  C   UNL A   1      31.385  25.930  24.013  1.00  0.00     0.077 C 
ATOM      9  C   UNL A   1      30.862  24.696  23.224  1.00  0.00     0.022 C 
ATOM     10  C   UNL A   1      31.254  25.449  25.513  1.00  0.00     0.006 C 
ATOM     11  C   UNL A   1      30.889  23.476  24.156  1.00  0.00     0.002 C 
ATOM     12  C   UNL A   1      31.491  23.935  25.481  1.00  0.00     0.005 C 
ATOM     13  C   UNL A   1      29.886  25.593  26.221  1.00  0.00     0.009 C 
BRANCH   8  14
ATOM     14  C   UNL A   1      30.529  27.190  23.680  1.00  0.00    -0.032 A 
ATOM     15  C   UNL A   1      28.961  29.503  23.107  1.00  0.00    -0.045 A 
ATOM     16  C   UNL A   1      30.343  29.598  23.292  1.00  0.00     0.004 A 
ATOM     17  C   UNL A   1      28.389  28.225  23.100  1.00  0.00     0.004 A 
ATOM     18  C   UNL A   1      31.115  28.456  23.523  1.00  0.00     0.005 A 
ATOM     19  C   UNL A   1      29.159  27.090  23.388  1.00  0.00     0.005 A 
BRANCH  15  20
ATOM     20  C   UNL A   1      28.158  30.769  22.875  1.00  0.00     0.013 C 
ATOM     21  C   UNL A   1      28.751  31.934  23.668  1.00  0.00     0.012 C 
ATOM     22  C   UNL A   1      28.008  31.138  21.396  1.00  0.00     0.012 C 
ENDBRANCH  15  20
ENDBRANCH   8  14
ENDBRANCH   5   8
ENDBRANCH   3   4
ENDBRANCH   2   3
ENDBRANCH   1   2
BRANCH   1  23
ATOM     23  C   UNL A   1      31.747  29.540  26.883  1.00  0.00     0.002 C 
BRANCH  23  24
ATOM     24  C   UNL A   1      31.578  31.053  26.701  1.00  0.00     0.021 C 
BRANCH  24  25
ATOM     25  C   UNL A   1      32.830  31.884  26.969  1.00  0.00     0.116 C 
BRANCH  25  26
ATOM     26  N   UNL A   1      32.509  33.244  27.369  1.00  0.00    -0.352 N 
ATOM     27  C   UNL A   1      33.113  34.056  28.295  1.00  0.00     0.251 C 
ATOM     28  H   UNL A   1      31.740  33.645  26.902  1.00  0.00     0.163 HD
ATOM     29  O   UNL A   1      32.568  35.093  28.655  1.00  0.00    -0.269 OA
BRANCH  27  30
ATOM     30  C   UNL A   1      34.417  33.671  28.874  1.00  0.00     0.039 A 
ATOM     31  C   UNL A   1      34.438  32.897  30.036  1.00  0.00     0.014 A 
ATOM     32  C   UNL A   1      35.613  34.084  28.281  1.00  0.00     0.014 A 
ATOM     33  C   UNL A   1      35.660  32.470  30.562  1.00  0.00     0.010 A 
ATOM     34  C   UNL A   1      36.826  33.607  28.769  1.00  0.00     0.010 A 
ATOM     35  C   UNL A   1      36.860  32.787  29.908  1.00  0.00    -0.014 A 
BRANCH  35  36
ATOM     36  C   UNL A   1      38.157  32.228  30.366  1.00  0.00     0.031 A 
ATOM     37  C   UNL A   1      38.672  30.933  29.801  1.00  0.00     0.074 A 
ATOM     38  C   UNL A   1      38.825  32.847  31.360  1.00  0.00     0.049 A 
ATOM     39  N   UNL A   1      39.732  30.248  30.146  1.00  0.00    -0.248 NA
ATOM     40  C   UNL A   1      37.881  30.313  28.725  1.00  0.00     0.031 C 
ATOM     41  C   UNL A   1      38.407  34.087  32.019  1.00  0.00     0.029 A 
ATOM     42  N   UNL A   1      39.988  32.506  32.006  1.00  0.00    -0.354 N 
ATOM     43  C   UNL A   1      39.725  29.111  29.350  1.00  0.00     0.074 A 
ATOM     44  C   UNL A   1      38.539  29.180  28.524  1.00  0.00     0.031 C 
ATOM     45  C   UNL A   1      39.303  34.408  32.964  1.00  0.00     0.029 A 
ATOM     46  C   UNL A   1      40.332  33.375  33.014  1.00  0.00     0.049 A 
ATOM     47  H   UNL A   1      40.524  31.716  31.768  1.00  0.00     0.167 HD
ATOM     48  C   UNL A   1      40.631  28.106  29.306  1.00  0.00     0.031 A 
ATOM     49  C   UNL A   1      41.346  33.332  33.899  1.00  0.00     0.031 A 
ATOM     50  C   UNL A   1      41.819  28.051  30.116  1.00  0.00     0.049 A 
ATOM     51  C   UNL A   1      42.321  32.188  33.840  1.00  0.00     0.074 A 
ATOM     52  C   UNL A   1      42.842  27.120  30.077  1.00  0.00     0.029 A 
ATOM     53  N   UNL A   1      42.135  28.954  31.117  1.00  0.00    -0.354 N 
ATOM     54  N   UNL A   1      42.355  31.175  33.009  1.00  0.00    -0.248 NA
ATOM     55  C   UNL A   1      43.398  32.182  34.842  1.00  0.00     0.031 C 
ATOM     56  C   UNL A   1      43.742  27.419  31.103  1.00  0.00     0.029 A 
ATOM     57  C   UNL A   1      43.312  28.572  31.738  1.00  0.00     0.049 A 
ATOM     58  H   UNL A   1      41.602  29.748  31.353  1.00  0.00     0.167 HD
ATOM     59  C   UNL A   1      43.466  30.424  33.375  1.00  0.00     0.074 A 
ATOM     60  C   UNL A   1      44.092  31.110  34.485  1.00  0.00     0.031 C 
ATOM     61  C   UNL A   1      43.921  29.265  32.842  1.00  0.00     0.031 A 
BRANCH  48  62
ATOM     62  C   UNL A   1      40.374  26.963  28.363  1.00  0.00    -0.014 A 
ATOM     63  C   UNL A   1      39.572  25.874  28.735  1.00  0.00     0.009 A 
ATOM     64  C   UNL A   1      40.875  27.022  27.053  1.00  0.00     0.009 A 
ATOM     65  C   UNL A   1      39.292  24.858  27.818  1.00  0.00     0.001 A 
ATOM     66  C   UNL A   1      40.572  26.019  26.131  1.00  0.00     0.001 A 
ATOM     67  C   UNL A   1      39.785  24.935  26.516  1.00  0.00     0.000 A 
ENDBRANCH  48  62
BRANCH  49  68
ATOM     68  C   UNL A   1      41.481  34.384  34.941  1.00  0.00    -0.014 A 
ATOM     69  C   UNL A   1      40.827  34.257  36.177  1.00  0.00     0.009 A 
ATOM     70  C   UNL A   1      42.237  35.541  34.692  1.00  0.00     0.009 A 
ATOM     71  C   UNL A   1      40.896  35.284  37.122  1.00  0.00     0.001 A 
ATOM     72  C   UNL A   1      42.332  36.549  35.654  1.00  0.00     0.001 A 
ATOM     73  C   UNL A   1      41.650  36.426  36.862  1.00  0.00     0.000 A 
ENDBRANCH  49  68
BRANCH  61  74
ATOM     74  C   UNL A   1      45.166  28.674  33.441  1.00  0.00    -0.014 A 
ATOM     75  C   UNL A   1      45.095  27.724  34.471  1.00  0.00     0.009 A 
ATOM     76  C   UNL A   1      46.423  29.028  32.925  1.00  0.00     0.009 A 
ATOM     77  C   UNL A   1      46.260  27.160  34.992  1.00  0.00     0.001 A 
ATOM     78  C   UNL A   1      47.584  28.439  33.427  1.00  0.00     0.001 A 
ATOM     79  C   UNL A   1      47.502  27.512  34.465  1.00  0.00     0.000 A 
ENDBRANCH  61  74
ENDBRANCH  35  36
ENDBRANCH  27  30
ENDBRANCH  25  26
ENDBRANCH  24  25
ENDBRANCH  23  24
ENDBRANCH   1  23
TORSDOF 15
ENDMDL
