MODEL 1
REMARK VINA RESULT:     -10.3      0.000      0.000
REMARK SMILES C[C@H](/N=C(\Cc1ccccc1)C(=O)OC(C)(C)C)C(=O)NCCCCCCNC(=O)c1ccc(-c2c3nc(c(-c4ccccc4)c4ccc([nH]4)c(-c4ccccc4)c4nc(c(-c5ccccc5)c5ccc2[nH]5)C=C4)C=C3)cc1
REMARK SMILES IDX 23 1 22 2 21 3 19 4 20 5 2 7 1 8 3 9 4 10 5 11 6 12 7 13
REMARK SMILES IDX 11 14 8 15 10 16 9 17 12 18 13 19 14 20 15 21 16 22 17 23
REMARK SMILES IDX 18 24 24 25 25 26 26 27 27 28 28 29 29 30 30 32 31 33 32 34
REMARK SMILES IDX 78 35 33 36 77 37 34 38 35 39 36 40 71 41 37 42 76 43 70 44
REMARK SMILES IDX 72 45 38 46 75 47 69 48 68 49 39 51 61 52 46 53 60 54 47 55
REMARK SMILES IDX 50 56 59 57 73 58 48 59 49 60 58 62 74 63 51 64 40 65 41 66
REMARK SMILES IDX 45 67 42 68 44 69 43 70 62 71 63 72 67 73 64 74 66 75 65 76
REMARK SMILES IDX 52 77 53 78 57 79 54 80 56 81 55 82
REMARK H PARENT 21 6 28 31 72 50 50 61
REMARK Flexibility Score: inf
ROOT
ATOM      1  C   UNL A   1      35.733  22.675  24.344  1.00  0.00     0.021 C 
ENDROOT
BRANCH   1   2
ATOM      2  C   UNL A   1      34.582  22.796  25.342  1.00  0.00     0.116 C 
BRANCH   2   3
ATOM      3  N   UNL A   1      33.598  21.759  25.161  1.00  0.00    -0.354 N 
ATOM      4  C   UNL A   1      32.263  21.757  25.455  1.00  0.00     0.244 C 
ATOM      5  O   UNL A   1      31.638  20.721  25.202  1.00  0.00    -0.273 OA
ATOM      6  H   UNL A   1      33.938  20.924  24.765  1.00  0.00     0.163 HD
BRANCH   4   7
ATOM      7  C   UNL A   1      31.537  23.011  25.982  1.00  0.00     0.191 C 
ATOM      8  C   UNL A   1      30.361  22.644  26.861  1.00  0.00     0.044 C 
BRANCH   7   9
ATOM      9  N   UNL A   1      31.342  23.996  24.922  1.00  0.00    -0.269 NA
ATOM     10  C   UNL A   1      31.102  25.251  24.863  1.00  0.00     0.125 C 
BRANCH  10  11
ATOM     11  C   UNL A   1      30.815  26.208  26.001  1.00  0.00     0.099 C 
BRANCH  11  12
ATOM     12  C   UNL A   1      31.875  27.202  26.425  1.00  0.00    -0.042 A 
ATOM     13  C   UNL A   1      31.452  28.412  27.004  1.00  0.00     0.004 A 
ATOM     14  C   UNL A   1      33.235  27.061  26.124  1.00  0.00     0.004 A 
ATOM     15  C   UNL A   1      32.353  29.449  27.256  1.00  0.00     0.000 A 
ATOM     16  C   UNL A   1      34.135  28.104  26.361  1.00  0.00     0.000 A 
ATOM     17  C   UNL A   1      33.694  29.300  26.921  1.00  0.00     0.000 A 
ENDBRANCH  11  12
ENDBRANCH  10  11
BRANCH  10  18
ATOM     18  C   UNL A   1      30.996  25.825  23.424  1.00  0.00     0.353 C 
ATOM     19  O   UNL A   1      30.630  26.955  23.196  1.00  0.00    -0.245 OA
BRANCH  18  20
ATOM     20  O   UNL A   1      31.378  24.899  22.521  1.00  0.00    -0.455 OA
BRANCH  20  21
ATOM     21  C   UNL A   1      32.709  24.924  21.943  1.00  0.00     0.104 C 
ATOM     22  C   UNL A   1      33.687  25.801  22.736  1.00  0.00     0.056 C 
ATOM     23  C   UNL A   1      33.239  23.498  21.773  1.00  0.00     0.056 C 
ATOM     24  C   UNL A   1      32.509  25.559  20.559  1.00  0.00     0.056 C 
ENDBRANCH  20  21
ENDBRANCH  18  20
ENDBRANCH  10  18
ENDBRANCH   7   9
ENDBRANCH   4   7
ENDBRANCH   2   3
ENDBRANCH   1   2
BRANCH   1  25
ATOM     25  C   UNL A   1      36.936  21.894  24.886  1.00  0.00     0.002 C 
BRANCH  25  26
ATOM     26  C   UNL A   1      36.750  20.371  24.953  1.00  0.00     0.002 C 
BRANCH  26  27
ATOM     27  C   UNL A   1      38.042  19.551  24.935  1.00  0.00     0.021 C 
BRANCH  27  28
ATOM     28  C   UNL A   1      39.148  20.086  25.842  1.00  0.00     0.116 C 
BRANCH  28  29
ATOM     29  N   UNL A   1      40.289  19.184  25.895  1.00  0.00    -0.352 N 
ATOM     30  C   UNL A   1      41.617  19.470  26.092  1.00  0.00     0.251 C 
ATOM     31  H   UNL A   1      40.077  18.230  25.774  1.00  0.00     0.163 HD
ATOM     32  O   UNL A   1      42.470  18.608  25.904  1.00  0.00    -0.269 OA
BRANCH  30  33
ATOM     33  C   UNL A   1      42.023  20.823  26.522  1.00  0.00     0.039 A 
ATOM     34  C   UNL A   1      42.424  21.750  25.556  1.00  0.00     0.014 A 
ATOM     35  C   UNL A   1      42.029  21.170  27.876  1.00  0.00     0.014 A 
ATOM     36  C   UNL A   1      42.778  23.045  25.942  1.00  0.00     0.010 A 
ATOM     37  C   UNL A   1      42.326  22.477  28.253  1.00  0.00     0.010 A 
ATOM     38  C   UNL A   1      42.705  23.426  27.291  1.00  0.00    -0.014 A 
BRANCH  38  39
ATOM     39  C   UNL A   1      43.022  24.809  27.725  1.00  0.00     0.031 A 
ATOM     40  C   UNL A   1      44.450  25.205  27.989  1.00  0.00     0.074 A 
ATOM     41  C   UNL A   1      42.024  25.680  27.968  1.00  0.00     0.049 A 
ATOM     42  N   UNL A   1      44.918  26.322  28.484  1.00  0.00    -0.248 NA
ATOM     43  C   UNL A   1      45.484  24.204  27.676  1.00  0.00     0.031 C 
ATOM     44  C   UNL A   1      40.596  25.412  27.782  1.00  0.00     0.029 A 
ATOM     45  N   UNL A   1      42.059  26.969  28.440  1.00  0.00    -0.354 N 
ATOM     46  C   UNL A   1      46.294  26.145  28.575  1.00  0.00     0.074 A 
ATOM     47  C   UNL A   1      46.582  24.806  28.110  1.00  0.00     0.031 C 
ATOM     48  C   UNL A   1      39.894  26.505  28.124  1.00  0.00     0.029 A 
ATOM     49  C   UNL A   1      40.816  27.535  28.592  1.00  0.00     0.049 A 
ATOM     50  H   UNL A   1      42.896  27.442  28.653  1.00  0.00     0.167 HD
ATOM     51  C   UNL A   1      47.231  27.025  28.999  1.00  0.00     0.031 A 
ATOM     52  C   UNL A   1      40.458  28.742  29.068  1.00  0.00     0.031 A 
ATOM     53  C   UNL A   1      46.950  28.368  29.426  1.00  0.00     0.049 A 
ATOM     54  C   UNL A   1      41.525  29.697  29.530  1.00  0.00     0.074 A 
ATOM     55  C   UNL A   1      47.844  29.359  29.794  1.00  0.00     0.029 A 
ATOM     56  N   UNL A   1      45.680  28.910  29.538  1.00  0.00    -0.354 N 
ATOM     57  N   UNL A   1      42.825  29.540  29.542  1.00  0.00    -0.248 NA
ATOM     58  C   UNL A   1      41.070  31.001  30.038  1.00  0.00     0.031 C 
ATOM     59  C   UNL A   1      47.112  30.488  30.172  1.00  0.00     0.029 A 
ATOM     60  C   UNL A   1      45.767  30.214  29.994  1.00  0.00     0.049 A 
ATOM     61  H   UNL A   1      44.843  28.439  29.324  1.00  0.00     0.167 HD
ATOM     62  C   UNL A   1      43.346  30.734  30.025  1.00  0.00     0.074 A 
ATOM     63  C   UNL A   1      42.222  31.609  30.284  1.00  0.00     0.031 C 
ATOM     64  C   UNL A   1      44.639  31.076  30.231  1.00  0.00     0.031 A 
BRANCH  51  65
ATOM     65  C   UNL A   1      48.661  26.562  29.032  1.00  0.00    -0.014 A 
ATOM     66  C   UNL A   1      49.516  26.763  27.938  1.00  0.00     0.009 A 
ATOM     67  C   UNL A   1      49.174  25.975  30.199  1.00  0.00     0.009 A 
ATOM     68  C   UNL A   1      50.852  26.363  28.004  1.00  0.00     0.001 A 
ATOM     69  C   UNL A   1      50.516  25.599  30.271  1.00  0.00     0.001 A 
ATOM     70  C   UNL A   1      51.352  25.788  29.172  1.00  0.00     0.000 A 
ENDBRANCH  51  65
BRANCH  52  71
ATOM     71  C   UNL A   1      39.025  29.130  29.135  1.00  0.00    -0.014 A 
ATOM     72  C   UNL A   1      38.286  28.913  30.309  1.00  0.00     0.009 A 
ATOM     73  C   UNL A   1      38.379  29.683  28.019  1.00  0.00     0.009 A 
ATOM     74  C   UNL A   1      36.922  29.209  30.351  1.00  0.00     0.001 A 
ATOM     75  C   UNL A   1      37.022  30.005  28.073  1.00  0.00     0.001 A 
ATOM     76  C   UNL A   1      36.292  29.756  29.236  1.00  0.00     0.000 A 
ENDBRANCH  52  71
BRANCH  64  77
ATOM     77  C   UNL A   1      44.914  32.469  30.716  1.00  0.00    -0.014 A 
ATOM     78  C   UNL A   1      45.017  32.756  32.086  1.00  0.00     0.009 A 
ATOM     79  C   UNL A   1      45.125  33.498  29.785  1.00  0.00     0.009 A 
ATOM     80  C   UNL A   1      45.298  34.056  32.513  1.00  0.00     0.001 A 
ATOM     81  C   UNL A   1      45.432  34.790  30.214  1.00  0.00     0.001 A 
ATOM     82  C   UNL A   1      45.510  35.068  31.577  1.00  0.00     0.000 A 
ENDBRANCH  64  77
ENDBRANCH  38  39
ENDBRANCH  30  33
ENDBRANCH  28  29
ENDBRANCH  27  28
ENDBRANCH  26  27
ENDBRANCH  25  26
ENDBRANCH   1  25
TORSDOF 19
ENDMDL
MODEL 2
REMARK VINA RESULT:      -9.9      0.685      5.872
REMARK SMILES C[C@H](/N=C(\Cc1ccccc1)C(=O)OC(C)(C)C)C(=O)NCCCCCCNC(=O)c1ccc(-c2c3nc(c(-c4ccccc4)c4ccc([nH]4)c(-c4ccccc4)c4nc(c(-c5ccccc5)c5ccc2[nH]5)C=C4)C=C3)cc1
REMARK SMILES IDX 23 1 22 2 21 3 19 4 20 5 2 7 1 8 3 9 4 10 5 11 6 12 7 13
REMARK SMILES IDX 11 14 8 15 10 16 9 17 12 18 13 19 14 20 15 21 16 22 17 23
REMARK SMILES IDX 18 24 24 25 25 26 26 27 27 28 28 29 29 30 30 32 31 33 32 34
REMARK SMILES IDX 78 35 33 36 77 37 34 38 35 39 36 40 71 41 37 42 76 43 70 44
REMARK SMILES IDX 72 45 38 46 75 47 69 48 68 49 39 51 61 52 46 53 60 54 47 55
REMARK SMILES IDX 50 56 59 57 73 58 48 59 49 60 58 62 74 63 51 64 40 65 41 66
REMARK SMILES IDX 45 67 42 68 44 69 43 70 62 71 63 72 67 73 64 74 66 75 65 76
REMARK SMILES IDX 52 77 53 78 57 79 54 80 56 81 55 82
REMARK H PARENT 21 6 28 31 72 50 50 61
REMARK Flexibility Score: inf
ROOT
ATOM      1  C   UNL A   1      36.337  22.565  24.166  1.00  0.00     0.021 C 
ENDROOT
BRANCH   1   2
ATOM      2  C   UNL A   1      35.102  22.878  25.010  1.00  0.00     0.116 C 
BRANCH   2   3
ATOM      3  N   UNL A   1      34.052  21.911  24.811  1.00  0.00    -0.354 N 
ATOM      4  C   UNL A   1      32.753  21.929  25.235  1.00  0.00     0.244 C 
ATOM      5  O   UNL A   1      32.054  20.957  24.930  1.00  0.00    -0.273 OA
ATOM      6  H   UNL A   1      34.309  21.116  24.291  1.00  0.00     0.163 HD
BRANCH   4   7
ATOM      7  C   UNL A   1      32.147  23.140  25.972  1.00  0.00     0.191 C 
ATOM      8  C   UNL A   1      31.336  22.711  27.176  1.00  0.00     0.044 C 
BRANCH   7   9
ATOM      9  N   UNL A   1      31.560  24.092  25.033  1.00  0.00    -0.269 NA
ATOM     10  C   UNL A   1      31.166  25.309  25.080  1.00  0.00     0.125 C 
BRANCH  10  11
ATOM     11  C   UNL A   1      31.085  26.226  26.282  1.00  0.00     0.099 C 
BRANCH  11  12
ATOM     12  C   UNL A   1      31.991  27.436  26.359  1.00  0.00    -0.042 A 
ATOM     13  C   UNL A   1      33.352  27.264  26.048  1.00  0.00     0.004 A 
ATOM     14  C   UNL A   1      31.590  28.672  26.880  1.00  0.00     0.004 A 
ATOM     15  C   UNL A   1      34.280  28.284  26.267  1.00  0.00     0.000 A 
ATOM     16  C   UNL A   1      32.521  29.689  27.115  1.00  0.00     0.000 A 
ATOM     17  C   UNL A   1      33.866  29.494  26.815  1.00  0.00     0.000 A 
ENDBRANCH  11  12
ENDBRANCH  10  11
BRANCH  10  18
ATOM     18  C   UNL A   1      30.611  25.863  23.740  1.00  0.00     0.353 C 
ATOM     19  O   UNL A   1      29.690  26.645  23.687  1.00  0.00    -0.245 OA
BRANCH  18  20
ATOM     20  O   UNL A   1      31.307  25.360  22.700  1.00  0.00    -0.455 OA
BRANCH  20  21
ATOM     21  C   UNL A   1      32.472  26.049  22.178  1.00  0.00     0.104 C 
ATOM     22  C   UNL A   1      32.428  27.564  22.423  1.00  0.00     0.056 C 
ATOM     23  C   UNL A   1      33.752  25.424  22.737  1.00  0.00     0.056 C 
ATOM     24  C   UNL A   1      32.410  25.806  20.663  1.00  0.00     0.056 C 
ENDBRANCH  20  21
ENDBRANCH  18  20
ENDBRANCH  10  18
ENDBRANCH   7   9
ENDBRANCH   4   7
ENDBRANCH   2   3
ENDBRANCH   1   2
BRANCH   1  25
ATOM     25  C   UNL A   1      37.328  21.618  24.855  1.00  0.00     0.002 C 
BRANCH  25  26
ATOM     26  C   UNL A   1      37.055  20.122  24.646  1.00  0.00     0.002 C 
BRANCH  26  27
ATOM     27  C   UNL A   1      38.171  19.182  25.108  1.00  0.00     0.021 C 
BRANCH  27  28
ATOM     28  C   UNL A   1      39.353  19.877  25.778  1.00  0.00     0.116 C 
BRANCH  28  29
ATOM     29  N   UNL A   1      40.537  19.032  25.803  1.00  0.00    -0.352 N 
ATOM     30  C   UNL A   1      41.850  19.376  26.007  1.00  0.00     0.251 C 
ATOM     31  H   UNL A   1      40.373  18.073  25.652  1.00  0.00     0.163 HD
ATOM     32  O   UNL A   1      42.744  18.564  25.792  1.00  0.00    -0.269 OA
BRANCH  30  33
ATOM     33  C   UNL A   1      42.190  20.734  26.479  1.00  0.00     0.039 A 
ATOM     34  C   UNL A   1      42.163  21.002  27.851  1.00  0.00     0.014 A 
ATOM     35  C   UNL A   1      42.513  21.745  25.570  1.00  0.00     0.014 A 
ATOM     36  C   UNL A   1      42.517  22.272  28.316  1.00  0.00     0.010 A 
ATOM     37  C   UNL A   1      42.920  22.991  26.038  1.00  0.00     0.010 A 
ATOM     38  C   UNL A   1      42.925  23.267  27.414  1.00  0.00    -0.014 A 
BRANCH  38  39
ATOM     39  C   UNL A   1      43.357  24.607  27.882  1.00  0.00     0.031 A 
ATOM     40  C   UNL A   1      42.329  25.658  28.207  1.00  0.00     0.074 A 
ATOM     41  C   UNL A   1      44.669  24.908  27.930  1.00  0.00     0.049 A 
ATOM     42  N   UNL A   1      42.506  26.917  28.515  1.00  0.00    -0.248 NA
ATOM     43  C   UNL A   1      40.918  25.243  28.153  1.00  0.00     0.031 C 
ATOM     44  C   UNL A   1      45.765  23.990  27.612  1.00  0.00     0.029 A 
ATOM     45  N   UNL A   1      45.304  26.082  28.252  1.00  0.00    -0.354 N 
ATOM     46  C   UNL A   1      41.231  27.452  28.657  1.00  0.00     0.074 A 
ATOM     47  C   UNL A   1      40.291  26.389  28.376  1.00  0.00     0.031 C 
ATOM     48  C   UNL A   1      46.936  24.631  27.767  1.00  0.00     0.029 A 
ATOM     49  C   UNL A   1      46.674  26.013  28.153  1.00  0.00     0.049 A 
ATOM     50  H   UNL A   1      44.824  26.897  28.525  1.00  0.00     0.167 HD
ATOM     51  C   UNL A   1      40.879  28.713  29.002  1.00  0.00     0.031 A 
ATOM     52  C   UNL A   1      47.611  26.962  28.339  1.00  0.00     0.031 A 
ATOM     53  C   UNL A   1      41.812  29.758  29.318  1.00  0.00     0.049 A 
ATOM     54  C   UNL A   1      47.186  28.353  28.723  1.00  0.00     0.074 A 
ATOM     55  C   UNL A   1      41.547  31.044  29.758  1.00  0.00     0.029 A 
ATOM     56  N   UNL A   1      43.189  29.639  29.233  1.00  0.00    -0.354 N 
ATOM     57  N   UNL A   1      45.980  28.822  28.922  1.00  0.00    -0.248 NA
ATOM     58  C   UNL A   1      48.258  29.343  28.913  1.00  0.00     0.031 C 
ATOM     59  C   UNL A   1      42.764  31.718  29.896  1.00  0.00     0.029 A 
ATOM     60  C   UNL A   1      43.786  30.836  29.588  1.00  0.00     0.049 A 
ATOM     61  H   UNL A   1      43.671  28.825  28.961  1.00  0.00     0.167 HD
ATOM     62  C   UNL A   1      46.147  30.149  29.295  1.00  0.00     0.074 A 
ATOM     63  C   UNL A   1      47.571  30.408  29.303  1.00  0.00     0.031 C 
ATOM     64  C   UNL A   1      45.206  31.071  29.606  1.00  0.00     0.031 A 
BRANCH  51  65
ATOM     65  C   UNL A   1      39.413  29.040  29.049  1.00  0.00    -0.014 A 
ATOM     66  C   UNL A   1      38.734  29.511  27.914  1.00  0.00     0.009 A 
ATOM     67  C   UNL A   1      38.689  28.811  30.229  1.00  0.00     0.009 A 
ATOM     68  C   UNL A   1      37.363  29.769  27.969  1.00  0.00     0.001 A 
ATOM     69  C   UNL A   1      37.313  29.047  30.274  1.00  0.00     0.001 A 
ATOM     70  C   UNL A   1      36.653  29.531  29.145  1.00  0.00     0.000 A 
ENDBRANCH  51  65
BRANCH  52  71
ATOM     71  C   UNL A   1      49.052  26.639  28.169  1.00  0.00    -0.014 A 
ATOM     72  C   UNL A   1      49.831  26.272  29.277  1.00  0.00     0.009 A 
ATOM     73  C   UNL A   1      49.663  26.731  26.909  1.00  0.00     0.009 A 
ATOM     74  C   UNL A   1      51.200  26.038  29.132  1.00  0.00     0.001 A 
ATOM     75  C   UNL A   1      51.026  26.468  26.763  1.00  0.00     0.001 A 
ATOM     76  C   UNL A   1      51.796  26.134  27.877  1.00  0.00     0.000 A 
ENDBRANCH  52  71
BRANCH  64  77
ATOM     77  C   UNL A   1      45.684  32.430  30.028  1.00  0.00    -0.014 A 
ATOM     78  C   UNL A   1      45.952  33.433  29.084  1.00  0.00     0.009 A 
ATOM     79  C   UNL A   1      45.817  32.723  31.394  1.00  0.00     0.009 A 
ATOM     80  C   UNL A   1      46.372  34.697  29.503  1.00  0.00     0.001 A 
ATOM     81  C   UNL A   1      46.212  33.995  31.810  1.00  0.00     0.001 A 
ATOM     82  C   UNL A   1      46.497  34.978  30.864  1.00  0.00     0.000 A 
ENDBRANCH  64  77
ENDBRANCH  38  39
ENDBRANCH  30  33
ENDBRANCH  28  29
ENDBRANCH  27  28
ENDBRANCH  26  27
ENDBRANCH  25  26
ENDBRANCH   1  25
TORSDOF 19
ENDMDL
MODEL 3
REMARK VINA RESULT:      -9.7      4.331     10.428
REMARK SMILES C[C@H](/N=C(\Cc1ccccc1)C(=O)OC(C)(C)C)C(=O)NCCCCCCNC(=O)c1ccc(-c2c3nc(c(-c4ccccc4)c4ccc([nH]4)c(-c4ccccc4)c4nc(c(-c5ccccc5)c5ccc2[nH]5)C=C4)C=C3)cc1
REMARK SMILES IDX 23 1 22 2 21 3 19 4 20 5 2 7 1 8 3 9 4 10 5 11 6 12 7 13
REMARK SMILES IDX 11 14 8 15 10 16 9 17 12 18 13 19 14 20 15 21 16 22 17 23
REMARK SMILES IDX 18 24 24 25 25 26 26 27 27 28 28 29 29 30 30 32 31 33 32 34
REMARK SMILES IDX 78 35 33 36 77 37 34 38 35 39 36 40 71 41 37 42 76 43 70 44
REMARK SMILES IDX 72 45 38 46 75 47 69 48 68 49 39 51 61 52 46 53 60 54 47 55
REMARK SMILES IDX 50 56 59 57 73 58 48 59 49 60 58 62 74 63 51 64 40 65 41 66
REMARK SMILES IDX 45 67 42 68 44 69 43 70 62 71 63 72 67 73 64 74 66 75 65 76
REMARK SMILES IDX 52 77 53 78 57 79 54 80 56 81 55 82
REMARK H PARENT 21 6 28 31 72 50 50 61
REMARK Flexibility Score: inf
ROOT
ATOM      1  C   UNL A   1      34.216  35.097  31.982  1.00  0.00     0.021 C 
ENDROOT
BRANCH   1   2
ATOM      2  C   UNL A   1      34.774  34.469  33.259  1.00  0.00     0.116 C 
BRANCH   2   3
ATOM      3  N   UNL A   1      36.119  34.909  33.534  1.00  0.00    -0.354 N 
ATOM      4  C   UNL A   1      37.041  34.410  34.411  1.00  0.00     0.244 C 
ATOM      5  O   UNL A   1      38.133  34.985  34.458  1.00  0.00    -0.273 OA
ATOM      6  H   UNL A   1      36.420  35.687  33.011  1.00  0.00     0.163 HD
BRANCH   4   7
ATOM      7  C   UNL A   1      36.782  33.133  35.236  1.00  0.00     0.191 C 
ATOM      8  C   UNL A   1      36.794  33.419  36.722  1.00  0.00     0.044 C 
BRANCH   7   9
ATOM      9  N   UNL A   1      37.565  32.009  34.731  1.00  0.00    -0.269 NA
ATOM     10  C   UNL A   1      37.790  31.484  33.585  1.00  0.00     0.125 C 
BRANCH  10  11
ATOM     11  C   UNL A   1      37.174  31.841  32.249  1.00  0.00     0.099 C 
BRANCH  11  12
ATOM     12  C   UNL A   1      37.954  32.693  31.271  1.00  0.00    -0.042 A 
ATOM     13  C   UNL A   1      38.987  33.501  31.778  1.00  0.00     0.004 A 
ATOM     14  C   UNL A   1      37.601  32.850  29.926  1.00  0.00     0.004 A 
ATOM     15  C   UNL A   1      39.632  34.444  30.973  1.00  0.00     0.000 A 
ATOM     16  C   UNL A   1      38.234  33.804  29.123  1.00  0.00     0.000 A 
ATOM     17  C   UNL A   1      39.244  34.605  29.648  1.00  0.00     0.000 A 
ENDBRANCH  11  12
ENDBRANCH  10  11
BRANCH  10  18
ATOM     18  C   UNL A   1      38.746  30.260  33.609  1.00  0.00     0.353 C 
ATOM     19  O   UNL A   1      38.806  29.459  32.705  1.00  0.00    -0.245 OA
BRANCH  18  20
ATOM     20  O   UNL A   1      39.471  30.254  34.746  1.00  0.00    -0.455 OA
BRANCH  20  21
ATOM     21  C   UNL A   1      40.919  30.348  34.709  1.00  0.00     0.104 C 
ATOM     22  C   UNL A   1      41.591  29.034  34.289  1.00  0.00     0.056 C 
ATOM     23  C   UNL A   1      41.350  31.513  33.815  1.00  0.00     0.056 C 
ATOM     24  C   UNL A   1      41.317  30.649  36.161  1.00  0.00     0.056 C 
ENDBRANCH  20  21
ENDBRANCH  18  20
ENDBRANCH  10  18
ENDBRANCH   7   9
ENDBRANCH   4   7
ENDBRANCH   2   3
ENDBRANCH   1   2
BRANCH   1  25
ATOM     25  C   UNL A   1      34.390  34.215  30.739  1.00  0.00     0.002 C 
BRANCH  25  26
ATOM     26  C   UNL A   1      34.099  34.908  29.400  1.00  0.00     0.002 C 
BRANCH  26  27
ATOM     27  C   UNL A   1      34.079  33.988  28.177  1.00  0.00     0.021 C 
BRANCH  27  28
ATOM     28  C   UNL A   1      34.910  32.716  28.323  1.00  0.00     0.116 C 
BRANCH  28  29
ATOM     29  N   UNL A   1      34.111  31.518  28.109  1.00  0.00    -0.352 N 
ATOM     30  C   UNL A   1      34.517  30.218  27.948  1.00  0.00     0.251 C 
ATOM     31  H   UNL A   1      33.138  31.662  28.076  1.00  0.00     0.163 HD
ATOM     32  O   UNL A   1      33.722  29.362  27.574  1.00  0.00    -0.269 OA
BRANCH  30  33
ATOM     33  C   UNL A   1      35.922  29.846  28.217  1.00  0.00     0.039 A 
ATOM     34  C   UNL A   1      36.267  29.371  29.485  1.00  0.00     0.014 A 
ATOM     35  C   UNL A   1      36.899  29.985  27.227  1.00  0.00     0.014 A 
ATOM     36  C   UNL A   1      37.583  28.981  29.745  1.00  0.00     0.010 A 
ATOM     37  C   UNL A   1      38.196  29.543  27.470  1.00  0.00     0.010 A 
ATOM     38  C   UNL A   1      38.552  29.039  28.730  1.00  0.00    -0.014 A 
BRANCH  38  39
ATOM     39  C   UNL A   1      39.944  28.581  28.960  1.00  0.00     0.031 A 
ATOM     40  C   UNL A   1      40.978  29.549  29.470  1.00  0.00     0.074 A 
ATOM     41  C   UNL A   1      40.300  27.325  28.628  1.00  0.00     0.049 A 
ATOM     42  N   UNL A   1      42.266  29.376  29.621  1.00  0.00    -0.248 NA
ATOM     43  C   UNL A   1      40.505  30.895  29.832  1.00  0.00     0.031 C 
ATOM     44  C   UNL A   1      39.401  26.299  28.096  1.00  0.00     0.029 A 
ATOM     45  N   UNL A   1      41.523  26.703  28.675  1.00  0.00    -0.354 N 
ATOM     46  C   UNL A   1      42.761  30.597  30.063  1.00  0.00     0.074 A 
ATOM     47  C   UNL A   1      41.641  31.510  30.129  1.00  0.00     0.031 C 
ATOM     48  C   UNL A   1      40.099  25.172  27.878  1.00  0.00     0.029 A 
ATOM     49  C   UNL A   1      41.500  25.407  28.215  1.00  0.00     0.049 A 
ATOM     50  H   UNL A   1      42.339  27.142  29.006  1.00  0.00     0.167 HD
ATOM     51  C   UNL A   1      44.032  30.924  30.393  1.00  0.00     0.031 A 
ATOM     52  C   UNL A   1      42.497  24.516  28.067  1.00  0.00     0.031 A 
ATOM     53  C   UNL A   1      45.139  30.007  30.365  1.00  0.00     0.049 A 
ATOM     54  C   UNL A   1      43.899  24.909  28.445  1.00  0.00     0.074 A 
ATOM     55  C   UNL A   1      46.447  30.225  30.760  1.00  0.00     0.029 A 
ATOM     56  N   UNL A   1      45.067  28.697  29.919  1.00  0.00    -0.354 N 
ATOM     57  N   UNL A   1      44.336  26.046  28.927  1.00  0.00    -0.248 NA
ATOM     58  C   UNL A   1      44.944  23.889  28.262  1.00  0.00     0.031 C 
ATOM     59  C   UNL A   1      47.178  29.060  30.513  1.00  0.00     0.029 A 
ATOM     60  C   UNL A   1      46.314  28.104  30.007  1.00  0.00     0.049 A 
ATOM     61  H   UNL A   1      44.251  28.256  29.590  1.00  0.00     0.167 HD
ATOM     62  C   UNL A   1      45.697  25.868  29.139  1.00  0.00     0.074 A 
ATOM     63  C   UNL A   1      46.012  24.512  28.741  1.00  0.00     0.031 C 
ATOM     64  C   UNL A   1      46.605  26.748  29.622  1.00  0.00     0.031 A 
BRANCH  51  65
ATOM     65  C   UNL A   1      44.304  32.341  30.811  1.00  0.00    -0.014 A 
ATOM     66  C   UNL A   1      44.274  32.721  32.161  1.00  0.00     0.009 A 
ATOM     67  C   UNL A   1      44.660  33.294  29.843  1.00  0.00     0.009 A 
ATOM     68  C   UNL A   1      44.571  34.034  32.532  1.00  0.00     0.001 A 
ATOM     69  C   UNL A   1      44.981  34.599  30.219  1.00  0.00     0.001 A 
ATOM     70  C   UNL A   1      44.931  34.970  31.562  1.00  0.00     0.000 A 
ENDBRANCH  51  65
BRANCH  52  71
ATOM     71  C   UNL A   1      42.217  23.155  27.539  1.00  0.00    -0.014 A 
ATOM     72  C   UNL A   1      42.505  22.841  26.202  1.00  0.00     0.009 A 
ATOM     73  C   UNL A   1      41.628  22.177  28.354  1.00  0.00     0.009 A 
ATOM     74  C   UNL A   1      42.177  21.587  25.683  1.00  0.00     0.001 A 
ATOM     75  C   UNL A   1      41.327  20.914  27.840  1.00  0.00     0.001 A 
ATOM     76  C   UNL A   1      41.591  20.624  26.502  1.00  0.00     0.000 A 
ENDBRANCH  52  71
BRANCH  64  77
ATOM     77  C   UNL A   1      48.014  26.261  29.794  1.00  0.00    -0.014 A 
ATOM     78  C   UNL A   1      48.921  26.263  28.723  1.00  0.00     0.009 A 
ATOM     79  C   UNL A   1      48.452  25.843  31.060  1.00  0.00     0.009 A 
ATOM     80  C   UNL A   1      50.234  25.827  28.915  1.00  0.00     0.001 A 
ATOM     81  C   UNL A   1      49.772  25.432  31.253  1.00  0.00     0.001 A 
ATOM     82  C   UNL A   1      50.659  25.418  30.179  1.00  0.00     0.000 A 
ENDBRANCH  64  77
ENDBRANCH  38  39
ENDBRANCH  30  33
ENDBRANCH  28  29
ENDBRANCH  27  28
ENDBRANCH  26  27
ENDBRANCH  25  26
ENDBRANCH   1  25
TORSDOF 19
ENDMDL
