MODEL 1
REMARK VINA RESULT:     -10.9      0.000      0.000
REMARK SMILES O=C(NCCCCCCNC(=O)[C@@H]1[C@H](C(=O)Nc2cccc(Cl)c2F)[C@@H]2C=C[C@H]1C2)c1ccc(-c2c3nc(c(-c4ccccc4)c4ccc([nH]4)c(-c4ccccc4)c4nc(c(-c5ccccc5)c5ccc2[nH]5)C=C4)C=C3)cc1
REMARK SMILES IDX 6 1 5 2 4 3 3 4 1 5 2 6 31 8 32 9 78 10 33 11 77 12 34 13
REMARK SMILES IDX 35 14 36 15 71 16 37 17 76 18 70 19 72 20 38 21 75 22 69 23
REMARK SMILES IDX 68 24 39 26 61 27 46 28 60 29 47 30 50 31 59 32 73 33 48 34
REMARK SMILES IDX 49 35 58 37 74 38 51 39 40 40 41 41 45 42 42 43 44 44 43 45
REMARK SMILES IDX 62 46 63 47 67 48 64 49 66 50 65 51 52 52 53 53 57 54 54 55
REMARK SMILES IDX 56 56 55 57 7 58 8 59 9 60 10 61 11 62 12 64 13 65 14 66
REMARK SMILES IDX 29 67 26 68 28 69 30 70 27 71 15 72 16 73 17 74 18 76 19 77
REMARK SMILES IDX 24 78 20 79 22 80 25 81 21 82 23 83
REMARK H PARENT 3 7 72 25 50 36 10 63 17 75
REMARK Flexibility Score: inf
ROOT
ATOM      1  C   UNL A   1      32.427  26.440  26.628  1.00  0.00     0.002 C 
ENDROOT
BRANCH   1   2
ATOM      2  C   UNL A   1      32.387  27.871  27.170  1.00  0.00     0.021 C 
BRANCH   2   3
ATOM      3  C   UNL A   1      33.752  28.546  27.272  1.00  0.00     0.116 C 
BRANCH   3   4
ATOM      4  N   UNL A   1      33.621  29.970  27.529  1.00  0.00    -0.352 N 
ATOM      5  O   UNL A   1      34.167  31.892  28.596  1.00  0.00    -0.269 OA
ATOM      6  C   UNL A   1      34.500  30.782  28.203  1.00  0.00     0.251 C 
ATOM      7  H   UNL A   1      32.807  30.401  27.181  1.00  0.00     0.163 HD
BRANCH   6   8
ATOM      8  C   UNL A   1      35.868  30.283  28.447  1.00  0.00     0.039 A 
ATOM      9  C   UNL A   1      36.821  30.358  27.426  1.00  0.00     0.014 A 
ATOM     10  C   UNL A   1      36.192  29.729  29.686  1.00  0.00     0.014 A 
ATOM     11  C   UNL A   1      38.072  29.786  27.611  1.00  0.00     0.010 A 
ATOM     12  C   UNL A   1      37.480  29.230  29.898  1.00  0.00     0.010 A 
ATOM     13  C   UNL A   1      38.426  29.249  28.860  1.00  0.00    -0.014 A 
BRANCH  13  14
ATOM     14  C   UNL A   1      39.826  28.822  29.094  1.00  0.00     0.031 A 
ATOM     15  C   UNL A   1      40.835  29.740  29.720  1.00  0.00     0.074 A 
ATOM     16  C   UNL A   1      40.177  27.574  28.727  1.00  0.00     0.049 A 
ATOM     17  N   UNL A   1      42.099  29.517  29.974  1.00  0.00    -0.248 NA
ATOM     18  C   UNL A   1      40.370  31.080  30.107  1.00  0.00     0.031 C 
ATOM     19  C   UNL A   1      39.278  26.594  28.109  1.00  0.00     0.029 A 
ATOM     20  N   UNL A   1      41.370  26.909  28.830  1.00  0.00    -0.354 N 
ATOM     21  C   UNL A   1      42.589  30.691  30.532  1.00  0.00     0.074 A 
ATOM     22  C   UNL A   1      41.489  31.633  30.558  1.00  0.00     0.031 C 
ATOM     23  C   UNL A   1      39.938  25.442  27.928  1.00  0.00     0.029 A 
ATOM     24  C   UNL A   1      41.322  25.625  28.344  1.00  0.00     0.049 A 
ATOM     25  H   UNL A   1      42.182  27.313  29.212  1.00  0.00     0.167 HD
ATOM     26  C   UNL A   1      43.839  30.955  30.982  1.00  0.00     0.031 A 
ATOM     27  C   UNL A   1      42.290  24.700  28.220  1.00  0.00     0.031 A 
ATOM     28  C   UNL A   1      44.931  30.014  30.936  1.00  0.00     0.049 A 
ATOM     29  C   UNL A   1      43.679  25.042  28.670  1.00  0.00     0.074 A 
ATOM     30  C   UNL A   1      46.229  30.176  31.388  1.00  0.00     0.029 A 
ATOM     31  N   UNL A   1      44.853  28.737  30.396  1.00  0.00    -0.354 N 
ATOM     32  N   UNL A   1      44.116  26.145  29.228  1.00  0.00    -0.248 NA
ATOM     33  C   UNL A   1      44.706  24.013  28.473  1.00  0.00     0.031 C 
ATOM     34  C   UNL A   1      46.953  29.023  31.066  1.00  0.00     0.029 A 
ATOM     35  C   UNL A   1      46.089  28.114  30.476  1.00  0.00     0.049 A 
ATOM     36  H   UNL A   1      44.041  28.333  30.014  1.00  0.00     0.167 HD
ATOM     37  C   UNL A   1      45.466  25.935  29.468  1.00  0.00     0.074 A 
ATOM     38  C   UNL A   1      45.768  24.591  29.015  1.00  0.00     0.031 C 
ATOM     39  C   UNL A   1      46.375  26.779  30.015  1.00  0.00     0.031 A 
BRANCH  26  40
ATOM     40  C   UNL A   1      44.109  32.328  31.533  1.00  0.00    -0.014 A 
ATOM     41  C   UNL A   1      43.954  32.613  32.900  1.00  0.00     0.009 A 
ATOM     42  C   UNL A   1      44.573  33.342  30.681  1.00  0.00     0.009 A 
ATOM     43  C   UNL A   1      44.225  33.892  33.393  1.00  0.00     0.001 A 
ATOM     44  C   UNL A   1      44.871  34.612  31.180  1.00  0.00     0.001 A 
ATOM     45  C   UNL A   1      44.688  34.888  32.534  1.00  0.00     0.000 A 
ENDBRANCH  26  40
BRANCH  27  46
ATOM     46  C   UNL A   1      41.977  23.376  27.623  1.00  0.00    -0.014 A 
ATOM     47  C   UNL A   1      41.481  22.333  28.417  1.00  0.00     0.009 A 
ATOM     48  C   UNL A   1      42.159  23.155  26.248  1.00  0.00     0.009 A 
ATOM     49  C   UNL A   1      41.198  21.087  27.850  1.00  0.00     0.001 A 
ATOM     50  C   UNL A   1      41.843  21.921  25.679  1.00  0.00     0.001 A 
ATOM     51  C   UNL A   1      41.373  20.885  26.482  1.00  0.00     0.000 A 
ENDBRANCH  27  46
BRANCH  39  52
ATOM     52  C   UNL A   1      47.773  26.257  30.183  1.00  0.00    -0.014 A 
ATOM     53  C   UNL A   1      48.225  25.758  31.414  1.00  0.00     0.009 A 
ATOM     54  C   UNL A   1      48.643  26.238  29.080  1.00  0.00     0.009 A 
ATOM     55  C   UNL A   1      49.532  25.286  31.547  1.00  0.00     0.001 A 
ATOM     56  C   UNL A   1      49.937  25.733  29.208  1.00  0.00     0.001 A 
ATOM     57  C   UNL A   1      50.385  25.268  30.443  1.00  0.00     0.000 A 
ENDBRANCH  39  52
ENDBRANCH  13  14
ENDBRANCH   6   8
ENDBRANCH   3   4
ENDBRANCH   2   3
ENDBRANCH   1   2
BRANCH   1  58
ATOM     58  C   UNL A   1      31.100  25.922  26.068  1.00  0.00     0.002 C 
BRANCH  58  59
ATOM     59  C   UNL A   1      30.998  24.396  25.980  1.00  0.00     0.021 C 
BRANCH  59  60
ATOM     60  C   UNL A   1      31.891  23.611  26.946  1.00  0.00     0.116 C 
BRANCH  60  61
ATOM     61  N   UNL A   1      32.290  22.289  26.473  1.00  0.00    -0.356 N 
ATOM     62  C   UNL A   1      33.538  21.745  26.305  1.00  0.00     0.224 C 
ATOM     63  H   UNL A   1      31.544  21.693  26.237  1.00  0.00     0.163 HD
ATOM     64  O   UNL A   1      33.630  20.519  26.308  1.00  0.00    -0.275 OA
BRANCH  62  65
ATOM     65  C   UNL A   1      34.755  22.637  26.168  1.00  0.00     0.098 C 
ATOM     66  C   UNL A   1      34.838  23.877  25.228  1.00  0.00     0.099 C 
ATOM     67  C   UNL A   1      36.091  21.892  25.838  1.00  0.00     0.025 C 
ATOM     68  C   UNL A   1      36.381  23.902  24.900  1.00  0.00     0.025 C 
ATOM     69  C   UNL A   1      36.359  21.691  24.349  1.00  0.00    -0.027 C 
ATOM     70  C   UNL A   1      37.034  23.088  26.028  1.00  0.00     0.017 C 
ATOM     71  C   UNL A   1      36.613  22.893  23.808  1.00  0.00    -0.027 C 
BRANCH  66  72
ATOM     72  C   UNL A   1      34.054  23.914  23.892  1.00  0.00     0.228 C 
ATOM     73  O   UNL A   1      33.299  22.993  23.584  1.00  0.00    -0.274 OA
ATOM     74  N   UNL A   1      34.198  25.068  23.150  1.00  0.00    -0.323 N 
ATOM     75  H   UNL A   1      35.104  25.315  22.855  1.00  0.00     0.170 HD
BRANCH  74  76
ATOM     76  C   UNL A   1      33.138  25.915  22.788  1.00  0.00     0.078 A 
ATOM     77  C   UNL A   1      32.003  25.486  22.114  1.00  0.00     0.029 A 
ATOM     78  C   UNL A   1      33.197  27.219  23.300  1.00  0.00     0.165 A 
ATOM     79  C   UNL A   1      30.910  26.349  22.004  1.00  0.00     0.004 A 
ATOM     80  C   UNL A   1      32.082  28.042  23.267  1.00  0.00     0.078 A 
ATOM     81  F   UNL A   1      34.308  27.615  23.941  1.00  0.00    -0.203 F 
ATOM     82  C   UNL A   1      30.934  27.609  22.613  1.00  0.00     0.024 A 
ATOM     83  Cl  UNL A   1      32.082  29.545  24.105  1.00  0.00    -0.081 Cl
ENDBRANCH  74  76
ENDBRANCH  66  72
ENDBRANCH  62  65
ENDBRANCH  60  61
ENDBRANCH  59  60
ENDBRANCH  58  59
ENDBRANCH   1  58
TORSDOF 15
ENDMDL
MODEL 2
REMARK VINA RESULT:     -10.9      2.601      7.712
REMARK SMILES O=C(NCCCCCCNC(=O)[C@@H]1[C@H](C(=O)Nc2cccc(Cl)c2F)[C@@H]2C=C[C@H]1C2)c1ccc(-c2c3nc(c(-c4ccccc4)c4ccc([nH]4)c(-c4ccccc4)c4nc(c(-c5ccccc5)c5ccc2[nH]5)C=C4)C=C3)cc1
REMARK SMILES IDX 6 1 5 2 4 3 3 4 1 5 2 6 31 8 32 9 78 10 33 11 77 12 34 13
REMARK SMILES IDX 35 14 36 15 71 16 37 17 76 18 70 19 72 20 38 21 75 22 69 23
REMARK SMILES IDX 68 24 39 26 61 27 46 28 60 29 47 30 50 31 59 32 73 33 48 34
REMARK SMILES IDX 49 35 58 37 74 38 51 39 40 40 41 41 45 42 42 43 44 44 43 45
REMARK SMILES IDX 62 46 63 47 67 48 64 49 66 50 65 51 52 52 53 53 57 54 54 55
REMARK SMILES IDX 56 56 55 57 7 58 8 59 9 60 10 61 11 62 12 64 13 65 14 66
REMARK SMILES IDX 29 67 26 68 28 69 30 70 27 71 15 72 16 73 17 74 18 76 19 77
REMARK SMILES IDX 24 78 20 79 22 80 25 81 21 82 23 83
REMARK H PARENT 3 7 72 25 50 36 10 63 17 75
REMARK Flexibility Score: inf
ROOT
ATOM      1  C   UNL A   1      34.972  24.315  23.904  1.00  0.00     0.002 C 
ENDROOT
BRANCH   1   2
ATOM      2  C   UNL A   1      36.149  23.361  24.126  1.00  0.00     0.021 C 
BRANCH   2   3
ATOM      3  C   UNL A   1      37.083  23.763  25.264  1.00  0.00     0.116 C 
BRANCH   3   4
ATOM      4  N   UNL A   1      38.060  22.724  25.538  1.00  0.00    -0.352 N 
ATOM      5  O   UNL A   1      40.145  21.985  26.022  1.00  0.00    -0.269 OA
ATOM      6  C   UNL A   1      39.310  22.875  26.087  1.00  0.00     0.251 C 
ATOM      7  H   UNL A   1      37.795  21.805  25.303  1.00  0.00     0.163 HD
BRANCH   6   8
ATOM      8  C   UNL A   1      39.628  24.150  26.762  1.00  0.00     0.039 A 
ATOM      9  C   UNL A   1      39.227  24.346  28.087  1.00  0.00     0.014 A 
ATOM     10  C   UNL A   1      40.311  25.149  26.068  1.00  0.00     0.014 A 
ATOM     11  C   UNL A   1      39.421  25.583  28.688  1.00  0.00     0.010 A 
ATOM     12  C   UNL A   1      40.580  26.364  26.704  1.00  0.00     0.010 A 
ATOM     13  C   UNL A   1      40.131  26.591  28.016  1.00  0.00    -0.014 A 
BRANCH  13  14
ATOM     14  C   UNL A   1      40.496  27.829  28.745  1.00  0.00     0.031 A 
ATOM     15  C   UNL A   1      41.844  28.001  29.378  1.00  0.00     0.074 A 
ATOM     16  C   UNL A   1      39.575  28.810  28.826  1.00  0.00     0.049 A 
ATOM     17  N   UNL A   1      42.305  29.018  30.063  1.00  0.00    -0.248 NA
ATOM     18  C   UNL A   1      42.799  26.892  29.232  1.00  0.00     0.031 C 
ATOM     19  C   UNL A   1      38.228  28.752  28.247  1.00  0.00     0.029 A 
ATOM     20  N   UNL A   1      39.629  30.047  29.411  1.00  0.00    -0.354 N 
ATOM     21  C   UNL A   1      43.594  28.667  30.446  1.00  0.00     0.074 A 
ATOM     22  C   UNL A   1      43.834  27.332  29.936  1.00  0.00     0.031 C 
ATOM     23  C   UNL A   1      37.603  29.915  28.467  1.00  0.00     0.029 A 
ATOM     24  C   UNL A   1      38.470  30.770  29.266  1.00  0.00     0.049 A 
ATOM     25  H   UNL A   1      40.420  30.384  29.890  1.00  0.00     0.167 HD
ATOM     26  C   UNL A   1      44.491  29.394  31.154  1.00  0.00     0.031 A 
ATOM     27  C   UNL A   1      38.128  31.978  29.746  1.00  0.00     0.031 A 
ATOM     28  C   UNL A   1      44.234  30.716  31.670  1.00  0.00     0.049 A 
ATOM     29  C   UNL A   1      39.120  32.733  30.579  1.00  0.00     0.074 A 
ATOM     30  C   UNL A   1      45.086  31.545  32.379  1.00  0.00     0.029 A 
ATOM     31  N   UNL A   1      43.032  31.397  31.539  1.00  0.00    -0.354 N 
ATOM     32  N   UNL A   1      40.346  32.402  30.903  1.00  0.00    -0.248 NA
ATOM     33  C   UNL A   1      38.680  34.028  31.114  1.00  0.00     0.031 C 
ATOM     34  C   UNL A   1      44.380  32.700  32.732  1.00  0.00     0.029 A 
ATOM     35  C   UNL A   1      43.110  32.622  32.183  1.00  0.00     0.049 A 
ATOM     36  H   UNL A   1      42.241  31.060  31.061  1.00  0.00     0.167 HD
ATOM     37  C   UNL A   1      40.833  33.456  31.660  1.00  0.00     0.074 A 
ATOM     38  C   UNL A   1      39.776  34.446  31.729  1.00  0.00     0.031 C 
ATOM     39  C   UNL A   1      42.047  33.593  32.248  1.00  0.00     0.031 A 
BRANCH  26  40
ATOM     40  C   UNL A   1      45.826  28.764  31.446  1.00  0.00    -0.014 A 
ATOM     41  C   UNL A   1      46.032  27.983  32.594  1.00  0.00     0.009 A 
ATOM     42  C   UNL A   1      46.880  28.913  30.531  1.00  0.00     0.009 A 
ATOM     43  C   UNL A   1      47.277  27.395  32.837  1.00  0.00     0.001 A 
ATOM     44  C   UNL A   1      48.114  28.300  30.761  1.00  0.00     0.001 A 
ATOM     45  C   UNL A   1      48.314  27.549  31.918  1.00  0.00     0.000 A 
ENDBRANCH  26  40
BRANCH  27  46
ATOM     46  C   UNL A   1      36.776  32.530  29.467  1.00  0.00    -0.014 A 
ATOM     47  C   UNL A   1      35.739  32.384  30.398  1.00  0.00     0.009 A 
ATOM     48  C   UNL A   1      36.523  33.219  28.270  1.00  0.00     0.009 A 
ATOM     49  C   UNL A   1      34.468  32.896  30.125  1.00  0.00     0.001 A 
ATOM     50  C   UNL A   1      35.262  33.760  28.015  1.00  0.00     0.001 A 
ATOM     51  C   UNL A   1      34.233  33.589  28.938  1.00  0.00     0.000 A 
ENDBRANCH  27  46
BRANCH  39  52
ATOM     52  C   UNL A   1      42.305  34.876  32.986  1.00  0.00    -0.014 A 
ATOM     53  C   UNL A   1      41.794  35.094  34.275  1.00  0.00     0.009 A 
ATOM     54  C   UNL A   1      43.099  35.870  32.392  1.00  0.00     0.009 A 
ATOM     55  C   UNL A   1      42.041  36.297  34.937  1.00  0.00     0.001 A 
ATOM     56  C   UNL A   1      43.373  37.057  33.070  1.00  0.00     0.001 A 
ATOM     57  C   UNL A   1      42.836  37.275  34.337  1.00  0.00     0.000 A 
ENDBRANCH  39  52
ENDBRANCH  13  14
ENDBRANCH   6   8
ENDBRANCH   3   4
ENDBRANCH   2   3
ENDBRANCH   1   2
BRANCH   1  58
ATOM     58  C   UNL A   1      33.916  23.823  22.912  1.00  0.00     0.002 C 
BRANCH  58  59
ATOM     59  C   UNL A   1      32.786  24.820  22.637  1.00  0.00     0.021 C 
BRANCH  59  60
ATOM     60  C   UNL A   1      33.226  26.226  22.218  1.00  0.00     0.116 C 
BRANCH  60  61
ATOM     61  N   UNL A   1      32.214  27.263  22.398  1.00  0.00    -0.356 N 
ATOM     62  C   UNL A   1      32.188  28.341  23.246  1.00  0.00     0.224 C 
ATOM     63  H   UNL A   1      31.424  27.174  21.818  1.00  0.00     0.163 HD
ATOM     64  O   UNL A   1      31.469  29.289  22.939  1.00  0.00    -0.275 OA
BRANCH  62  65
ATOM     65  C   UNL A   1      33.056  28.365  24.487  1.00  0.00     0.098 C 
ATOM     66  C   UNL A   1      33.126  27.216  25.537  1.00  0.00     0.099 C 
ATOM     67  C   UNL A   1      32.877  29.624  25.399  1.00  0.00     0.025 C 
ATOM     68  C   UNL A   1      33.472  28.026  26.846  1.00  0.00     0.025 C 
ATOM     69  C   UNL A   1      31.779  29.500  26.451  1.00  0.00    -0.027 C 
ATOM     70  C   UNL A   1      34.058  29.354  26.341  1.00  0.00     0.017 C 
ATOM     71  C   UNL A   1      32.179  28.599  27.362  1.00  0.00    -0.027 C 
BRANCH  66  72
ATOM     72  C   UNL A   1      31.889  26.329  25.825  1.00  0.00     0.228 C 
ATOM     73  O   UNL A   1      30.840  26.496  25.203  1.00  0.00    -0.274 OA
ATOM     74  N   UNL A   1      32.085  25.312  26.738  1.00  0.00    -0.323 N 
ATOM     75  H   UNL A   1      32.367  25.560  27.648  1.00  0.00     0.170 HD
BRANCH  74  76
ATOM     76  C   UNL A   1      31.910  23.948  26.454  1.00  0.00     0.078 A 
ATOM     77  C   UNL A   1      30.742  23.414  25.927  1.00  0.00     0.029 A 
ATOM     78  C   UNL A   1      33.056  23.149  26.572  1.00  0.00     0.165 A 
ATOM     79  C   UNL A   1      30.745  22.094  25.468  1.00  0.00     0.004 A 
ATOM     80  C   UNL A   1      33.083  21.871  26.037  1.00  0.00     0.078 A 
ATOM     81  F   UNL A   1      34.170  23.685  27.093  1.00  0.00    -0.203 F 
ATOM     82  C   UNL A   1      31.923  21.337  25.486  1.00  0.00     0.024 A 
ATOM     83  Cl  UNL A   1      34.556  20.985  25.969  1.00  0.00    -0.081 Cl
ENDBRANCH  74  76
ENDBRANCH  66  72
ENDBRANCH  62  65
ENDBRANCH  60  61
ENDBRANCH  59  60
ENDBRANCH  58  59
ENDBRANCH   1  58
TORSDOF 15
ENDMDL
MODEL 3
REMARK VINA RESULT:     -10.8      2.398      7.387
REMARK SMILES O=C(NCCCCCCNC(=O)[C@@H]1[C@H](C(=O)Nc2cccc(Cl)c2F)[C@@H]2C=C[C@H]1C2)c1ccc(-c2c3nc(c(-c4ccccc4)c4ccc([nH]4)c(-c4ccccc4)c4nc(c(-c5ccccc5)c5ccc2[nH]5)C=C4)C=C3)cc1
REMARK SMILES IDX 6 1 5 2 4 3 3 4 1 5 2 6 31 8 32 9 78 10 33 11 77 12 34 13
REMARK SMILES IDX 35 14 36 15 71 16 37 17 76 18 70 19 72 20 38 21 75 22 69 23
REMARK SMILES IDX 68 24 39 26 61 27 46 28 60 29 47 30 50 31 59 32 73 33 48 34
REMARK SMILES IDX 49 35 58 37 74 38 51 39 40 40 41 41 45 42 42 43 44 44 43 45
REMARK SMILES IDX 62 46 63 47 67 48 64 49 66 50 65 51 52 52 53 53 57 54 54 55
REMARK SMILES IDX 56 56 55 57 7 58 8 59 9 60 10 61 11 62 12 64 13 65 14 66
REMARK SMILES IDX 29 67 26 68 28 69 30 70 27 71 15 72 16 73 17 74 18 76 19 77
REMARK SMILES IDX 24 78 20 79 22 80 25 81 21 82 23 83
REMARK H PARENT 3 7 72 25 50 36 10 63 17 75
REMARK Flexibility Score: inf
ROOT
ATOM      1  C   UNL A   1      35.922  21.507  25.356  1.00  0.00     0.002 C 
ENDROOT
BRANCH   1   2
ATOM      2  C   UNL A   1      36.020  23.003  25.045  1.00  0.00     0.021 C 
BRANCH   2   3
ATOM      3  C   UNL A   1      37.308  23.665  25.526  1.00  0.00     0.116 C 
BRANCH   3   4
ATOM      4  N   UNL A   1      38.374  22.693  25.691  1.00  0.00    -0.352 N 
ATOM      5  O   UNL A   1      40.538  22.094  25.982  1.00  0.00    -0.269 OA
ATOM      6  C   UNL A   1      39.651  22.921  26.141  1.00  0.00     0.251 C 
ATOM      7  H   UNL A   1      38.155  21.763  25.452  1.00  0.00     0.163 HD
BRANCH   6   8
ATOM      8  C   UNL A   1      39.935  24.199  26.824  1.00  0.00     0.039 A 
ATOM      9  C   UNL A   1      39.531  24.374  28.151  1.00  0.00     0.014 A 
ATOM     10  C   UNL A   1      40.589  25.221  26.136  1.00  0.00     0.014 A 
ATOM     11  C   UNL A   1      39.691  25.612  28.760  1.00  0.00     0.010 A 
ATOM     12  C   UNL A   1      40.826  26.438  26.780  1.00  0.00     0.010 A 
ATOM     13  C   UNL A   1      40.373  26.644  28.094  1.00  0.00    -0.014 A 
BRANCH  13  14
ATOM     14  C   UNL A   1      40.704  27.887  28.831  1.00  0.00     0.031 A 
ATOM     15  C   UNL A   1      42.044  28.085  29.476  1.00  0.00     0.074 A 
ATOM     16  C   UNL A   1      39.761  28.846  28.908  1.00  0.00     0.049 A 
ATOM     17  N   UNL A   1      42.476  29.109  30.169  1.00  0.00    -0.248 NA
ATOM     18  C   UNL A   1      43.023  26.998  29.334  1.00  0.00     0.031 C 
ATOM     19  C   UNL A   1      38.421  28.761  28.318  1.00  0.00     0.029 A 
ATOM     20  N   UNL A   1      39.784  30.082  29.499  1.00  0.00    -0.354 N 
ATOM     21  C   UNL A   1      43.769  28.785  30.561  1.00  0.00     0.074 A 
ATOM     22  C   UNL A   1      44.043  27.458  30.048  1.00  0.00     0.031 C 
ATOM     23  C   UNL A   1      37.769  29.910  28.539  1.00  0.00     0.029 A 
ATOM     24  C   UNL A   1      38.610  30.780  29.348  1.00  0.00     0.049 A 
ATOM     25  H   UNL A   1      40.564  30.434  29.986  1.00  0.00     0.167 HD
ATOM     26  C   UNL A   1      44.644  29.528  31.279  1.00  0.00     0.031 A 
ATOM     27  C   UNL A   1      38.237  31.978  29.830  1.00  0.00     0.031 A 
ATOM     28  C   UNL A   1      44.355  30.842  31.798  1.00  0.00     0.049 A 
ATOM     29  C   UNL A   1      39.206  32.752  30.675  1.00  0.00     0.074 A 
ATOM     30  C   UNL A   1      45.183  31.686  32.518  1.00  0.00     0.029 A 
ATOM     31  N   UNL A   1      43.139  31.497  31.661  1.00  0.00    -0.354 N 
ATOM     32  N   UNL A   1      40.437  32.445  31.007  1.00  0.00    -0.248 NA
ATOM     33  C   UNL A   1      38.734  34.033  31.211  1.00  0.00     0.031 C 
ATOM     34  C   UNL A   1      44.449  32.824  32.870  1.00  0.00     0.029 A 
ATOM     35  C   UNL A   1      43.185  32.721  32.311  1.00  0.00     0.049 A 
ATOM     36  H   UNL A   1      42.359  31.145  31.175  1.00  0.00     0.167 HD
ATOM     37  C   UNL A   1      40.894  33.507  31.773  1.00  0.00     0.074 A 
ATOM     38  C   UNL A   1      39.815  34.473  31.837  1.00  0.00     0.031 C 
ATOM     39  C   UNL A   1      42.100  33.668  32.371  1.00  0.00     0.031 A 
BRANCH  26  40
ATOM     40  C   UNL A   1      45.990  28.927  31.579  1.00  0.00    -0.014 A 
ATOM     41  C   UNL A   1      47.088  29.125  30.727  1.00  0.00     0.009 A 
ATOM     42  C   UNL A   1      46.176  28.191  32.760  1.00  0.00     0.009 A 
ATOM     43  C   UNL A   1      48.334  28.570  31.034  1.00  0.00     0.001 A 
ATOM     44  C   UNL A   1      47.429  27.661  33.079  1.00  0.00     0.001 A 
ATOM     45  C   UNL A   1      48.504  27.844  32.212  1.00  0.00     0.000 A 
ENDBRANCH  26  40
BRANCH  27  46
ATOM     46  C   UNL A   1      36.877  32.501  29.542  1.00  0.00    -0.014 A 
ATOM     47  C   UNL A   1      35.827  32.298  30.449  1.00  0.00     0.009 A 
ATOM     48  C   UNL A   1      36.626  33.221  28.363  1.00  0.00     0.009 A 
ATOM     49  C   UNL A   1      34.547  32.783  30.167  1.00  0.00     0.001 A 
ATOM     50  C   UNL A   1      35.355  33.735  28.101  1.00  0.00     0.001 A 
ATOM     51  C   UNL A   1      34.315  33.507  28.998  1.00  0.00     0.000 A 
ENDBRANCH  27  46
BRANCH  39  52
ATOM     52  C   UNL A   1      42.324  34.953  33.117  1.00  0.00    -0.014 A 
ATOM     53  C   UNL A   1      43.076  36.000  32.562  1.00  0.00     0.009 A 
ATOM     54  C   UNL A   1      41.747  35.127  34.385  1.00  0.00     0.009 A 
ATOM     55  C   UNL A   1      43.276  37.181  33.278  1.00  0.00     0.001 A 
ATOM     56  C   UNL A   1      41.920  36.322  35.083  1.00  0.00     0.001 A 
ATOM     57  C   UNL A   1      42.692  37.344  34.535  1.00  0.00     0.000 A 
ENDBRANCH  39  52
ENDBRANCH  13  14
ENDBRANCH   6   8
ENDBRANCH   3   4
ENDBRANCH   2   3
ENDBRANCH   1   2
BRANCH   1  58
ATOM     58  C   UNL A   1      34.590  20.852  24.979  1.00  0.00     0.002 C 
BRANCH  58  59
ATOM     59  C   UNL A   1      33.702  20.484  26.172  1.00  0.00     0.021 C 
BRANCH  59  60
ATOM     60  C   UNL A   1      33.572  21.553  27.261  1.00  0.00     0.116 C 
BRANCH  60  61
ATOM     61  N   UNL A   1      32.276  22.226  27.307  1.00  0.00    -0.356 N 
ATOM     62  C   UNL A   1      31.569  22.858  26.317  1.00  0.00     0.224 C 
ATOM     63  H   UNL A   1      31.843  22.225  28.190  1.00  0.00     0.163 HD
ATOM     64  O   UNL A   1      30.355  22.972  26.469  1.00  0.00    -0.275 OA
BRANCH  62  65
ATOM     65  C   UNL A   1      32.267  23.352  25.066  1.00  0.00     0.098 C 
ATOM     66  C   UNL A   1      32.718  24.825  24.831  1.00  0.00     0.099 C 
ATOM     67  C   UNL A   1      31.536  23.020  23.723  1.00  0.00     0.025 C 
ATOM     68  C   UNL A   1      32.620  24.921  23.259  1.00  0.00     0.025 C 
ATOM     69  C   UNL A   1      30.510  24.059  23.280  1.00  0.00    -0.027 C 
ATOM     70  C   UNL A   1      32.659  23.464  22.774  1.00  0.00     0.017 C 
ATOM     71  C   UNL A   1      31.174  25.171  22.925  1.00  0.00    -0.027 C 
BRANCH  66  72
ATOM     72  C   UNL A   1      31.923  26.005  25.443  1.00  0.00     0.228 C 
ATOM     73  O   UNL A   1      31.021  25.798  26.255  1.00  0.00    -0.274 OA
ATOM     74  N   UNL A   1      32.359  27.265  25.086  1.00  0.00    -0.323 N 
ATOM     75  H   UNL A   1      32.355  27.499  24.130  1.00  0.00     0.170 HD
BRANCH  74  76
ATOM     76  C   UNL A   1      32.809  28.236  25.996  1.00  0.00     0.078 A 
ATOM     77  C   UNL A   1      34.038  28.181  26.637  1.00  0.00     0.029 A 
ATOM     78  C   UNL A   1      32.012  29.384  26.104  1.00  0.00     0.165 A 
ATOM     79  C   UNL A   1      34.489  29.301  27.341  1.00  0.00     0.004 A 
ATOM     80  C   UNL A   1      32.496  30.523  26.728  1.00  0.00     0.078 A 
ATOM     81  F   UNL A   1      30.823  29.410  25.483  1.00  0.00    -0.203 F 
ATOM     82  C   UNL A   1      33.738  30.483  27.353  1.00  0.00     0.024 A 
ATOM     83  Cl  UNL A   1      31.618  32.000  26.651  1.00  0.00    -0.081 Cl
ENDBRANCH  74  76
ENDBRANCH  66  72
ENDBRANCH  62  65
ENDBRANCH  60  61
ENDBRANCH  59  60
ENDBRANCH  58  59
ENDBRANCH   1  58
TORSDOF 15
ENDMDL
