MODEL 1
REMARK VINA RESULT:     -11.2      0.000      0.000
REMARK SMILES O=C(Cc1cncnc1N1CCC2(CC1)OCCC[C@@H]2O)NCCCCCCNC(=O)c1ccc(-c2c3nc(c(-c4ccccc4)c4ccc([nH]4)c(-c4ccccc4)c4nc(c(-c5ccccc5)c5ccc2[nH]5)C=C4)C=C3)cc1
REMARK SMILES IDX 25 1 24 2 23 3 22 4 1 5 2 6 3 8 4 9 5 10 9 11 6 12 8 13 7 14
REMARK SMILES IDX 10 15 11 16 15 17 12 18 14 19 13 20 16 21 20 22 17 23 19 24
REMARK SMILES IDX 18 25 21 26 26 28 27 29 28 30 29 31 30 32 31 34 32 35 33 36
REMARK SMILES IDX 79 37 34 38 78 39 35 40 36 41 37 42 72 43 38 44 77 45 71 46
REMARK SMILES IDX 73 47 39 48 76 49 70 50 69 51 40 53 62 54 47 55 61 56 48 57
REMARK SMILES IDX 51 58 60 59 74 60 49 61 50 62 59 64 75 65 52 66 41 67 42 68
REMARK SMILES IDX 46 69 43 70 45 71 44 72 63 73 64 74 68 75 65 76 67 77 66 78
REMARK SMILES IDX 53 79 54 80 58 81 55 82 57 83 56 84
REMARK H PARENT 22 7 21 27 29 33 73 52 51 63
REMARK Flexibility Score: inf
ROOT
ATOM      1  C   UNL A   1      34.390  32.276  29.062  1.00  0.00     0.002 C 
ENDROOT
BRANCH   1   2
ATOM      2  C   UNL A   1      34.817  31.555  27.774  1.00  0.00     0.021 C 
BRANCH   2   3
ATOM      3  C   UNL A   1      35.006  30.048  27.927  1.00  0.00     0.116 C 
BRANCH   3   4
ATOM      4  N   UNL A   1      33.758  29.363  27.703  1.00  0.00    -0.356 N 
ATOM      5  O   UNL A   1      34.209  28.645  25.568  1.00  0.00    -0.275 OA
ATOM      6  C   UNL A   1      33.451  28.726  26.525  1.00  0.00     0.224 C 
ATOM      7  H   UNL A   1      33.093  29.351  28.429  1.00  0.00     0.163 HD
BRANCH   6   8
ATOM      8  C   UNL A   1      32.061  28.140  26.536  1.00  0.00     0.141 C 
BRANCH   8   9
ATOM      9  C   UNL A   1      31.330  28.218  25.225  1.00  0.00     0.022 A 
ATOM     10  C   UNL A   1      30.986  29.432  24.651  1.00  0.00     0.121 A 
ATOM     11  C   UNL A   1      31.147  27.099  24.417  1.00  0.00     0.135 A 
ATOM     12  N   UNL A   1      30.502  29.571  23.406  1.00  0.00    -0.244 NA
ATOM     13  N   UNL A   1      30.681  27.205  23.158  1.00  0.00    -0.219 NA
ATOM     14  C   UNL A   1      30.373  28.432  22.719  1.00  0.00     0.224 A 
BRANCH  11  15
ATOM     15  N   UNL A   1      31.561  25.856  24.853  1.00  0.00    -0.356 N 
ATOM     16  C   UNL A   1      32.796  25.314  24.322  1.00  0.00     0.121 C 
ATOM     17  C   UNL A   1      30.575  24.850  25.239  1.00  0.00     0.121 C 
ATOM     18  C   UNL A   1      33.479  24.604  25.487  1.00  0.00     0.060 C 
ATOM     19  C   UNL A   1      31.160  24.044  26.401  1.00  0.00     0.060 C 
ATOM     20  C   UNL A   1      32.579  23.499  26.103  1.00  0.00     0.097 C 
ATOM     21  O   UNL A   1      32.393  22.417  25.169  1.00  0.00    -0.372 OA
ATOM     22  C   UNL A   1      33.221  22.989  27.431  1.00  0.00     0.146 C 
ATOM     23  C   UNL A   1      33.548  21.635  24.887  1.00  0.00     0.161 C 
ATOM     24  C   UNL A   1      34.474  22.160  27.165  1.00  0.00     0.037 C 
ATOM     25  C   UNL A   1      34.183  21.065  26.146  1.00  0.00     0.031 C 
BRANCH  22  26
ATOM     26  O   UNL A   1      32.295  22.182  28.168  1.00  0.00    -0.390 OA
ATOM     27  H   UNL A   1      32.649  21.283  28.256  1.00  0.00     0.211 HD
ENDBRANCH  22  26
ENDBRANCH  11  15
ENDBRANCH   8   9
ENDBRANCH   6   8
ENDBRANCH   3   4
ENDBRANCH   2   3
ENDBRANCH   1   2
BRANCH   1  28
ATOM     28  C   UNL A   1      34.580  33.795  29.045  1.00  0.00     0.002 C 
BRANCH  28  29
ATOM     29  C   UNL A   1      33.280  34.598  29.034  1.00  0.00     0.021 C 
BRANCH  29  30
ATOM     30  C   UNL A   1      33.402  36.002  29.612  1.00  0.00     0.116 C 
BRANCH  30  31
ATOM     31  N   UNL A   1      32.490  36.229  30.721  1.00  0.00    -0.352 N 
ATOM     32  C   UNL A   1      32.565  35.758  32.007  1.00  0.00     0.251 C 
ATOM     33  H   UNL A   1      31.711  36.797  30.521  1.00  0.00     0.163 HD
ATOM     34  O   UNL A   1      31.622  35.907  32.780  1.00  0.00    -0.269 OA
BRANCH  32  35
ATOM     35  C   UNL A   1      33.780  35.044  32.450  1.00  0.00     0.039 A 
ATOM     36  C   UNL A   1      33.663  33.727  32.898  1.00  0.00     0.014 A 
ATOM     37  C   UNL A   1      35.031  35.667  32.406  1.00  0.00     0.014 A 
ATOM     38  C   UNL A   1      34.811  33.013  33.243  1.00  0.00     0.010 A 
ATOM     39  C   UNL A   1      36.179  34.929  32.676  1.00  0.00     0.010 A 
ATOM     40  C   UNL A   1      36.081  33.595  33.100  1.00  0.00    -0.014 A 
BRANCH  40  41
ATOM     41  C   UNL A   1      37.317  32.825  33.388  1.00  0.00     0.031 A 
ATOM     42  C   UNL A   1      38.082  33.066  34.662  1.00  0.00     0.074 A 
ATOM     43  C   UNL A   1      37.781  31.944  32.480  1.00  0.00     0.049 A 
ATOM     44  N   UNL A   1      39.207  32.531  35.063  1.00  0.00    -0.248 NA
ATOM     45  C   UNL A   1      37.520  34.054  35.598  1.00  0.00     0.031 C 
ATOM     46  C   UNL A   1      37.153  31.642  31.191  1.00  0.00     0.029 A 
ATOM     47  N   UNL A   1      38.896  31.142  32.501  1.00  0.00    -0.354 N 
ATOM     48  C   UNL A   1      39.491  33.122  36.287  1.00  0.00     0.074 A 
ATOM     49  C   UNL A   1      38.451  34.095  36.539  1.00  0.00     0.031 C 
ATOM     50  C   UNL A   1      37.875  30.703  30.559  1.00  0.00     0.029 A 
ATOM     51  C   UNL A   1      39.040  30.369  31.373  1.00  0.00     0.049 A 
ATOM     52  H   UNL A   1      39.531  31.122  33.253  1.00  0.00     0.167 HD
ATOM     53  C   UNL A   1      40.512  32.863  37.138  1.00  0.00     0.031 A 
ATOM     54  C   UNL A   1      40.007  29.497  31.028  1.00  0.00     0.031 A 
ATOM     55  C   UNL A   1      41.545  31.892  36.891  1.00  0.00     0.049 A 
ATOM     56  C   UNL A   1      41.149  29.255  31.977  1.00  0.00     0.074 A 
ATOM     57  C   UNL A   1      42.597  31.527  37.712  1.00  0.00     0.029 A 
ATOM     58  N   UNL A   1      41.655  31.131  35.737  1.00  0.00    -0.354 N 
ATOM     59  N   UNL A   1      41.366  29.775  33.161  1.00  0.00    -0.248 NA
ATOM     60  C   UNL A   1      42.174  28.295  31.545  1.00  0.00     0.031 C 
ATOM     61  C   UNL A   1      43.377  30.587  37.031  1.00  0.00     0.029 A 
ATOM     62  C   UNL A   1      42.773  30.319  35.814  1.00  0.00     0.049 A 
ATOM     63  H   UNL A   1      41.031  31.165  34.976  1.00  0.00     0.167 HD
ATOM     64  C   UNL A   1      42.531  29.181  33.627  1.00  0.00     0.074 A 
ATOM     65  C   UNL A   1      42.964  28.248  32.609  1.00  0.00     0.031 C 
ATOM     66  C   UNL A   1      43.186  29.390  34.795  1.00  0.00     0.031 A 
BRANCH  53  67
ATOM     67  C   UNL A   1      40.565  33.644  38.422  1.00  0.00    -0.014 A 
ATOM     68  C   UNL A   1      41.264  34.859  38.504  1.00  0.00     0.009 A 
ATOM     69  C   UNL A   1      39.861  33.188  39.548  1.00  0.00     0.009 A 
ATOM     70  C   UNL A   1      41.282  35.587  39.695  1.00  0.00     0.001 A 
ATOM     71  C   UNL A   1      39.855  33.934  40.728  1.00  0.00     0.001 A 
ATOM     72  C   UNL A   1      40.571  35.127  40.803  1.00  0.00     0.000 A 
ENDBRANCH  53  67
BRANCH  54  73
ATOM     73  C   UNL A   1      39.948  28.786  29.722  1.00  0.00    -0.014 A 
ATOM     74  C   UNL A   1      39.380  27.505  29.632  1.00  0.00     0.009 A 
ATOM     75  C   UNL A   1      40.491  29.368  28.567  1.00  0.00     0.009 A 
ATOM     76  C   UNL A   1      39.394  26.808  28.421  1.00  0.00     0.001 A 
ATOM     77  C   UNL A   1      40.473  28.683  27.351  1.00  0.00     0.001 A 
ATOM     78  C   UNL A   1      39.937  27.398  27.282  1.00  0.00     0.000 A 
ENDBRANCH  54  73
BRANCH  66  79
ATOM     79  C   UNL A   1      44.415  28.563  35.054  1.00  0.00    -0.014 A 
ATOM     80  C   UNL A   1      44.340  27.326  35.712  1.00  0.00     0.009 A 
ATOM     81  C   UNL A   1      45.663  29.013  34.593  1.00  0.00     0.009 A 
ATOM     82  C   UNL A   1      45.497  26.576  35.938  1.00  0.00     0.001 A 
ATOM     83  C   UNL A   1      46.811  28.246  34.790  1.00  0.00     0.001 A 
ATOM     84  C   UNL A   1      46.729  27.033  35.472  1.00  0.00     0.000 A 
ENDBRANCH  66  79
ENDBRANCH  40  41
ENDBRANCH  32  35
ENDBRANCH  30  31
ENDBRANCH  29  30
ENDBRANCH  28  29
ENDBRANCH   1  28
TORSDOF 16
ENDMDL
MODEL 2
REMARK VINA RESULT:     -11.0      4.766      9.516
REMARK SMILES O=C(Cc1cncnc1N1CCC2(CC1)OCCC[C@@H]2O)NCCCCCCNC(=O)c1ccc(-c2c3nc(c(-c4ccccc4)c4ccc([nH]4)c(-c4ccccc4)c4nc(c(-c5ccccc5)c5ccc2[nH]5)C=C4)C=C3)cc1
REMARK SMILES IDX 25 1 24 2 23 3 22 4 1 5 2 6 3 8 4 9 5 10 9 11 6 12 8 13 7 14
REMARK SMILES IDX 10 15 11 16 15 17 12 18 14 19 13 20 16 21 20 22 17 23 19 24
REMARK SMILES IDX 18 25 21 26 26 28 27 29 28 30 29 31 30 32 31 34 32 35 33 36
REMARK SMILES IDX 79 37 34 38 78 39 35 40 36 41 37 42 72 43 38 44 77 45 71 46
REMARK SMILES IDX 73 47 39 48 76 49 70 50 69 51 40 53 62 54 47 55 61 56 48 57
REMARK SMILES IDX 51 58 60 59 74 60 49 61 50 62 59 64 75 65 52 66 41 67 42 68
REMARK SMILES IDX 46 69 43 70 45 71 44 72 63 73 64 74 68 75 65 76 67 77 66 78
REMARK SMILES IDX 53 79 54 80 58 81 55 82 57 83 56 84
REMARK H PARENT 22 7 21 27 29 33 73 52 51 63
REMARK Flexibility Score: inf
ROOT
ATOM      1  C   UNL A   1      38.029  22.560  25.754  1.00  0.00     0.002 C 
ENDROOT
BRANCH   1   2
ATOM      2  C   UNL A   1      37.040  23.659  26.172  1.00  0.00     0.021 C 
BRANCH   2   3
ATOM      3  C   UNL A   1      36.059  24.074  25.079  1.00  0.00     0.116 C 
BRANCH   3   4
ATOM      4  N   UNL A   1      34.901  24.705  25.661  1.00  0.00    -0.356 N 
ATOM      5  O   UNL A   1      34.304  25.947  23.823  1.00  0.00    -0.275 OA
ATOM      6  C   UNL A   1      34.121  25.612  24.986  1.00  0.00     0.224 C 
ATOM      7  H   UNL A   1      34.657  24.476  26.587  1.00  0.00     0.163 HD
BRANCH   6   8
ATOM      8  C   UNL A   1      33.008  26.162  25.843  1.00  0.00     0.141 C 
BRANCH   8   9
ATOM      9  C   UNL A   1      31.712  26.403  25.122  1.00  0.00     0.022 A 
ATOM     10  C   UNL A   1      31.284  27.680  24.795  1.00  0.00     0.121 A 
ATOM     11  C   UNL A   1      30.978  25.362  24.559  1.00  0.00     0.135 A 
ATOM     12  N   UNL A   1      30.238  27.948  23.996  1.00  0.00    -0.244 NA
ATOM     13  N   UNL A   1      29.935  25.596  23.740  1.00  0.00    -0.219 NA
ATOM     14  C   UNL A   1      29.611  26.874  23.508  1.00  0.00     0.224 A 
BRANCH  11  15
ATOM     15  N   UNL A   1      31.387  24.055  24.733  1.00  0.00    -0.356 N 
ATOM     16  C   UNL A   1      31.801  23.300  23.566  1.00  0.00     0.121 C 
ATOM     17  C   UNL A   1      30.815  23.246  25.806  1.00  0.00     0.121 C 
ATOM     18  C   UNL A   1      32.986  22.451  24.016  1.00  0.00     0.060 C 
ATOM     19  C   UNL A   1      31.916  22.321  26.331  1.00  0.00     0.060 C 
ATOM     20  C   UNL A   1      32.621  21.524  25.206  1.00  0.00     0.097 C 
ATOM     21  O   UNL A   1      31.677  20.515  24.792  1.00  0.00    -0.372 OA
ATOM     22  C   UNL A   1      33.921  20.875  25.775  1.00  0.00     0.146 C 
ATOM     23  C   UNL A   1      32.173  19.535  23.887  1.00  0.00     0.161 C 
ATOM     24  C   UNL A   1      34.490  19.829  24.820  1.00  0.00     0.037 C 
ATOM     25  C   UNL A   1      33.412  18.830  24.419  1.00  0.00     0.031 C 
BRANCH  22  26
ATOM     26  O   UNL A   1      33.666  20.242  27.035  1.00  0.00    -0.390 OA
ATOM     27  H   UNL A   1      32.940  20.701  27.486  1.00  0.00     0.211 HD
ENDBRANCH  22  26
ENDBRANCH  11  15
ENDBRANCH   8   9
ENDBRANCH   6   8
ENDBRANCH   3   4
ENDBRANCH   2   3
ENDBRANCH   1   2
BRANCH   1  28
ATOM     28  C   UNL A   1      37.558  21.672  24.599  1.00  0.00     0.002 C 
BRANCH  28  29
ATOM     29  C   UNL A   1      38.138  20.259  24.606  1.00  0.00     0.021 C 
BRANCH  29  30
ATOM     30  C   UNL A   1      38.664  19.801  25.961  1.00  0.00     0.116 C 
BRANCH  30  31
ATOM     31  N   UNL A   1      39.927  19.088  25.855  1.00  0.00    -0.352 N 
ATOM     32  C   UNL A   1      41.201  19.566  26.021  1.00  0.00     0.251 C 
ATOM     33  H   UNL A   1      39.857  18.132  25.633  1.00  0.00     0.163 HD
ATOM     34  O   UNL A   1      42.170  18.869  25.733  1.00  0.00    -0.269 OA
BRANCH  32  35
ATOM     35  C   UNL A   1      41.403  20.940  26.525  1.00  0.00     0.039 A 
ATOM     36  C   UNL A   1      41.239  21.190  27.889  1.00  0.00     0.014 A 
ATOM     37  C   UNL A   1      41.769  21.973  25.658  1.00  0.00     0.014 A 
ATOM     38  C   UNL A   1      41.504  22.464  28.393  1.00  0.00     0.010 A 
ATOM     39  C   UNL A   1      42.108  23.220  26.173  1.00  0.00     0.010 A 
ATOM     40  C   UNL A   1      41.976  23.479  27.546  1.00  0.00    -0.014 A 
BRANCH  40  41
ATOM     41  C   UNL A   1      42.337  24.818  28.077  1.00  0.00     0.031 A 
ATOM     42  C   UNL A   1      43.754  25.111  28.493  1.00  0.00     0.074 A 
ATOM     43  C   UNL A   1      41.381  25.754  28.236  1.00  0.00     0.049 A 
ATOM     44  N   UNL A   1      44.249  26.198  29.026  1.00  0.00    -0.248 NA
ATOM     45  C   UNL A   1      44.739  24.033  28.303  1.00  0.00     0.031 C 
ATOM     46  C   UNL A   1      39.964  25.586  27.905  1.00  0.00     0.029 A 
ATOM     47  N   UNL A   1      41.457  27.036  28.722  1.00  0.00    -0.354 N 
ATOM     48  C   UNL A   1      45.595  25.933  29.245  1.00  0.00     0.074 A 
ATOM     49  C   UNL A   1      45.829  24.566  28.837  1.00  0.00     0.031 C 
ATOM     50  C   UNL A   1      39.311  26.728  28.171  1.00  0.00     0.029 A 
ATOM     51  C   UNL A   1      40.250  27.694  28.734  1.00  0.00     0.049 A 
ATOM     52  H   UNL A   1      42.297  27.446  29.033  1.00  0.00     0.167 HD
ATOM     53  C   UNL A   1      46.557  26.760  29.720  1.00  0.00     0.031 A 
ATOM     54  C   UNL A   1      39.933  28.931  29.159  1.00  0.00     0.031 A 
ATOM     55  C   UNL A   1      46.327  28.122  30.122  1.00  0.00     0.049 A 
ATOM     56  C   UNL A   1      41.014  29.816  29.716  1.00  0.00     0.074 A 
ATOM     57  C   UNL A   1      47.246  29.052  30.575  1.00  0.00     0.029 A 
ATOM     58  N   UNL A   1      45.090  28.749  30.119  1.00  0.00    -0.354 N 
ATOM     59  N   UNL A   1      42.296  29.571  29.853  1.00  0.00    -0.248 NA
ATOM     60  C   UNL A   1      40.607  31.154  30.166  1.00  0.00     0.031 C 
ATOM     61  C   UNL A   1      46.556  30.224  30.901  1.00  0.00     0.029 A 
ATOM     62  C   UNL A   1      45.219  30.045  30.587  1.00  0.00     0.049 A 
ATOM     63  H   UNL A   1      44.247  28.334  29.827  1.00  0.00     0.167 HD
ATOM     64  C   UNL A   1      42.849  30.733  30.372  1.00  0.00     0.074 A 
ATOM     65  C   UNL A   1      41.771  31.689  30.506  1.00  0.00     0.031 C 
ATOM     66  C   UNL A   1      44.138  30.987  30.709  1.00  0.00     0.031 A 
BRANCH  53  67
ATOM     67  C   UNL A   1      47.953  26.212  29.833  1.00  0.00    -0.014 A 
ATOM     68  C   UNL A   1      48.827  26.222  28.734  1.00  0.00     0.009 A 
ATOM     69  C   UNL A   1      48.419  25.733  31.067  1.00  0.00     0.009 A 
ATOM     70  C   UNL A   1      50.130  25.736  28.861  1.00  0.00     0.001 A 
ATOM     71  C   UNL A   1      49.732  25.275  31.199  1.00  0.00     0.001 A 
ATOM     72  C   UNL A   1      50.582  25.270  30.095  1.00  0.00     0.000 A 
ENDBRANCH  53  67
BRANCH  54  73
ATOM     73  C   UNL A   1      38.527  29.416  29.083  1.00  0.00    -0.014 A 
ATOM     74  C   UNL A   1      37.666  29.286  30.184  1.00  0.00     0.009 A 
ATOM     75  C   UNL A   1      38.030  29.979  27.899  1.00  0.00     0.009 A 
ATOM     76  C   UNL A   1      36.327  29.672  30.086  1.00  0.00     0.001 A 
ATOM     77  C   UNL A   1      36.700  30.396  27.814  1.00  0.00     0.001 A 
ATOM     78  C   UNL A   1      35.846  30.229  28.903  1.00  0.00     0.000 A 
ENDBRANCH  54  73
BRANCH  66  79
ATOM     79  C   UNL A   1      44.459  32.367  31.213  1.00  0.00    -0.014 A 
ATOM     80  C   UNL A   1      44.416  32.676  32.581  1.00  0.00     0.009 A 
ATOM     81  C   UNL A   1      44.851  33.362  30.304  1.00  0.00     0.009 A 
ATOM     82  C   UNL A   1      44.722  33.965  33.023  1.00  0.00     0.001 A 
ATOM     83  C   UNL A   1      45.189  34.639  30.751  1.00  0.00     0.001 A 
ATOM     84  C   UNL A   1      45.113  34.943  32.110  1.00  0.00     0.000 A 
ENDBRANCH  66  79
ENDBRANCH  40  41
ENDBRANCH  32  35
ENDBRANCH  30  31
ENDBRANCH  29  30
ENDBRANCH  28  29
ENDBRANCH   1  28
TORSDOF 16
ENDMDL
MODEL 3
REMARK VINA RESULT:     -11.0      0.428      5.765
REMARK SMILES O=C(Cc1cncnc1N1CCC2(CC1)OCCC[C@@H]2O)NCCCCCCNC(=O)c1ccc(-c2c3nc(c(-c4ccccc4)c4ccc([nH]4)c(-c4ccccc4)c4nc(c(-c5ccccc5)c5ccc2[nH]5)C=C4)C=C3)cc1
REMARK SMILES IDX 25 1 24 2 23 3 22 4 1 5 2 6 3 8 4 9 5 10 9 11 6 12 8 13 7 14
REMARK SMILES IDX 10 15 11 16 15 17 12 18 14 19 13 20 16 21 20 22 17 23 19 24
REMARK SMILES IDX 18 25 21 26 26 28 27 29 28 30 29 31 30 32 31 34 32 35 33 36
REMARK SMILES IDX 79 37 34 38 78 39 35 40 36 41 37 42 72 43 38 44 77 45 71 46
REMARK SMILES IDX 73 47 39 48 76 49 70 50 69 51 40 53 62 54 47 55 61 56 48 57
REMARK SMILES IDX 51 58 60 59 74 60 49 61 50 62 59 64 75 65 52 66 41 67 42 68
REMARK SMILES IDX 46 69 43 70 45 71 44 72 63 73 64 74 68 75 65 76 67 77 66 78
REMARK SMILES IDX 53 79 54 80 58 81 55 82 57 83 56 84
REMARK H PARENT 22 7 21 27 29 33 73 52 51 63
REMARK Flexibility Score: inf
ROOT
ATOM      1  C   UNL A   1      34.529  32.240  29.081  1.00  0.00     0.002 C 
ENDROOT
BRANCH   1   2
ATOM      2  C   UNL A   1      35.193  31.528  27.892  1.00  0.00     0.021 C 
BRANCH   2   3
ATOM      3  C   UNL A   1      35.439  30.037  28.108  1.00  0.00     0.116 C 
BRANCH   3   4
ATOM      4  N   UNL A   1      34.207  29.301  27.969  1.00  0.00    -0.356 N 
ATOM      5  O   UNL A   1      34.527  28.623  25.798  1.00  0.00    -0.275 OA
ATOM      6  C   UNL A   1      33.839  28.663  26.810  1.00  0.00     0.224 C 
ATOM      7  H   UNL A   1      33.599  29.255  28.742  1.00  0.00     0.163 HD
BRANCH   6   8
ATOM      8  C   UNL A   1      32.479  28.020  26.916  1.00  0.00     0.141 C 
BRANCH   8   9
ATOM      9  C   UNL A   1      31.586  28.222  25.724  1.00  0.00     0.022 A 
ATOM     10  C   UNL A   1      31.278  29.486  25.248  1.00  0.00     0.121 A 
ATOM     11  C   UNL A   1      31.194  27.162  24.910  1.00  0.00     0.135 A 
ATOM     12  N   UNL A   1      30.645  29.726  24.088  1.00  0.00    -0.244 NA
ATOM     13  N   UNL A   1      30.573  27.368  23.733  1.00  0.00    -0.219 NA
ATOM     14  C   UNL A   1      30.320  28.637  23.386  1.00  0.00     0.224 A 
BRANCH  11  15
ATOM     15  N   UNL A   1      31.550  25.870  25.239  1.00  0.00    -0.356 N 
ATOM     16  C   UNL A   1      32.623  25.238  24.497  1.00  0.00     0.121 C 
ATOM     17  C   UNL A   1      30.546  24.943  25.757  1.00  0.00     0.121 C 
ATOM     18  C   UNL A   1      33.412  24.420  25.514  1.00  0.00     0.060 C 
ATOM     19  C   UNL A   1      31.229  24.039  26.785  1.00  0.00     0.060 C 
ATOM     20  C   UNL A   1      32.521  23.378  26.242  1.00  0.00     0.097 C 
ATOM     21  O   UNL A   1      32.080  22.358  25.324  1.00  0.00    -0.372 OA
ATOM     22  C   UNL A   1      33.316  22.756  27.431  1.00  0.00     0.146 C 
ATOM     23  C   UNL A   1      33.091  21.485  24.834  1.00  0.00     0.161 C 
ATOM     24  C   UNL A   1      34.423  21.826  26.940  1.00  0.00     0.037 C 
ATOM     25  C   UNL A   1      33.863  20.807  25.955  1.00  0.00     0.031 C 
BRANCH  22  26
ATOM     26  O   UNL A   1      32.448  22.008  28.290  1.00  0.00    -0.390 OA
ATOM     27  H   UNL A   1      32.630  21.060  28.189  1.00  0.00     0.211 HD
ENDBRANCH  22  26
ENDBRANCH  11  15
ENDBRANCH   8   9
ENDBRANCH   6   8
ENDBRANCH   3   4
ENDBRANCH   2   3
ENDBRANCH   1   2
BRANCH   1  28
ATOM     28  C   UNL A   1      34.704  33.761  29.102  1.00  0.00     0.002 C 
BRANCH  28  29
ATOM     29  C   UNL A   1      33.401  34.552  29.002  1.00  0.00     0.021 C 
BRANCH  29  30
ATOM     30  C   UNL A   1      33.433  35.908  29.695  1.00  0.00     0.116 C 
BRANCH  30  31
ATOM     31  N   UNL A   1      32.448  36.012  30.760  1.00  0.00    -0.352 N 
ATOM     32  C   UNL A   1      32.499  35.505  32.033  1.00  0.00     0.251 C 
ATOM     33  H   UNL A   1      31.631  36.514  30.535  1.00  0.00     0.163 HD
ATOM     34  O   UNL A   1      31.509  35.540  32.758  1.00  0.00    -0.269 OA
BRANCH  32  35
ATOM     35  C   UNL A   1      33.751  34.888  32.519  1.00  0.00     0.039 A 
ATOM     36  C   UNL A   1      33.731  33.553  32.927  1.00  0.00     0.014 A 
ATOM     37  C   UNL A   1      34.941  35.620  32.556  1.00  0.00     0.014 A 
ATOM     38  C   UNL A   1      34.921  32.933  33.312  1.00  0.00     0.010 A 
ATOM     39  C   UNL A   1      36.137  34.980  32.865  1.00  0.00     0.010 A 
ATOM     40  C   UNL A   1      36.138  33.630  33.250  1.00  0.00    -0.014 A 
BRANCH  40  41
ATOM     41  C   UNL A   1      37.423  32.964  33.581  1.00  0.00     0.031 A 
ATOM     42  C   UNL A   1      38.023  31.960  32.633  1.00  0.00     0.074 A 
ATOM     43  C   UNL A   1      38.025  33.222  34.758  1.00  0.00     0.049 A 
ATOM     44  N   UNL A   1      39.106  31.238  32.772  1.00  0.00    -0.248 NA
ATOM     45  C   UNL A   1      37.299  31.720  31.373  1.00  0.00     0.031 C 
ATOM     46  C   UNL A   1      37.531  34.148  35.781  1.00  0.00     0.029 A 
ATOM     47  N   UNL A   1      39.186  32.724  35.297  1.00  0.00    -0.354 N 
ATOM     48  C   UNL A   1      39.187  30.455  31.628  1.00  0.00     0.074 A 
ATOM     49  C   UNL A   1      38.018  30.748  30.830  1.00  0.00     0.031 C 
ATOM     50  C   UNL A   1      38.394  34.172  36.808  1.00  0.00     0.029 A 
ATOM     51  C   UNL A   1      39.478  33.231  36.541  1.00  0.00     0.049 A 
ATOM     52  H   UNL A   1      39.755  32.066  34.836  1.00  0.00     0.167 HD
ATOM     53  C   UNL A   1      40.159  29.586  31.262  1.00  0.00     0.031 A 
ATOM     54  C   UNL A   1      40.499  32.962  37.377  1.00  0.00     0.031 A 
ATOM     55  C   UNL A   1      41.326  29.297  32.053  1.00  0.00     0.049 A 
ATOM     56  C   UNL A   1      41.546  31.966  36.960  1.00  0.00     0.074 A 
ATOM     57  C   UNL A   1      42.388  28.464  31.747  1.00  0.00     0.029 A 
ATOM     58  N   UNL A   1      41.584  29.831  33.306  1.00  0.00    -0.354 N 
ATOM     59  N   UNL A   1      41.642  31.283  35.844  1.00  0.00    -0.248 NA
ATOM     60  C   UNL A   1      42.634  31.712  37.915  1.00  0.00     0.031 C 
ATOM     61  C   UNL A   1      43.261  28.450  32.839  1.00  0.00     0.029 A 
ATOM     62  C   UNL A   1      42.775  29.324  33.797  1.00  0.00     0.049 A 
ATOM     63  H   UNL A   1      41.005  30.474  33.776  1.00  0.00     0.167 HD
ATOM     64  C   UNL A   1      42.814  30.548  35.951  1.00  0.00     0.074 A 
ATOM     65  C   UNL A   1      43.406  30.881  37.229  1.00  0.00     0.031 C 
ATOM     66  C   UNL A   1      43.353  29.671  35.068  1.00  0.00     0.031 A 
BRANCH  53  67
ATOM     67  C   UNL A   1      40.004  28.881  29.942  1.00  0.00    -0.014 A 
ATOM     68  C   UNL A   1      40.420  29.484  28.745  1.00  0.00     0.009 A 
ATOM     69  C   UNL A   1      39.486  27.577  29.902  1.00  0.00     0.009 A 
ATOM     70  C   UNL A   1      40.295  28.806  27.530  1.00  0.00     0.001 A 
ATOM     71  C   UNL A   1      39.390  26.891  28.690  1.00  0.00     0.001 A 
ATOM     72  C   UNL A   1      39.786  27.508  27.506  1.00  0.00     0.000 A 
ENDBRANCH  53  67
BRANCH  54  73
ATOM     73  C   UNL A   1      40.587  33.639  38.700  1.00  0.00    -0.014 A 
ATOM     74  C   UNL A   1      41.313  34.832  38.845  1.00  0.00     0.009 A 
ATOM     75  C   UNL A   1      39.977  33.077  39.832  1.00  0.00     0.009 A 
ATOM     76  C   UNL A   1      41.457  35.425  40.101  1.00  0.00     0.001 A 
ATOM     77  C   UNL A   1      40.095  33.690  41.080  1.00  0.00     0.001 A 
ATOM     78  C   UNL A   1      40.846  34.856  41.216  1.00  0.00     0.000 A 
ENDBRANCH  54  73
BRANCH  66  79
ATOM     79  C   UNL A   1      44.672  29.046  35.435  1.00  0.00    -0.014 A 
ATOM     80  C   UNL A   1      44.737  27.827  36.127  1.00  0.00     0.009 A 
ATOM     81  C   UNL A   1      45.866  29.671  35.045  1.00  0.00     0.009 A 
ATOM     82  C   UNL A   1      45.974  27.268  36.454  1.00  0.00     0.001 A 
ATOM     83  C   UNL A   1      47.100  29.093  35.343  1.00  0.00     0.001 A 
ATOM     84  C   UNL A   1      47.153  27.896  36.056  1.00  0.00     0.000 A 
ENDBRANCH  66  79
ENDBRANCH  40  41
ENDBRANCH  32  35
ENDBRANCH  30  31
ENDBRANCH  29  30
ENDBRANCH  28  29
ENDBRANCH   1  28
TORSDOF 16
ENDMDL
