MODEL 1
REMARK VINA RESULT:     -11.2      0.000      0.000
REMARK SMILES CS(=O)(=O)c1ccc(-c2cc(Cl)cnc2-c2ccc(C(=O)NCCCCCCNC(=O)c3ccc(-c4c5nc(c(-c6ccccc6)c6ccc([nH]6)c(-c6ccccc6)c6nc(c(-c7ccccc7)c7ccc4[nH]7)C=C6)C=C5)cc3)nc2)cc1
REMARK SMILES IDX 25 1 24 2 23 3 22 4 20 5 21 6 19 8 16 9 17 10 81 11 18 12
REMARK SMILES IDX 80 13 15 14 9 15 10 16 11 17 14 18 12 19 13 20 8 21 5 22
REMARK SMILES IDX 6 23 83 24 7 25 82 26 2 27 1 28 3 29 4 30 26 31 27 32 28 33
REMARK SMILES IDX 29 34 30 35 31 37 32 38 33 39 79 40 34 41 78 42 35 43 36 44
REMARK SMILES IDX 37 45 72 46 38 47 77 48 71 49 73 50 39 51 76 52 70 53 69 54
REMARK SMILES IDX 40 56 62 57 47 58 61 59 48 60 51 61 60 62 74 63 49 64 50 65
REMARK SMILES IDX 59 67 75 68 52 69 41 70 42 71 46 72 43 73 45 74 44 75 63 76
REMARK SMILES IDX 64 77 68 78 65 79 67 80 66 81 53 82 54 83 58 84 55 85 57 86
REMARK SMILES IDX 56 87
REMARK H PARENT 22 7 29 36 73 55 51 66
REMARK Flexibility Score: inf
ROOT
ATOM      1  C   UNL A   1      38.922  29.039  27.685  1.00  0.00     0.002 C 
ENDROOT
BRANCH   1   2
ATOM      2  C   UNL A   1      37.759  30.016  27.907  1.00  0.00     0.021 C 
BRANCH   2   3
ATOM      3  C   UNL A   1      36.517  29.341  28.494  1.00  0.00     0.116 C 
BRANCH   3   4
ATOM      4  N   UNL A   1      35.355  30.183  28.304  1.00  0.00    -0.351 N 
ATOM      5  C   UNL A   1      34.220  30.101  27.532  1.00  0.00     0.269 C 
ATOM      6  O   UNL A   1      33.440  31.051  27.640  1.00  0.00    -0.268 OA
ATOM      7  H   UNL A   1      35.382  30.999  28.854  1.00  0.00     0.163 HD
BRANCH   5   8
ATOM      8  C   UNL A   1      33.871  28.946  26.626  1.00  0.00     0.128 A 
ATOM      9  C   UNL A   1      33.272  26.616  25.234  1.00  0.00     0.019 A 
ATOM     10  C   UNL A   1      34.004  27.636  24.624  1.00  0.00     0.014 A 
ATOM     11  C   UNL A   1      32.798  26.875  26.510  1.00  0.00     0.122 A 
ATOM     12  C   UNL A   1      34.276  28.820  25.307  1.00  0.00     0.035 A 
ATOM     13  N   UNL A   1      33.102  27.989  27.218  1.00  0.00    -0.250 NA
BRANCH   9  14
ATOM     14  C   UNL A   1      33.057  25.336  24.555  1.00  0.00     0.080 A 
ATOM     15  C   UNL A   1      31.911  25.084  23.763  1.00  0.00     0.010 A 
ATOM     16  C   UNL A   1      31.717  23.762  23.331  1.00  0.00     0.033 A 
ATOM     17  C   UNL A   1      32.640  22.776  23.666  1.00  0.00     0.060 A 
ATOM     18  N   UNL A   1      33.984  24.389  24.854  1.00  0.00    -0.254 NA
ATOM     19  Cl  UNL A   1      32.388  21.148  23.188  1.00  0.00    -0.083 Cl
ATOM     20  C   UNL A   1      33.755  23.134  24.405  1.00  0.00     0.132 A 
BRANCH  15  21
ATOM     21  C   UNL A   1      30.935  26.139  23.421  1.00  0.00    -0.016 A 
ATOM     22  C   UNL A   1      29.155  28.268  22.926  1.00  0.00     0.067 A 
ATOM     23  C   UNL A   1      30.388  28.223  22.272  1.00  0.00     0.021 A 
ATOM     24  C   UNL A   1      28.785  27.245  23.797  1.00  0.00     0.021 A 
ATOM     25  C   UNL A   1      31.265  27.162  22.514  1.00  0.00     0.010 A 
ATOM     26  C   UNL A   1      29.672  26.187  24.039  1.00  0.00     0.010 A 
BRANCH  22  27
ATOM     27  S   UNL A   1      28.109  29.671  22.614  1.00  0.00     0.175 S 
ATOM     28  C   UNL A   1      28.773  31.035  23.525  1.00  0.00     0.163 C 
ATOM     29  O   UNL A   1      26.817  29.361  23.202  1.00  0.00    -0.224 OA
ATOM     30  O   UNL A   1      28.244  29.971  21.203  1.00  0.00    -0.224 OA
ENDBRANCH  22  27
ENDBRANCH  15  21
ENDBRANCH   9  14
ENDBRANCH   5   8
ENDBRANCH   3   4
ENDBRANCH   2   3
ENDBRANCH   1   2
BRANCH   1  31
ATOM     31  C   UNL A   1      38.735  27.661  28.336  1.00  0.00     0.002 C 
BRANCH  31  32
ATOM     32  C   UNL A   1      39.424  26.509  27.602  1.00  0.00     0.021 C 
BRANCH  32  33
ATOM     33  C   UNL A   1      40.131  25.526  28.527  1.00  0.00     0.116 C 
BRANCH  33  34
ATOM     34  N   UNL A   1      40.492  24.302  27.827  1.00  0.00    -0.352 N 
ATOM     35  C   UNL A   1      41.533  24.071  26.966  1.00  0.00     0.251 C 
ATOM     36  H   UNL A   1      39.905  23.531  27.995  1.00  0.00     0.163 HD
ATOM     37  O   UNL A   1      41.542  23.068  26.260  1.00  0.00    -0.269 OA
BRANCH  35  38
ATOM     38  C   UNL A   1      42.645  25.037  26.890  1.00  0.00     0.039 A 
ATOM     39  C   UNL A   1      42.945  25.634  25.663  1.00  0.00     0.014 A 
ATOM     40  C   UNL A   1      43.403  25.339  28.027  1.00  0.00     0.014 A 
ATOM     41  C   UNL A   1      43.976  26.569  25.587  1.00  0.00     0.010 A 
ATOM     42  C   UNL A   1      44.376  26.329  27.966  1.00  0.00     0.010 A 
ATOM     43  C   UNL A   1      44.680  26.946  26.743  1.00  0.00    -0.014 A 
BRANCH  43  44
ATOM     44  C   UNL A   1      45.747  27.975  26.692  1.00  0.00     0.031 A 
ATOM     45  C   UNL A   1      45.395  29.433  26.793  1.00  0.00     0.074 A 
ATOM     46  C   UNL A   1      47.026  27.597  26.498  1.00  0.00     0.049 A 
ATOM     47  N   UNL A   1      46.180  30.478  26.714  1.00  0.00    -0.248 NA
ATOM     48  C   UNL A   1      43.973  29.763  26.984  1.00  0.00     0.031 C 
ATOM     49  C   UNL A   1      47.490  26.215  26.353  1.00  0.00     0.029 A 
ATOM     50  N   UNL A   1      48.171  28.344  26.388  1.00  0.00    -0.354 N 
ATOM     51  C   UNL A   1      45.347  31.584  26.833  1.00  0.00     0.074 A 
ATOM     52  C   UNL A   1      43.993  31.086  26.932  1.00  0.00     0.031 C 
ATOM     53  C   UNL A   1      48.824  26.213  26.204  1.00  0.00     0.029 A 
ATOM     54  C   UNL A   1      49.303  27.592  26.196  1.00  0.00     0.049 A 
ATOM     55  H   UNL A   1      48.179  29.328  26.441  1.00  0.00     0.167 HD
ATOM     56  C   UNL A   1      45.681  32.896  26.878  1.00  0.00     0.031 A 
ATOM     57  C   UNL A   1      50.584  27.970  26.024  1.00  0.00     0.031 A 
ATOM     58  C   UNL A   1      47.029  33.387  26.785  1.00  0.00     0.049 A 
ATOM     59  C   UNL A   1      50.923  29.435  26.045  1.00  0.00     0.074 A 
ATOM     60  C   UNL A   1      47.476  34.695  26.866  1.00  0.00     0.029 A 
ATOM     61  N   UNL A   1      48.148  32.593  26.586  1.00  0.00    -0.354 N 
ATOM     62  N   UNL A   1      50.131  30.465  26.221  1.00  0.00    -0.248 NA
ATOM     63  C   UNL A   1      52.337  29.788  25.852  1.00  0.00     0.031 C 
ATOM     64  C   UNL A   1      48.858  34.697  26.655  1.00  0.00     0.029 A 
ATOM     65  C   UNL A   1      49.281  33.385  26.512  1.00  0.00     0.049 A 
ATOM     66  H   UNL A   1      48.137  31.611  26.508  1.00  0.00     0.167 HD
ATOM     67  C   UNL A   1      50.954  31.584  26.196  1.00  0.00     0.074 A 
ATOM     68  C   UNL A   1      52.308  31.104  26.002  1.00  0.00     0.031 C 
ATOM     69  C   UNL A   1      50.620  32.891  26.321  1.00  0.00     0.031 A 
BRANCH  56  70
ATOM     70  C   UNL A   1      44.564  33.893  27.026  1.00  0.00    -0.014 A 
ATOM     71  C   UNL A   1      43.928  34.448  25.904  1.00  0.00     0.009 A 
ATOM     72  C   UNL A   1      44.113  34.250  28.307  1.00  0.00     0.009 A 
ATOM     73  C   UNL A   1      42.888  35.367  26.062  1.00  0.00     0.001 A 
ATOM     74  C   UNL A   1      43.051  35.142  28.461  1.00  0.00     0.001 A 
ATOM     75  C   UNL A   1      42.446  35.707  27.340  1.00  0.00     0.000 A 
ENDBRANCH  56  70
BRANCH  57  76
ATOM     76  C   UNL A   1      51.646  26.948  25.821  1.00  0.00    -0.014 A 
ATOM     77  C   UNL A   1      52.294  26.364  26.922  1.00  0.00     0.009 A 
ATOM     78  C   UNL A   1      52.034  26.568  24.527  1.00  0.00     0.009 A 
ATOM     79  C   UNL A   1      53.331  25.447  26.729  1.00  0.00     0.001 A 
ATOM     80  C   UNL A   1      53.047  25.625  24.338  1.00  0.00     0.001 A 
ATOM     81  C   UNL A   1      53.703  25.076  25.438  1.00  0.00     0.000 A 
ENDBRANCH  57  76
BRANCH  69  82
ATOM     82  C   UNL A   1      51.741  33.894  26.298  1.00  0.00    -0.014 A 
ATOM     83  C   UNL A   1      52.397  34.288  27.475  1.00  0.00     0.009 A 
ATOM     84  C   UNL A   1      52.173  34.419  25.070  1.00  0.00     0.009 A 
ATOM     85  C   UNL A   1      53.438  35.217  27.424  1.00  0.00     0.001 A 
ATOM     86  C   UNL A   1      53.236  35.321  25.019  1.00  0.00     0.001 A 
ATOM     87  C   UNL A   1      53.860  35.727  26.196  1.00  0.00     0.000 A 
ENDBRANCH  69  82
ENDBRANCH  43  44
ENDBRANCH  35  38
ENDBRANCH  33  34
ENDBRANCH  32  33
ENDBRANCH  31  32
ENDBRANCH   1  31
TORSDOF 16
ENDMDL
MODEL 2
REMARK VINA RESULT:     -11.0      3.167      4.719
REMARK SMILES CS(=O)(=O)c1ccc(-c2cc(Cl)cnc2-c2ccc(C(=O)NCCCCCCNC(=O)c3ccc(-c4c5nc(c(-c6ccccc6)c6ccc([nH]6)c(-c6ccccc6)c6nc(c(-c7ccccc7)c7ccc4[nH]7)C=C6)C=C5)cc3)nc2)cc1
REMARK SMILES IDX 25 1 24 2 23 3 22 4 20 5 21 6 19 8 16 9 17 10 81 11 18 12
REMARK SMILES IDX 80 13 15 14 9 15 10 16 11 17 14 18 12 19 13 20 8 21 5 22
REMARK SMILES IDX 6 23 83 24 7 25 82 26 2 27 1 28 3 29 4 30 26 31 27 32 28 33
REMARK SMILES IDX 29 34 30 35 31 37 32 38 33 39 79 40 34 41 78 42 35 43 36 44
REMARK SMILES IDX 37 45 72 46 38 47 77 48 71 49 73 50 39 51 76 52 70 53 69 54
REMARK SMILES IDX 40 56 62 57 47 58 61 59 48 60 51 61 60 62 74 63 49 64 50 65
REMARK SMILES IDX 59 67 75 68 52 69 41 70 42 71 46 72 43 73 45 74 44 75 63 76
REMARK SMILES IDX 64 77 68 78 65 79 67 80 66 81 53 82 54 83 58 84 55 85 57 86
REMARK SMILES IDX 56 87
REMARK H PARENT 22 7 29 36 73 55 51 66
REMARK Flexibility Score: inf
ROOT
ATOM      1  C   UNL A   1      35.503  31.026  30.102  1.00  0.00     0.002 C 
ENDROOT
BRANCH   1   2
ATOM      2  C   UNL A   1      36.197  30.159  29.041  1.00  0.00     0.021 C 
BRANCH   2   3
ATOM      3  C   UNL A   1      35.982  30.674  27.616  1.00  0.00     0.116 C 
BRANCH   3   4
ATOM      4  N   UNL A   1      34.608  31.090  27.437  1.00  0.00    -0.351 N 
ATOM      5  C   UNL A   1      33.476  30.491  26.937  1.00  0.00     0.269 C 
ATOM      6  O   UNL A   1      32.462  31.195  26.941  1.00  0.00    -0.268 OA
ATOM      7  H   UNL A   1      34.446  32.012  27.744  1.00  0.00     0.163 HD
BRANCH   5   8
ATOM      8  C   UNL A   1      33.397  29.069  26.438  1.00  0.00     0.128 A 
ATOM      9  C   UNL A   1      33.188  26.586  25.207  1.00  0.00     0.019 A 
ATOM     10  C   UNL A   1      32.695  26.779  26.498  1.00  0.00     0.014 A 
ATOM     11  C   UNL A   1      33.852  27.658  24.633  1.00  0.00     0.122 A 
ATOM     12  C   UNL A   1      32.830  28.014  27.132  1.00  0.00     0.035 A 
ATOM     13  N   UNL A   1      33.941  28.885  25.201  1.00  0.00    -0.250 NA
BRANCH   9  14
ATOM     14  C   UNL A   1      32.973  25.320  24.502  1.00  0.00     0.080 A 
ATOM     15  C   UNL A   1      31.826  25.084  23.707  1.00  0.00     0.010 A 
ATOM     16  C   UNL A   1      31.631  23.772  23.249  1.00  0.00     0.033 A 
ATOM     17  C   UNL A   1      32.554  22.778  23.563  1.00  0.00     0.060 A 
ATOM     18  N   UNL A   1      33.899  24.367  24.781  1.00  0.00    -0.254 NA
ATOM     19  Cl  UNL A   1      32.301  21.160  23.053  1.00  0.00    -0.083 Cl
ATOM     20  C   UNL A   1      33.669  23.122  24.308  1.00  0.00     0.132 A 
BRANCH  15  21
ATOM     21  C   UNL A   1      30.850  26.146  23.386  1.00  0.00    -0.016 A 
ATOM     22  C   UNL A   1      29.075  28.289  22.931  1.00  0.00     0.067 A 
ATOM     23  C   UNL A   1      30.291  28.231  22.246  1.00  0.00     0.021 A 
ATOM     24  C   UNL A   1      28.718  27.270  23.814  1.00  0.00     0.021 A 
ATOM     25  C   UNL A   1      31.165  27.164  22.469  1.00  0.00     0.010 A 
ATOM     26  C   UNL A   1      29.603  26.205  24.035  1.00  0.00     0.010 A 
BRANCH  22  27
ATOM     27  S   UNL A   1      28.033  29.698  22.641  1.00  0.00     0.175 S 
ATOM     28  C   UNL A   1      28.758  31.071  23.490  1.00  0.00     0.163 C 
ATOM     29  O   UNL A   1      26.767  29.419  23.299  1.00  0.00    -0.224 OA
ATOM     30  O   UNL A   1      28.101  29.968  21.220  1.00  0.00    -0.224 OA
ENDBRANCH  22  27
ENDBRANCH  15  21
ENDBRANCH   9  14
ENDBRANCH   5   8
ENDBRANCH   3   4
ENDBRANCH   2   3
ENDBRANCH   1   2
BRANCH   1  31
ATOM     31  C   UNL A   1      36.246  32.323  30.456  1.00  0.00     0.002 C 
BRANCH  31  32
ATOM     32  C   UNL A   1      35.996  32.834  31.876  1.00  0.00     0.021 C 
BRANCH  32  33
ATOM     33  C   UNL A   1      37.145  32.561  32.839  1.00  0.00     0.116 C 
BRANCH  33  34
ATOM     34  N   UNL A   1      37.292  31.137  33.101  1.00  0.00    -0.352 N 
ATOM     35  C   UNL A   1      38.217  30.255  32.607  1.00  0.00     0.251 C 
ATOM     36  H   UNL A   1      36.633  30.753  33.722  1.00  0.00     0.163 HD
ATOM     37  O   UNL A   1      38.041  29.046  32.718  1.00  0.00    -0.269 OA
BRANCH  35  38
ATOM     38  C   UNL A   1      39.427  30.767  31.936  1.00  0.00     0.039 A 
ATOM     39  C   UNL A   1      39.514  30.692  30.544  1.00  0.00     0.014 A 
ATOM     40  C   UNL A   1      40.480  31.303  32.683  1.00  0.00     0.014 A 
ATOM     41  C   UNL A   1      40.642  31.199  29.898  1.00  0.00     0.010 A 
ATOM     42  C   UNL A   1      41.566  31.878  32.033  1.00  0.00     0.010 A 
ATOM     43  C   UNL A   1      41.663  31.822  30.635  1.00  0.00    -0.014 A 
BRANCH  43  44
ATOM     44  C   UNL A   1      42.847  32.411  29.962  1.00  0.00     0.031 A 
ATOM     45  C   UNL A   1      42.807  33.831  29.471  1.00  0.00     0.074 A 
ATOM     46  C   UNL A   1      43.935  31.647  29.745  1.00  0.00     0.049 A 
ATOM     47  N   UNL A   1      43.719  34.502  28.814  1.00  0.00    -0.248 NA
ATOM     48  C   UNL A   1      41.573  34.592  29.732  1.00  0.00     0.031 C 
ATOM     49  C   UNL A   1      44.083  30.245  30.145  1.00  0.00     0.029 A 
ATOM     50  N   UNL A   1      45.125  31.943  29.130  1.00  0.00    -0.354 N 
ATOM     51  C   UNL A   1      43.165  35.754  28.574  1.00  0.00     0.074 A 
ATOM     52  C   UNL A   1      41.821  35.731  29.103  1.00  0.00     0.031 C 
ATOM     53  C   UNL A   1      45.305  29.815  29.793  1.00  0.00     0.029 A 
ATOM     54  C   UNL A   1      46.007  30.891  29.103  1.00  0.00     0.049 A 
ATOM     55  H   UNL A   1      45.327  32.827  28.746  1.00  0.00     0.167 HD
ATOM     56  C   UNL A   1      43.734  36.832  27.983  1.00  0.00     0.031 A 
ATOM     57  C   UNL A   1      47.243  30.801  28.574  1.00  0.00     0.031 A 
ATOM     58  C   UNL A   1      45.074  36.853  27.463  1.00  0.00     0.049 A 
ATOM     59  C   UNL A   1      47.837  32.004  27.894  1.00  0.00     0.074 A 
ATOM     60  C   UNL A   1      45.758  37.911  26.888  1.00  0.00     0.029 A 
ATOM     61  N   UNL A   1      45.934  35.765  27.449  1.00  0.00    -0.354 N 
ATOM     62  N   UNL A   1      47.322  33.199  27.731  1.00  0.00    -0.248 NA
ATOM     63  C   UNL A   1      49.187  31.847  27.335  1.00  0.00     0.031 C 
ATOM     64  C   UNL A   1      47.009  37.446  26.472  1.00  0.00     0.029 A 
ATOM     65  C   UNL A   1      47.131  36.119  26.850  1.00  0.00     0.049 A 
ATOM     66  H   UNL A   1      45.723  34.875  27.812  1.00  0.00     0.167 HD
ATOM     67  C   UNL A   1      48.299  33.945  27.081  1.00  0.00     0.074 A 
ATOM     68  C   UNL A   1      49.440  33.071  26.897  1.00  0.00     0.031 C 
ATOM     69  C   UNL A   1      48.256  35.237  26.675  1.00  0.00     0.031 A 
BRANCH  56  70
ATOM     70  C   UNL A   1      42.900  38.079  27.863  1.00  0.00    -0.014 A 
ATOM     71  C   UNL A   1      42.888  39.049  28.878  1.00  0.00     0.009 A 
ATOM     72  C   UNL A   1      42.149  38.306  26.699  1.00  0.00     0.009 A 
ATOM     73  C   UNL A   1      42.114  40.203  28.745  1.00  0.00     0.001 A 
ATOM     74  C   UNL A   1      41.402  39.477  26.555  1.00  0.00     0.001 A 
ATOM     75  C   UNL A   1      41.377  40.420  27.581  1.00  0.00     0.000 A 
ENDBRANCH  56  70
BRANCH  57  76
ATOM     76  C   UNL A   1      48.006  29.528  28.666  1.00  0.00    -0.014 A 
ATOM     77  C   UNL A   1      47.887  28.551  27.665  1.00  0.00     0.009 A 
ATOM     78  C   UNL A   1      48.840  29.273  29.765  1.00  0.00     0.009 A 
ATOM     79  C   UNL A   1      48.560  27.331  27.781  1.00  0.00     0.001 A 
ATOM     80  C   UNL A   1      49.539  28.067  29.862  1.00  0.00     0.001 A 
ATOM     81  C   UNL A   1      49.387  27.093  28.877  1.00  0.00     0.000 A 
ENDBRANCH  57  76
BRANCH  69  82
ATOM     82  C   UNL A   1      49.493  35.798  26.030  1.00  0.00    -0.014 A 
ATOM     83  C   UNL A   1      49.661  35.791  24.636  1.00  0.00     0.009 A 
ATOM     84  C   UNL A   1      50.488  36.380  26.832  1.00  0.00     0.009 A 
ATOM     85  C   UNL A   1      50.818  36.322  24.063  1.00  0.00     0.001 A 
ATOM     86  C   UNL A   1      51.627  36.940  26.253  1.00  0.00     0.001 A 
ATOM     87  C   UNL A   1      51.796  36.901  24.871  1.00  0.00     0.000 A 
ENDBRANCH  69  82
ENDBRANCH  43  44
ENDBRANCH  35  38
ENDBRANCH  33  34
ENDBRANCH  32  33
ENDBRANCH  31  32
ENDBRANCH   1  31
TORSDOF 16
ENDMDL
MODEL 3
REMARK VINA RESULT:     -11.0      7.479     10.869
REMARK SMILES CS(=O)(=O)c1ccc(-c2cc(Cl)cnc2-c2ccc(C(=O)NCCCCCCNC(=O)c3ccc(-c4c5nc(c(-c6ccccc6)c6ccc([nH]6)c(-c6ccccc6)c6nc(c(-c7ccccc7)c7ccc4[nH]7)C=C6)C=C5)cc3)nc2)cc1
REMARK SMILES IDX 25 1 24 2 23 3 22 4 20 5 21 6 19 8 16 9 17 10 81 11 18 12
REMARK SMILES IDX 80 13 15 14 9 15 10 16 11 17 14 18 12 19 13 20 8 21 5 22
REMARK SMILES IDX 6 23 83 24 7 25 82 26 2 27 1 28 3 29 4 30 26 31 27 32 28 33
REMARK SMILES IDX 29 34 30 35 31 37 32 38 33 39 79 40 34 41 78 42 35 43 36 44
REMARK SMILES IDX 37 45 72 46 38 47 77 48 71 49 73 50 39 51 76 52 70 53 69 54
REMARK SMILES IDX 40 56 62 57 47 58 61 59 48 60 51 61 60 62 74 63 49 64 50 65
REMARK SMILES IDX 59 67 75 68 52 69 41 70 42 71 46 72 43 73 45 74 44 75 63 76
REMARK SMILES IDX 64 77 68 78 65 79 67 80 66 81 53 82 54 83 58 84 55 85 57 86
REMARK SMILES IDX 56 87
REMARK H PARENT 22 7 29 36 73 55 51 66
REMARK Flexibility Score: inf
ROOT
ATOM      1  C   UNL A   1      35.356  34.275  29.404  1.00  0.00     0.002 C 
ENDROOT
BRANCH   1   2
ATOM      2  C   UNL A   1      36.544  33.514  28.797  1.00  0.00     0.021 C 
BRANCH   2   3
ATOM      3  C   UNL A   1      36.128  32.543  27.690  1.00  0.00     0.116 C 
BRANCH   3   4
ATOM      4  N   UNL A   1      36.182  31.180  28.175  1.00  0.00    -0.351 N 
ATOM      5  C   UNL A   1      35.462  30.036  27.920  1.00  0.00     0.269 C 
ATOM      6  O   UNL A   1      35.813  29.040  28.560  1.00  0.00    -0.268 OA
ATOM      7  H   UNL A   1      36.897  31.040  28.837  1.00  0.00     0.163 HD
BRANCH   5   8
ATOM      8  C   UNL A   1      34.339  29.925  26.919  1.00  0.00     0.128 A 
ATOM      9  C   UNL A   1      32.059  29.691  25.348  1.00  0.00     0.019 A 
ATOM     10  C   UNL A   1      33.256  29.093  24.951  1.00  0.00     0.014 A 
ATOM     11  C   UNL A   1      32.107  30.465  26.496  1.00  0.00     0.122 A 
ATOM     12  C   UNL A   1      34.410  29.237  25.719  1.00  0.00     0.035 A 
ATOM     13  N   UNL A   1      33.197  30.569  27.293  1.00  0.00    -0.250 NA
BRANCH   9  14
ATOM     14  C   UNL A   1      30.823  29.471  24.593  1.00  0.00     0.080 A 
ATOM     15  C   UNL A   1      30.396  28.179  24.203  1.00  0.00     0.010 A 
ATOM     16  C   UNL A   1      29.310  28.111  23.316  1.00  0.00     0.033 A 
ATOM     17  C   UNL A   1      28.693  29.278  22.876  1.00  0.00     0.060 A 
ATOM     18  N   UNL A   1      30.203  30.614  24.201  1.00  0.00    -0.254 NA
ATOM     19  Cl  UNL A   1      27.399  29.211  21.752  1.00  0.00    -0.083 Cl
ATOM     20  C   UNL A   1      29.156  30.493  23.354  1.00  0.00     0.132 A 
BRANCH  15  21
ATOM     21  C   UNL A   1      31.064  26.947  24.671  1.00  0.00    -0.016 A 
ATOM     22  C   UNL A   1      32.167  24.490  25.502  1.00  0.00     0.067 A 
ATOM     23  C   UNL A   1      32.389  24.951  24.203  1.00  0.00     0.021 A 
ATOM     24  C   UNL A   1      31.431  25.258  26.404  1.00  0.00     0.021 A 
ATOM     25  C   UNL A   1      31.847  26.173  23.797  1.00  0.00     0.010 A 
ATOM     26  C   UNL A   1      30.887  26.481  25.987  1.00  0.00     0.010 A 
BRANCH  22  27
ATOM     27  S   UNL A   1      32.839  22.904  25.939  1.00  0.00     0.175 S 
ATOM     28  C   UNL A   1      31.836  21.674  25.157  1.00  0.00     0.163 C 
ATOM     29  O   UNL A   1      32.647  22.754  27.372  1.00  0.00    -0.224 OA
ATOM     30  O   UNL A   1      34.159  22.845  25.345  1.00  0.00    -0.224 OA
ENDBRANCH  22  27
ENDBRANCH  15  21
ENDBRANCH   9  14
ENDBRANCH   5   8
ENDBRANCH   3   4
ENDBRANCH   2   3
ENDBRANCH   1   2
BRANCH   1  31
ATOM     31  C   UNL A   1      33.990  33.916  28.802  1.00  0.00     0.002 C 
BRANCH  31  32
ATOM     32  C   UNL A   1      32.886  34.942  29.066  1.00  0.00     0.021 C 
BRANCH  32  33
ATOM     33  C   UNL A   1      33.352  36.153  29.865  1.00  0.00     0.116 C 
BRANCH  33  34
ATOM     34  N   UNL A   1      32.512  36.374  31.033  1.00  0.00    -0.352 N 
ATOM     35  C   UNL A   1      32.585  35.798  32.275  1.00  0.00     0.251 C 
ATOM     36  H   UNL A   1      31.789  37.030  30.915  1.00  0.00     0.163 HD
ATOM     37  O   UNL A   1      31.647  35.895  33.059  1.00  0.00    -0.269 OA
BRANCH  35  38
ATOM     38  C   UNL A   1      33.800  35.057  32.665  1.00  0.00     0.039 A 
ATOM     39  C   UNL A   1      33.688  33.712  33.026  1.00  0.00     0.014 A 
ATOM     40  C   UNL A   1      35.044  35.696  32.691  1.00  0.00     0.014 A 
ATOM     41  C   UNL A   1      34.835  32.996  33.370  1.00  0.00     0.010 A 
ATOM     42  C   UNL A   1      36.193  34.960  32.956  1.00  0.00     0.010 A 
ATOM     43  C   UNL A   1      36.099  33.605  33.309  1.00  0.00    -0.014 A 
BRANCH  43  44
ATOM     44  C   UNL A   1      37.334  32.847  33.622  1.00  0.00     0.031 A 
ATOM     45  C   UNL A   1      38.097  33.136  34.885  1.00  0.00     0.074 A 
ATOM     46  C   UNL A   1      37.796  31.937  32.743  1.00  0.00     0.049 A 
ATOM     47  N   UNL A   1      39.224  32.618  35.304  1.00  0.00    -0.248 NA
ATOM     48  C   UNL A   1      37.535  34.158  35.784  1.00  0.00     0.031 C 
ATOM     49  C   UNL A   1      37.162  31.590  31.468  1.00  0.00     0.029 A 
ATOM     50  N   UNL A   1      38.911  31.139  32.787  1.00  0.00    -0.354 N 
ATOM     51  C   UNL A   1      39.509  33.258  36.504  1.00  0.00     0.074 A 
ATOM     52  C   UNL A   1      38.470  34.240  36.718  1.00  0.00     0.031 C 
ATOM     53  C   UNL A   1      37.882  30.628  30.868  1.00  0.00     0.029 A 
ATOM     54  C   UNL A   1      39.048  30.324  31.690  1.00  0.00     0.049 A 
ATOM     55  H   UNL A   1      39.551  31.149  33.535  1.00  0.00     0.167 HD
ATOM     56  C   UNL A   1      40.532  33.032  37.363  1.00  0.00     0.031 A 
ATOM     57  C   UNL A   1      40.012  29.437  31.376  1.00  0.00     0.031 A 
ATOM     58  C   UNL A   1      41.561  32.051  37.150  1.00  0.00     0.049 A 
ATOM     59  C   UNL A   1      41.155  29.231  32.331  1.00  0.00     0.074 A 
ATOM     60  C   UNL A   1      42.615  31.713  37.982  1.00  0.00     0.029 A 
ATOM     61  N   UNL A   1      41.668  31.249  36.023  1.00  0.00    -0.354 N 
ATOM     62  N   UNL A   1      41.376  29.800  33.492  1.00  0.00    -0.248 NA
ATOM     63  C   UNL A   1      42.177  28.251  31.936  1.00  0.00     0.031 C 
ATOM     64  C   UNL A   1      43.393  30.752  37.331  1.00  0.00     0.029 A 
ATOM     65  C   UNL A   1      42.786  30.440  36.126  1.00  0.00     0.049 A 
ATOM     66  H   UNL A   1      41.041  31.256  35.264  1.00  0.00     0.167 HD
ATOM     67  C   UNL A   1      42.542  29.223  33.981  1.00  0.00     0.074 A 
ATOM     68  C   UNL A   1      42.970  28.249  32.997  1.00  0.00     0.031 C 
ATOM     69  C   UNL A   1      43.198  29.475  35.139  1.00  0.00     0.031 A 
BRANCH  56  70
ATOM     70  C   UNL A   1      40.592  33.873  38.609  1.00  0.00    -0.014 A 
ATOM     71  C   UNL A   1      41.230  35.124  38.616  1.00  0.00     0.009 A 
ATOM     72  C   UNL A   1      39.963  33.427  39.782  1.00  0.00     0.009 A 
ATOM     73  C   UNL A   1      41.269  35.893  39.780  1.00  0.00     0.001 A 
ATOM     74  C   UNL A   1      39.974  34.214  40.935  1.00  0.00     0.001 A 
ATOM     75  C   UNL A   1      40.634  35.441  40.937  1.00  0.00     0.000 A 
ENDBRANCH  56  70
BRANCH  57  76
ATOM     76  C   UNL A   1      39.940  28.672  30.103  1.00  0.00    -0.014 A 
ATOM     77  C   UNL A   1      39.374  27.388  30.073  1.00  0.00     0.009 A 
ATOM     78  C   UNL A   1      40.457  29.212  28.914  1.00  0.00     0.009 A 
ATOM     79  C   UNL A   1      39.359  26.647  28.888  1.00  0.00     0.001 A 
ATOM     80  C   UNL A   1      40.410  28.483  27.724  1.00  0.00     0.001 A 
ATOM     81  C   UNL A   1      39.873  27.196  27.715  1.00  0.00     0.000 A 
ENDBRANCH  57  76
BRANCH  69  82
ATOM     82  C   UNL A   1      44.425  28.655  35.428  1.00  0.00    -0.014 A 
ATOM     83  C   UNL A   1      45.705  29.092  35.049  1.00  0.00     0.009 A 
ATOM     84  C   UNL A   1      44.299  27.445  36.128  1.00  0.00     0.009 A 
ATOM     85  C   UNL A   1      46.828  28.313  35.334  1.00  0.00     0.001 A 
ATOM     86  C   UNL A   1      45.427  26.687  36.441  1.00  0.00     0.001 A 
ATOM     87  C   UNL A   1      46.689  27.115  36.034  1.00  0.00     0.000 A 
ENDBRANCH  69  82
ENDBRANCH  43  44
ENDBRANCH  35  38
ENDBRANCH  33  34
ENDBRANCH  32  33
ENDBRANCH  31  32
ENDBRANCH   1  31
TORSDOF 16
ENDMDL
