MODEL 1
REMARK VINA RESULT:     -11.4      0.000      0.000
REMARK SMILES CC1=C[C@H](C)[C@@H](C(=O)NCCCCCCNC(=O)c2ccc(-c3c4nc(c(-c5ccccc5)c5ccc([nH]5)c(-c5ccccc5)c5nc(c(-c6ccccc6)c6ccc3[nH]6)C=C5)C=C4)cc2)[C@H](C(=O)Nc2cccnc2)C1
REMARK SMILES IDX 12 1 11 2 10 3 9 4 7 5 8 6 6 8 1 9 2 10 3 11 77 12 4 13
REMARK SMILES IDX 67 14 5 15 68 16 69 17 70 18 71 20 72 21 76 22 73 23 75 24
REMARK SMILES IDX 74 25 13 26 14 27 15 28 16 29 17 30 18 32 19 33 20 34 66 35
REMARK SMILES IDX 21 36 65 37 22 38 23 39 24 40 59 41 25 42 64 43 58 44 60 45
REMARK SMILES IDX 26 46 63 47 57 48 56 49 27 51 49 52 34 53 48 54 35 55 38 56
REMARK SMILES IDX 47 57 61 58 36 59 37 60 46 62 62 63 39 64 28 65 29 66 33 67
REMARK SMILES IDX 30 68 32 69 31 70 50 71 51 72 55 73 52 74 54 75 53 76 40 77
REMARK SMILES IDX 41 78 45 79 42 80 44 81 43 82
REMARK H PARENT 9 7 70 19 16 31 60 50 38 61
REMARK Flexibility Score: inf
ROOT
ATOM      1  C   UNL A   1      31.293  28.528  25.248  1.00  0.00     0.002 C 
ENDROOT
BRANCH   1   2
ATOM      2  C   UNL A   1      30.523  27.996  24.040  1.00  0.00     0.021 C 
BRANCH   2   3
ATOM      3  C   UNL A   1      30.953  26.606  23.595  1.00  0.00     0.116 C 
BRANCH   3   4
ATOM      4  N   UNL A   1      32.071  26.608  22.674  1.00  0.00    -0.356 N 
ATOM      5  C   UNL A   1      33.125  25.738  22.580  1.00  0.00     0.224 C 
ATOM      6  O   UNL A   1      33.868  25.846  21.602  1.00  0.00    -0.275 OA
ATOM      7  H   UNL A   1      32.075  27.343  22.019  1.00  0.00     0.163 HD
BRANCH   5   8
ATOM      8  C   UNL A   1      33.385  24.652  23.643  1.00  0.00     0.098 C 
ATOM      9  C   UNL A   1      37.277  22.786  24.809  1.00  0.00     0.039 C 
ATOM     10  C   UNL A   1      35.970  23.436  24.452  1.00  0.00    -0.076 C 
ATOM     11  C   UNL A   1      35.482  24.477  25.147  1.00  0.00    -0.024 C 
ATOM     12  C   UNL A   1      35.297  22.869  23.233  1.00  0.00     0.044 C 
ATOM     13  C   UNL A   1      34.252  25.262  24.777  1.00  0.00     0.022 C 
ATOM     14  C   UNL A   1      33.865  23.349  22.956  1.00  0.00     0.096 C 
ATOM     15  C   UNL A   1      33.414  25.633  26.010  1.00  0.00     0.013 C 
BRANCH  14  16
ATOM     16  C   UNL A   1      32.820  22.210  22.982  1.00  0.00     0.228 C 
ATOM     17  O   UNL A   1      32.261  21.877  21.930  1.00  0.00    -0.274 OA
ATOM     18  N   UNL A   1      32.572  21.443  24.086  1.00  0.00    -0.324 N 
ATOM     19  H   UNL A   1      32.216  20.545  23.896  1.00  0.00     0.169 HD
BRANCH  18  20
ATOM     20  C   UNL A   1      32.745  21.732  25.443  1.00  0.00     0.059 A 
ATOM     21  C   UNL A   1      33.863  21.305  26.139  1.00  0.00     0.029 A 
ATOM     22  C   UNL A   1      31.828  22.520  26.127  1.00  0.00     0.137 A 
ATOM     23  C   UNL A   1      33.982  21.575  27.500  1.00  0.00     0.022 A 
ATOM     24  N   UNL A   1      31.905  22.796  27.451  1.00  0.00    -0.263 NA
ATOM     25  C   UNL A   1      32.975  22.299  28.111  1.00  0.00     0.111 A 
ENDBRANCH  18  20
ENDBRANCH  14  16
ENDBRANCH   5   8
ENDBRANCH   3   4
ENDBRANCH   2   3
ENDBRANCH   1   2
BRANCH   1  26
ATOM     26  C   UNL A   1      32.531  29.376  24.923  1.00  0.00     0.002 C 
BRANCH  26  27
ATOM     27  C   UNL A   1      33.796  29.062  25.730  1.00  0.00     0.021 C 
BRANCH  27  28
ATOM     28  C   UNL A   1      33.616  29.022  27.245  1.00  0.00     0.116 C 
BRANCH  28  29
ATOM     29  N   UNL A   1      33.628  30.345  27.841  1.00  0.00    -0.352 N 
ATOM     30  C   UNL A   1      34.615  30.991  28.531  1.00  0.00     0.251 C 
ATOM     31  H   UNL A   1      32.794  30.858  27.730  1.00  0.00     0.163 HD
ATOM     32  O   UNL A   1      34.365  32.064  29.085  1.00  0.00    -0.269 OA
BRANCH  30  33
ATOM     33  C   UNL A   1      35.974  30.420  28.634  1.00  0.00     0.039 A 
ATOM     34  C   UNL A   1      36.378  29.884  29.860  1.00  0.00     0.014 A 
ATOM     35  C   UNL A   1      36.877  30.474  27.566  1.00  0.00     0.014 A 
ATOM     36  C   UNL A   1      37.674  29.389  30.013  1.00  0.00     0.010 A 
ATOM     37  C   UNL A   1      38.150  29.922  27.700  1.00  0.00     0.010 A 
ATOM     38  C   UNL A   1      38.568  29.399  28.932  1.00  0.00    -0.014 A 
BRANCH  38  39
ATOM     39  C   UNL A   1      39.964  28.924  29.104  1.00  0.00     0.031 A 
ATOM     40  C   UNL A   1      40.986  29.819  29.751  1.00  0.00     0.074 A 
ATOM     41  C   UNL A   1      40.314  27.697  28.675  1.00  0.00     0.049 A 
ATOM     42  N   UNL A   1      42.252  29.587  29.995  1.00  0.00    -0.248 NA
ATOM     43  C   UNL A   1      40.532  31.157  30.165  1.00  0.00     0.031 C 
ATOM     44  C   UNL A   1      39.424  26.743  28.012  1.00  0.00     0.029 A 
ATOM     45  N   UNL A   1      41.515  27.039  28.745  1.00  0.00    -0.354 N 
ATOM     46  C   UNL A   1      42.742  30.748  30.581  1.00  0.00     0.074 A 
ATOM     47  C   UNL A   1      41.655  31.702  30.606  1.00  0.00     0.031 C 
ATOM     48  C   UNL A   1      40.101  25.609  27.767  1.00  0.00     0.029 A 
ATOM     49  C   UNL A   1      41.476  25.765  28.232  1.00  0.00     0.049 A 
ATOM     50  H   UNL A   1      42.329  27.441  29.128  1.00  0.00     0.167 HD
ATOM     51  C   UNL A   1      43.978  30.993  31.079  1.00  0.00     0.031 A 
ATOM     52  C   UNL A   1      42.438  24.827  28.156  1.00  0.00     0.031 A 
ATOM     53  C   UNL A   1      45.059  30.045  31.066  1.00  0.00     0.049 A 
ATOM     54  C   UNL A   1      43.802  25.127  28.714  1.00  0.00     0.074 A 
ATOM     55  C   UNL A   1      46.345  30.194  31.556  1.00  0.00     0.029 A 
ATOM     56  N   UNL A   1      44.973  28.764  30.544  1.00  0.00    -0.354 N 
ATOM     57  N   UNL A   1      44.238  26.217  29.296  1.00  0.00    -0.248 NA
ATOM     58  C   UNL A   1      44.801  24.052  28.621  1.00  0.00     0.031 C 
ATOM     59  C   UNL A   1      47.046  29.007  31.308  1.00  0.00     0.029 A 
ATOM     60  C   UNL A   1      46.182  28.109  30.702  1.00  0.00     0.049 A 
ATOM     61  H   UNL A   1      44.171  28.377  30.124  1.00  0.00     0.167 HD
ATOM     62  C   UNL A   1      45.547  25.947  29.672  1.00  0.00     0.074 A 
ATOM     63  C   UNL A   1      45.828  24.587  29.264  1.00  0.00     0.031 C 
ATOM     64  C   UNL A   1      46.438  26.752  30.299  1.00  0.00     0.031 A 
BRANCH  51  65
ATOM     65  C   UNL A   1      44.215  32.346  31.688  1.00  0.00    -0.014 A 
ATOM     66  C   UNL A   1      43.952  32.581  33.047  1.00  0.00     0.009 A 
ATOM     67  C   UNL A   1      44.727  33.392  30.904  1.00  0.00     0.009 A 
ATOM     68  C   UNL A   1      44.161  33.845  33.601  1.00  0.00     0.001 A 
ATOM     69  C   UNL A   1      44.960  34.648  31.467  1.00  0.00     0.001 A 
ATOM     70  C   UNL A   1      44.669  34.876  32.812  1.00  0.00     0.000 A 
ENDBRANCH  51  65
BRANCH  52  71
ATOM     71  C   UNL A   1      42.146  23.497  27.563  1.00  0.00    -0.014 A 
ATOM     72  C   UNL A   1      41.593  22.476  28.351  1.00  0.00     0.009 A 
ATOM     73  C   UNL A   1      42.449  23.231  26.219  1.00  0.00     0.009 A 
ATOM     74  C   UNL A   1      41.384  21.204  27.816  1.00  0.00     0.001 A 
ATOM     75  C   UNL A   1      42.213  21.964  25.680  1.00  0.00     0.001 A 
ATOM     76  C   UNL A   1      41.693  20.949  26.480  1.00  0.00     0.000 A 
ENDBRANCH  52  71
BRANCH  64  77
ATOM     77  C   UNL A   1      47.778  26.158  30.627  1.00  0.00    -0.014 A 
ATOM     78  C   UNL A   1      48.077  25.700  31.919  1.00  0.00     0.009 A 
ATOM     79  C   UNL A   1      48.750  26.045  29.621  1.00  0.00     0.009 A 
ATOM     80  C   UNL A   1      49.340  25.180  32.207  1.00  0.00     0.001 A 
ATOM     81  C   UNL A   1      50.002  25.501  29.904  1.00  0.00     0.001 A 
ATOM     82  C   UNL A   1      50.300  25.080  31.200  1.00  0.00     0.000 A 
ENDBRANCH  64  77
ENDBRANCH  38  39
ENDBRANCH  30  33
ENDBRANCH  28  29
ENDBRANCH  27  28
ENDBRANCH  26  27
ENDBRANCH   1  26
TORSDOF 15
ENDMDL
MODEL 2
REMARK VINA RESULT:     -11.3      0.836      5.865
REMARK SMILES CC1=C[C@H](C)[C@@H](C(=O)NCCCCCCNC(=O)c2ccc(-c3c4nc(c(-c5ccccc5)c5ccc([nH]5)c(-c5ccccc5)c5nc(c(-c6ccccc6)c6ccc3[nH]6)C=C5)C=C4)cc2)[C@H](C(=O)Nc2cccnc2)C1
REMARK SMILES IDX 12 1 11 2 10 3 9 4 7 5 8 6 6 8 1 9 2 10 3 11 77 12 4 13
REMARK SMILES IDX 67 14 5 15 68 16 69 17 70 18 71 20 72 21 76 22 73 23 75 24
REMARK SMILES IDX 74 25 13 26 14 27 15 28 16 29 17 30 18 32 19 33 20 34 66 35
REMARK SMILES IDX 21 36 65 37 22 38 23 39 24 40 59 41 25 42 64 43 58 44 60 45
REMARK SMILES IDX 26 46 63 47 57 48 56 49 27 51 49 52 34 53 48 54 35 55 38 56
REMARK SMILES IDX 47 57 61 58 36 59 37 60 46 62 62 63 39 64 28 65 29 66 33 67
REMARK SMILES IDX 30 68 32 69 31 70 50 71 51 72 55 73 52 74 54 75 53 76 40 77
REMARK SMILES IDX 41 78 45 79 42 80 44 81 43 82
REMARK H PARENT 9 7 70 19 16 31 60 50 38 61
REMARK Flexibility Score: inf
ROOT
ATOM      1  C   UNL A   1      31.343  28.267  25.326  1.00  0.00     0.002 C 
ENDROOT
BRANCH   1   2
ATOM      2  C   UNL A   1      30.538  27.842  24.098  1.00  0.00     0.021 C 
BRANCH   2   3
ATOM      3  C   UNL A   1      30.952  26.496  23.522  1.00  0.00     0.116 C 
BRANCH   3   4
ATOM      4  N   UNL A   1      32.119  26.561  22.667  1.00  0.00    -0.356 N 
ATOM      5  C   UNL A   1      33.212  25.737  22.621  1.00  0.00     0.224 C 
ATOM      6  O   UNL A   1      34.004  25.893  21.689  1.00  0.00    -0.275 OA
ATOM      7  H   UNL A   1      32.128  27.306  22.024  1.00  0.00     0.163 HD
BRANCH   5   8
ATOM      8  C   UNL A   1      33.458  24.645  23.682  1.00  0.00     0.098 C 
ATOM      9  C   UNL A   1      37.324  22.719  24.836  1.00  0.00     0.039 C 
ATOM     10  C   UNL A   1      36.026  23.389  24.483  1.00  0.00    -0.076 C 
ATOM     11  C   UNL A   1      35.555  24.436  25.181  1.00  0.00    -0.024 C 
ATOM     12  C   UNL A   1      35.342  22.835  23.264  1.00  0.00     0.044 C 
ATOM     13  C   UNL A   1      34.336  25.240  24.815  1.00  0.00     0.022 C 
ATOM     14  C   UNL A   1      33.917  23.336  22.991  1.00  0.00     0.096 C 
ATOM     15  C   UNL A   1      33.506  25.620  26.051  1.00  0.00     0.013 C 
BRANCH  14  16
ATOM     16  C   UNL A   1      32.855  22.213  23.016  1.00  0.00     0.228 C 
ATOM     17  O   UNL A   1      32.305  21.876  21.961  1.00  0.00    -0.274 OA
ATOM     18  N   UNL A   1      32.582  21.463  24.126  1.00  0.00    -0.324 N 
ATOM     19  H   UNL A   1      32.215  20.568  23.941  1.00  0.00     0.169 HD
BRANCH  18  20
ATOM     20  C   UNL A   1      32.742  21.765  25.482  1.00  0.00     0.059 A 
ATOM     21  C   UNL A   1      33.855  21.348  26.191  1.00  0.00     0.029 A 
ATOM     22  C   UNL A   1      31.816  22.556  26.150  1.00  0.00     0.137 A 
ATOM     23  C   UNL A   1      33.962  21.631  27.550  1.00  0.00     0.022 A 
ATOM     24  N   UNL A   1      31.881  22.845  27.472  1.00  0.00    -0.263 NA
ATOM     25  C   UNL A   1      32.946  22.358  28.146  1.00  0.00     0.111 A 
ENDBRANCH  18  20
ENDBRANCH  14  16
ENDBRANCH   5   8
ENDBRANCH   3   4
ENDBRANCH   2   3
ENDBRANCH   1   2
BRANCH   1  26
ATOM     26  C   UNL A   1      32.365  29.388  25.092  1.00  0.00     0.002 C 
BRANCH  26  27
ATOM     27  C   UNL A   1      33.756  29.173  25.701  1.00  0.00     0.021 C 
BRANCH  27  28
ATOM     28  C   UNL A   1      33.787  28.965  27.213  1.00  0.00     0.116 C 
BRANCH  28  29
ATOM     29  N   UNL A   1      33.795  30.218  27.945  1.00  0.00    -0.352 N 
ATOM     30  C   UNL A   1      34.787  30.798  28.686  1.00  0.00     0.251 C 
ATOM     31  H   UNL A   1      32.955  30.731  27.901  1.00  0.00     0.163 HD
ATOM     32  O   UNL A   1      34.536  31.803  29.354  1.00  0.00    -0.269 OA
BRANCH  30  33
ATOM     33  C   UNL A   1      36.153  30.234  28.708  1.00  0.00     0.039 A 
ATOM     34  C   UNL A   1      36.628  29.695  29.907  1.00  0.00     0.014 A 
ATOM     35  C   UNL A   1      36.992  30.297  27.591  1.00  0.00     0.014 A 
ATOM     36  C   UNL A   1      37.933  29.206  29.984  1.00  0.00     0.010 A 
ATOM     37  C   UNL A   1      38.274  29.751  27.650  1.00  0.00     0.010 A 
ATOM     38  C   UNL A   1      38.765  29.225  28.854  1.00  0.00    -0.014 A 
BRANCH  38  39
ATOM     39  C   UNL A   1      40.170  28.757  28.944  1.00  0.00     0.031 A 
ATOM     40  C   UNL A   1      40.513  27.336  28.584  1.00  0.00     0.074 A 
ATOM     41  C   UNL A   1      41.135  29.603  29.352  1.00  0.00     0.049 A 
ATOM     42  N   UNL A   1      41.678  26.739  28.594  1.00  0.00    -0.248 NA
ATOM     43  C   UNL A   1      39.398  26.466  28.177  1.00  0.00     0.031 C 
ATOM     44  C   UNL A   1      40.930  30.997  29.749  1.00  0.00     0.029 A 
ATOM     45  N   UNL A   1      42.486  29.413  29.488  1.00  0.00    -0.354 N 
ATOM     46  C   UNL A   1      41.434  25.429  28.203  1.00  0.00     0.074 A 
ATOM     47  C   UNL A   1      40.005  25.301  28.017  1.00  0.00     0.031 C 
ATOM     48  C   UNL A   1      42.119  31.545  30.052  1.00  0.00     0.029 A 
ATOM     49  C   UNL A   1      43.162  30.537  29.895  1.00  0.00     0.049 A 
ATOM     50  H   UNL A   1      42.930  28.552  29.311  1.00  0.00     0.167 HD
ATOM     51  C   UNL A   1      42.319  24.425  27.990  1.00  0.00     0.031 A 
ATOM     52  C   UNL A   1      44.477  30.734  30.106  1.00  0.00     0.031 A 
ATOM     53  C   UNL A   1      43.741  24.549  28.163  1.00  0.00     0.049 A 
ATOM     54  C   UNL A   1      45.437  29.603  29.864  1.00  0.00     0.074 A 
ATOM     55  C   UNL A   1      44.723  23.595  27.962  1.00  0.00     0.029 A 
ATOM     56  N   UNL A   1      44.384  25.708  28.568  1.00  0.00    -0.354 N 
ATOM     57  N   UNL A   1      45.192  28.380  29.461  1.00  0.00    -0.248 NA
ATOM     58  C   UNL A   1      46.861  29.890  30.090  1.00  0.00     0.031 C 
ATOM     59  C   UNL A   1      45.961  24.172  28.269  1.00  0.00     0.029 A 
ATOM     60  C   UNL A   1      45.751  25.495  28.621  1.00  0.00     0.049 A 
ATOM     61  H   UNL A   1      43.935  26.558  28.785  1.00  0.00     0.167 HD
ATOM     62  C   UNL A   1      46.431  27.764  29.347  1.00  0.00     0.074 A 
ATOM     63  C   UNL A   1      47.426  28.752  29.712  1.00  0.00     0.031 C 
ATOM     64  C   UNL A   1      46.723  26.494  28.975  1.00  0.00     0.031 A 
BRANCH  51  65
ATOM     65  C   UNL A   1      41.762  23.105  27.537  1.00  0.00    -0.014 A 
ATOM     66  C   UNL A   1      41.574  22.052  28.446  1.00  0.00     0.009 A 
ATOM     67  C   UNL A   1      41.400  22.917  26.194  1.00  0.00     0.009 A 
ATOM     68  C   UNL A   1      41.070  20.824  28.013  1.00  0.00     0.001 A 
ATOM     69  C   UNL A   1      40.871  21.697  25.769  1.00  0.00     0.001 A 
ATOM     70  C   UNL A   1      40.715  20.649  26.676  1.00  0.00     0.000 A 
ENDBRANCH  51  65
BRANCH  52  71
ATOM     71  C   UNL A   1      44.978  32.065  30.534  1.00  0.00    -0.014 A 
ATOM     72  C   UNL A   1      45.350  33.024  29.578  1.00  0.00     0.009 A 
ATOM     73  C   UNL A   1      45.120  32.373  31.895  1.00  0.00     0.009 A 
ATOM     74  C   UNL A   1      45.890  34.247  29.976  1.00  0.00     0.001 A 
ATOM     75  C   UNL A   1      45.634  33.609  32.290  1.00  0.00     0.001 A 
ATOM     76  C   UNL A   1      46.030  34.540  31.332  1.00  0.00     0.000 A 
ENDBRANCH  52  71
BRANCH  64  77
ATOM     77  C   UNL A   1      48.177  26.127  28.893  1.00  0.00    -0.014 A 
ATOM     78  C   UNL A   1      48.882  25.680  30.020  1.00  0.00     0.009 A 
ATOM     79  C   UNL A   1      48.845  26.220  27.662  1.00  0.00     0.009 A 
ATOM     80  C   UNL A   1      50.241  25.375  29.926  1.00  0.00     0.001 A 
ATOM     81  C   UNL A   1      50.196  25.889  27.564  1.00  0.00     0.001 A 
ATOM     82  C   UNL A   1      50.896  25.479  28.699  1.00  0.00     0.000 A 
ENDBRANCH  64  77
ENDBRANCH  38  39
ENDBRANCH  30  33
ENDBRANCH  28  29
ENDBRANCH  27  28
ENDBRANCH  26  27
ENDBRANCH   1  26
TORSDOF 15
ENDMDL
MODEL 3
REMARK VINA RESULT:     -11.3      1.557      2.068
REMARK SMILES CC1=C[C@H](C)[C@@H](C(=O)NCCCCCCNC(=O)c2ccc(-c3c4nc(c(-c5ccccc5)c5ccc([nH]5)c(-c5ccccc5)c5nc(c(-c6ccccc6)c6ccc3[nH]6)C=C5)C=C4)cc2)[C@H](C(=O)Nc2cccnc2)C1
REMARK SMILES IDX 12 1 11 2 10 3 9 4 7 5 8 6 6 8 1 9 2 10 3 11 77 12 4 13
REMARK SMILES IDX 67 14 5 15 68 16 69 17 70 18 71 20 72 21 76 22 73 23 75 24
REMARK SMILES IDX 74 25 13 26 14 27 15 28 16 29 17 30 18 32 19 33 20 34 66 35
REMARK SMILES IDX 21 36 65 37 22 38 23 39 24 40 59 41 25 42 64 43 58 44 60 45
REMARK SMILES IDX 26 46 63 47 57 48 56 49 27 51 49 52 34 53 48 54 35 55 38 56
REMARK SMILES IDX 47 57 61 58 36 59 37 60 46 62 62 63 39 64 28 65 29 66 33 67
REMARK SMILES IDX 30 68 32 69 31 70 50 71 51 72 55 73 52 74 54 75 53 76 40 77
REMARK SMILES IDX 41 78 45 79 42 80 44 81 43 82
REMARK H PARENT 9 7 70 19 16 31 60 50 38 61
REMARK Flexibility Score: inf
ROOT
ATOM      1  C   UNL A   1      31.090  27.676  24.959  1.00  0.00     0.002 C 
ENDROOT
BRANCH   1   2
ATOM      2  C   UNL A   1      31.729  26.971  23.763  1.00  0.00     0.021 C 
BRANCH   2   3
ATOM      3  C   UNL A   1      31.429  25.480  23.691  1.00  0.00     0.116 C 
BRANCH   3   4
ATOM      4  N   UNL A   1      32.224  24.773  22.708  1.00  0.00    -0.356 N 
ATOM      5  C   UNL A   1      33.203  23.834  22.892  1.00  0.00     0.224 C 
ATOM      6  O   UNL A   1      33.623  23.244  21.894  1.00  0.00    -0.275 OA
ATOM      7  H   UNL A   1      32.032  24.999  21.769  1.00  0.00     0.163 HD
BRANCH   5   8
ATOM      8  C   UNL A   1      33.769  23.507  24.289  1.00  0.00     0.098 C 
ATOM      9  C   UNL A   1      37.781  21.830  25.334  1.00  0.00     0.039 C 
ATOM     10  C   UNL A   1      36.445  22.431  24.994  1.00  0.00    -0.076 C 
ATOM     11  C   UNL A   1      36.238  23.758  25.018  1.00  0.00    -0.024 C 
ATOM     12  C   UNL A   1      35.396  21.440  24.575  1.00  0.00     0.044 C 
ATOM     13  C   UNL A   1      34.975  24.443  24.570  1.00  0.00     0.022 C 
ATOM     14  C   UNL A   1      33.966  21.976  24.431  1.00  0.00     0.096 C 
ATOM     15  C   UNL A   1      34.596  25.613  25.492  1.00  0.00     0.013 C 
BRANCH  14  16
ATOM     16  C   UNL A   1      32.958  21.306  25.392  1.00  0.00     0.228 C 
ATOM     17  O   UNL A   1      32.514  21.950  26.350  1.00  0.00    -0.274 OA
ATOM     18  N   UNL A   1      32.413  20.073  25.167  1.00  0.00    -0.324 N 
ATOM     19  H   UNL A   1      31.536  19.923  25.591  1.00  0.00     0.169 HD
BRANCH  18  20
ATOM     20  C   UNL A   1      32.903  18.989  24.431  1.00  0.00     0.059 A 
ATOM     21  C   UNL A   1      33.918  18.183  24.916  1.00  0.00     0.029 A 
ATOM     22  C   UNL A   1      32.337  18.642  23.211  1.00  0.00     0.137 A 
ATOM     23  C   UNL A   1      34.409  17.138  24.138  1.00  0.00     0.022 A 
ATOM     24  N   UNL A   1      32.793  17.639  22.423  1.00  0.00    -0.263 NA
ATOM     25  C   UNL A   1      33.834  16.921  22.899  1.00  0.00     0.111 A 
ENDBRANCH  18  20
ENDBRANCH  14  16
ENDBRANCH   5   8
ENDBRANCH   3   4
ENDBRANCH   2   3
ENDBRANCH   1   2
BRANCH   1  26
ATOM     26  C   UNL A   1      31.384  27.053  26.330  1.00  0.00     0.002 C 
BRANCH  26  27
ATOM     27  C   UNL A   1      31.829  28.023  27.432  1.00  0.00     0.021 C 
BRANCH  27  28
ATOM     28  C   UNL A   1      33.228  28.610  27.266  1.00  0.00     0.116 C 
BRANCH  28  29
ATOM     29  N   UNL A   1      33.264  30.038  27.519  1.00  0.00    -0.352 N 
ATOM     30  C   UNL A   1      34.261  30.814  28.043  1.00  0.00     0.251 C 
ATOM     31  H   UNL A   1      32.443  30.525  27.275  1.00  0.00     0.163 HD
ATOM     32  O   UNL A   1      34.030  31.995  28.313  1.00  0.00    -0.269 OA
BRANCH  30  33
ATOM     33  C   UNL A   1      35.605  30.259  28.300  1.00  0.00     0.039 A 
ATOM     34  C   UNL A   1      35.881  29.751  29.574  1.00  0.00     0.014 A 
ATOM     35  C   UNL A   1      36.615  30.301  27.333  1.00  0.00     0.014 A 
ATOM     36  C   UNL A   1      37.157  29.272  29.873  1.00  0.00     0.010 A 
ATOM     37  C   UNL A   1      37.871  29.764  27.613  1.00  0.00     0.010 A 
ATOM     38  C   UNL A   1      38.161  29.269  28.893  1.00  0.00    -0.014 A 
BRANCH  38  39
ATOM     39  C   UNL A   1      39.534  28.812  29.221  1.00  0.00     0.031 A 
ATOM     40  C   UNL A   1      40.441  29.689  30.041  1.00  0.00     0.074 A 
ATOM     41  C   UNL A   1      39.967  27.615  28.781  1.00  0.00     0.049 A 
ATOM     42  N   UNL A   1      41.670  29.468  30.436  1.00  0.00    -0.248 NA
ATOM     43  C   UNL A   1      39.904  30.995  30.458  1.00  0.00     0.031 C 
ATOM     44  C   UNL A   1      39.194  26.682  27.960  1.00  0.00     0.029 A 
ATOM     45  N   UNL A   1      41.166  26.976  28.974  1.00  0.00    -0.354 N 
ATOM     46  C   UNL A   1      42.051  30.605  31.138  1.00  0.00     0.074 A 
ATOM     47  C   UNL A   1      40.946  31.536  31.069  1.00  0.00     0.031 C 
ATOM     48  C   UNL A   1      39.926  25.575  27.749  1.00  0.00     0.029 A 
ATOM     49  C   UNL A   1      41.225  25.732  28.397  1.00  0.00     0.049 A 
ATOM     50  H   UNL A   1      41.912  27.372  29.479  1.00  0.00     0.167 HD
ATOM     51  C   UNL A   1      43.205  30.846  31.805  1.00  0.00     0.031 A 
ATOM     52  C   UNL A   1      42.212  24.817  28.400  1.00  0.00     0.031 A 
ATOM     53  C   UNL A   1      44.302  29.920  31.886  1.00  0.00     0.049 A 
ATOM     54  C   UNL A   1      43.484  25.111  29.146  1.00  0.00     0.074 A 
ATOM     55  C   UNL A   1      45.510  30.066  32.546  1.00  0.00     0.029 A 
ATOM     56  N   UNL A   1      44.317  28.667  31.293  1.00  0.00    -0.354 N 
ATOM     57  N   UNL A   1      43.813  26.177  29.834  1.00  0.00    -0.248 NA
ATOM     58  C   UNL A   1      44.513  24.061  29.130  1.00  0.00     0.031 C 
ATOM     59  C   UNL A   1      46.266  28.907  32.333  1.00  0.00     0.029 A 
ATOM     60  C   UNL A   1      45.512  28.027  31.574  1.00  0.00     0.049 A 
ATOM     61  H   UNL A   1      43.586  28.289  30.753  1.00  0.00     0.167 HD
ATOM     62  C   UNL A   1      45.069  25.912  30.363  1.00  0.00     0.074 A 
ATOM     63  C   UNL A   1      45.435  24.580  29.928  1.00  0.00     0.031 C 
ATOM     64  C   UNL A   1      45.851  26.698  31.141  1.00  0.00     0.031 A 
BRANCH  51  65
ATOM     65  C   UNL A   1      43.328  32.169  32.506  1.00  0.00    -0.014 A 
ATOM     66  C   UNL A   1      42.927  32.315  33.845  1.00  0.00     0.009 A 
ATOM     67  C   UNL A   1      43.869  33.276  31.835  1.00  0.00     0.009 A 
ATOM     68  C   UNL A   1      43.030  33.551  34.484  1.00  0.00     0.001 A 
ATOM     69  C   UNL A   1      43.996  34.505  32.485  1.00  0.00     0.001 A 
ATOM     70  C   UNL A   1      43.568  34.644  33.806  1.00  0.00     0.000 A 
ENDBRANCH  51  65
BRANCH  52  71
ATOM     71  C   UNL A   1      42.032  23.515  27.708  1.00  0.00    -0.014 A 
ATOM     72  C   UNL A   1      42.407  23.369  26.363  1.00  0.00     0.009 A 
ATOM     73  C   UNL A   1      41.455  22.424  28.375  1.00  0.00     0.009 A 
ATOM     74  C   UNL A   1      42.173  22.170  25.689  1.00  0.00     0.001 A 
ATOM     75  C   UNL A   1      41.248  21.216  27.705  1.00  0.00     0.001 A 
ATOM     76  C   UNL A   1      41.595  21.093  26.361  1.00  0.00     0.000 A 
ENDBRANCH  52  71
BRANCH  64  77
ATOM     77  C   UNL A   1      47.152  26.112  31.611  1.00  0.00    -0.014 A 
ATOM     78  C   UNL A   1      47.266  25.504  32.870  1.00  0.00     0.009 A 
ATOM     79  C   UNL A   1      48.275  26.160  30.771  1.00  0.00     0.009 A 
ATOM     80  C   UNL A   1      48.494  24.994  33.297  1.00  0.00     0.001 A 
ATOM     81  C   UNL A   1      49.494  25.626  31.189  1.00  0.00     0.001 A 
ATOM     82  C   UNL A   1      49.605  25.055  32.456  1.00  0.00     0.000 A 
ENDBRANCH  64  77
ENDBRANCH  38  39
ENDBRANCH  30  33
ENDBRANCH  28  29
ENDBRANCH  27  28
ENDBRANCH  26  27
ENDBRANCH   1  26
TORSDOF 15
ENDMDL
