MODEL 1
REMARK VINA RESULT:     -11.6      0.000      0.000
REMARK SMILES Cc1ccc(-c2nn(CCC(=O)NCCCCCCNC(=O)c3ccc(-c4c5nc(c(-c6ccccc6)c6ccc([nH]6)c(-c6ccccc6)c6nc(c(-c7ccccc7)c7ccc4[nH]7)C=C6)C=C5)cc3)c(=O)c3noc(C)c23)cc1C
REMARK SMILES IDX 16 1 15 2 14 3 13 4 11 5 12 6 10 8 9 9 8 10 6 11 7 12 78 13
REMARK SMILES IDX 73 14 76 15 71 16 74 17 75 18 77 19 72 20 5 21 1 22 2 23
REMARK SMILES IDX 3 24 80 25 4 26 79 27 81 28 17 29 18 30 19 31 20 32 21 33
REMARK SMILES IDX 22 35 23 36 24 37 70 38 25 39 69 40 26 41 27 42 28 43 63 44
REMARK SMILES IDX 29 45 68 46 62 47 64 48 30 49 67 50 61 51 60 52 31 54 53 55
REMARK SMILES IDX 38 56 52 57 39 58 42 59 51 60 65 61 40 62 41 63 50 65 66 66
REMARK SMILES IDX 43 67 32 68 33 69 37 70 34 71 36 72 35 73 54 74 55 75 59 76
REMARK SMILES IDX 56 77 58 78 57 79 44 80 45 81 49 82 46 83 48 84 47 85
REMARK H PARENT 13 7 20 34 64 53 42 64
REMARK Flexibility Score: inf
ROOT
ATOM      1  C   UNL A   1      32.149  28.876  25.257  1.00  0.00     0.002 C 
ENDROOT
BRANCH   1   2
ATOM      2  C   UNL A   1      32.541  27.851  26.321  1.00  0.00     0.021 C 
BRANCH   2   3
ATOM      3  C   UNL A   1      31.661  26.609  26.478  1.00  0.00     0.116 C 
BRANCH   3   4
ATOM      4  N   UNL A   1      30.533  26.648  25.561  1.00  0.00    -0.356 N 
ATOM      5  C   UNL A   1      30.074  25.717  24.678  1.00  0.00     0.221 C 
ATOM      6  O   UNL A   1      29.156  26.035  23.919  1.00  0.00    -0.275 OA
ATOM      7  H   UNL A   1      30.015  27.485  25.582  1.00  0.00     0.163 HD
BRANCH   5   8
ATOM      8  C   UNL A   1      30.636  24.311  24.653  1.00  0.00     0.124 C 
BRANCH   8   9
ATOM      9  C   UNL A   1      31.334  23.969  23.340  1.00  0.00     0.158 C 
BRANCH   9  10
ATOM     10  N   UNL A   1      32.612  23.277  23.516  1.00  0.00    -0.227 N 
ATOM     11  C   UNL A   1      33.658  21.356  24.392  1.00  0.00     0.104 A 
ATOM     12  N   UNL A   1      32.556  22.018  24.171  1.00  0.00    -0.169 NA
ATOM     13  C   UNL A   1      34.922  21.951  24.073  1.00  0.00     0.078 A 
ATOM     14  C   UNL A   1      34.980  23.097  23.275  1.00  0.00     0.183 A 
ATOM     15  C   UNL A   1      36.225  21.679  24.407  1.00  0.00     0.143 A 
ATOM     16  C   UNL A   1      33.773  23.807  22.890  1.00  0.00     0.296 A 
ATOM     17  N   UNL A   1      36.244  23.483  23.057  1.00  0.00    -0.074 NA
ATOM     18  O   UNL A   1      37.026  22.583  23.771  1.00  0.00    -0.360 OA
ATOM     19  C   UNL A   1      36.907  20.714  25.293  1.00  0.00     0.091 C 
ATOM     20  O   UNL A   1      33.772  24.795  22.169  1.00  0.00    -0.265 OA
BRANCH  11  21
ATOM     21  C   UNL A   1      33.675  19.929  24.752  1.00  0.00     0.003 A 
ATOM     22  C   UNL A   1      32.537  15.856  25.529  1.00  0.00     0.044 C 
ATOM     23  C   UNL A   1      33.000  17.261  25.250  1.00  0.00    -0.048 A 
ATOM     24  C   UNL A   1      32.611  18.272  26.141  1.00  0.00     0.004 A 
ATOM     25  C   UNL A   1      33.778  17.592  24.116  1.00  0.00    -0.048 A 
ATOM     26  C   UNL A   1      32.943  19.598  25.895  1.00  0.00     0.011 A 
ATOM     27  C   UNL A   1      34.123  18.939  23.879  1.00  0.00     0.014 A 
ATOM     28  C   UNL A   1      34.163  16.567  23.079  1.00  0.00     0.044 C 
ENDBRANCH  11  21
ENDBRANCH   9  10
ENDBRANCH   8   9
ENDBRANCH   5   8
ENDBRANCH   3   4
ENDBRANCH   2   3
ENDBRANCH   1   2
BRANCH   1  29
ATOM     29  C   UNL A   1      31.887  30.301  25.760  1.00  0.00     0.002 C 
BRANCH  29  30
ATOM     30  C   UNL A   1      32.232  30.621  27.230  1.00  0.00     0.021 C 
BRANCH  30  31
ATOM     31  C   UNL A   1      33.710  30.902  27.581  1.00  0.00     0.116 C 
BRANCH  31  32
ATOM     32  N   UNL A   1      34.019  32.318  27.573  1.00  0.00    -0.352 N 
ATOM     33  C   UNL A   1      34.977  33.082  28.183  1.00  0.00     0.251 C 
ATOM     34  H   UNL A   1      33.408  32.843  27.007  1.00  0.00     0.163 HD
ATOM     35  O   UNL A   1      34.857  34.306  28.082  1.00  0.00    -0.269 OA
BRANCH  33  36
ATOM     36  C   UNL A   1      36.141  32.571  28.956  1.00  0.00     0.039 A 
ATOM     37  C   UNL A   1      37.001  31.701  28.264  1.00  0.00     0.014 A 
ATOM     38  C   UNL A   1      36.299  32.708  30.338  1.00  0.00     0.014 A 
ATOM     39  C   UNL A   1      37.979  30.963  28.935  1.00  0.00     0.010 A 
ATOM     40  C   UNL A   1      37.296  31.965  31.015  1.00  0.00     0.010 A 
ATOM     41  C   UNL A   1      38.134  31.076  30.321  1.00  0.00    -0.014 A 
BRANCH  41  42
ATOM     42  C   UNL A   1      39.253  30.313  30.931  1.00  0.00     0.031 A 
ATOM     43  C   UNL A   1      39.400  28.892  30.485  1.00  0.00     0.074 A 
ATOM     44  C   UNL A   1      40.342  30.921  31.462  1.00  0.00     0.049 A 
ATOM     45  N   UNL A   1      40.010  28.543  29.389  1.00  0.00    -0.248 NA
ATOM     46  C   UNL A   1      38.686  27.792  31.132  1.00  0.00     0.031 C 
ATOM     47  C   UNL A   1      40.994  32.088  30.853  1.00  0.00     0.029 A 
ATOM     48  N   UNL A   1      41.226  30.521  32.445  1.00  0.00    -0.354 N 
ATOM     49  C   UNL A   1      39.762  27.193  29.185  1.00  0.00     0.074 A 
ATOM     50  C   UNL A   1      38.924  26.775  30.288  1.00  0.00     0.031 C 
ATOM     51  C   UNL A   1      42.241  32.203  31.358  1.00  0.00     0.029 A 
ATOM     52  C   UNL A   1      42.431  31.227  32.430  1.00  0.00     0.049 A 
ATOM     53  H   UNL A   1      41.028  29.807  33.093  1.00  0.00     0.167 HD
ATOM     54  C   UNL A   1      40.288  26.495  28.142  1.00  0.00     0.031 A 
ATOM     55  C   UNL A   1      43.640  30.728  32.817  1.00  0.00     0.031 A 
ATOM     56  C   UNL A   1      41.179  27.240  27.303  1.00  0.00     0.049 A 
ATOM     57  C   UNL A   1      43.949  29.812  31.660  1.00  0.00     0.074 A 
ATOM     58  C   UNL A   1      41.146  27.925  26.108  1.00  0.00     0.029 A 
ATOM     59  N   UNL A   1      42.472  27.384  27.740  1.00  0.00    -0.354 N 
ATOM     60  N   UNL A   1      44.381  30.169  30.481  1.00  0.00    -0.248 NA
ATOM     61  C   UNL A   1      43.373  28.466  31.721  1.00  0.00     0.031 C 
ATOM     62  C   UNL A   1      42.266  28.817  26.153  1.00  0.00     0.029 A 
ATOM     63  C   UNL A   1      42.882  28.642  27.391  1.00  0.00     0.049 A 
ATOM     64  H   UNL A   1      43.006  26.708  28.216  1.00  0.00     0.167 HD
ATOM     65  C   UNL A   1      43.839  29.239  29.594  1.00  0.00     0.074 A 
ATOM     66  C   UNL A   1      43.234  28.215  30.427  1.00  0.00     0.031 C 
ATOM     67  C   UNL A   1      43.734  29.437  28.246  1.00  0.00     0.031 A 
BRANCH  54  68
ATOM     68  C   UNL A   1      40.189  25.031  27.931  1.00  0.00    -0.014 A 
ATOM     69  C   UNL A   1      41.298  24.245  28.293  1.00  0.00     0.009 A 
ATOM     70  C   UNL A   1      39.179  24.454  27.155  1.00  0.00     0.009 A 
ATOM     71  C   UNL A   1      41.434  22.936  27.834  1.00  0.00     0.001 A 
ATOM     72  C   UNL A   1      39.307  23.129  26.713  1.00  0.00     0.001 A 
ATOM     73  C   UNL A   1      40.442  22.382  27.033  1.00  0.00     0.000 A 
ENDBRANCH  54  68
BRANCH  55  74
ATOM     74  C   UNL A   1      43.770  30.287  34.246  1.00  0.00    -0.014 A 
ATOM     75  C   UNL A   1      45.052  29.934  34.712  1.00  0.00     0.009 A 
ATOM     76  C   UNL A   1      42.710  30.175  35.159  1.00  0.00     0.009 A 
ATOM     77  C   UNL A   1      45.285  29.616  36.054  1.00  0.00     0.001 A 
ATOM     78  C   UNL A   1      42.942  29.886  36.512  1.00  0.00     0.001 A 
ATOM     79  C   UNL A   1      44.233  29.627  36.962  1.00  0.00     0.000 A 
ENDBRANCH  55  74
BRANCH  67  80
ATOM     80  C   UNL A   1      44.359  30.676  27.692  1.00  0.00    -0.014 A 
ATOM     81  C   UNL A   1      45.620  30.625  27.085  1.00  0.00     0.009 A 
ATOM     82  C   UNL A   1      43.657  31.893  27.697  1.00  0.00     0.009 A 
ATOM     83  C   UNL A   1      46.148  31.756  26.460  1.00  0.00     0.001 A 
ATOM     84  C   UNL A   1      44.176  33.017  27.055  1.00  0.00     0.001 A 
ATOM     85  C   UNL A   1      45.419  32.945  26.430  1.00  0.00     0.000 A 
ENDBRANCH  67  80
ENDBRANCH  41  42
ENDBRANCH  33  36
ENDBRANCH  31  32
ENDBRANCH  30  31
ENDBRANCH  29  30
ENDBRANCH   1  29
TORSDOF 16
ENDMDL
MODEL 2
REMARK VINA RESULT:     -11.5      2.966      7.511
REMARK SMILES Cc1ccc(-c2nn(CCC(=O)NCCCCCCNC(=O)c3ccc(-c4c5nc(c(-c6ccccc6)c6ccc([nH]6)c(-c6ccccc6)c6nc(c(-c7ccccc7)c7ccc4[nH]7)C=C6)C=C5)cc3)c(=O)c3noc(C)c23)cc1C
REMARK SMILES IDX 16 1 15 2 14 3 13 4 11 5 12 6 10 8 9 9 8 10 6 11 7 12 78 13
REMARK SMILES IDX 73 14 76 15 71 16 74 17 75 18 77 19 72 20 5 21 1 22 2 23
REMARK SMILES IDX 3 24 80 25 4 26 79 27 81 28 17 29 18 30 19 31 20 32 21 33
REMARK SMILES IDX 22 35 23 36 24 37 70 38 25 39 69 40 26 41 27 42 28 43 63 44
REMARK SMILES IDX 29 45 68 46 62 47 64 48 30 49 67 50 61 51 60 52 31 54 53 55
REMARK SMILES IDX 38 56 52 57 39 58 42 59 51 60 65 61 40 62 41 63 50 65 66 66
REMARK SMILES IDX 43 67 32 68 33 69 37 70 34 71 36 72 35 73 54 74 55 75 59 76
REMARK SMILES IDX 56 77 58 78 57 79 44 80 45 81 49 82 46 83 48 84 47 85
REMARK H PARENT 13 7 20 34 64 53 42 64
REMARK Flexibility Score: inf
ROOT
ATOM      1  C   UNL A   1      40.801  25.000  27.891  1.00  0.00     0.002 C 
ENDROOT
BRANCH   1   2
ATOM      2  C   UNL A   1      39.293  24.749  27.871  1.00  0.00     0.021 C 
BRANCH   2   3
ATOM      3  C   UNL A   1      38.624  24.509  26.516  1.00  0.00     0.116 C 
BRANCH   3   4
ATOM      4  N   UNL A   1      37.973  23.209  26.476  1.00  0.00    -0.356 N 
ATOM      5  C   UNL A   1      37.098  22.682  25.574  1.00  0.00     0.221 C 
ATOM      6  O   UNL A   1      36.591  21.587  25.825  1.00  0.00    -0.275 OA
ATOM      7  H   UNL A   1      38.204  22.611  27.223  1.00  0.00     0.163 HD
BRANCH   5   8
ATOM      8  C   UNL A   1      36.785  23.392  24.273  1.00  0.00     0.124 C 
BRANCH   8   9
ATOM      9  C   UNL A   1      35.637  22.747  23.502  1.00  0.00     0.158 C 
BRANCH   9  10
ATOM     10  N   UNL A   1      34.311  23.170  23.960  1.00  0.00    -0.227 N 
ATOM     11  C   UNL A   1      32.855  25.005  24.211  1.00  0.00     0.104 A 
ATOM     12  N   UNL A   1      34.005  24.547  23.799  1.00  0.00    -0.169 NA
ATOM     13  C   UNL A   1      31.959  24.140  24.921  1.00  0.00     0.078 A 
ATOM     14  C   UNL A   1      32.168  22.758  24.926  1.00  0.00     0.183 A 
ATOM     15  C   UNL A   1      30.847  24.339  25.702  1.00  0.00     0.143 A 
ATOM     16  C   UNL A   1      33.377  22.179  24.366  1.00  0.00     0.296 A 
ATOM     17  N   UNL A   1      31.210  22.117  25.608  1.00  0.00    -0.074 NA
ATOM     18  O   UNL A   1      30.377  23.117  26.093  1.00  0.00    -0.360 OA
ATOM     19  C   UNL A   1      30.124  25.514  26.228  1.00  0.00     0.091 C 
ATOM     20  O   UNL A   1      33.590  20.976  24.321  1.00  0.00    -0.265 OA
BRANCH  11  21
ATOM     21  C   UNL A   1      32.320  26.311  23.798  1.00  0.00     0.003 A 
ATOM     22  C   UNL A   1      29.714  29.637  22.994  1.00  0.00     0.044 C 
ATOM     23  C   UNL A   1      30.680  28.515  23.275  1.00  0.00    -0.048 A 
ATOM     24  C   UNL A   1      30.609  27.369  22.470  1.00  0.00     0.004 A 
ATOM     25  C   UNL A   1      31.619  28.571  24.331  1.00  0.00    -0.048 A 
ATOM     26  C   UNL A   1      31.421  26.272  22.729  1.00  0.00     0.011 A 
ATOM     27  C   UNL A   1      32.451  27.459  24.579  1.00  0.00     0.014 A 
ATOM     28  C   UNL A   1      31.694  29.740  25.279  1.00  0.00     0.044 C 
ENDBRANCH  11  21
ENDBRANCH   9  10
ENDBRANCH   8   9
ENDBRANCH   5   8
ENDBRANCH   3   4
ENDBRANCH   2   3
ENDBRANCH   1   2
BRANCH   1  29
ATOM     29  C   UNL A   1      41.616  24.289  26.804  1.00  0.00     0.002 C 
BRANCH  29  30
ATOM     30  C   UNL A   1      43.142  24.520  26.781  1.00  0.00     0.021 C 
BRANCH  30  31
ATOM     31  C   UNL A   1      43.658  25.963  26.975  1.00  0.00     0.116 C 
BRANCH  31  32
ATOM     32  N   UNL A   1      43.327  26.822  25.855  1.00  0.00    -0.352 N 
ATOM     33  C   UNL A   1      42.475  27.881  25.693  1.00  0.00     0.251 C 
ATOM     34  H   UNL A   1      43.821  26.595  25.035  1.00  0.00     0.163 HD
ATOM     35  O   UNL A   1      42.317  28.295  24.541  1.00  0.00    -0.269 OA
BRANCH  33  36
ATOM     36  C   UNL A   1      41.723  28.571  26.775  1.00  0.00     0.039 A 
ATOM     37  C   UNL A   1      42.480  28.966  27.891  1.00  0.00     0.014 A 
ATOM     38  C   UNL A   1      40.328  28.638  26.855  1.00  0.00     0.014 A 
ATOM     39  C   UNL A   1      41.865  29.395  29.070  1.00  0.00     0.010 A 
ATOM     40  C   UNL A   1      39.707  29.081  28.048  1.00  0.00     0.010 A 
ATOM     41  C   UNL A   1      40.470  29.448  29.170  1.00  0.00    -0.014 A 
BRANCH  41  42
ATOM     42  C   UNL A   1      39.912  29.993  30.434  1.00  0.00     0.031 A 
ATOM     43  C   UNL A   1      40.117  29.156  31.657  1.00  0.00     0.074 A 
ATOM     44  C   UNL A   1      39.670  31.315  30.611  1.00  0.00     0.049 A 
ATOM     45  N   UNL A   1      41.213  29.165  32.359  1.00  0.00    -0.248 NA
ATOM     46  C   UNL A   1      39.183  28.098  32.045  1.00  0.00     0.031 C 
ATOM     47  C   UNL A   1      40.569  32.373  30.130  1.00  0.00     0.029 A 
ATOM     48  N   UNL A   1      38.779  31.982  31.428  1.00  0.00    -0.354 N 
ATOM     49  C   UNL A   1      41.135  28.122  33.270  1.00  0.00     0.074 A 
ATOM     50  C   UNL A   1      39.860  27.481  33.028  1.00  0.00     0.031 C 
ATOM     51  C   UNL A   1      40.288  33.517  30.791  1.00  0.00     0.029 A 
ATOM     52  C   UNL A   1      39.102  33.326  31.624  1.00  0.00     0.049 A 
ATOM     53  H   UNL A   1      37.992  31.551  31.834  1.00  0.00     0.167 HD
ATOM     54  C   UNL A   1      42.105  27.870  34.190  1.00  0.00     0.031 A 
ATOM     55  C   UNL A   1      38.821  34.047  32.748  1.00  0.00     0.031 A 
ATOM     56  C   UNL A   1      43.189  28.807  34.199  1.00  0.00     0.049 A 
ATOM     57  C   UNL A   1      39.831  33.472  33.709  1.00  0.00     0.074 A 
ATOM     58  C   UNL A   1      44.467  28.917  33.696  1.00  0.00     0.029 A 
ATOM     59  N   UNL A   1      42.987  29.988  34.869  1.00  0.00    -0.354 N 
ATOM     60  N   UNL A   1      41.107  33.747  33.752  1.00  0.00    -0.248 NA
ATOM     61  C   UNL A   1      39.445  32.240  34.401  1.00  0.00     0.031 C 
ATOM     62  C   UNL A   1      44.752  30.321  33.692  1.00  0.00     0.029 A 
ATOM     63  C   UNL A   1      43.611  30.973  34.155  1.00  0.00     0.049 A 
ATOM     64  H   UNL A   1      42.486  30.104  35.708  1.00  0.00     0.167 HD
ATOM     65  C   UNL A   1      41.721  32.571  34.183  1.00  0.00     0.074 A 
ATOM     66  C   UNL A   1      40.638  31.686  34.570  1.00  0.00     0.031 C 
ATOM     67  C   UNL A   1      43.051  32.299  34.023  1.00  0.00     0.031 A 
BRANCH  54  68
ATOM     68  C   UNL A   1      42.036  26.872  35.284  1.00  0.00    -0.014 A 
ATOM     69  C   UNL A   1      42.342  25.535  34.966  1.00  0.00     0.009 A 
ATOM     70  C   UNL A   1      41.431  27.150  36.513  1.00  0.00     0.009 A 
ATOM     71  C   UNL A   1      41.988  24.493  35.820  1.00  0.00     0.001 A 
ATOM     72  C   UNL A   1      41.095  26.101  37.381  1.00  0.00     0.001 A 
ATOM     73  C   UNL A   1      41.353  24.776  37.024  1.00  0.00     0.000 A 
ENDBRANCH  54  68
BRANCH  55  74
ATOM     74  C   UNL A   1      37.374  34.211  33.109  1.00  0.00    -0.014 A 
ATOM     75  C   UNL A   1      36.456  34.443  32.065  1.00  0.00     0.009 A 
ATOM     76  C   UNL A   1      36.855  34.175  34.413  1.00  0.00     0.009 A 
ATOM     77  C   UNL A   1      35.078  34.501  32.296  1.00  0.00     0.001 A 
ATOM     78  C   UNL A   1      35.472  34.202  34.647  1.00  0.00     0.001 A 
ATOM     79  C   UNL A   1      34.584  34.344  33.585  1.00  0.00     0.000 A 
ENDBRANCH  55  74
BRANCH  67  80
ATOM     80  C   UNL A   1      43.905  33.393  33.468  1.00  0.00    -0.014 A 
ATOM     81  C   UNL A   1      43.974  33.607  32.086  1.00  0.00     0.009 A 
ATOM     82  C   UNL A   1      44.583  34.274  34.326  1.00  0.00     0.009 A 
ATOM     83  C   UNL A   1      44.673  34.703  31.576  1.00  0.00     0.001 A 
ATOM     84  C   UNL A   1      45.265  35.380  33.818  1.00  0.00     0.001 A 
ATOM     85  C   UNL A   1      45.302  35.597  32.442  1.00  0.00     0.000 A 
ENDBRANCH  67  80
ENDBRANCH  41  42
ENDBRANCH  33  36
ENDBRANCH  31  32
ENDBRANCH  30  31
ENDBRANCH  29  30
ENDBRANCH   1  29
TORSDOF 16
ENDMDL
MODEL 3
REMARK VINA RESULT:     -11.2      2.915      8.092
REMARK SMILES Cc1ccc(-c2nn(CCC(=O)NCCCCCCNC(=O)c3ccc(-c4c5nc(c(-c6ccccc6)c6ccc([nH]6)c(-c6ccccc6)c6nc(c(-c7ccccc7)c7ccc4[nH]7)C=C6)C=C5)cc3)c(=O)c3noc(C)c23)cc1C
REMARK SMILES IDX 16 1 15 2 14 3 13 4 11 5 12 6 10 8 9 9 8 10 6 11 7 12 78 13
REMARK SMILES IDX 73 14 76 15 71 16 74 17 75 18 77 19 72 20 5 21 1 22 2 23
REMARK SMILES IDX 3 24 80 25 4 26 79 27 81 28 17 29 18 30 19 31 20 32 21 33
REMARK SMILES IDX 22 35 23 36 24 37 70 38 25 39 69 40 26 41 27 42 28 43 63 44
REMARK SMILES IDX 29 45 68 46 62 47 64 48 30 49 67 50 61 51 60 52 31 54 53 55
REMARK SMILES IDX 38 56 52 57 39 58 42 59 51 60 65 61 40 62 41 63 50 65 66 66
REMARK SMILES IDX 43 67 32 68 33 69 37 70 34 71 36 72 35 73 54 74 55 75 59 76
REMARK SMILES IDX 56 77 58 78 57 79 44 80 45 81 49 82 46 83 48 84 47 85
REMARK H PARENT 13 7 20 34 64 53 42 64
REMARK Flexibility Score: inf
ROOT
ATOM      1  C   UNL A   1      36.540  21.175  25.189  1.00  0.00     0.002 C 
ENDROOT
BRANCH   1   2
ATOM      2  C   UNL A   1      36.096  22.490  25.830  1.00  0.00     0.021 C 
BRANCH   2   3
ATOM      3  C   UNL A   1      34.603  22.823  25.824  1.00  0.00     0.116 C 
BRANCH   3   4
ATOM      4  N   UNL A   1      33.813  21.674  25.409  1.00  0.00    -0.356 N 
ATOM      5  C   UNL A   1      32.478  21.425  25.528  1.00  0.00     0.221 C 
ATOM      6  O   UNL A   1      32.061  20.313  25.198  1.00  0.00    -0.275 OA
ATOM      7  H   UNL A   1      34.327  20.959  24.970  1.00  0.00     0.163 HD
BRANCH   5   8
ATOM      8  C   UNL A   1      31.517  22.494  26.006  1.00  0.00     0.124 C 
BRANCH   8   9
ATOM      9  C   UNL A   1      30.858  23.260  24.864  1.00  0.00     0.158 C 
BRANCH   9  10
ATOM     10  N   UNL A   1      31.642  24.404  24.393  1.00  0.00    -0.227 N 
ATOM     11  C   UNL A   1      32.287  26.621  24.863  1.00  0.00     0.104 A 
ATOM     12  N   UNL A   1      31.637  25.551  25.231  1.00  0.00    -0.169 NA
ATOM     13  C   UNL A   1      32.907  26.668  23.572  1.00  0.00     0.078 A 
ATOM     14  C   UNL A   1      33.070  25.499  22.825  1.00  0.00     0.183 A 
ATOM     15  C   UNL A   1      33.409  27.673  22.782  1.00  0.00     0.143 A 
ATOM     16  C   UNL A   1      32.472  24.245  23.251  1.00  0.00     0.296 A 
ATOM     17  N   UNL A   1      33.699  25.737  21.667  1.00  0.00    -0.074 NA
ATOM     18  O   UNL A   1      33.914  27.109  21.646  1.00  0.00    -0.360 OA
ATOM     19  C   UNL A   1      33.469  29.146  22.861  1.00  0.00     0.091 C 
ATOM     20  O   UNL A   1      32.612  23.191  22.647  1.00  0.00    -0.265 OA
BRANCH  11  21
ATOM     21  C   UNL A   1      32.613  27.716  25.791  1.00  0.00     0.003 A 
ATOM     22  C   UNL A   1      34.341  31.212  27.603  1.00  0.00     0.044 C 
ATOM     23  C   UNL A   1      33.682  29.994  27.010  1.00  0.00    -0.048 A 
ATOM     24  C   UNL A   1      34.437  28.816  26.918  1.00  0.00     0.004 A 
ATOM     25  C   UNL A   1      32.355  30.013  26.521  1.00  0.00    -0.048 A 
ATOM     26  C   UNL A   1      33.910  27.684  26.311  1.00  0.00     0.011 A 
ATOM     27  C   UNL A   1      31.821  28.855  25.919  1.00  0.00     0.014 A 
ATOM     28  C   UNL A   1      31.518  31.267  26.518  1.00  0.00     0.044 C 
ENDBRANCH  11  21
ENDBRANCH   9  10
ENDBRANCH   8   9
ENDBRANCH   5   8
ENDBRANCH   3   4
ENDBRANCH   2   3
ENDBRANCH   1   2
BRANCH   1  29
ATOM     29  C   UNL A   1      38.046  20.889  25.214  1.00  0.00     0.002 C 
BRANCH  29  30
ATOM     30  C   UNL A   1      38.962  21.912  25.918  1.00  0.00     0.021 C 
BRANCH  30  31
ATOM     31  C   UNL A   1      40.244  21.386  26.600  1.00  0.00     0.116 C 
BRANCH  31  32
ATOM     32  N   UNL A   1      41.416  21.533  25.759  1.00  0.00    -0.352 N 
ATOM     33  C   UNL A   1      42.280  22.564  25.509  1.00  0.00     0.251 C 
ATOM     34  H   UNL A   1      41.638  20.713  25.260  1.00  0.00     0.163 HD
ATOM     35  O   UNL A   1      43.097  22.396  24.600  1.00  0.00    -0.269 OA
BRANCH  33  36
ATOM     36  C   UNL A   1      42.318  23.865  26.229  1.00  0.00     0.039 A 
ATOM     37  C   UNL A   1      42.364  25.012  25.420  1.00  0.00     0.014 A 
ATOM     38  C   UNL A   1      42.540  24.007  27.603  1.00  0.00     0.014 A 
ATOM     39  C   UNL A   1      42.651  26.270  25.958  1.00  0.00     0.010 A 
ATOM     40  C   UNL A   1      42.821  25.282  28.147  1.00  0.00     0.010 A 
ATOM     41  C   UNL A   1      42.894  26.422  27.327  1.00  0.00    -0.014 A 
BRANCH  41  42
ATOM     42  C   UNL A   1      43.108  27.808  27.817  1.00  0.00     0.031 A 
ATOM     43  C   UNL A   1      42.893  28.028  29.281  1.00  0.00     0.074 A 
ATOM     44  C   UNL A   1      43.885  28.700  27.154  1.00  0.00     0.049 A 
ATOM     45  N   UNL A   1      43.792  27.771  30.186  1.00  0.00    -0.248 NA
ATOM     46  C   UNL A   1      41.579  28.349  29.838  1.00  0.00     0.031 C 
ATOM     47  C   UNL A   1      45.158  28.345  26.514  1.00  0.00     0.029 A 
ATOM     48  N   UNL A   1      43.870  30.080  27.121  1.00  0.00    -0.354 N 
ATOM     49  C   UNL A   1      43.181  27.881  31.426  1.00  0.00     0.074 A 
ATOM     50  C   UNL A   1      41.803  28.229  31.157  1.00  0.00     0.031 C 
ATOM     51  C   UNL A   1      45.872  29.473  26.308  1.00  0.00     0.029 A 
ATOM     52  C   UNL A   1      45.060  30.639  26.653  1.00  0.00     0.049 A 
ATOM     53  H   UNL A   1      43.094  30.619  27.402  1.00  0.00     0.167 HD
ATOM     54  C   UNL A   1      43.852  27.712  32.598  1.00  0.00     0.031 A 
ATOM     55  C   UNL A   1      45.565  31.848  27.033  1.00  0.00     0.031 A 
ATOM     56  C   UNL A   1      45.259  27.483  32.463  1.00  0.00     0.049 A 
ATOM     57  C   UNL A   1      46.047  31.526  28.425  1.00  0.00     0.074 A 
ATOM     58  C   UNL A   1      46.139  26.422  32.447  1.00  0.00     0.029 A 
ATOM     59  N   UNL A   1      46.056  28.585  32.271  1.00  0.00    -0.354 N 
ATOM     60  N   UNL A   1      47.137  30.880  28.738  1.00  0.00    -0.248 NA
ATOM     61  C   UNL A   1      45.050  31.605  29.495  1.00  0.00     0.031 C 
ATOM     62  C   UNL A   1      47.308  26.911  31.779  1.00  0.00     0.029 A 
ATOM     63  C   UNL A   1      47.045  28.225  31.397  1.00  0.00     0.049 A 
ATOM     64  H   UNL A   1      45.936  29.470  32.684  1.00  0.00     0.167 HD
ATOM     65  C   UNL A   1      46.832  30.196  29.915  1.00  0.00     0.074 A 
ATOM     66  C   UNL A   1      45.532  30.693  30.328  1.00  0.00     0.031 C 
ATOM     67  C   UNL A   1      47.546  29.130  30.388  1.00  0.00     0.031 A 
BRANCH  54  68
ATOM     68  C   UNL A   1      43.310  27.949  33.958  1.00  0.00    -0.014 A 
ATOM     69  C   UNL A   1      42.664  26.875  34.598  1.00  0.00     0.009 A 
ATOM     70  C   UNL A   1      43.178  29.232  34.497  1.00  0.00     0.009 A 
ATOM     71  C   UNL A   1      41.846  27.084  35.706  1.00  0.00     0.001 A 
ATOM     72  C   UNL A   1      42.371  29.437  35.626  1.00  0.00     0.001 A 
ATOM     73  C   UNL A   1      41.690  28.369  36.214  1.00  0.00     0.000 A 
ENDBRANCH  54  68
BRANCH  55  74
ATOM     74  C   UNL A   1      44.731  33.060  26.733  1.00  0.00    -0.014 A 
ATOM     75  C   UNL A   1      44.256  33.223  25.416  1.00  0.00     0.009 A 
ATOM     76  C   UNL A   1      44.400  34.064  27.656  1.00  0.00     0.009 A 
ATOM     77  C   UNL A   1      43.385  34.262  25.073  1.00  0.00     0.001 A 
ATOM     78  C   UNL A   1      43.503  35.090  27.325  1.00  0.00     0.001 A 
ATOM     79  C   UNL A   1      42.980  35.176  26.038  1.00  0.00     0.000 A 
ENDBRANCH  55  74
BRANCH  67  80
ATOM     80  C   UNL A   1      48.799  28.774  29.656  1.00  0.00    -0.014 A 
ATOM     81  C   UNL A   1      50.043  29.215  30.121  1.00  0.00     0.009 A 
ATOM     82  C   UNL A   1      48.754  27.923  28.539  1.00  0.00     0.009 A 
ATOM     83  C   UNL A   1      51.220  28.781  29.507  1.00  0.00     0.001 A 
ATOM     84  C   UNL A   1      49.931  27.473  27.939  1.00  0.00     0.001 A 
ATOM     85  C   UNL A   1      51.163  27.898  28.430  1.00  0.00     0.000 A 
ENDBRANCH  67  80
ENDBRANCH  41  42
ENDBRANCH  33  36
ENDBRANCH  31  32
ENDBRANCH  30  31
ENDBRANCH  29  30
ENDBRANCH   1  29
TORSDOF 16
ENDMDL
