MODEL 1
REMARK VINA RESULT:      -9.2      0.000      0.000
REMARK SMILES O=C(NCCCCCCNC(=O)c1cn2ccccc2n1)c1ccc(-c2c3nc(c(-c4ccccc4)c4ccc([nH]4)c(-c4ccccc4)c4nc(c(-c5ccccc5)c5ccc2[nH]5)C=C4)C=C3)cc1
REMARK SMILES IDX 5 1 4 2 3 3 1 4 2 5 22 7 23 8 69 9 24 10 68 11 25 12 26 13
REMARK SMILES IDX 27 14 62 15 28 16 67 17 61 18 63 19 29 20 66 21 60 22 59 23
REMARK SMILES IDX 30 25 52 26 37 27 51 28 38 29 41 30 50 31 64 32 39 33 40 34
REMARK SMILES IDX 49 36 65 37 42 38 31 39 32 40 36 41 33 42 35 43 34 44 53 45
REMARK SMILES IDX 54 46 58 47 55 48 57 49 56 50 43 51 44 52 48 53 45 54 47 55
REMARK SMILES IDX 46 56 6 57 7 58 8 59 9 60 10 61 11 62 12 64 13 65 14 66
REMARK SMILES IDX 21 67 15 68 20 69 16 70 19 71 17 72 18 73
REMARK H PARENT 3 6 63 24 41 35 10 63
REMARK Flexibility Score: inf
ROOT
ATOM      1  C   UNL A   1      32.825  36.653  31.114  1.00  0.00     0.021 C 
ENDROOT
BRANCH   1   2
ATOM      2  C   UNL A   1      33.453  36.440  29.742  1.00  0.00     0.116 C 
BRANCH   2   3
ATOM      3  N   UNL A   1      32.720  35.483  28.932  1.00  0.00    -0.352 N 
ATOM      4  O   UNL A   1      32.423  33.652  27.648  1.00  0.00    -0.269 OA
ATOM      5  C   UNL A   1      33.127  34.266  28.443  1.00  0.00     0.251 C 
ATOM      6  H   UNL A   1      31.799  35.744  28.701  1.00  0.00     0.163 HD
BRANCH   5   7
ATOM      7  C   UNL A   1      34.430  33.700  28.857  1.00  0.00     0.039 A 
ATOM      8  C   UNL A   1      34.533  32.877  29.982  1.00  0.00     0.014 A 
ATOM      9  C   UNL A   1      35.566  33.979  28.090  1.00  0.00     0.014 A 
ATOM     10  C   UNL A   1      35.782  32.435  30.406  1.00  0.00     0.010 A 
ATOM     11  C   UNL A   1      36.810  33.472  28.475  1.00  0.00     0.010 A 
ATOM     12  C   UNL A   1      36.931  32.714  29.649  1.00  0.00    -0.014 A 
BRANCH  12  13
ATOM     13  C   UNL A   1      38.235  32.137  30.062  1.00  0.00     0.031 A 
ATOM     14  C   UNL A   1      38.706  30.810  29.536  1.00  0.00     0.074 A 
ATOM     15  C   UNL A   1      39.009  32.840  30.912  1.00  0.00     0.049 A 
ATOM     16  N   UNL A   1      39.830  30.183  29.780  1.00  0.00    -0.248 NA
ATOM     17  C   UNL A   1      37.803  30.090  28.625  1.00  0.00     0.031 C 
ATOM     18  C   UNL A   1      38.655  34.135  31.499  1.00  0.00     0.029 A 
ATOM     19  N   UNL A   1      40.255  32.576  31.417  1.00  0.00    -0.354 N 
ATOM     20  C   UNL A   1      39.763  28.991  29.071  1.00  0.00     0.074 A 
ATOM     21  C   UNL A   1      38.481  28.972  28.400  1.00  0.00     0.031 C 
ATOM     22  C   UNL A   1      39.678  34.572  32.248  1.00  0.00     0.029 A 
ATOM     23  C   UNL A   1      40.734  33.566  32.239  1.00  0.00     0.049 A 
ATOM     24  H   UNL A   1      40.759  31.756  31.210  1.00  0.00     0.167 HD
ATOM     25  C   UNL A   1      40.688  28.005  28.985  1.00  0.00     0.031 A 
ATOM     26  C   UNL A   1      41.888  33.653  32.925  1.00  0.00     0.031 A 
ATOM     27  C   UNL A   1      41.965  28.026  29.650  1.00  0.00     0.049 A 
ATOM     28  C   UNL A   1      42.882  32.533  32.829  1.00  0.00     0.074 A 
ATOM     29  C   UNL A   1      42.983  27.088  29.593  1.00  0.00     0.029 A 
ATOM     30  N   UNL A   1      42.399  29.033  30.499  1.00  0.00    -0.354 N 
ATOM     31  N   UNL A   1      42.818  31.434  32.118  1.00  0.00    -0.248 NA
ATOM     32  C   UNL A   1      44.107  32.669  33.628  1.00  0.00     0.031 C 
ATOM     33  C   UNL A   1      44.013  27.505  30.442  1.00  0.00     0.029 A 
ATOM     34  C   UNL A   1      43.658  28.726  30.990  1.00  0.00     0.049 A 
ATOM     35  H   UNL A   1      41.887  29.845  30.720  1.00  0.00     0.167 HD
ATOM     36  C   UNL A   1      43.999  30.752  32.375  1.00  0.00     0.074 A 
ATOM     37  C   UNL A   1      44.770  31.574  33.286  1.00  0.00     0.031 C 
ATOM     38  C   UNL A   1      44.407  29.551  31.900  1.00  0.00     0.031 A 
BRANCH  25  39
ATOM     39  C   UNL A   1      40.350  26.799  28.154  1.00  0.00    -0.014 A 
ATOM     40  C   UNL A   1      39.511  25.788  28.647  1.00  0.00     0.009 A 
ATOM     41  C   UNL A   1      40.821  26.710  26.835  1.00  0.00     0.009 A 
ATOM     42  C   UNL A   1      39.168  24.700  27.842  1.00  0.00     0.001 A 
ATOM     43  C   UNL A   1      40.460  25.631  26.025  1.00  0.00     0.001 A 
ATOM     44  C   UNL A   1      39.639  24.624  26.531  1.00  0.00     0.000 A 
ENDBRANCH  25  39
BRANCH  26  45
ATOM     45  C   UNL A   1      42.155  34.840  33.775  1.00  0.00    -0.014 A 
ATOM     46  C   UNL A   1      41.753  34.862  35.119  1.00  0.00     0.009 A 
ATOM     47  C   UNL A   1      42.821  35.957  33.245  1.00  0.00     0.009 A 
ATOM     48  C   UNL A   1      41.995  35.987  35.909  1.00  0.00     0.001 A 
ATOM     49  C   UNL A   1      43.086  37.069  34.045  1.00  0.00     0.001 A 
ATOM     50  C   UNL A   1      42.665  37.087  35.373  1.00  0.00     0.000 A 
ENDBRANCH  26  45
BRANCH  38  51
ATOM     51  C   UNL A   1      45.759  29.069  32.343  1.00  0.00    -0.014 A 
ATOM     52  C   UNL A   1      46.917  29.406  31.628  1.00  0.00     0.009 A 
ATOM     53  C   UNL A   1      45.873  28.287  33.503  1.00  0.00     0.009 A 
ATOM     54  C   UNL A   1      48.164  28.939  32.048  1.00  0.00     0.001 A 
ATOM     55  C   UNL A   1      47.124  27.843  33.933  1.00  0.00     0.001 A 
ATOM     56  C   UNL A   1      48.266  28.161  33.201  1.00  0.00     0.000 A 
ENDBRANCH  38  51
ENDBRANCH  12  13
ENDBRANCH   5   7
ENDBRANCH   2   3
ENDBRANCH   1   2
BRANCH   1  57
ATOM     57  C   UNL A   1      33.155  35.583  32.155  1.00  0.00     0.002 C 
BRANCH  57  58
ATOM     58  C   UNL A   1      34.622  35.507  32.587  1.00  0.00     0.002 C 
BRANCH  58  59
ATOM     59  C   UNL A   1      34.897  34.753  33.892  1.00  0.00     0.021 C 
BRANCH  59  60
ATOM     60  C   UNL A   1      36.044  33.745  33.839  1.00  0.00     0.116 C 
BRANCH  60  61
ATOM     61  N   UNL A   1      37.071  34.035  34.821  1.00  0.00    -0.351 N 
ATOM     62  C   UNL A   1      38.072  33.221  35.297  1.00  0.00     0.271 C 
ATOM     63  H   UNL A   1      37.047  34.943  35.201  1.00  0.00     0.163 HD
ATOM     64  O   UNL A   1      38.722  33.601  36.271  1.00  0.00    -0.267 OA
BRANCH  62  65
ATOM     65  C   UNL A   1      38.330  31.951  34.621  1.00  0.00     0.147 A 
ATOM     66  C   UNL A   1      39.507  31.220  34.644  1.00  0.00     0.127 A 
ATOM     67  N   UNL A   1      37.376  31.287  33.870  1.00  0.00    -0.223 NA
ATOM     68  N   UNL A   1      39.283  30.125  33.854  1.00  0.00    -0.306 N 
ATOM     69  C   UNL A   1      37.968  30.204  33.415  1.00  0.00     0.137 A 
ATOM     70  C   UNL A   1      40.155  29.099  33.497  1.00  0.00     0.093 A 
ATOM     71  C   UNL A   1      37.500  29.156  32.573  1.00  0.00     0.048 A 
ATOM     72  C   UNL A   1      39.716  28.119  32.689  1.00  0.00     0.018 A 
ATOM     73  C   UNL A   1      38.337  28.159  32.222  1.00  0.00     0.005 A 
ENDBRANCH  62  65
ENDBRANCH  60  61
ENDBRANCH  59  60
ENDBRANCH  58  59
ENDBRANCH  57  58
ENDBRANCH   1  57
TORSDOF 13
ENDMDL
MODEL 2
REMARK VINA RESULT:      -9.0      0.464      6.252
REMARK SMILES O=C(NCCCCCCNC(=O)c1cn2ccccc2n1)c1ccc(-c2c3nc(c(-c4ccccc4)c4ccc([nH]4)c(-c4ccccc4)c4nc(c(-c5ccccc5)c5ccc2[nH]5)C=C4)C=C3)cc1
REMARK SMILES IDX 5 1 4 2 3 3 1 4 2 5 22 7 23 8 69 9 24 10 68 11 25 12 26 13
REMARK SMILES IDX 27 14 62 15 28 16 67 17 61 18 63 19 29 20 66 21 60 22 59 23
REMARK SMILES IDX 30 25 52 26 37 27 51 28 38 29 41 30 50 31 64 32 39 33 40 34
REMARK SMILES IDX 49 36 65 37 42 38 31 39 32 40 36 41 33 42 35 43 34 44 53 45
REMARK SMILES IDX 54 46 58 47 55 48 57 49 56 50 43 51 44 52 48 53 45 54 47 55
REMARK SMILES IDX 46 56 6 57 7 58 8 59 9 60 10 61 11 62 12 64 13 65 14 66
REMARK SMILES IDX 21 67 15 68 20 69 16 70 19 71 17 72 18 73
REMARK H PARENT 3 6 63 24 41 35 10 63
REMARK Flexibility Score: inf
ROOT
ATOM      1  C   UNL A   1      33.214  36.426  31.071  1.00  0.00     0.021 C 
ENDROOT
BRANCH   1   2
ATOM      2  C   UNL A   1      33.419  36.537  29.565  1.00  0.00     0.116 C 
BRANCH   2   3
ATOM      3  N   UNL A   1      32.651  35.553  28.820  1.00  0.00    -0.352 N 
ATOM      4  O   UNL A   1      32.299  33.678  27.617  1.00  0.00    -0.269 OA
ATOM      5  C   UNL A   1      33.036  34.318  28.360  1.00  0.00     0.251 C 
ATOM      6  H   UNL A   1      31.723  35.809  28.616  1.00  0.00     0.163 HD
BRANCH   5   7
ATOM      7  C   UNL A   1      34.353  33.763  28.743  1.00  0.00     0.039 A 
ATOM      8  C   UNL A   1      35.506  34.084  28.022  1.00  0.00     0.014 A 
ATOM      9  C   UNL A   1      34.438  32.926  29.860  1.00  0.00     0.014 A 
ATOM     10  C   UNL A   1      36.716  33.476  28.343  1.00  0.00     0.010 A 
ATOM     11  C   UNL A   1      35.668  32.374  30.227  1.00  0.00     0.010 A 
ATOM     12  C   UNL A   1      36.814  32.628  29.457  1.00  0.00    -0.014 A 
BRANCH  12  13
ATOM     13  C   UNL A   1      38.139  32.081  29.844  1.00  0.00     0.031 A 
ATOM     14  C   UNL A   1      39.055  32.830  30.770  1.00  0.00     0.074 A 
ATOM     15  C   UNL A   1      38.503  30.878  29.360  1.00  0.00     0.049 A 
ATOM     16  N   UNL A   1      40.231  32.475  31.224  1.00  0.00    -0.248 NA
ATOM     17  C   UNL A   1      38.600  34.145  31.247  1.00  0.00     0.031 C 
ATOM     18  C   UNL A   1      37.704  30.060  28.444  1.00  0.00     0.029 A 
ATOM     19  N   UNL A   1      39.627  30.125  29.582  1.00  0.00    -0.354 N 
ATOM     20  C   UNL A   1      40.665  33.526  32.021  1.00  0.00     0.074 A 
ATOM     21  C   UNL A   1      39.634  34.541  31.978  1.00  0.00     0.031 C 
ATOM     22  C   UNL A   1      38.342  28.902  28.218  1.00  0.00     0.029 A 
ATOM     23  C   UNL A   1      39.618  28.919  28.925  1.00  0.00     0.049 A 
ATOM     24  H   UNL A   1      40.370  30.420  30.157  1.00  0.00     0.167 HD
ATOM     25  C   UNL A   1      41.816  33.632  32.728  1.00  0.00     0.031 A 
ATOM     26  C   UNL A   1      40.537  27.938  28.882  1.00  0.00     0.031 A 
ATOM     27  C   UNL A   1      42.840  32.621  32.774  1.00  0.00     0.049 A 
ATOM     28  C   UNL A   1      41.812  28.096  29.656  1.00  0.00     0.074 A 
ATOM     29  C   UNL A   1      44.025  32.626  33.492  1.00  0.00     0.029 A 
ATOM     30  N   UNL A   1      42.806  31.428  32.070  1.00  0.00    -0.354 N 
ATOM     31  N   UNL A   1      42.185  29.080  30.438  1.00  0.00    -0.248 NA
ATOM     32  C   UNL A   1      42.792  27.008  29.540  1.00  0.00     0.031 C 
ATOM     33  C   UNL A   1      44.728  31.456  33.187  1.00  0.00     0.029 A 
ATOM     34  C   UNL A   1      43.959  30.701  32.318  1.00  0.00     0.049 A 
ATOM     35  H   UNL A   1      42.071  31.140  31.481  1.00  0.00     0.167 HD
ATOM     36  C   UNL A   1      43.436  28.723  30.919  1.00  0.00     0.074 A 
ATOM     37  C   UNL A   1      43.748  27.424  30.359  1.00  0.00     0.031 C 
ATOM     38  C   UNL A   1      44.256  29.413  31.748  1.00  0.00     0.031 A 
BRANCH  25  39
ATOM     39  C   UNL A   1      42.047  34.901  33.501  1.00  0.00    -0.014 A 
ATOM     40  C   UNL A   1      41.554  35.058  34.805  1.00  0.00     0.009 A 
ATOM     41  C   UNL A   1      42.829  35.923  32.941  1.00  0.00     0.009 A 
ATOM     42  C   UNL A   1      41.822  36.224  35.525  1.00  0.00     0.001 A 
ATOM     43  C   UNL A   1      43.113  37.080  33.671  1.00  0.00     0.001 A 
ATOM     44  C   UNL A   1      42.604  37.232  34.960  1.00  0.00     0.000 A 
ENDBRANCH  25  39
BRANCH  26  45
ATOM     45  C   UNL A   1      40.287  26.726  28.062  1.00  0.00    -0.014 A 
ATOM     46  C   UNL A   1      40.801  26.625  26.761  1.00  0.00     0.009 A 
ATOM     47  C   UNL A   1      39.535  25.660  28.582  1.00  0.00     0.009 A 
ATOM     48  C   UNL A   1      40.550  25.489  25.990  1.00  0.00     0.001 A 
ATOM     49  C   UNL A   1      39.310  24.514  27.819  1.00  0.00     0.001 A 
ATOM     50  C   UNL A   1      39.809  24.433  26.521  1.00  0.00     0.000 A 
ENDBRANCH  26  45
BRANCH  38  51
ATOM     51  C   UNL A   1      45.557  28.760  32.114  1.00  0.00    -0.014 A 
ATOM     52  C   UNL A   1      45.653  27.910  33.225  1.00  0.00     0.009 A 
ATOM     53  C   UNL A   1      46.695  28.983  31.323  1.00  0.00     0.009 A 
ATOM     54  C   UNL A   1      46.874  27.321  33.558  1.00  0.00     0.001 A 
ATOM     55  C   UNL A   1      47.908  28.372  31.644  1.00  0.00     0.001 A 
ATOM     56  C   UNL A   1      47.999  27.550  32.766  1.00  0.00     0.000 A 
ENDBRANCH  38  51
ENDBRANCH  12  13
ENDBRANCH   5   7
ENDBRANCH   2   3
ENDBRANCH   1   2
BRANCH   1  57
ATOM     57  C   UNL A   1      34.314  35.676  31.824  1.00  0.00     0.002 C 
BRANCH  57  58
ATOM     58  C   UNL A   1      34.375  35.928  33.333  1.00  0.00     0.002 C 
BRANCH  58  59
ATOM     59  C   UNL A   1      34.780  34.728  34.195  1.00  0.00     0.021 C 
BRANCH  59  60
ATOM     60  C   UNL A   1      36.082  34.038  33.789  1.00  0.00     0.116 C 
BRANCH  60  61
ATOM     61  N   UNL A   1      37.131  34.232  34.771  1.00  0.00    -0.351 N 
ATOM     62  C   UNL A   1      38.083  33.343  35.211  1.00  0.00     0.271 C 
ATOM     63  H   UNL A   1      37.165  35.127  35.181  1.00  0.00     0.163 HD
ATOM     64  O   UNL A   1      38.762  33.650  36.191  1.00  0.00    -0.267 OA
BRANCH  62  65
ATOM     65  C   UNL A   1      38.259  32.083  34.491  1.00  0.00     0.147 A 
ATOM     66  C   UNL A   1      37.313  31.424  33.723  1.00  0.00     0.127 A 
ATOM     67  N   UNL A   1      39.455  31.386  34.468  1.00  0.00    -0.223 NA
ATOM     68  N   UNL A   1      37.923  30.284  33.273  1.00  0.00    -0.306 N 
ATOM     69  C   UNL A   1      39.230  30.313  33.743  1.00  0.00     0.137 A 
ATOM     70  C   UNL A   1      37.401  29.246  32.505  1.00  0.00     0.093 A 
ATOM     71  C   UNL A   1      40.070  29.220  33.389  1.00  0.00     0.048 A 
ATOM     72  C   UNL A   1      38.193  28.207  32.187  1.00  0.00     0.018 A 
ATOM     73  C   UNL A   1      39.574  28.209  32.647  1.00  0.00     0.005 A 
ENDBRANCH  62  65
ENDBRANCH  60  61
ENDBRANCH  59  60
ENDBRANCH  58  59
ENDBRANCH  57  58
ENDBRANCH   1  57
TORSDOF 13
ENDMDL
MODEL 3
REMARK VINA RESULT:      -8.4      5.536     11.161
REMARK SMILES O=C(NCCCCCCNC(=O)c1cn2ccccc2n1)c1ccc(-c2c3nc(c(-c4ccccc4)c4ccc([nH]4)c(-c4ccccc4)c4nc(c(-c5ccccc5)c5ccc2[nH]5)C=C4)C=C3)cc1
REMARK SMILES IDX 5 1 4 2 3 3 1 4 2 5 22 7 23 8 69 9 24 10 68 11 25 12 26 13
REMARK SMILES IDX 27 14 62 15 28 16 67 17 61 18 63 19 29 20 66 21 60 22 59 23
REMARK SMILES IDX 30 25 52 26 37 27 51 28 38 29 41 30 50 31 64 32 39 33 40 34
REMARK SMILES IDX 49 36 65 37 42 38 31 39 32 40 36 41 33 42 35 43 34 44 53 45
REMARK SMILES IDX 54 46 58 47 55 48 57 49 56 50 43 51 44 52 48 53 45 54 47 55
REMARK SMILES IDX 46 56 6 57 7 58 8 59 9 60 10 61 11 62 12 64 13 65 14 66
REMARK SMILES IDX 21 67 15 68 20 69 16 70 19 71 17 72 18 73
REMARK H PARENT 3 6 63 24 41 35 10 63
REMARK Flexibility Score: inf
ROOT
ATOM      1  C   UNL A   1      37.891  20.048  24.725  1.00  0.00     0.021 C 
ENDROOT
BRANCH   1   2
ATOM      2  C   UNL A   1      38.779  20.089  25.962  1.00  0.00     0.116 C 
BRANCH   2   3
ATOM      3  N   UNL A   1      39.968  19.265  25.828  1.00  0.00    -0.352 N 
ATOM      4  O   UNL A   1      42.175  18.815  25.709  1.00  0.00    -0.269 OA
ATOM      5  C   UNL A   1      41.286  19.604  26.012  1.00  0.00     0.251 C 
ATOM      6  H   UNL A   1      39.805  18.330  25.567  1.00  0.00     0.163 HD
BRANCH   5   7
ATOM      7  C   UNL A   1      41.639  20.933  26.557  1.00  0.00     0.039 A 
ATOM      8  C   UNL A   1      41.610  21.178  27.932  1.00  0.00     0.014 A 
ATOM      9  C   UNL A   1      42.032  21.945  25.675  1.00  0.00     0.014 A 
ATOM     10  C   UNL A   1      41.854  22.461  28.414  1.00  0.00     0.010 A 
ATOM     11  C   UNL A   1      42.349  23.214  26.166  1.00  0.00     0.010 A 
ATOM     12  C   UNL A   1      42.242  23.488  27.538  1.00  0.00    -0.014 A 
BRANCH  12  13
ATOM     13  C   UNL A   1      42.604  24.818  28.090  1.00  0.00     0.031 A 
ATOM     14  C   UNL A   1      41.563  25.872  28.339  1.00  0.00     0.074 A 
ATOM     15  C   UNL A   1      43.896  25.061  28.385  1.00  0.00     0.049 A 
ATOM     16  N   UNL A   1      41.715  27.073  28.840  1.00  0.00    -0.248 NA
ATOM     17  C   UNL A   1      40.175  25.544  27.978  1.00  0.00     0.031 C 
ATOM     18  C   UNL A   1      45.000  24.120  28.178  1.00  0.00     0.029 A 
ATOM     19  N   UNL A   1      44.498  26.162  28.937  1.00  0.00    -0.354 N 
ATOM     20  C   UNL A   1      40.452  27.649  28.838  1.00  0.00     0.074 A 
ATOM     21  C   UNL A   1      39.545  26.675  28.270  1.00  0.00     0.031 C 
ATOM     22  C   UNL A   1      46.136  24.667  28.637  1.00  0.00     0.029 A 
ATOM     23  C   UNL A   1      45.851  26.014  29.118  1.00  0.00     0.049 A 
ATOM     24  H   UNL A   1      44.007  26.980  29.181  1.00  0.00     0.167 HD
ATOM     25  C   UNL A   1      40.082  28.878  29.273  1.00  0.00     0.031 A 
ATOM     26  C   UNL A   1      46.768  26.870  29.603  1.00  0.00     0.031 A 
ATOM     27  C   UNL A   1      40.983  29.846  29.842  1.00  0.00     0.049 A 
ATOM     28  C   UNL A   1      46.332  28.232  30.054  1.00  0.00     0.074 A 
ATOM     29  C   UNL A   1      40.693  31.104  30.343  1.00  0.00     0.029 A 
ATOM     30  N   UNL A   1      42.351  29.669  29.978  1.00  0.00    -0.354 N 
ATOM     31  N   UNL A   1      45.125  28.743  30.083  1.00  0.00    -0.248 NA
ATOM     32  C   UNL A   1      47.384  29.134  30.540  1.00  0.00     0.031 C 
ATOM     33  C   UNL A   1      41.891  31.705  30.742  1.00  0.00     0.029 A 
ATOM     34  C   UNL A   1      42.920  30.803  30.534  1.00  0.00     0.049 A 
ATOM     35  H   UNL A   1      42.845  28.857  29.718  1.00  0.00     0.167 HD
ATOM     36  C   UNL A   1      45.271  30.021  30.603  1.00  0.00     0.074 A 
ATOM     37  C   UNL A   1      46.678  30.198  30.897  1.00  0.00     0.031 C 
ATOM     38  C   UNL A   1      44.323  30.965  30.814  1.00  0.00     0.031 A 
BRANCH  25  39
ATOM     39  C   UNL A   1      38.635  29.262  29.135  1.00  0.00    -0.014 A 
ATOM     40  C   UNL A   1      37.748  29.156  30.217  1.00  0.00     0.009 A 
ATOM     41  C   UNL A   1      38.172  29.804  27.926  1.00  0.00     0.009 A 
ATOM     42  C   UNL A   1      36.419  29.565  30.084  1.00  0.00     0.001 A 
ATOM     43  C   UNL A   1      36.848  30.231  27.801  1.00  0.00     0.001 A 
ATOM     44  C   UNL A   1      35.972  30.106  28.878  1.00  0.00     0.000 A 
ENDBRANCH  25  39
BRANCH  26  45
ATOM     45  C   UNL A   1      48.195  26.464  29.670  1.00  0.00    -0.014 A 
ATOM     46  C   UNL A   1      49.055  26.690  28.585  1.00  0.00     0.009 A 
ATOM     47  C   UNL A   1      48.705  25.853  30.827  1.00  0.00     0.009 A 
ATOM     48  C   UNL A   1      50.391  26.294  28.650  1.00  0.00     0.001 A 
ATOM     49  C   UNL A   1      50.048  25.483  30.899  1.00  0.00     0.001 A 
ATOM     50  C   UNL A   1      50.888  25.695  29.808  1.00  0.00     0.000 A 
ENDBRANCH  26  45
BRANCH  38  51
ATOM     51  C   UNL A   1      44.780  32.264  31.412  1.00  0.00    -0.014 A 
ATOM     52  C   UNL A   1      44.832  32.441  32.802  1.00  0.00     0.009 A 
ATOM     53  C   UNL A   1      45.183  33.314  30.573  1.00  0.00     0.009 A 
ATOM     54  C   UNL A   1      45.248  33.660  33.341  1.00  0.00     0.001 A 
ATOM     55  C   UNL A   1      45.623  34.522  31.115  1.00  0.00     0.001 A 
ATOM     56  C   UNL A   1      45.645  34.697  32.498  1.00  0.00     0.000 A 
ENDBRANCH  38  51
ENDBRANCH  12  13
ENDBRANCH   5   7
ENDBRANCH   2   3
ENDBRANCH   1   2
BRANCH   1  57
ATOM     57  C   UNL A   1      37.241  21.379  24.345  1.00  0.00     0.002 C 
BRANCH  57  58
ATOM     58  C   UNL A   1      36.916  22.316  25.512  1.00  0.00     0.002 C 
BRANCH  58  59
ATOM     59  C   UNL A   1      36.358  23.690  25.130  1.00  0.00     0.021 C 
BRANCH  59  60
ATOM     60  C   UNL A   1      34.846  23.748  24.915  1.00  0.00     0.116 C 
BRANCH  60  61
ATOM     61  N   UNL A   1      34.111  23.495  26.139  1.00  0.00    -0.351 N 
ATOM     62  C   UNL A   1      33.288  22.441  26.455  1.00  0.00     0.271 C 
ATOM     63  H   UNL A   1      34.217  24.176  26.842  1.00  0.00     0.163 HD
ATOM     64  O   UNL A   1      32.609  22.515  27.480  1.00  0.00    -0.267 OA
BRANCH  62  65
ATOM     65  C   UNL A   1      33.263  21.275  25.574  1.00  0.00     0.147 A 
ATOM     66  C   UNL A   1      32.381  21.038  24.532  1.00  0.00     0.127 A 
ATOM     67  N   UNL A   1      34.178  20.240  25.664  1.00  0.00    -0.223 NA
ATOM     68  N   UNL A   1      32.729  19.819  24.016  1.00  0.00    -0.306 N 
ATOM     69  C   UNL A   1      33.836  19.379  24.731  1.00  0.00     0.137 A 
ATOM     70  C   UNL A   1      32.133  19.089  22.990  1.00  0.00     0.093 A 
ATOM     71  C   UNL A   1      34.388  18.119  24.362  1.00  0.00     0.048 A 
ATOM     72  C   UNL A   1      32.646  17.893  22.656  1.00  0.00     0.018 A 
ATOM     73  C   UNL A   1      33.817  17.405  23.371  1.00  0.00     0.005 A 
ENDBRANCH  62  65
ENDBRANCH  60  61
ENDBRANCH  59  60
ENDBRANCH  58  59
ENDBRANCH  57  58
ENDBRANCH   1  57
TORSDOF 13
ENDMDL
