MODEL 1
REMARK VINA RESULT:     -11.4      0.000      0.000
REMARK SMILES Cn1c(C(=O)N2CCC[C@@H](C(=O)NCCCCCCNC(=O)c3ccc(-c4c5nc(c(-c6ccccc6)c6ccc([nH]6)c(-c6ccccc6)c6nc(c(-c7ccccc7)c7ccc4[nH]7)C=C6)C=C5)cc3)C2)cc2sccc21
REMARK SMILES IDX 16 1 15 2 14 3 13 4 11 5 12 6 10 8 6 9 7 10 71 11 8 12 9 13
REMARK SMILES IDX 4 14 5 15 3 16 1 17 2 18 77 19 72 20 73 21 76 22 74 23 75 24
REMARK SMILES IDX 17 25 18 26 19 27 20 28 21 29 22 31 23 32 24 33 70 34 25 35
REMARK SMILES IDX 69 36 26 37 27 38 28 39 63 40 29 41 68 42 62 43 64 44 30 45
REMARK SMILES IDX 67 46 61 47 60 48 31 50 53 51 38 52 52 53 39 54 42 55 51 56
REMARK SMILES IDX 65 57 40 58 41 59 50 61 66 62 43 63 32 64 33 65 37 66 34 67
REMARK SMILES IDX 36 68 35 69 54 70 55 71 59 72 56 73 58 74 57 75 44 76 45 77
REMARK SMILES IDX 49 78 46 79 48 80 47 81
REMARK H PARENT 13 7 20 30 64 49 42 60
REMARK Flexibility Score: inf
ROOT
ATOM      1  C   UNL A   1      40.915  20.647  26.907  1.00  0.00     0.002 C 
ENDROOT
BRANCH   1   2
ATOM      2  C   UNL A   1      39.971  19.979  25.899  1.00  0.00     0.021 C 
BRANCH   2   3
ATOM      3  C   UNL A   1      38.783  20.828  25.448  1.00  0.00     0.116 C 
BRANCH   3   4
ATOM      4  N   UNL A   1      38.845  22.180  25.971  1.00  0.00    -0.356 N 
ATOM      5  C   UNL A   1      37.917  23.180  25.927  1.00  0.00     0.224 C 
ATOM      6  O   UNL A   1      38.168  24.230  26.517  1.00  0.00    -0.275 OA
ATOM      7  H   UNL A   1      39.685  22.412  26.428  1.00  0.00     0.163 HD
BRANCH   5   8
ATOM      8  C   UNL A   1      36.642  22.989  25.123  1.00  0.00     0.098 C 
ATOM      9  N   UNL A   1      34.369  23.887  24.766  1.00  0.00    -0.337 N 
ATOM     10  C   UNL A   1      34.595  24.096  23.346  1.00  0.00     0.120 C 
ATOM     11  C   UNL A   1      35.549  23.948  25.630  1.00  0.00     0.133 C 
ATOM     12  C   UNL A   1      35.646  23.139  22.806  1.00  0.00     0.022 C 
ATOM     13  C   UNL A   1      36.928  23.225  23.631  1.00  0.00     0.017 C 
BRANCH   9  14
ATOM     14  C   UNL A   1      33.125  23.429  25.180  1.00  0.00     0.270 C 
ATOM     15  O   UNL A   1      32.382  24.172  25.824  1.00  0.00    -0.267 OA
BRANCH  14  16
ATOM     16  C   UNL A   1      32.824  22.014  24.964  1.00  0.00     0.108 A 
ATOM     17  C   UNL A   1      33.573  21.202  27.248  1.00  0.00     0.150 C 
ATOM     18  N   UNL A   1      33.078  21.024  25.903  1.00  0.00    -0.339 N 
ATOM     19  C   UNL A   1      32.901  19.789  25.318  1.00  0.00     0.059 A 
ATOM     20  C   UNL A   1      32.385  21.378  23.806  1.00  0.00     0.053 A 
ATOM     21  C   UNL A   1      32.453  19.981  24.048  1.00  0.00     0.053 A 
ATOM     22  C   UNL A   1      33.074  18.417  25.657  1.00  0.00     0.038 A 
ATOM     23  S   UNL A   1      32.184  18.493  23.206  1.00  0.00    -0.142 S 
ATOM     24  C   UNL A   1      32.731  17.621  24.584  1.00  0.00     0.068 A 
ENDBRANCH  14  16
ENDBRANCH   9  14
ENDBRANCH   5   8
ENDBRANCH   3   4
ENDBRANCH   2   3
ENDBRANCH   1   2
BRANCH   1  25
ATOM     25  C   UNL A   1      42.282  19.979  27.118  1.00  0.00     0.002 C 
BRANCH  25  26
ATOM     26  C   UNL A   1      42.675  18.868  26.136  1.00  0.00     0.021 C 
BRANCH  26  27
ATOM     27  C   UNL A   1      44.163  18.554  26.091  1.00  0.00     0.116 C 
BRANCH  27  28
ATOM     28  N   UNL A   1      44.723  18.565  24.738  1.00  0.00    -0.352 N 
ATOM     29  C   UNL A   1      44.809  19.633  23.865  1.00  0.00     0.251 C 
ATOM     30  H   UNL A   1      45.080  17.709  24.411  1.00  0.00     0.163 HD
ATOM     31  O   UNL A   1      44.935  19.457  22.655  1.00  0.00    -0.269 OA
BRANCH  29  32
ATOM     32  C   UNL A   1      44.753  20.999  24.412  1.00  0.00     0.039 A 
ATOM     33  C   UNL A   1      43.841  21.951  23.950  1.00  0.00     0.014 A 
ATOM     34  C   UNL A   1      45.629  21.304  25.449  1.00  0.00     0.014 A 
ATOM     35  C   UNL A   1      43.760  23.177  24.610  1.00  0.00     0.010 A 
ATOM     36  C   UNL A   1      45.418  22.422  26.210  1.00  0.00     0.010 A 
ATOM     37  C   UNL A   1      44.537  23.395  25.760  1.00  0.00    -0.014 A 
BRANCH  37  38
ATOM     38  C   UNL A   1      44.400  24.608  26.556  1.00  0.00     0.031 A 
ATOM     39  C   UNL A   1      45.464  25.621  26.356  1.00  0.00     0.074 A 
ATOM     40  C   UNL A   1      43.305  24.894  27.293  1.00  0.00     0.049 A 
ATOM     41  N   UNL A   1      46.409  25.918  27.182  1.00  0.00    -0.248 NA
ATOM     42  C   UNL A   1      45.567  26.301  25.057  1.00  0.00     0.031 C 
ATOM     43  C   UNL A   1      42.041  24.151  27.391  1.00  0.00     0.029 A 
ATOM     44  N   UNL A   1      43.061  25.994  28.056  1.00  0.00    -0.354 N 
ATOM     45  C   UNL A   1      47.122  26.958  26.598  1.00  0.00     0.074 A 
ATOM     46  C   UNL A   1      46.663  27.045  25.234  1.00  0.00     0.031 C 
ATOM     47  C   UNL A   1      41.099  24.925  27.976  1.00  0.00     0.029 A 
ATOM     48  C   UNL A   1      41.742  26.128  28.467  1.00  0.00     0.049 A 
ATOM     49  H   UNL A   1      43.763  26.641  28.296  1.00  0.00     0.167 HD
ATOM     50  C   UNL A   1      47.863  27.814  27.359  1.00  0.00     0.031 A 
ATOM     51  C   UNL A   1      41.216  27.149  29.181  1.00  0.00     0.031 A 
ATOM     52  C   UNL A   1      48.006  27.328  28.709  1.00  0.00     0.049 A 
ATOM     53  C   UNL A   1      42.333  27.796  29.900  1.00  0.00     0.074 A 
ATOM     54  C   UNL A   1      48.586  26.228  29.303  1.00  0.00     0.029 A 
ATOM     55  N   UNL A   1      47.132  27.849  29.633  1.00  0.00    -0.354 N 
ATOM     56  N   UNL A   1      42.998  27.208  30.851  1.00  0.00    -0.248 NA
ATOM     57  C   UNL A   1      42.993  28.937  29.291  1.00  0.00     0.031 C 
ATOM     58  C   UNL A   1      47.710  25.883  30.377  1.00  0.00     0.029 A 
ATOM     59  C   UNL A   1      46.678  26.824  30.420  1.00  0.00     0.049 A 
ATOM     60  H   UNL A   1      46.874  28.796  29.715  1.00  0.00     0.167 HD
ATOM     61  C   UNL A   1      44.313  27.598  30.651  1.00  0.00     0.074 A 
ATOM     62  C   UNL A   1      44.227  28.765  29.776  1.00  0.00     0.031 C 
ATOM     63  C   UNL A   1      45.345  26.767  30.984  1.00  0.00     0.031 A 
BRANCH  50  64
ATOM     64  C   UNL A   1      48.089  29.267  27.030  1.00  0.00    -0.014 A 
ATOM     65  C   UNL A   1      49.397  29.780  27.125  1.00  0.00     0.009 A 
ATOM     66  C   UNL A   1      47.048  30.207  26.918  1.00  0.00     0.009 A 
ATOM     67  C   UNL A   1      49.639  31.157  27.192  1.00  0.00     0.001 A 
ATOM     68  C   UNL A   1      47.290  31.584  26.944  1.00  0.00     0.001 A 
ATOM     69  C   UNL A   1      48.583  32.058  27.111  1.00  0.00     0.000 A 
ENDBRANCH  50  64
BRANCH  51  70
ATOM     70  C   UNL A   1      39.862  27.729  29.137  1.00  0.00    -0.014 A 
ATOM     71  C   UNL A   1      39.061  27.774  30.289  1.00  0.00     0.009 A 
ATOM     72  C   UNL A   1      39.472  28.508  28.033  1.00  0.00     0.009 A 
ATOM     73  C   UNL A   1      37.942  28.613  30.353  1.00  0.00     0.001 A 
ATOM     74  C   UNL A   1      38.355  29.347  28.096  1.00  0.00     0.001 A 
ATOM     75  C   UNL A   1      37.601  29.413  29.263  1.00  0.00     0.000 A 
ENDBRANCH  51  70
BRANCH  63  76
ATOM     76  C   UNL A   1      45.013  25.548  31.812  1.00  0.00    -0.014 A 
ATOM     77  C   UNL A   1      45.085  25.528  33.217  1.00  0.00     0.009 A 
ATOM     78  C   UNL A   1      44.491  24.423  31.159  1.00  0.00     0.009 A 
ATOM     79  C   UNL A   1      44.676  24.403  33.942  1.00  0.00     0.001 A 
ATOM     80  C   UNL A   1      44.062  23.308  31.884  1.00  0.00     0.001 A 
ATOM     81  C   UNL A   1      44.161  23.295  33.274  1.00  0.00     0.000 A 
ENDBRANCH  63  76
ENDBRANCH  37  38
ENDBRANCH  29  32
ENDBRANCH  27  28
ENDBRANCH  26  27
ENDBRANCH  25  26
ENDBRANCH   1  25
TORSDOF 15
ENDMDL
MODEL 2
REMARK VINA RESULT:     -11.4      2.141      3.315
REMARK SMILES Cn1c(C(=O)N2CCC[C@@H](C(=O)NCCCCCCNC(=O)c3ccc(-c4c5nc(c(-c6ccccc6)c6ccc([nH]6)c(-c6ccccc6)c6nc(c(-c7ccccc7)c7ccc4[nH]7)C=C6)C=C5)cc3)C2)cc2sccc21
REMARK SMILES IDX 16 1 15 2 14 3 13 4 11 5 12 6 10 8 6 9 7 10 71 11 8 12 9 13
REMARK SMILES IDX 4 14 5 15 3 16 1 17 2 18 77 19 72 20 73 21 76 22 74 23 75 24
REMARK SMILES IDX 17 25 18 26 19 27 20 28 21 29 22 31 23 32 24 33 70 34 25 35
REMARK SMILES IDX 69 36 26 37 27 38 28 39 63 40 29 41 68 42 62 43 64 44 30 45
REMARK SMILES IDX 67 46 61 47 60 48 31 50 53 51 38 52 52 53 39 54 42 55 51 56
REMARK SMILES IDX 65 57 40 58 41 59 50 61 66 62 43 63 32 64 33 65 37 66 34 67
REMARK SMILES IDX 36 68 35 69 54 70 55 71 59 72 56 73 58 74 57 75 44 76 45 77
REMARK SMILES IDX 49 78 46 79 48 80 47 81
REMARK H PARENT 13 7 20 30 64 49 42 60
REMARK Flexibility Score: inf
ROOT
ATOM      1  C   UNL A   1      39.841  21.525  26.363  1.00  0.00     0.002 C 
ENDROOT
BRANCH   1   2
ATOM      2  C   UNL A   1      38.995  22.799  26.495  1.00  0.00     0.021 C 
BRANCH   2   3
ATOM      3  C   UNL A   1      37.727  22.837  25.643  1.00  0.00     0.116 C 
BRANCH   3   4
ATOM      4  N   UNL A   1      37.214  21.509  25.362  1.00  0.00    -0.356 N 
ATOM      5  C   UNL A   1      35.927  21.057  25.323  1.00  0.00     0.224 C 
ATOM      6  O   UNL A   1      35.732  19.891  24.979  1.00  0.00    -0.275 OA
ATOM      7  H   UNL A   1      37.899  20.830  25.172  1.00  0.00     0.163 HD
BRANCH   5   8
ATOM      8  C   UNL A   1      34.793  21.977  25.742  1.00  0.00     0.098 C 
ATOM      9  N   UNL A   1      32.432  22.547  25.294  1.00  0.00    -0.337 N 
ATOM     10  C   UNL A   1      32.037  22.314  26.672  1.00  0.00     0.120 C 
ATOM     11  C   UNL A   1      33.583  21.785  24.809  1.00  0.00     0.133 C 
ATOM     12  C   UNL A   1      33.202  22.530  27.626  1.00  0.00     0.022 C 
ATOM     13  C   UNL A   1      34.406  21.692  27.203  1.00  0.00     0.017 C 
BRANCH   9  14
ATOM     14  C   UNL A   1      31.857  23.609  24.609  1.00  0.00     0.270 C 
ATOM     15  O   UNL A   1      31.351  23.423  23.501  1.00  0.00    -0.267 OA
BRANCH  14  16
ATOM     16  C   UNL A   1      32.028  24.946  25.177  1.00  0.00     0.108 A 
ATOM     17  C   UNL A   1      34.365  25.352  24.276  1.00  0.00     0.150 C 
ATOM     18  N   UNL A   1      33.191  25.692  25.046  1.00  0.00    -0.339 N 
ATOM     19  C   UNL A   1      33.121  26.790  25.876  1.00  0.00     0.059 A 
ATOM     20  C   UNL A   1      31.183  25.650  26.031  1.00  0.00     0.053 A 
ATOM     21  C   UNL A   1      31.896  26.799  26.466  1.00  0.00     0.053 A 
ATOM     22  C   UNL A   1      33.957  27.866  26.290  1.00  0.00     0.038 A 
ATOM     23  S   UNL A   1      31.682  28.143  27.535  1.00  0.00    -0.142 S 
ATOM     24  C   UNL A   1      33.289  28.656  27.201  1.00  0.00     0.068 A 
ENDBRANCH  14  16
ENDBRANCH   9  14
ENDBRANCH   5   8
ENDBRANCH   3   4
ENDBRANCH   2   3
ENDBRANCH   1   2
BRANCH   1  25
ATOM     25  C   UNL A   1      40.863  21.258  27.477  1.00  0.00     0.002 C 
BRANCH  25  26
ATOM     26  C   UNL A   1      41.874  20.127  27.240  1.00  0.00     0.021 C 
BRANCH  26  27
ATOM     27  C   UNL A   1      41.997  19.676  25.792  1.00  0.00     0.116 C 
BRANCH  27  28
ATOM     28  N   UNL A   1      43.374  19.396  25.382  1.00  0.00    -0.352 N 
ATOM     29  C   UNL A   1      44.339  20.300  24.979  1.00  0.00     0.251 C 
ATOM     30  H   UNL A   1      43.645  18.450  25.394  1.00  0.00     0.163 HD
ATOM     31  O   UNL A   1      45.305  19.943  24.308  1.00  0.00    -0.269 OA
BRANCH  29  32
ATOM     32  C   UNL A   1      44.195  21.711  25.375  1.00  0.00     0.039 A 
ATOM     33  C   UNL A   1      43.308  22.579  24.733  1.00  0.00     0.014 A 
ATOM     34  C   UNL A   1      44.956  22.148  26.455  1.00  0.00     0.014 A 
ATOM     35  C   UNL A   1      43.131  23.861  25.254  1.00  0.00     0.010 A 
ATOM     36  C   UNL A   1      44.643  23.328  27.074  1.00  0.00     0.010 A 
ATOM     37  C   UNL A   1      43.785  24.220  26.444  1.00  0.00    -0.014 A 
BRANCH  37  38
ATOM     38  C   UNL A   1      43.540  25.500  27.095  1.00  0.00     0.031 A 
ATOM     39  C   UNL A   1      44.485  26.585  26.737  1.00  0.00     0.074 A 
ATOM     40  C   UNL A   1      42.439  25.760  27.834  1.00  0.00     0.049 A 
ATOM     41  N   UNL A   1      45.413  27.076  27.486  1.00  0.00    -0.248 NA
ATOM     42  C   UNL A   1      44.483  27.109  25.364  1.00  0.00     0.031 C 
ATOM     43  C   UNL A   1      41.264  24.908  28.066  1.00  0.00     0.029 A 
ATOM     44  N   UNL A   1      42.098  26.914  28.468  1.00  0.00    -0.354 N 
ATOM     45  C   UNL A   1      45.996  28.105  26.757  1.00  0.00     0.074 A 
ATOM     46  C   UNL A   1      45.497  27.977  25.411  1.00  0.00     0.031 C 
ATOM     47  C   UNL A   1      40.260  25.647  28.589  1.00  0.00     0.029 A 
ATOM     48  C   UNL A   1      40.783  26.961  28.909  1.00  0.00     0.049 A 
ATOM     49  H   UNL A   1      42.732  27.654  28.604  1.00  0.00     0.167 HD
ATOM     50  C   UNL A   1      46.660  29.119  27.383  1.00  0.00     0.031 A 
ATOM     51  C   UNL A   1      40.169  28.001  29.516  1.00  0.00     0.031 A 
ATOM     52  C   UNL A   1      46.887  28.819  28.775  1.00  0.00     0.049 A 
ATOM     53  C   UNL A   1      41.227  28.842  30.112  1.00  0.00     0.074 A 
ATOM     54  C   UNL A   1      47.595  27.864  29.474  1.00  0.00     0.029 A 
ATOM     55  N   UNL A   1      45.985  29.356  29.662  1.00  0.00    -0.354 N 
ATOM     56  N   UNL A   1      41.974  28.446  31.101  1.00  0.00    -0.248 NA
ATOM     57  C   UNL A   1      41.747  29.963  29.347  1.00  0.00     0.031 C 
ATOM     58  C   UNL A   1      46.787  27.565  30.612  1.00  0.00     0.029 A 
ATOM     59  C   UNL A   1      45.663  28.393  30.581  1.00  0.00     0.049 A 
ATOM     60  H   UNL A   1      45.630  30.274  29.641  1.00  0.00     0.167 HD
ATOM     61  C   UNL A   1      43.235  28.942  30.806  1.00  0.00     0.074 A 
ATOM     62  C   UNL A   1      43.004  29.979  29.803  1.00  0.00     0.031 C 
ATOM     63  C   UNL A   1      44.358  28.269  31.197  1.00  0.00     0.031 A 
BRANCH  50  64
ATOM     64  C   UNL A   1      46.722  30.537  26.875  1.00  0.00    -0.014 A 
ATOM     65  C   UNL A   1      47.950  31.221  26.950  1.00  0.00     0.009 A 
ATOM     66  C   UNL A   1      45.580  31.313  26.605  1.00  0.00     0.009 A 
ATOM     67  C   UNL A   1      48.017  32.616  26.845  1.00  0.00     0.001 A 
ATOM     68  C   UNL A   1      45.649  32.702  26.460  1.00  0.00     0.001 A 
ATOM     69  C   UNL A   1      46.863  33.356  26.610  1.00  0.00     0.000 A 
ENDBRANCH  50  64
BRANCH  51  70
ATOM     70  C   UNL A   1      38.759  28.429  29.454  1.00  0.00    -0.014 A 
ATOM     71  C   UNL A   1      38.016  28.628  30.628  1.00  0.00     0.009 A 
ATOM     72  C   UNL A   1      38.235  28.932  28.249  1.00  0.00     0.009 A 
ATOM     73  C   UNL A   1      36.818  29.352  30.605  1.00  0.00     0.001 A 
ATOM     74  C   UNL A   1      37.040  29.656  28.226  1.00  0.00     0.001 A 
ATOM     75  C   UNL A   1      36.340  29.882  29.407  1.00  0.00     0.000 A 
ENDBRANCH  51  70
BRANCH  63  76
ATOM     76  C   UNL A   1      44.178  27.132  32.176  1.00  0.00    -0.014 A 
ATOM     77  C   UNL A   1      44.267  25.776  31.808  1.00  0.00     0.009 A 
ATOM     78  C   UNL A   1      44.039  27.441  33.535  1.00  0.00     0.009 A 
ATOM     79  C   UNL A   1      44.188  24.763  32.769  1.00  0.00     0.001 A 
ATOM     80  C   UNL A   1      43.980  26.430  34.499  1.00  0.00     0.001 A 
ATOM     81  C   UNL A   1      44.048  25.092  34.115  1.00  0.00     0.000 A 
ENDBRANCH  63  76
ENDBRANCH  37  38
ENDBRANCH  29  32
ENDBRANCH  27  28
ENDBRANCH  26  27
ENDBRANCH  25  26
ENDBRANCH   1  25
TORSDOF 15
ENDMDL
MODEL 3
REMARK VINA RESULT:     -11.1      5.073     10.502
REMARK SMILES Cn1c(C(=O)N2CCC[C@@H](C(=O)NCCCCCCNC(=O)c3ccc(-c4c5nc(c(-c6ccccc6)c6ccc([nH]6)c(-c6ccccc6)c6nc(c(-c7ccccc7)c7ccc4[nH]7)C=C6)C=C5)cc3)C2)cc2sccc21
REMARK SMILES IDX 16 1 15 2 14 3 13 4 11 5 12 6 10 8 6 9 7 10 71 11 8 12 9 13
REMARK SMILES IDX 4 14 5 15 3 16 1 17 2 18 77 19 72 20 73 21 76 22 74 23 75 24
REMARK SMILES IDX 17 25 18 26 19 27 20 28 21 29 22 31 23 32 24 33 70 34 25 35
REMARK SMILES IDX 69 36 26 37 27 38 28 39 63 40 29 41 68 42 62 43 64 44 30 45
REMARK SMILES IDX 67 46 61 47 60 48 31 50 53 51 38 52 52 53 39 54 42 55 51 56
REMARK SMILES IDX 65 57 40 58 41 59 50 61 66 62 43 63 32 64 33 65 37 66 34 67
REMARK SMILES IDX 36 68 35 69 54 70 55 71 59 72 56 73 58 74 57 75 44 76 45 77
REMARK SMILES IDX 49 78 46 79 48 80 47 81
REMARK H PARENT 13 7 20 30 64 49 42 60
REMARK Flexibility Score: inf
ROOT
ATOM      1  C   UNL A   1      33.333  32.458  28.018  1.00  0.00     0.002 C 
ENDROOT
BRANCH   1   2
ATOM      2  C   UNL A   1      34.353  31.312  27.999  1.00  0.00     0.021 C 
BRANCH   2   3
ATOM      3  C   UNL A   1      34.011  30.142  27.077  1.00  0.00     0.116 C 
BRANCH   3   4
ATOM      4  N   UNL A   1      32.888  29.365  27.570  1.00  0.00    -0.356 N 
ATOM      5  C   UNL A   1      32.161  28.389  26.954  1.00  0.00     0.224 C 
ATOM      6  O   UNL A   1      31.295  27.811  27.610  1.00  0.00    -0.275 OA
ATOM      7  H   UNL A   1      32.608  29.575  28.490  1.00  0.00     0.163 HD
BRANCH   5   8
ATOM      8  C   UNL A   1      32.405  28.081  25.487  1.00  0.00     0.098 C 
ATOM      9  N   UNL A   1      32.148  26.338  23.756  1.00  0.00    -0.337 N 
ATOM     10  C   UNL A   1      31.369  27.207  22.891  1.00  0.00     0.120 C 
ATOM     11  C   UNL A   1      32.069  26.607  25.192  1.00  0.00     0.133 C 
ATOM     12  C   UNL A   1      31.703  28.671  23.131  1.00  0.00     0.022 C 
ATOM     13  C   UNL A   1      31.558  29.021  24.611  1.00  0.00     0.017 C 
BRANCH   9  14
ATOM     14  C   UNL A   1      33.070  25.476  23.176  1.00  0.00     0.270 C 
ATOM     15  O   UNL A   1      33.728  25.846  22.203  1.00  0.00    -0.267 OA
BRANCH  14  16
ATOM     16  C   UNL A   1      33.095  24.096  23.660  1.00  0.00     0.108 A 
ATOM     17  C   UNL A   1      35.178  24.323  25.090  1.00  0.00     0.150 C 
ATOM     18  N   UNL A   1      34.086  23.592  24.490  1.00  0.00    -0.339 N 
ATOM     19  C   UNL A   1      33.954  22.223  24.576  1.00  0.00     0.059 A 
ATOM     20  C   UNL A   1      32.276  23.027  23.305  1.00  0.00     0.053 A 
ATOM     21  C   UNL A   1      32.841  21.860  23.883  1.00  0.00     0.053 A 
ATOM     22  C   UNL A   1      34.649  21.121  25.149  1.00  0.00     0.038 A 
ATOM     23  S   UNL A   1      32.562  20.152  23.921  1.00  0.00    -0.142 S 
ATOM     24  C   UNL A   1      33.996  19.944  24.847  1.00  0.00     0.068 A 
ENDBRANCH  14  16
ENDBRANCH   9  14
ENDBRANCH   5   8
ENDBRANCH   3   4
ENDBRANCH   2   3
ENDBRANCH   1   2
BRANCH   1  25
ATOM     25  C   UNL A   1      33.896  33.879  28.164  1.00  0.00     0.002 C 
BRANCH  25  26
ATOM     26  C   UNL A   1      32.939  34.958  28.690  1.00  0.00     0.021 C 
BRANCH  26  27
ATOM     27  C   UNL A   1      33.589  36.004  29.584  1.00  0.00     0.116 C 
BRANCH  27  28
ATOM     28  N   UNL A   1      32.953  36.126  30.897  1.00  0.00    -0.352 N 
ATOM     29  C   UNL A   1      33.067  35.270  31.977  1.00  0.00     0.251 C 
ATOM     30  H   UNL A   1      32.376  36.912  31.027  1.00  0.00     0.163 HD
ATOM     31  O   UNL A   1      32.219  35.253  32.867  1.00  0.00    -0.269 OA
BRANCH  29  32
ATOM     32  C   UNL A   1      34.233  34.374  32.048  1.00  0.00     0.039 A 
ATOM     33  C   UNL A   1      34.144  33.010  31.757  1.00  0.00     0.014 A 
ATOM     34  C   UNL A   1      35.455  34.948  32.384  1.00  0.00     0.014 A 
ATOM     35  C   UNL A   1      35.318  32.257  31.715  1.00  0.00     0.010 A 
ATOM     36  C   UNL A   1      36.615  34.257  32.157  1.00  0.00     0.010 A 
ATOM     37  C   UNL A   1      36.556  32.896  31.892  1.00  0.00    -0.014 A 
BRANCH  37  38
ATOM     38  C   UNL A   1      37.815  32.179  31.737  1.00  0.00     0.031 A 
ATOM     39  C   UNL A   1      38.557  31.922  32.994  1.00  0.00     0.074 A 
ATOM     40  C   UNL A   1      38.215  31.622  30.573  1.00  0.00     0.049 A 
ATOM     41  N   UNL A   1      39.641  32.503  33.381  1.00  0.00    -0.248 NA
ATOM     42  C   UNL A   1      37.980  31.005  33.988  1.00  0.00     0.031 C 
ATOM     43  C   UNL A   1      37.489  31.530  29.299  1.00  0.00     0.029 A 
ATOM     44  N   UNL A   1      39.352  30.920  30.317  1.00  0.00    -0.354 N 
ATOM     45  C   UNL A   1      40.000  31.897  34.580  1.00  0.00     0.074 A 
ATOM     46  C   UNL A   1      38.867  31.101  34.982  1.00  0.00     0.031 C 
ATOM     47  C   UNL A   1      38.095  30.631  28.491  1.00  0.00     0.029 A 
ATOM     48  C   UNL A   1      39.349  30.241  29.107  1.00  0.00     0.049 A 
ATOM     49  H   UNL A   1      40.115  30.897  30.939  1.00  0.00     0.167 HD
ATOM     50  C   UNL A   1      41.291  31.920  35.018  1.00  0.00     0.031 A 
ATOM     51  C   UNL A   1      40.319  29.429  28.631  1.00  0.00     0.031 A 
ATOM     52  C   UNL A   1      42.091  32.841  34.250  1.00  0.00     0.049 A 
ATOM     53  C   UNL A   1      41.572  29.800  29.319  1.00  0.00     0.074 A 
ATOM     54  C   UNL A   1      42.093  34.203  34.038  1.00  0.00     0.029 A 
ATOM     55  N   UNL A   1      42.834  32.291  33.232  1.00  0.00    -0.354 N 
ATOM     56  N   UNL A   1      42.165  30.945  29.142  1.00  0.00    -0.248 NA
ATOM     57  C   UNL A   1      41.953  29.080  30.522  1.00  0.00     0.031 C 
ATOM     58  C   UNL A   1      42.457  34.363  32.666  1.00  0.00     0.029 A 
ATOM     59  C   UNL A   1      42.717  33.099  32.132  1.00  0.00     0.049 A 
ATOM     60  H   UNL A   1      43.359  31.460  33.283  1.00  0.00     0.167 HD
ATOM     61  C   UNL A   1      42.627  31.297  30.401  1.00  0.00     0.074 A 
ATOM     62  C   UNL A   1      42.596  30.056  31.171  1.00  0.00     0.031 C 
ATOM     63  C   UNL A   1      42.718  32.611  30.768  1.00  0.00     0.031 A 
BRANCH  50  64
ATOM     64  C   UNL A   1      41.934  30.823  35.828  1.00  0.00    -0.014 A 
ATOM     65  C   UNL A   1      42.931  31.175  36.758  1.00  0.00     0.009 A 
ATOM     66  C   UNL A   1      41.815  29.457  35.514  1.00  0.00     0.009 A 
ATOM     67  C   UNL A   1      43.814  30.221  37.277  1.00  0.00     0.001 A 
ATOM     68  C   UNL A   1      42.670  28.496  36.062  1.00  0.00     0.001 A 
ATOM     69  C   UNL A   1      43.689  28.883  36.921  1.00  0.00     0.000 A 
ENDBRANCH  50  64
BRANCH  51  70
ATOM     70  C   UNL A   1      40.211  28.232  27.777  1.00  0.00    -0.014 A 
ATOM     71  C   UNL A   1      41.012  28.089  26.634  1.00  0.00     0.009 A 
ATOM     72  C   UNL A   1      39.534  27.094  28.254  1.00  0.00     0.009 A 
ATOM     73  C   UNL A   1      41.173  26.839  26.022  1.00  0.00     0.001 A 
ATOM     74  C   UNL A   1      39.695  25.847  27.644  1.00  0.00     0.001 A 
ATOM     75  C   UNL A   1      40.530  25.716  26.539  1.00  0.00     0.000 A 
ENDBRANCH  51  70
BRANCH  63  76
ATOM     76  C   UNL A   1      42.558  33.646  29.680  1.00  0.00    -0.014 A 
ATOM     77  C   UNL A   1      41.382  34.398  29.497  1.00  0.00     0.009 A 
ATOM     78  C   UNL A   1      43.675  33.962  28.894  1.00  0.00     0.009 A 
ATOM     79  C   UNL A   1      41.319  35.411  28.535  1.00  0.00     0.001 A 
ATOM     80  C   UNL A   1      43.619  34.989  27.947  1.00  0.00     0.001 A 
ATOM     81  C   UNL A   1      42.440  35.708  27.763  1.00  0.00     0.000 A 
ENDBRANCH  63  76
ENDBRANCH  37  38
ENDBRANCH  29  32
ENDBRANCH  27  28
ENDBRANCH  26  27
ENDBRANCH  25  26
ENDBRANCH   1  25
TORSDOF 15
ENDMDL
