MODEL 1
REMARK VINA RESULT:     -11.7      0.000      0.000
REMARK SMILES CC(C)Cc1cc2c(cc1Cl)C=C(C(=O)NCCCCCCNC(=O)c1ccc(-c3c4nc(c(-c5ccccc5)c5ccc([nH]5)c(-c5ccccc5)c5nc(c(-c6ccccc6)c6ccc3[nH]6)C=C5)C=C4)cc1)[C@H](C(F)(F)F)O2
REMARK SMILES IDX 19 1 18 2 17 3 16 4 14 5 15 6 13 8 5 9 6 10 10 11 7 12 9 13
REMARK SMILES IDX 11 14 8 15 79 16 12 17 74 18 4 19 2 20 1 21 3 22 75 23 76 24
REMARK SMILES IDX 77 25 78 26 20 27 21 28 22 29 23 30 24 31 25 33 26 34 27 35
REMARK SMILES IDX 73 36 28 37 72 38 29 39 30 40 31 41 66 42 32 43 71 44 65 45
REMARK SMILES IDX 67 46 33 47 70 48 64 49 63 50 34 52 56 53 41 54 55 55 42 56
REMARK SMILES IDX 45 57 54 58 68 59 43 60 44 61 53 63 69 64 46 65 35 66 36 67
REMARK SMILES IDX 40 68 37 69 39 70 38 71 57 72 58 73 62 74 59 75 61 76 60 77
REMARK SMILES IDX 47 78 48 79 52 80 49 81 51 82 50 83
REMARK H PARENT 16 7 23 32 67 51 45 62
REMARK Flexibility Score: inf
ROOT
ATOM      1  C   UNL A   1      36.571  22.232  24.229  1.00  0.00     0.002 C 
ENDROOT
BRANCH   1   2
ATOM      2  C   UNL A   1      35.240  22.949  23.999  1.00  0.00     0.021 C 
BRANCH   2   3
ATOM      3  C   UNL A   1      35.040  24.200  24.852  1.00  0.00     0.116 C 
BRANCH   3   4
ATOM      4  N   UNL A   1      33.917  24.065  25.766  1.00  0.00    -0.352 N 
ATOM      5  C   UNL A   1      32.739  24.691  26.007  1.00  0.00     0.251 C 
ATOM      6  O   UNL A   1      32.069  24.208  26.926  1.00  0.00    -0.270 OA
ATOM      7  H   UNL A   1      34.047  23.307  26.380  1.00  0.00     0.163 HD
BRANCH   5   8
ATOM      8  C   UNL A   1      32.213  25.873  25.261  1.00  0.00     0.067 C 
ATOM      9  C   UNL A   1      29.360  29.242  22.835  1.00  0.00    -0.025 A 
ATOM     10  C   UNL A   1      30.739  29.045  22.986  1.00  0.00     0.052 A 
ATOM     11  C   UNL A   1      28.495  28.230  23.286  1.00  0.00     0.045 A 
ATOM     12  C   UNL A   1      31.227  27.935  23.663  1.00  0.00     0.128 A 
ATOM     13  C   UNL A   1      28.999  27.074  23.905  1.00  0.00     0.032 A 
ATOM     14  Cl  UNL A   1      26.780  28.354  23.118  1.00  0.00    -0.084 Cl
ATOM     15  C   UNL A   1      30.371  26.939  24.124  1.00  0.00     0.019 A 
ATOM     16  O   UNL A   1      32.576  27.890  23.851  1.00  0.00    -0.475 OA
ATOM     17  C   UNL A   1      30.942  25.788  24.818  1.00  0.00     0.025 C 
ATOM     18  C   UNL A   1      33.000  27.127  25.012  1.00  0.00     0.314 C 
BRANCH   9  19
ATOM     19  C   UNL A   1      28.898  30.559  22.249  1.00  0.00     0.040 C 
BRANCH  19  20
ATOM     20  C   UNL A   1      28.692  31.672  23.306  1.00  0.00    -0.013 C 
ATOM     21  C   UNL A   1      28.906  33.086  22.751  1.00  0.00     0.008 C 
ATOM     22  C   UNL A   1      27.275  31.578  23.879  1.00  0.00     0.008 C 
ENDBRANCH  19  20
ENDBRANCH   9  19
BRANCH  18  23
ATOM     23  C   UNL A   1      33.080  28.038  26.253  1.00  0.00     0.429 C 
ATOM     24  F   UNL A   1      32.113  27.779  27.163  1.00  0.00    -0.167 F 
ATOM     25  F   UNL A   1      34.263  27.930  26.901  1.00  0.00    -0.167 F 
ATOM     26  F   UNL A   1      32.959  29.340  25.895  1.00  0.00    -0.167 F 
ENDBRANCH  18  23
ENDBRANCH   5   8
ENDBRANCH   3   4
ENDBRANCH   2   3
ENDBRANCH   1   2
BRANCH   1  27
ATOM     27  C   UNL A   1      36.479  20.864  24.916  1.00  0.00     0.002 C 
BRANCH  27  28
ATOM     28  C   UNL A   1      37.719  19.977  24.797  1.00  0.00     0.021 C 
BRANCH  28  29
ATOM     29  C   UNL A   1      38.913  20.424  25.632  1.00  0.00     0.116 C 
BRANCH  29  30
ATOM     30  N   UNL A   1      39.924  19.386  25.759  1.00  0.00    -0.352 N 
ATOM     31  C   UNL A   1      41.246  19.496  26.117  1.00  0.00     0.251 C 
ATOM     32  H   UNL A   1      39.616  18.473  25.560  1.00  0.00     0.163 HD
ATOM     33  O   UNL A   1      42.001  18.534  26.011  1.00  0.00    -0.269 OA
BRANCH  31  34
ATOM     34  C   UNL A   1      41.766  20.791  26.601  1.00  0.00     0.039 A 
ATOM     35  C   UNL A   1      41.758  21.095  27.965  1.00  0.00     0.014 A 
ATOM     36  C   UNL A   1      42.244  21.720  25.673  1.00  0.00     0.014 A 
ATOM     37  C   UNL A   1      42.078  22.382  28.384  1.00  0.00     0.010 A 
ATOM     38  C   UNL A   1      42.638  22.988  26.106  1.00  0.00     0.010 A 
ATOM     39  C   UNL A   1      42.513  23.344  27.458  1.00  0.00    -0.014 A 
BRANCH  39  40
ATOM     40  C   UNL A   1      42.821  24.722  27.916  1.00  0.00     0.031 A 
ATOM     41  C   UNL A   1      44.248  25.166  28.094  1.00  0.00     0.074 A 
ATOM     42  C   UNL A   1      41.814  25.588  28.134  1.00  0.00     0.049 A 
ATOM     43  N   UNL A   1      44.704  26.324  28.503  1.00  0.00    -0.248 NA
ATOM     44  C   UNL A   1      45.301  24.190  27.769  1.00  0.00     0.031 C 
ATOM     45  C   UNL A   1      40.392  25.286  27.961  1.00  0.00     0.029 A 
ATOM     46  N   UNL A   1      41.830  26.903  28.526  1.00  0.00    -0.354 N 
ATOM     47  C   UNL A   1      46.088  26.208  28.503  1.00  0.00     0.074 A 
ATOM     48  C   UNL A   1      46.402  24.863  28.077  1.00  0.00     0.031 C 
ATOM     49  C   UNL A   1      39.676  26.394  28.200  1.00  0.00     0.029 A 
ATOM     50  C   UNL A   1      40.580  27.465  28.610  1.00  0.00     0.049 A 
ATOM     51  H   UNL A   1      42.658  27.396  28.727  1.00  0.00     0.167 HD
ATOM     52  C   UNL A   1      47.013  27.144  28.822  1.00  0.00     0.031 A 
ATOM     53  C   UNL A   1      40.196  28.699  28.991  1.00  0.00     0.031 A 
ATOM     54  C   UNL A   1      46.698  28.486  29.233  1.00  0.00     0.049 A 
ATOM     55  C   UNL A   1      41.238  29.696  29.406  1.00  0.00     0.074 A 
ATOM     56  C   UNL A   1      47.571  29.510  29.561  1.00  0.00     0.029 A 
ATOM     57  N   UNL A   1      45.415  28.991  29.373  1.00  0.00    -0.354 N 
ATOM     58  N   UNL A   1      42.543  29.569  29.405  1.00  0.00    -0.248 NA
ATOM     59  C   UNL A   1      40.759  31.001  29.881  1.00  0.00     0.031 C 
ATOM     60  C   UNL A   1      46.816  30.616  29.952  1.00  0.00     0.029 A 
ATOM     61  C   UNL A   1      45.474  30.304  29.808  1.00  0.00     0.049 A 
ATOM     62  H   UNL A   1      44.587  28.492  29.189  1.00  0.00     0.167 HD
ATOM     63  C   UNL A   1      43.042  30.779  29.867  1.00  0.00     0.074 A 
ATOM     64  C   UNL A   1      41.901  31.634  30.123  1.00  0.00     0.031 C 
ATOM     65  C   UNL A   1      44.331  31.143  30.062  1.00  0.00     0.031 A 
BRANCH  52  66
ATOM     66  C   UNL A   1      48.464  26.757  28.757  1.00  0.00    -0.014 A 
ATOM     67  C   UNL A   1      49.160  26.872  27.542  1.00  0.00     0.009 A 
ATOM     68  C   UNL A   1      49.117  26.192  29.863  1.00  0.00     0.009 A 
ATOM     69  C   UNL A   1      50.474  26.416  27.432  1.00  0.00     0.001 A 
ATOM     70  C   UNL A   1      50.442  25.760  29.756  1.00  0.00     0.001 A 
ATOM     71  C   UNL A   1      51.116  25.864  28.540  1.00  0.00     0.000 A 
ENDBRANCH  52  66
BRANCH  53  72
ATOM     72  C   UNL A   1      38.749  29.039  28.999  1.00  0.00    -0.014 A 
ATOM     73  C   UNL A   1      38.121  29.513  27.835  1.00  0.00     0.009 A 
ATOM     74  C   UNL A   1      38.004  28.951  30.183  1.00  0.00     0.009 A 
ATOM     75  C   UNL A   1      36.787  29.921  27.864  1.00  0.00     0.001 A 
ATOM     76  C   UNL A   1      36.660  29.332  30.201  1.00  0.00     0.001 A 
ATOM     77  C   UNL A   1      36.056  29.827  29.046  1.00  0.00     0.000 A 
ENDBRANCH  53  72
BRANCH  65  78
ATOM     78  C   UNL A   1      44.601  32.531  30.569  1.00  0.00    -0.014 A 
ATOM     79  C   UNL A   1      44.632  32.772  31.952  1.00  0.00     0.009 A 
ATOM     80  C   UNL A   1      44.704  33.615  29.685  1.00  0.00     0.009 A 
ATOM     81  C   UNL A   1      44.739  34.075  32.441  1.00  0.00     0.001 A 
ATOM     82  C   UNL A   1      44.838  34.914  30.177  1.00  0.00     0.001 A 
ATOM     83  C   UNL A   1      44.845  35.144  31.553  1.00  0.00     0.000 A 
ENDBRANCH  65  78
ENDBRANCH  39  40
ENDBRANCH  31  34
ENDBRANCH  29  30
ENDBRANCH  28  29
ENDBRANCH  27  28
ENDBRANCH   1  27
TORSDOF 16
ENDMDL
MODEL 2
REMARK VINA RESULT:     -11.6      0.601      5.759
REMARK SMILES CC(C)Cc1cc2c(cc1Cl)C=C(C(=O)NCCCCCCNC(=O)c1ccc(-c3c4nc(c(-c5ccccc5)c5ccc([nH]5)c(-c5ccccc5)c5nc(c(-c6ccccc6)c6ccc3[nH]6)C=C5)C=C4)cc1)[C@H](C(F)(F)F)O2
REMARK SMILES IDX 19 1 18 2 17 3 16 4 14 5 15 6 13 8 5 9 6 10 10 11 7 12 9 13
REMARK SMILES IDX 11 14 8 15 79 16 12 17 74 18 4 19 2 20 1 21 3 22 75 23 76 24
REMARK SMILES IDX 77 25 78 26 20 27 21 28 22 29 23 30 24 31 25 33 26 34 27 35
REMARK SMILES IDX 73 36 28 37 72 38 29 39 30 40 31 41 66 42 32 43 71 44 65 45
REMARK SMILES IDX 67 46 33 47 70 48 64 49 63 50 34 52 56 53 41 54 55 55 42 56
REMARK SMILES IDX 45 57 54 58 68 59 43 60 44 61 53 63 69 64 46 65 35 66 36 67
REMARK SMILES IDX 40 68 37 69 39 70 38 71 57 72 58 73 62 74 59 75 61 76 60 77
REMARK SMILES IDX 47 78 48 79 52 80 49 81 51 82 50 83
REMARK H PARENT 16 7 23 32 67 51 45 62
REMARK Flexibility Score: inf
ROOT
ATOM      1  C   UNL A   1      37.258  22.835  25.021  1.00  0.00     0.002 C 
ENDROOT
BRANCH   1   2
ATOM      2  C   UNL A   1      36.301  23.665  25.876  1.00  0.00     0.021 C 
BRANCH   2   3
ATOM      3  C   UNL A   1      35.056  24.154  25.138  1.00  0.00     0.116 C 
BRANCH   3   4
ATOM      4  N   UNL A   1      33.862  24.066  25.964  1.00  0.00    -0.352 N 
ATOM      5  C   UNL A   1      32.654  24.676  26.050  1.00  0.00     0.251 C 
ATOM      6  O   UNL A   1      31.920  24.255  26.951  1.00  0.00    -0.270 OA
ATOM      7  H   UNL A   1      33.956  23.369  26.653  1.00  0.00     0.163 HD
BRANCH   5   8
ATOM      8  C   UNL A   1      32.168  25.773  25.161  1.00  0.00     0.067 C 
ATOM      9  C   UNL A   1      29.411  29.013  22.464  1.00  0.00    -0.025 A 
ATOM     10  C   UNL A   1      30.771  28.679  22.513  1.00  0.00     0.052 A 
ATOM     11  C   UNL A   1      28.506  28.200  23.168  1.00  0.00     0.045 A 
ATOM     12  C   UNL A   1      31.219  27.646  23.326  1.00  0.00     0.128 A 
ATOM     13  C   UNL A   1      28.958  27.110  23.930  1.00  0.00     0.032 A 
ATOM     14  Cl  UNL A   1      26.804  28.499  23.148  1.00  0.00    -0.084 Cl
ATOM     15  C   UNL A   1      30.325  26.849  24.036  1.00  0.00     0.019 A 
ATOM     16  O   UNL A   1      32.569  27.470  23.387  1.00  0.00    -0.475 OA
ATOM     17  C   UNL A   1      30.853  25.769  24.865  1.00  0.00     0.025 C 
ATOM     18  C   UNL A   1      33.045  26.865  24.618  1.00  0.00     0.314 C 
BRANCH   9  19
ATOM     19  C   UNL A   1      29.020  30.260  21.701  1.00  0.00     0.040 C 
BRANCH  19  20
ATOM     20  C   UNL A   1      28.315  31.327  22.574  1.00  0.00    -0.013 C 
ATOM     21  C   UNL A   1      29.102  31.697  23.838  1.00  0.00     0.008 C 
ATOM     22  C   UNL A   1      28.088  32.596  21.747  1.00  0.00     0.008 C 
ENDBRANCH  19  20
ENDBRANCH   9  19
BRANCH  18  23
ATOM     23  C   UNL A   1      33.360  27.953  25.666  1.00  0.00     0.429 C 
ATOM     24  F   UNL A   1      34.169  27.516  26.657  1.00  0.00    -0.167 F 
ATOM     25  F   UNL A   1      33.961  29.037  25.122  1.00  0.00    -0.167 F 
ATOM     26  F   UNL A   1      32.217  28.399  26.244  1.00  0.00    -0.167 F 
ENDBRANCH  18  23
ENDBRANCH   5   8
ENDBRANCH   3   4
ENDBRANCH   2   3
ENDBRANCH   1   2
BRANCH   1  27
ATOM     27  C   UNL A   1      36.734  21.464  24.577  1.00  0.00     0.002 C 
BRANCH  27  28
ATOM     28  C   UNL A   1      37.663  20.278  24.850  1.00  0.00     0.021 C 
BRANCH  28  29
ATOM     29  C   UNL A   1      38.800  20.563  25.825  1.00  0.00     0.116 C 
BRANCH  29  30
ATOM     30  N   UNL A   1      39.833  19.539  25.789  1.00  0.00    -0.352 N 
ATOM     31  C   UNL A   1      41.177  19.649  26.048  1.00  0.00     0.251 C 
ATOM     32  H   UNL A   1      39.523  18.638  25.543  1.00  0.00     0.163 HD
ATOM     33  O   UNL A   1      41.935  18.715  25.806  1.00  0.00    -0.269 OA
BRANCH  31  34
ATOM     34  C   UNL A   1      41.716  20.913  26.589  1.00  0.00     0.039 A 
ATOM     35  C   UNL A   1      41.719  21.153  27.966  1.00  0.00     0.014 A 
ATOM     36  C   UNL A   1      42.200  21.880  25.704  1.00  0.00     0.014 A 
ATOM     37  C   UNL A   1      42.057  22.415  28.443  1.00  0.00     0.010 A 
ATOM     38  C   UNL A   1      42.611  23.121  26.193  1.00  0.00     0.010 A 
ATOM     39  C   UNL A   1      42.499  23.414  27.562  1.00  0.00    -0.014 A 
BRANCH  39  40
ATOM     40  C   UNL A   1      42.826  24.765  28.082  1.00  0.00     0.031 A 
ATOM     41  C   UNL A   1      41.742  25.789  28.285  1.00  0.00     0.074 A 
ATOM     42  C   UNL A   1      44.099  25.057  28.410  1.00  0.00     0.049 A 
ATOM     43  N   UNL A   1      41.846  27.023  28.712  1.00  0.00    -0.248 NA
ATOM     44  C   UNL A   1      40.363  25.378  27.972  1.00  0.00     0.031 C 
ATOM     45  C   UNL A   1      45.231  24.137  28.293  1.00  0.00     0.029 A 
ATOM     46  N   UNL A   1      44.651  26.201  28.929  1.00  0.00    -0.354 N 
ATOM     47  C   UNL A   1      40.556  27.538  28.700  1.00  0.00     0.074 A 
ATOM     48  C   UNL A   1      39.686  26.495  28.203  1.00  0.00     0.031 C 
ATOM     49  C   UNL A   1      46.332  24.734  28.769  1.00  0.00     0.029 A 
ATOM     50  C   UNL A   1      46.001  26.101  29.161  1.00  0.00     0.049 A 
ATOM     51  H   UNL A   1      44.130  27.015  29.118  1.00  0.00     0.167 HD
ATOM     52  C   UNL A   1      40.135  28.768  29.078  1.00  0.00     0.031 A 
ATOM     53  C   UNL A   1      46.883  27.010  29.620  1.00  0.00     0.031 A 
ATOM     54  C   UNL A   1      41.000  29.799  29.585  1.00  0.00     0.049 A 
ATOM     55  C   UNL A   1      46.402  28.388  29.967  1.00  0.00     0.074 A 
ATOM     56  C   UNL A   1      40.660  31.072  30.010  1.00  0.00     0.029 A 
ATOM     57  N   UNL A   1      42.373  29.677  29.737  1.00  0.00    -0.354 N 
ATOM     58  N   UNL A   1      45.179  28.861  29.946  1.00  0.00    -0.248 NA
ATOM     59  C   UNL A   1      47.417  29.361  30.393  1.00  0.00     0.031 C 
ATOM     60  C   UNL A   1      41.833  31.740  30.365  1.00  0.00     0.029 A 
ATOM     61  C   UNL A   1      42.897  30.863  30.223  1.00  0.00     0.049 A 
ATOM     62  H   UNL A   1      42.896  28.870  29.530  1.00  0.00     0.167 HD
ATOM     63  C   UNL A   1      45.276  30.180  30.366  1.00  0.00     0.074 A 
ATOM     64  C   UNL A   1      46.673  30.429  30.652  1.00  0.00     0.031 C 
ATOM     65  C   UNL A   1      44.290  31.100  30.500  1.00  0.00     0.031 A 
BRANCH  52  66
ATOM     66  C   UNL A   1      38.672  29.086  28.951  1.00  0.00    -0.014 A 
ATOM     67  C   UNL A   1      38.176  29.607  27.744  1.00  0.00     0.009 A 
ATOM     68  C   UNL A   1      37.803  28.966  30.046  1.00  0.00     0.009 A 
ATOM     69  C   UNL A   1      36.845  30.013  27.641  1.00  0.00     0.001 A 
ATOM     70  C   UNL A   1      36.464  29.349  29.931  1.00  0.00     0.001 A 
ATOM     71  C   UNL A   1      35.989  29.880  28.733  1.00  0.00     0.000 A 
ENDBRANCH  52  66
BRANCH  53  72
ATOM     72  C   UNL A   1      48.312  26.628  29.762  1.00  0.00    -0.014 A 
ATOM     73  C   UNL A   1      49.233  26.915  28.741  1.00  0.00     0.009 A 
ATOM     74  C   UNL A   1      48.750  25.920  30.890  1.00  0.00     0.009 A 
ATOM     75  C   UNL A   1      50.554  26.476  28.832  1.00  0.00     0.001 A 
ATOM     76  C   UNL A   1      50.081  25.508  30.991  1.00  0.00     0.001 A 
ATOM     77  C   UNL A   1      50.979  25.775  29.958  1.00  0.00     0.000 A 
ENDBRANCH  53  72
BRANCH  65  78
ATOM     78  C   UNL A   1      44.668  32.469  30.986  1.00  0.00    -0.014 A 
ATOM     79  C   UNL A   1      44.785  32.710  32.364  1.00  0.00     0.009 A 
ATOM     80  C   UNL A   1      44.790  33.543  30.092  1.00  0.00     0.009 A 
ATOM     81  C   UNL A   1      44.997  34.005  32.841  1.00  0.00     0.001 A 
ATOM     82  C   UNL A   1      45.028  34.833  30.571  1.00  0.00     0.001 A 
ATOM     83  C   UNL A   1      45.120  35.065  31.944  1.00  0.00     0.000 A 
ENDBRANCH  65  78
ENDBRANCH  39  40
ENDBRANCH  31  34
ENDBRANCH  29  30
ENDBRANCH  28  29
ENDBRANCH  27  28
ENDBRANCH   1  27
TORSDOF 16
ENDMDL
MODEL 3
REMARK VINA RESULT:     -11.5      1.626      6.047
REMARK SMILES CC(C)Cc1cc2c(cc1Cl)C=C(C(=O)NCCCCCCNC(=O)c1ccc(-c3c4nc(c(-c5ccccc5)c5ccc([nH]5)c(-c5ccccc5)c5nc(c(-c6ccccc6)c6ccc3[nH]6)C=C5)C=C4)cc1)[C@H](C(F)(F)F)O2
REMARK SMILES IDX 19 1 18 2 17 3 16 4 14 5 15 6 13 8 5 9 6 10 10 11 7 12 9 13
REMARK SMILES IDX 11 14 8 15 79 16 12 17 74 18 4 19 2 20 1 21 3 22 75 23 76 24
REMARK SMILES IDX 77 25 78 26 20 27 21 28 22 29 23 30 24 31 25 33 26 34 27 35
REMARK SMILES IDX 73 36 28 37 72 38 29 39 30 40 31 41 66 42 32 43 71 44 65 45
REMARK SMILES IDX 67 46 33 47 70 48 64 49 63 50 34 52 56 53 41 54 55 55 42 56
REMARK SMILES IDX 45 57 54 58 68 59 43 60 44 61 53 63 69 64 46 65 35 66 36 67
REMARK SMILES IDX 40 68 37 69 39 70 38 71 57 72 58 73 62 74 59 75 61 76 60 77
REMARK SMILES IDX 47 78 48 79 52 80 49 81 51 82 50 83
REMARK H PARENT 16 7 23 32 67 51 45 62
REMARK Flexibility Score: inf
ROOT
ATOM      1  C   UNL A   1      37.614  22.604  25.257  1.00  0.00     0.002 C 
ENDROOT
BRANCH   1   2
ATOM      2  C   UNL A   1      36.574  23.352  26.092  1.00  0.00     0.021 C 
BRANCH   2   3
ATOM      3  C   UNL A   1      35.392  23.894  25.290  1.00  0.00     0.116 C 
BRANCH   3   4
ATOM      4  N   UNL A   1      34.142  23.243  25.651  1.00  0.00    -0.352 N 
ATOM      5  C   UNL A   1      32.817  23.426  25.436  1.00  0.00     0.251 C 
ATOM      6  O   UNL A   1      32.081  22.584  25.962  1.00  0.00    -0.270 OA
ATOM      7  H   UNL A   1      34.304  22.446  26.206  1.00  0.00     0.163 HD
BRANCH   5   8
ATOM      8  C   UNL A   1      32.210  24.530  24.633  1.00  0.00     0.067 C 
ATOM      9  C   UNL A   1      30.336  28.902  22.974  1.00  0.00    -0.025 A 
ATOM     10  C   UNL A   1      30.318  27.580  22.507  1.00  0.00     0.052 A 
ATOM     11  C   UNL A   1      30.817  29.135  24.274  1.00  0.00     0.045 A 
ATOM     12  C   UNL A   1      30.865  26.553  23.263  1.00  0.00     0.128 A 
ATOM     13  C   UNL A   1      31.302  28.079  25.064  1.00  0.00     0.032 A 
ATOM     14  Cl  UNL A   1      30.851  30.719  24.964  1.00  0.00    -0.084 Cl
ATOM     15  C   UNL A   1      31.356  26.785  24.545  1.00  0.00     0.019 A 
ATOM     16  O   UNL A   1      30.896  25.324  22.675  1.00  0.00    -0.475 OA
ATOM     17  C   UNL A   1      31.908  25.663  25.299  1.00  0.00     0.025 C 
ATOM     18  C   UNL A   1      31.952  24.450  23.156  1.00  0.00     0.314 C 
BRANCH   9  19
ATOM     19  C   UNL A   1      29.889  29.990  22.023  1.00  0.00     0.040 C 
BRANCH  19  20
ATOM     20  C   UNL A   1      28.358  30.030  21.798  1.00  0.00    -0.013 C 
ATOM     21  C   UNL A   1      27.549  29.966  23.101  1.00  0.00     0.008 C 
ATOM     22  C   UNL A   1      27.983  31.312  21.050  1.00  0.00     0.008 C 
ENDBRANCH  19  20
ENDBRANCH   9  19
BRANCH  18  23
ATOM     23  C   UNL A   1      33.232  24.641  22.316  1.00  0.00     0.429 C 
ATOM     24  F   UNL A   1      32.977  24.972  21.030  1.00  0.00    -0.167 F 
ATOM     25  F   UNL A   1      34.039  25.607  22.814  1.00  0.00    -0.167 F 
ATOM     26  F   UNL A   1      33.965  23.500  22.302  1.00  0.00    -0.167 F 
ENDBRANCH  18  23
ENDBRANCH   5   8
ENDBRANCH   3   4
ENDBRANCH   2   3
ENDBRANCH   1   2
BRANCH   1  27
ATOM     27  C   UNL A   1      37.147  21.278  24.645  1.00  0.00     0.002 C 
BRANCH  27  28
ATOM     28  C   UNL A   1      38.043  20.069  24.918  1.00  0.00     0.021 C 
BRANCH  28  29
ATOM     29  C   UNL A   1      39.138  20.300  25.953  1.00  0.00     0.116 C 
BRANCH  29  30
ATOM     30  N   UNL A   1      40.173  19.278  25.906  1.00  0.00    -0.352 N 
ATOM     31  C   UNL A   1      41.530  19.404  26.077  1.00  0.00     0.251 C 
ATOM     32  H   UNL A   1      39.854  18.365  25.725  1.00  0.00     0.163 HD
ATOM     33  O   UNL A   1      42.277  18.461  25.838  1.00  0.00    -0.269 OA
BRANCH  31  34
ATOM     34  C   UNL A   1      42.093  20.696  26.521  1.00  0.00     0.039 A 
ATOM     35  C   UNL A   1      42.139  21.022  27.879  1.00  0.00     0.014 A 
ATOM     36  C   UNL A   1      42.557  21.600  25.562  1.00  0.00     0.014 A 
ATOM     37  C   UNL A   1      42.500  22.309  28.265  1.00  0.00     0.010 A 
ATOM     38  C   UNL A   1      42.992  22.866  25.959  1.00  0.00     0.010 A 
ATOM     39  C   UNL A   1      42.922  23.247  27.309  1.00  0.00    -0.014 A 
BRANCH  39  40
ATOM     40  C   UNL A   1      43.274  24.625  27.732  1.00  0.00     0.031 A 
ATOM     41  C   UNL A   1      42.195  25.624  28.054  1.00  0.00     0.074 A 
ATOM     42  C   UNL A   1      44.570  24.966  27.864  1.00  0.00     0.049 A 
ATOM     43  N   UNL A   1      42.316  26.875  28.421  1.00  0.00    -0.248 NA
ATOM     44  C   UNL A   1      40.801  25.162  27.957  1.00  0.00     0.031 C 
ATOM     45  C   UNL A   1      45.704  24.075  27.616  1.00  0.00     0.029 A 
ATOM     46  N   UNL A   1      45.151  26.144  28.260  1.00  0.00    -0.354 N 
ATOM     47  C   UNL A   1      41.021  27.352  28.577  1.00  0.00     0.074 A 
ATOM     48  C   UNL A   1      40.126  26.266  28.245  1.00  0.00     0.031 C 
ATOM     49  C   UNL A   1      46.841  24.721  27.910  1.00  0.00     0.029 A 
ATOM     50  C   UNL A   1      46.523  26.091  28.299  1.00  0.00     0.049 A 
ATOM     51  H   UNL A   1      44.634  26.949  28.495  1.00  0.00     0.167 HD
ATOM     52  C   UNL A   1      40.617  28.582  28.972  1.00  0.00     0.031 A 
ATOM     53  C   UNL A   1      47.429  27.042  28.596  1.00  0.00     0.031 A 
ATOM     54  C   UNL A   1      41.510  29.656  29.315  1.00  0.00     0.049 A 
ATOM     55  C   UNL A   1      46.956  28.418  28.964  1.00  0.00     0.074 A 
ATOM     56  C   UNL A   1      41.191  30.934  29.742  1.00  0.00     0.029 A 
ATOM     57  N   UNL A   1      42.893  29.581  29.272  1.00  0.00    -0.354 N 
ATOM     58  N   UNL A   1      45.727  28.854  29.103  1.00  0.00    -0.248 NA
ATOM     59  C   UNL A   1      47.988  29.435  29.208  1.00  0.00     0.031 C 
ATOM     60  C   UNL A   1      42.379  31.648  29.903  1.00  0.00     0.029 A 
ATOM     61  C   UNL A   1      43.441  30.798  29.638  1.00  0.00     0.049 A 
ATOM     62  H   UNL A   1      43.409  28.782  29.019  1.00  0.00     0.167 HD
ATOM     63  C   UNL A   1      45.838  30.191  29.461  1.00  0.00     0.074 A 
ATOM     64  C   UNL A   1      47.252  30.491  29.535  1.00  0.00     0.031 C 
ATOM     65  C   UNL A   1      44.850  31.085  29.705  1.00  0.00     0.031 A 
BRANCH  52  66
ATOM     66  C   UNL A   1      39.140  28.854  29.045  1.00  0.00    -0.014 A 
ATOM     67  C   UNL A   1      38.470  29.359  27.919  1.00  0.00     0.009 A 
ATOM     68  C   UNL A   1      38.432  28.704  30.247  1.00  0.00     0.009 A 
ATOM     69  C   UNL A   1      37.124  29.721  27.999  1.00  0.00     0.001 A 
ATOM     70  C   UNL A   1      37.079  29.044  30.316  1.00  0.00     0.001 A 
ATOM     71  C   UNL A   1      36.429  29.560  29.196  1.00  0.00     0.000 A 
ENDBRANCH  52  66
BRANCH  53  72
ATOM     72  C   UNL A   1      48.876  26.708  28.545  1.00  0.00    -0.014 A 
ATOM     73  C   UNL A   1      49.575  26.748  27.327  1.00  0.00     0.009 A 
ATOM     74  C   UNL A   1      49.551  26.287  29.699  1.00  0.00     0.009 A 
ATOM     75  C   UNL A   1      50.909  26.345  27.260  1.00  0.00     0.001 A 
ATOM     76  C   UNL A   1      50.895  25.912  29.635  1.00  0.00     0.001 A 
ATOM     77  C   UNL A   1      51.570  25.930  28.414  1.00  0.00     0.000 A 
ENDBRANCH  53  72
BRANCH  65  78
ATOM     78  C   UNL A   1      45.247  32.483  30.086  1.00  0.00    -0.014 A 
ATOM     79  C   UNL A   1      45.466  33.441  29.084  1.00  0.00     0.009 A 
ATOM     80  C   UNL A   1      45.518  32.816  31.421  1.00  0.00     0.009 A 
ATOM     81  C   UNL A   1      45.971  34.702  29.408  1.00  0.00     0.001 A 
ATOM     82  C   UNL A   1      45.997  34.087  31.746  1.00  0.00     0.001 A 
ATOM     83  C   UNL A   1      46.233  35.024  30.739  1.00  0.00     0.000 A 
ENDBRANCH  65  78
ENDBRANCH  39  40
ENDBRANCH  31  34
ENDBRANCH  29  30
ENDBRANCH  28  29
ENDBRANCH  27  28
ENDBRANCH   1  27
TORSDOF 16
ENDMDL
