MODEL 1
REMARK VINA RESULT:     -10.3      0.000      0.000
REMARK SMILES CN(C)C(=O)CCNC(=O)NC[C@H]1CC[C@@H](C(=O)NCCCCCCNC(=O)c2ccc(-c3c4nc(c(-c5ccccc5)c5ccc([nH]5)c(-c5ccccc5)c5nc(c(-c6ccccc6)c6ccc3[nH]6)C=C5)C=C4)cc2)CC1
REMARK SMILES IDX 21 1 20 2 19 3 17 4 18 5 16 7 13 8 14 9 78 10 15 11 77 12
REMARK SMILES IDX 12 13 11 14 8 15 9 16 10 18 7 20 6 21 4 22 1 23 2 24 3 25
REMARK SMILES IDX 5 26 22 27 23 28 24 29 25 30 26 31 27 32 28 34 29 35 30 36
REMARK SMILES IDX 76 37 31 38 75 39 32 40 33 41 34 42 69 43 35 44 74 45 68 46
REMARK SMILES IDX 70 47 36 48 73 49 67 50 66 51 37 53 59 54 44 55 58 56 45 57
REMARK SMILES IDX 48 58 57 59 71 60 46 61 47 62 56 64 72 65 49 66 38 67 39 68
REMARK SMILES IDX 43 69 40 70 42 71 41 72 60 73 61 74 65 75 62 76 64 77 63 78
REMARK SMILES IDX 50 79 51 80 55 81 52 82 54 83 53 84
REMARK H PARENT 19 6 8 17 11 19 26 33 70 52 48 63
REMARK Flexibility Score: inf
ROOT
ATOM      1  C   UNL A   1      34.706  32.466  29.134  1.00  0.00     0.021 C 
ENDROOT
BRANCH   1   2
ATOM      2  C   UNL A   1      34.038  32.078  27.815  1.00  0.00     0.116 C 
BRANCH   2   3
ATOM      3  N   UNL A   1      34.478  30.807  27.298  1.00  0.00    -0.356 N 
ATOM      4  C   UNL A   1      33.822  29.760  26.742  1.00  0.00     0.223 C 
ATOM      5  O   UNL A   1      34.546  28.889  26.242  1.00  0.00    -0.275 OA
ATOM      6  H   UNL A   1      35.452  30.672  27.361  1.00  0.00     0.163 HD
BRANCH   4   7
ATOM      7  C   UNL A   1      32.295  29.571  26.705  1.00  0.00     0.078 C 
ATOM      8  C   UNL A   1      31.036  27.273  25.187  1.00  0.00     0.008 C 
ATOM      9  C   UNL A   1      31.531  27.101  26.642  1.00  0.00     0.006 C 
ATOM     10  C   UNL A   1      31.457  28.579  24.484  1.00  0.00     0.006 C 
ATOM     11  C   UNL A   1      31.711  28.378  27.452  1.00  0.00     0.014 C 
ATOM     12  C   UNL A   1      31.622  29.808  25.361  1.00  0.00     0.014 C 
BRANCH   8  13
ATOM     13  C   UNL A   1      31.476  26.042  24.341  1.00  0.00     0.121 C 
BRANCH  13  14
ATOM     14  N   UNL A   1      32.239  26.406  23.171  1.00  0.00    -0.338 N 
ATOM     15  N   UNL A   1      33.367  24.457  22.457  1.00  0.00    -0.338 N 
ATOM     16  C   UNL A   1      33.100  25.762  22.379  1.00  0.00     0.314 C 
ATOM     17  H   UNL A   1      34.151  24.201  21.919  1.00  0.00     0.165 HD
ATOM     18  O   UNL A   1      33.676  26.417  21.508  1.00  0.00    -0.249 OA
ATOM     19  H   UNL A   1      32.091  27.340  22.894  1.00  0.00     0.165 HD
BRANCH  15  20
ATOM     20  C   UNL A   1      32.777  23.323  23.147  1.00  0.00     0.127 C 
BRANCH  20  21
ATOM     21  C   UNL A   1      33.818  22.294  23.577  1.00  0.00     0.121 C 
BRANCH  21  22
ATOM     22  C   UNL A   1      35.140  22.998  23.820  1.00  0.00     0.223 C 
ATOM     23  C   UNL A   1      36.869  23.744  25.364  1.00  0.00     0.146 C 
ATOM     24  N   UNL A   1      35.491  23.355  25.110  1.00  0.00    -0.349 N 
ATOM     25  C   UNL A   1      34.588  23.432  26.252  1.00  0.00     0.146 C 
ATOM     26  O   UNL A   1      35.903  23.164  22.865  1.00  0.00    -0.275 OA
ENDBRANCH  21  22
ENDBRANCH  20  21
ENDBRANCH  15  20
ENDBRANCH  13  14
ENDBRANCH   8  13
ENDBRANCH   4   7
ENDBRANCH   2   3
ENDBRANCH   1   2
BRANCH   1  27
ATOM     27  C   UNL A   1      35.475  33.789  29.083  1.00  0.00     0.002 C 
BRANCH  27  28
ATOM     28  C   UNL A   1      34.827  34.903  28.252  1.00  0.00     0.002 C 
BRANCH  28  29
ATOM     29  C   UNL A   1      33.878  35.845  29.002  1.00  0.00     0.021 C 
BRANCH  29  30
ATOM     30  C   UNL A   1      32.776  35.161  29.807  1.00  0.00     0.116 C 
BRANCH  30  31
ATOM     31  N   UNL A   1      32.402  35.922  30.988  1.00  0.00    -0.352 N 
ATOM     32  C   UNL A   1      32.888  35.875  32.267  1.00  0.00     0.251 C 
ATOM     33  H   UNL A   1      31.681  36.577  30.844  1.00  0.00     0.163 HD
ATOM     34  O   UNL A   1      32.292  36.470  33.167  1.00  0.00    -0.269 OA
BRANCH  32  35
ATOM     35  C   UNL A   1      34.111  35.111  32.589  1.00  0.00     0.039 A 
ATOM     36  C   UNL A   1      33.977  33.816  33.100  1.00  0.00     0.014 A 
ATOM     37  C   UNL A   1      35.380  35.678  32.445  1.00  0.00     0.014 A 
ATOM     38  C   UNL A   1      35.115  33.070  33.413  1.00  0.00     0.010 A 
ATOM     39  C   UNL A   1      36.517  34.912  32.699  1.00  0.00     0.010 A 
ATOM     40  C   UNL A   1      36.395  33.602  33.189  1.00  0.00    -0.014 A 
BRANCH  40  41
ATOM     41  C   UNL A   1      37.613  32.803  33.468  1.00  0.00     0.031 A 
ATOM     42  C   UNL A   1      38.384  33.013  34.741  1.00  0.00     0.074 A 
ATOM     43  C   UNL A   1      38.054  31.918  32.555  1.00  0.00     0.049 A 
ATOM     44  N   UNL A   1      39.494  32.443  35.137  1.00  0.00    -0.248 NA
ATOM     45  C   UNL A   1      37.847  34.008  35.682  1.00  0.00     0.031 C 
ATOM     46  C   UNL A   1      37.406  31.627  31.273  1.00  0.00     0.029 A 
ATOM     47  N   UNL A   1      39.151  31.095  32.567  1.00  0.00    -0.354 N 
ATOM     48  C   UNL A   1      39.793  33.017  36.366  1.00  0.00     0.074 A 
ATOM     49  C   UNL A   1      38.777  34.014  36.625  1.00  0.00     0.031 C 
ATOM     50  C   UNL A   1      38.098  30.667  30.641  1.00  0.00     0.029 A 
ATOM     51  C   UNL A   1      39.257  30.303  31.450  1.00  0.00     0.049 A 
ATOM     52  H   UNL A   1      39.802  31.075  33.306  1.00  0.00     0.167 HD
ATOM     53  C   UNL A   1      40.811  32.729  37.213  1.00  0.00     0.031 A 
ATOM     54  C   UNL A   1      40.182  29.384  31.115  1.00  0.00     0.031 A 
ATOM     55  C   UNL A   1      41.822  31.737  36.962  1.00  0.00     0.049 A 
ATOM     56  C   UNL A   1      41.327  29.117  32.048  1.00  0.00     0.074 A 
ATOM     57  C   UNL A   1      42.870  31.345  37.776  1.00  0.00     0.029 A 
ATOM     58  N   UNL A   1      41.911  30.981  35.804  1.00  0.00    -0.354 N 
ATOM     59  N   UNL A   1      41.574  29.639  33.224  1.00  0.00    -0.248 NA
ATOM     60  C   UNL A   1      42.322  28.128  31.605  1.00  0.00     0.031 C 
ATOM     61  C   UNL A   1      43.622  30.384  37.090  1.00  0.00     0.029 A 
ATOM     62  C   UNL A   1      43.013  30.143  35.869  1.00  0.00     0.049 A 
ATOM     63  H   UNL A   1      41.284  31.030  35.046  1.00  0.00     0.167 HD
ATOM     64  C   UNL A   1      42.737  29.026  33.674  1.00  0.00     0.074 A 
ATOM     65  C   UNL A   1      43.139  28.086  32.648  1.00  0.00     0.031 C 
ATOM     66  C   UNL A   1      43.407  29.222  34.835  1.00  0.00     0.031 A 
BRANCH  53  67
ATOM     67  C   UNL A   1      40.881  33.523  38.488  1.00  0.00    -0.014 A 
ATOM     68  C   UNL A   1      41.608  34.724  38.558  1.00  0.00     0.009 A 
ATOM     69  C   UNL A   1      40.212  33.068  39.633  1.00  0.00     0.009 A 
ATOM     70  C   UNL A   1      41.704  35.425  39.762  1.00  0.00     0.001 A 
ATOM     71  C   UNL A   1      40.285  33.786  40.829  1.00  0.00     0.001 A 
ATOM     72  C   UNL A   1      41.041  34.956  40.896  1.00  0.00     0.000 A 
ENDBRANCH  53  67
BRANCH  54  73
ATOM     73  C   UNL A   1      40.047  28.628  29.844  1.00  0.00    -0.014 A 
ATOM     74  C   UNL A   1      39.419  27.374  29.834  1.00  0.00     0.009 A 
ATOM     75  C   UNL A   1      40.534  29.155  28.638  1.00  0.00     0.009 A 
ATOM     76  C   UNL A   1      39.294  26.655  28.644  1.00  0.00     0.001 A 
ATOM     77  C   UNL A   1      40.386  28.444  27.445  1.00  0.00     0.001 A 
ATOM     78  C   UNL A   1      39.772  27.192  27.450  1.00  0.00     0.000 A 
ENDBRANCH  54  73
BRANCH  66  79
ATOM     79  C   UNL A   1      44.634  28.386  35.065  1.00  0.00    -0.014 A 
ATOM     80  C   UNL A   1      44.560  27.156  35.735  1.00  0.00     0.009 A 
ATOM     81  C   UNL A   1      45.875  28.824  34.577  1.00  0.00     0.009 A 
ATOM     82  C   UNL A   1      45.713  26.394  35.939  1.00  0.00     0.001 A 
ATOM     83  C   UNL A   1      47.021  28.048  34.759  1.00  0.00     0.001 A 
ATOM     84  C   UNL A   1      46.940  26.839  35.448  1.00  0.00     0.000 A 
ENDBRANCH  66  79
ENDBRANCH  40  41
ENDBRANCH  32  35
ENDBRANCH  30  31
ENDBRANCH  29  30
ENDBRANCH  28  29
ENDBRANCH  27  28
ENDBRANCH   1  27
TORSDOF 18
ENDMDL
MODEL 2
REMARK VINA RESULT:     -10.2      2.072      6.890
REMARK SMILES CN(C)C(=O)CCNC(=O)NC[C@H]1CC[C@@H](C(=O)NCCCCCCNC(=O)c2ccc(-c3c4nc(c(-c5ccccc5)c5ccc([nH]5)c(-c5ccccc5)c5nc(c(-c6ccccc6)c6ccc3[nH]6)C=C5)C=C4)cc2)CC1
REMARK SMILES IDX 21 1 20 2 19 3 17 4 18 5 16 7 13 8 14 9 78 10 15 11 77 12
REMARK SMILES IDX 12 13 11 14 8 15 9 16 10 18 7 20 6 21 4 22 1 23 2 24 3 25
REMARK SMILES IDX 5 26 22 27 23 28 24 29 25 30 26 31 27 32 28 34 29 35 30 36
REMARK SMILES IDX 76 37 31 38 75 39 32 40 33 41 34 42 69 43 35 44 74 45 68 46
REMARK SMILES IDX 70 47 36 48 73 49 67 50 66 51 37 53 59 54 44 55 58 56 45 57
REMARK SMILES IDX 48 58 57 59 71 60 46 61 47 62 56 64 72 65 49 66 38 67 39 68
REMARK SMILES IDX 43 69 40 70 42 71 41 72 60 73 61 74 65 75 62 76 64 77 63 78
REMARK SMILES IDX 50 79 51 80 55 81 52 82 54 83 53 84
REMARK H PARENT 19 6 8 17 11 19 26 33 70 52 48 63
REMARK Flexibility Score: inf
ROOT
ATOM      1  C   UNL A   1      32.754  28.635  26.149  1.00  0.00     0.021 C 
ENDROOT
BRANCH   1   2
ATOM      2  C   UNL A   1      32.488  27.363  26.953  1.00  0.00     0.116 C 
BRANCH   2   3
ATOM      3  N   UNL A   1      31.182  26.798  26.722  1.00  0.00    -0.356 N 
ATOM      4  C   UNL A   1      30.756  25.540  26.458  1.00  0.00     0.223 C 
ATOM      5  O   UNL A   1      29.528  25.380  26.490  1.00  0.00    -0.275 OA
ATOM      6  H   UNL A   1      30.453  27.459  26.765  1.00  0.00     0.163 HD
BRANCH   4   7
ATOM      7  C   UNL A   1      31.653  24.338  26.114  1.00  0.00     0.078 C 
ATOM      8  C   UNL A   1      32.829  23.999  23.345  1.00  0.00     0.008 C 
ATOM      9  C   UNL A   1      33.532  24.864  24.417  1.00  0.00     0.006 C 
ATOM     10  C   UNL A   1      31.392  23.550  23.679  1.00  0.00     0.006 C 
ATOM     11  C   UNL A   1      33.131  24.607  25.863  1.00  0.00     0.014 C 
ATOM     12  C   UNL A   1      31.069  23.320  25.145  1.00  0.00     0.014 C 
BRANCH   8  13
ATOM     13  C   UNL A   1      32.852  24.747  21.978  1.00  0.00     0.121 C 
BRANCH  13  14
ATOM     14  N   UNL A   1      33.653  25.946  22.005  1.00  0.00    -0.338 N 
ATOM     15  N   UNL A   1      32.169  27.751  22.356  1.00  0.00    -0.338 N 
ATOM     16  C   UNL A   1      33.381  27.249  22.110  1.00  0.00     0.314 C 
ATOM     17  H   UNL A   1      32.130  28.725  22.218  1.00  0.00     0.165 HD
ATOM     18  O   UNL A   1      34.317  28.042  21.982  1.00  0.00    -0.249 OA
ATOM     19  H   UNL A   1      34.617  25.762  21.931  1.00  0.00     0.165 HD
BRANCH  15  20
ATOM     20  C   UNL A   1      30.892  27.203  22.779  1.00  0.00     0.127 C 
BRANCH  20  21
ATOM     21  C   UNL A   1      30.005  28.243  23.456  1.00  0.00     0.121 C 
BRANCH  21  22
ATOM     22  C   UNL A   1      29.502  29.221  22.412  1.00  0.00     0.223 C 
ATOM     23  C   UNL A   1      27.778  30.750  21.624  1.00  0.00     0.146 C 
ATOM     24  N   UNL A   1      28.171  29.598  22.422  1.00  0.00    -0.349 N 
ATOM     25  C   UNL A   1      27.093  28.915  23.125  1.00  0.00     0.146 C 
ATOM     26  O   UNL A   1      30.316  29.714  21.626  1.00  0.00    -0.275 OA
ENDBRANCH  21  22
ENDBRANCH  20  21
ENDBRANCH  15  20
ENDBRANCH  13  14
ENDBRANCH   8  13
ENDBRANCH   4   7
ENDBRANCH   2   3
ENDBRANCH   1   2
BRANCH   1  27
ATOM     27  C   UNL A   1      32.325  29.925  26.852  1.00  0.00     0.002 C 
BRANCH  27  28
ATOM     28  C   UNL A   1      31.403  30.848  26.044  1.00  0.00     0.002 C 
BRANCH  28  29
ATOM     29  C   UNL A   1      31.331  32.308  26.506  1.00  0.00     0.021 C 
BRANCH  29  30
ATOM     30  C   UNL A   1      32.590  32.844  27.183  1.00  0.00     0.116 C 
BRANCH  30  31
ATOM     31  N   UNL A   1      32.435  34.221  27.626  1.00  0.00    -0.352 N 
ATOM     32  C   UNL A   1      33.052  34.903  28.639  1.00  0.00     0.251 C 
ATOM     33  H   UNL A   1      31.780  34.746  27.113  1.00  0.00     0.163 HD
ATOM     34  O   UNL A   1      32.628  36.011  28.973  1.00  0.00    -0.269 OA
BRANCH  32  35
ATOM     35  C   UNL A   1      34.211  34.326  29.351  1.00  0.00     0.039 A 
ATOM     36  C   UNL A   1      33.995  33.685  30.575  1.00  0.00     0.014 A 
ATOM     37  C   UNL A   1      35.510  34.458  28.851  1.00  0.00     0.014 A 
ATOM     38  C   UNL A   1      35.071  33.130  31.270  1.00  0.00     0.010 A 
ATOM     39  C   UNL A   1      36.576  33.851  29.514  1.00  0.00     0.010 A 
ATOM     40  C   UNL A   1      36.366  33.184  30.731  1.00  0.00    -0.014 A 
BRANCH  40  41
ATOM     41  C   UNL A   1      37.512  32.555  31.431  1.00  0.00     0.031 A 
ATOM     42  C   UNL A   1      38.212  31.368  30.830  1.00  0.00     0.074 A 
ATOM     43  C   UNL A   1      37.898  33.022  32.633  1.00  0.00     0.049 A 
ATOM     44  N   UNL A   1      39.199  30.659  31.315  1.00  0.00    -0.248 NA
ATOM     45  C   UNL A   1      37.723  30.906  29.521  1.00  0.00     0.031 C 
ATOM     46  C   UNL A   1      37.296  34.159  33.334  1.00  0.00     0.029 A 
ATOM     47  N   UNL A   1      38.893  32.600  33.477  1.00  0.00    -0.354 N 
ATOM     48  C   UNL A   1      39.442  29.663  30.378  1.00  0.00     0.074 A 
ATOM     49  C   UNL A   1      38.467  29.829  29.322  1.00  0.00     0.031 C 
ATOM     50  C   UNL A   1      37.958  34.366  34.482  1.00  0.00     0.029 A 
ATOM     51  C   UNL A   1      39.002  33.355  34.620  1.00  0.00     0.049 A 
ATOM     52  H   UNL A   1      39.473  31.829  33.284  1.00  0.00     0.167 HD
ATOM     53  C   UNL A   1      40.403  28.706  30.384  1.00  0.00     0.031 A 
ATOM     54  C   UNL A   1      39.849  33.247  35.661  1.00  0.00     0.031 A 
ATOM     55  C   UNL A   1      41.376  28.538  31.429  1.00  0.00     0.049 A 
ATOM     56  C   UNL A   1      40.873  32.149  35.667  1.00  0.00     0.074 A 
ATOM     57  C   UNL A   1      42.413  27.624  31.507  1.00  0.00     0.029 A 
ATOM     58  N   UNL A   1      41.430  29.303  32.584  1.00  0.00    -0.354 N 
ATOM     59  N   UNL A   1      41.116  31.241  34.755  1.00  0.00    -0.248 NA
ATOM     60  C   UNL A   1      41.741  32.066  36.851  1.00  0.00     0.031 C 
ATOM     61  C   UNL A   1      43.065  27.806  32.732  1.00  0.00     0.029 A 
ATOM     62  C   UNL A   1      42.465  28.865  33.394  1.00  0.00     0.049 A 
ATOM     63  H   UNL A   1      40.824  30.048  32.797  1.00  0.00     0.167 HD
ATOM     64  C   UNL A   1      42.181  30.493  35.241  1.00  0.00     0.074 A 
ATOM     65  C   UNL A   1      42.542  31.061  36.523  1.00  0.00     0.031 C 
ATOM     66  C   UNL A   1      42.805  29.433  34.673  1.00  0.00     0.031 A 
BRANCH  53  67
ATOM     67  C   UNL A   1      40.423  27.755  29.220  1.00  0.00    -0.014 A 
ATOM     68  C   UNL A   1      41.199  28.019  28.078  1.00  0.00     0.009 A 
ATOM     69  C   UNL A   1      39.660  26.580  29.263  1.00  0.00     0.009 A 
ATOM     70  C   UNL A   1      41.170  27.150  26.986  1.00  0.00     0.001 A 
ATOM     71  C   UNL A   1      39.654  25.697  28.181  1.00  0.00     0.001 A 
ATOM     72  C   UNL A   1      40.399  25.989  27.038  1.00  0.00     0.000 A 
ENDBRANCH  53  67
BRANCH  54  73
ATOM     73  C   UNL A   1      39.780  34.227  36.774  1.00  0.00    -0.014 A 
ATOM     74  C   UNL A   1      38.979  33.963  37.895  1.00  0.00     0.009 A 
ATOM     75  C   UNL A   1      40.516  35.421  36.729  1.00  0.00     0.009 A 
ATOM     76  C   UNL A   1      38.904  34.883  38.944  1.00  0.00     0.001 A 
ATOM     77  C   UNL A   1      40.458  36.328  37.790  1.00  0.00     0.001 A 
ATOM     78  C   UNL A   1      39.647  36.061  38.892  1.00  0.00     0.000 A 
ENDBRANCH  54  73
BRANCH  66  79
ATOM     79  C   UNL A   1      43.959  28.835  35.427  1.00  0.00    -0.014 A 
ATOM     80  C   UNL A   1      43.754  27.850  36.405  1.00  0.00     0.009 A 
ATOM     81  C   UNL A   1      45.269  29.242  35.132  1.00  0.00     0.009 A 
ATOM     82  C   UNL A   1      44.840  27.306  37.095  1.00  0.00     0.001 A 
ATOM     83  C   UNL A   1      46.354  28.679  35.805  1.00  0.00     0.001 A 
ATOM     84  C   UNL A   1      46.138  27.719  36.792  1.00  0.00     0.000 A 
ENDBRANCH  66  79
ENDBRANCH  40  41
ENDBRANCH  32  35
ENDBRANCH  30  31
ENDBRANCH  29  30
ENDBRANCH  28  29
ENDBRANCH  27  28
ENDBRANCH   1  27
TORSDOF 18
ENDMDL
MODEL 3
REMARK VINA RESULT:     -10.2      4.987      9.764
REMARK SMILES CN(C)C(=O)CCNC(=O)NC[C@H]1CC[C@@H](C(=O)NCCCCCCNC(=O)c2ccc(-c3c4nc(c(-c5ccccc5)c5ccc([nH]5)c(-c5ccccc5)c5nc(c(-c6ccccc6)c6ccc3[nH]6)C=C5)C=C4)cc2)CC1
REMARK SMILES IDX 21 1 20 2 19 3 17 4 18 5 16 7 13 8 14 9 78 10 15 11 77 12
REMARK SMILES IDX 12 13 11 14 8 15 9 16 10 18 7 20 6 21 4 22 1 23 2 24 3 25
REMARK SMILES IDX 5 26 22 27 23 28 24 29 25 30 26 31 27 32 28 34 29 35 30 36
REMARK SMILES IDX 76 37 31 38 75 39 32 40 33 41 34 42 69 43 35 44 74 45 68 46
REMARK SMILES IDX 70 47 36 48 73 49 67 50 66 51 37 53 59 54 44 55 58 56 45 57
REMARK SMILES IDX 48 58 57 59 71 60 46 61 47 62 56 64 72 65 49 66 38 67 39 68
REMARK SMILES IDX 43 69 40 70 42 71 41 72 60 73 61 74 65 75 62 76 64 77 63 78
REMARK SMILES IDX 50 79 51 80 55 81 52 82 54 83 53 84
REMARK H PARENT 19 6 8 17 11 19 26 33 70 52 48 63
REMARK Flexibility Score: inf
ROOT
ATOM      1  C   UNL A   1      35.138  23.673  23.518  1.00  0.00     0.021 C 
ENDROOT
BRANCH   1   2
ATOM      2  C   UNL A   1      33.719  23.429  23.007  1.00  0.00     0.116 C 
BRANCH   2   3
ATOM      3  N   UNL A   1      33.460  24.020  21.719  1.00  0.00    -0.356 N 
ATOM      4  C   UNL A   1      32.994  25.233  21.337  1.00  0.00     0.223 C 
ATOM      5  O   UNL A   1      33.064  25.468  20.123  1.00  0.00    -0.275 OA
ATOM      6  H   UNL A   1      33.664  23.422  20.963  1.00  0.00     0.163 HD
BRANCH   4   7
ATOM      7  C   UNL A   1      32.386  26.298  22.267  1.00  0.00     0.078 C 
ATOM      8  C   UNL A   1      32.122  25.814  25.245  1.00  0.00     0.008 C 
ATOM      9  C   UNL A   1      33.430  26.366  24.632  1.00  0.00     0.006 C 
ATOM     10  C   UNL A   1      31.080  25.286  24.239  1.00  0.00     0.006 C 
ATOM     11  C   UNL A   1      33.318  26.995  23.250  1.00  0.00     0.014 C 
ATOM     12  C   UNL A   1      31.034  25.961  22.880  1.00  0.00     0.014 C 
BRANCH   8  13
ATOM     13  C   UNL A   1      32.463  24.712  26.291  1.00  0.00     0.121 C 
BRANCH  13  14
ATOM     14  N   UNL A   1      31.298  24.201  26.972  1.00  0.00    -0.338 N 
ATOM     15  N   UNL A   1      31.072  21.937  26.333  1.00  0.00    -0.338 N 
ATOM     16  C   UNL A   1      30.649  23.034  26.966  1.00  0.00     0.314 C 
ATOM     17  H   UNL A   1      30.380  21.238  26.291  1.00  0.00     0.165 HD
ATOM     18  O   UNL A   1      29.593  22.963  27.597  1.00  0.00    -0.249 OA
ATOM     19  H   UNL A   1      30.892  24.861  27.580  1.00  0.00     0.165 HD
BRANCH  15  20
ATOM     20  C   UNL A   1      32.310  21.529  25.693  1.00  0.00     0.127 C 
BRANCH  20  21
ATOM     21  C   UNL A   1      32.074  20.629  24.484  1.00  0.00     0.121 C 
BRANCH  21  22
ATOM     22  C   UNL A   1      32.472  19.209  24.837  1.00  0.00     0.223 C 
ATOM     23  C   UNL A   1      33.389  17.056  24.162  1.00  0.00     0.146 C 
ATOM     24  N   UNL A   1      32.722  18.303  23.821  1.00  0.00    -0.349 N 
ATOM     25  C   UNL A   1      32.332  18.454  22.425  1.00  0.00     0.146 C 
ATOM     26  O   UNL A   1      32.636  18.921  26.025  1.00  0.00    -0.275 OA
ENDBRANCH  21  22
ENDBRANCH  20  21
ENDBRANCH  15  20
ENDBRANCH  13  14
ENDBRANCH   8  13
ENDBRANCH   4   7
ENDBRANCH   2   3
ENDBRANCH   1   2
BRANCH   1  27
ATOM     27  C   UNL A   1      36.031  22.430  23.513  1.00  0.00     0.002 C 
BRANCH  27  28
ATOM     28  C   UNL A   1      35.764  21.415  24.633  1.00  0.00     0.002 C 
BRANCH  28  29
ATOM     29  C   UNL A   1      36.869  20.385  24.892  1.00  0.00     0.021 C 
BRANCH  29  30
ATOM     30  C   UNL A   1      38.222  20.963  25.301  1.00  0.00     0.116 C 
BRANCH  30  31
ATOM     31  N   UNL A   1      39.229  19.932  25.490  1.00  0.00    -0.352 N 
ATOM     32  C   UNL A   1      40.511  20.018  25.961  1.00  0.00     0.251 C 
ATOM     33  H   UNL A   1      38.941  19.025  25.237  1.00  0.00     0.163 HD
ATOM     34  O   UNL A   1      41.265  19.048  25.853  1.00  0.00    -0.269 OA
BRANCH  32  35
ATOM     35  C   UNL A   1      41.011  21.259  26.586  1.00  0.00     0.039 A 
ATOM     36  C   UNL A   1      41.541  22.258  25.762  1.00  0.00     0.014 A 
ATOM     37  C   UNL A   1      41.014  21.424  27.974  1.00  0.00     0.014 A 
ATOM     38  C   UNL A   1      42.020  23.442  26.325  1.00  0.00     0.010 A 
ATOM     39  C   UNL A   1      41.437  22.630  28.531  1.00  0.00     0.010 A 
ATOM     40  C   UNL A   1      41.946  23.649  27.711  1.00  0.00    -0.014 A 
BRANCH  40  41
ATOM     41  C   UNL A   1      42.405  24.922  28.319  1.00  0.00     0.031 A 
ATOM     42  C   UNL A   1      41.429  26.036  28.575  1.00  0.00     0.074 A 
ATOM     43  C   UNL A   1      43.709  25.095  28.601  1.00  0.00     0.049 A 
ATOM     44  N   UNL A   1      41.651  27.234  29.055  1.00  0.00    -0.248 NA
ATOM     45  C   UNL A   1      40.023  25.777  28.228  1.00  0.00     0.031 C 
ATOM     46  C   UNL A   1      44.762  24.099  28.389  1.00  0.00     0.029 A 
ATOM     47  N   UNL A   1      44.372  26.173  29.131  1.00  0.00    -0.354 N 
ATOM     48  C   UNL A   1      40.417  27.873  29.057  1.00  0.00     0.074 A 
ATOM     49  C   UNL A   1      39.463  26.949  28.484  1.00  0.00     0.031 C 
ATOM     50  C   UNL A   1      45.931  24.599  28.820  1.00  0.00     0.029 A 
ATOM     51  C   UNL A   1      45.719  25.962  29.298  1.00  0.00     0.049 A 
ATOM     52  H   UNL A   1      43.926  27.018  29.367  1.00  0.00     0.167 HD
ATOM     53  C   UNL A   1      40.102  29.110  29.511  1.00  0.00     0.031 A 
ATOM     54  C   UNL A   1      46.677  26.773  29.785  1.00  0.00     0.031 A 
ATOM     55  C   UNL A   1      41.046  30.031  30.084  1.00  0.00     0.049 A 
ATOM     56  C   UNL A   1      46.311  28.157  30.237  1.00  0.00     0.074 A 
ATOM     57  C   UNL A   1      40.816  31.291  30.609  1.00  0.00     0.029 A 
ATOM     58  N   UNL A   1      42.406  29.790  30.205  1.00  0.00    -0.354 N 
ATOM     59  N   UNL A   1      45.134  28.731  30.270  1.00  0.00    -0.248 NA
ATOM     60  C   UNL A   1      47.411  29.003  30.723  1.00  0.00     0.031 C 
ATOM     61  C   UNL A   1      42.045  31.831  31.004  1.00  0.00     0.029 A 
ATOM     62  C   UNL A   1      43.033  30.888  30.771  1.00  0.00     0.049 A 
ATOM     63  H   UNL A   1      42.860  28.960  29.931  1.00  0.00     0.167 HD
ATOM     64  C   UNL A   1      45.345  29.997  30.802  1.00  0.00     0.074 A 
ATOM     65  C   UNL A   1      46.762  30.101  31.087  1.00  0.00     0.031 C 
ATOM     66  C   UNL A   1      44.445  30.982  31.037  1.00  0.00     0.031 A 
BRANCH  53  67
ATOM     67  C   UNL A   1      38.666  29.537  29.382  1.00  0.00    -0.014 A 
ATOM     68  C   UNL A   1      37.755  29.357  30.437  1.00  0.00     0.009 A 
ATOM     69  C   UNL A   1      38.216  30.128  28.192  1.00  0.00     0.009 A 
ATOM     70  C   UNL A   1      36.414  29.714  30.284  1.00  0.00     0.001 A 
ATOM     71  C   UNL A   1      36.881  30.511  28.051  1.00  0.00     0.001 A 
ATOM     72  C   UNL A   1      35.979  30.292  29.092  1.00  0.00     0.000 A 
ENDBRANCH  53  67
BRANCH  54  73
ATOM     73  C   UNL A   1      48.075  26.284  29.894  1.00  0.00    -0.014 A 
ATOM     74  C   UNL A   1      48.531  25.719  31.094  1.00  0.00     0.009 A 
ATOM     75  C   UNL A   1      48.955  26.370  28.804  1.00  0.00     0.009 A 
ATOM     76  C   UNL A   1      49.847  25.262  31.206  1.00  0.00     0.001 A 
ATOM     77  C   UNL A   1      50.262  25.891  28.911  1.00  0.00     0.001 A 
ATOM     78  C   UNL A   1      50.708  25.344  30.113  1.00  0.00     0.000 A 
ENDBRANCH  54  73
BRANCH  66  79
ATOM     79  C   UNL A   1      44.965  32.249  31.653  1.00  0.00    -0.014 A 
ATOM     80  C   UNL A   1      45.377  33.328  30.857  1.00  0.00     0.009 A 
ATOM     81  C   UNL A   1      45.014  32.375  33.050  1.00  0.00     0.009 A 
ATOM     82  C   UNL A   1      45.858  34.498  31.449  1.00  0.00     0.001 A 
ATOM     83  C   UNL A   1      45.470  33.554  33.640  1.00  0.00     0.001 A 
ATOM     84  C   UNL A   1      45.900  34.611  32.839  1.00  0.00     0.000 A 
ENDBRANCH  66  79
ENDBRANCH  40  41
ENDBRANCH  32  35
ENDBRANCH  30  31
ENDBRANCH  29  30
ENDBRANCH  28  29
ENDBRANCH  27  28
ENDBRANCH   1  27
TORSDOF 18
ENDMDL
