MODEL 1
REMARK VINA RESULT:     -10.4      0.000      0.000
REMARK SMILES C[C@@](O)(c1cccc(O)c1)[C@@H](F)C(=O)NCCCCCCNC(=O)c1ccc(-c2c3nc(c(-c4ccccc4)c4ccc([nH]4)c(-c4ccccc4)c4nc(c(-c5ccccc5)c5ccc2[nH]5)C=C4)C=C3)cc1
REMARK SMILES IDX 18 1 17 2 16 3 15 4 13 5 14 6 11 8 12 9 2 10 1 11 3 12 4 14
REMARK SMILES IDX 5 15 10 16 6 17 8 18 7 19 9 20 19 22 20 23 21 24 22 25 23 26
REMARK SMILES IDX 24 28 25 29 26 30 72 31 27 32 71 33 28 34 29 35 30 36 65 37
REMARK SMILES IDX 31 38 70 39 64 40 66 41 32 42 69 43 63 44 62 45 33 47 55 48
REMARK SMILES IDX 40 49 54 50 41 51 44 52 53 53 67 54 42 55 43 56 52 58 68 59
REMARK SMILES IDX 45 60 34 61 35 62 39 63 36 64 38 65 37 66 56 67 57 68 61 69
REMARK SMILES IDX 58 70 60 71 59 72 46 73 47 74 51 75 48 76 50 77 49 78
REMARK H PARENT 15 7 3 13 9 21 22 27 66 46 44 57
REMARK Flexibility Score: inf
ROOT
ATOM      1  C   UNL A   1      37.163  21.949  24.307  1.00  0.00     0.002 C 
ENDROOT
BRANCH   1   2
ATOM      2  C   UNL A   1      37.069  23.072  25.340  1.00  0.00     0.021 C 
BRANCH   2   3
ATOM      3  C   UNL A   1      35.686  23.227  25.978  1.00  0.00     0.116 C 
BRANCH   3   4
ATOM      4  N   UNL A   1      34.950  24.300  25.334  1.00  0.00    -0.353 N 
ATOM      5  C   UNL A   1      34.230  24.288  24.175  1.00  0.00     0.257 C 
ATOM      6  O   UNL A   1      33.927  25.383  23.688  1.00  0.00    -0.272 OA
ATOM      7  H   UNL A   1      34.975  25.165  25.802  1.00  0.00     0.163 HD
BRANCH   5   8
ATOM      8  C   UNL A   1      33.850  22.990  23.457  1.00  0.00     0.291 C 
ATOM      9  F   UNL A   1      33.791  23.128  22.100  1.00  0.00    -0.233 F 
BRANCH   8  10
ATOM     10  C   UNL A   1      32.530  22.357  24.000  1.00  0.00     0.127 C 
ATOM     11  C   UNL A   1      31.322  22.862  23.194  1.00  0.00     0.051 C 
BRANCH  10  12
ATOM     12  O   UNL A   1      32.309  22.744  25.368  1.00  0.00    -0.382 OA
ATOM     13  H   UNL A   1      31.646  22.159  25.767  1.00  0.00     0.212 HD
ENDBRANCH  10  12
BRANCH  10  14
ATOM     14  C   UNL A   1      32.602  20.819  24.045  1.00  0.00    -0.010 A 
ATOM     15  C   UNL A   1      32.971  20.146  25.228  1.00  0.00     0.007 A 
ATOM     16  C   UNL A   1      32.245  20.015  22.945  1.00  0.00     0.053 A 
ATOM     17  C   UNL A   1      33.022  18.749  25.293  1.00  0.00     0.004 A 
ATOM     18  C   UNL A   1      32.286  18.623  23.020  1.00  0.00     0.115 A 
ATOM     19  C   UNL A   1      32.680  17.981  24.184  1.00  0.00     0.046 A 
BRANCH  18  20
ATOM     20  O   UNL A   1      31.919  17.921  21.909  1.00  0.00    -0.508 OA
ATOM     21  H   UNL A   1      31.599  17.044  21.994  1.00  0.00     0.293 HD
ENDBRANCH  18  20
ENDBRANCH  10  14
ENDBRANCH   8  10
ENDBRANCH   5   8
ENDBRANCH   3   4
ENDBRANCH   2   3
ENDBRANCH   1   2
BRANCH   1  22
ATOM     22  C   UNL A   1      36.818  20.556  24.838  1.00  0.00     0.002 C 
BRANCH  22  23
ATOM     23  C   UNL A   1      38.003  19.595  24.974  1.00  0.00     0.021 C 
BRANCH  23  24
ATOM     24  C   UNL A   1      39.096  20.048  25.939  1.00  0.00     0.116 C 
BRANCH  24  25
ATOM     25  N   UNL A   1      40.256  19.173  25.903  1.00  0.00    -0.352 N 
ATOM     26  C   UNL A   1      41.582  19.480  26.055  1.00  0.00     0.251 C 
ATOM     27  H   UNL A   1      40.061  18.221  25.746  1.00  0.00     0.163 HD
ATOM     28  O   UNL A   1      42.445  18.644  25.791  1.00  0.00    -0.269 OA
BRANCH  26  29
ATOM     29  C   UNL A   1      41.981  20.823  26.523  1.00  0.00     0.039 A 
ATOM     30  C   UNL A   1      42.278  21.806  25.576  1.00  0.00     0.014 A 
ATOM     31  C   UNL A   1      42.084  21.106  27.889  1.00  0.00     0.014 A 
ATOM     32  C   UNL A   1      42.633  23.087  25.998  1.00  0.00     0.010 A 
ATOM     33  C   UNL A   1      42.371  22.403  28.307  1.00  0.00     0.010 A 
ATOM     34  C   UNL A   1      42.658  23.403  27.367  1.00  0.00    -0.014 A 
BRANCH  34  35
ATOM     35  C   UNL A   1      42.987  24.775  27.825  1.00  0.00     0.031 A 
ATOM     36  C   UNL A   1      44.420  25.201  27.982  1.00  0.00     0.074 A 
ATOM     37  C   UNL A   1      41.993  25.626  28.143  1.00  0.00     0.049 A 
ATOM     38  N   UNL A   1      44.901  26.356  28.368  1.00  0.00    -0.248 NA
ATOM     39  C   UNL A   1      45.450  24.189  27.690  1.00  0.00     0.031 C 
ATOM     40  C   UNL A   1      40.562  25.322  28.073  1.00  0.00     0.029 A 
ATOM     41  N   UNL A   1      42.037  26.923  28.586  1.00  0.00    -0.354 N 
ATOM     42  C   UNL A   1      46.282  26.204  28.384  1.00  0.00     0.074 A 
ATOM     43  C   UNL A   1      46.560  24.833  28.015  1.00  0.00     0.031 C 
ATOM     44  C   UNL A   1      39.865  26.416  28.417  1.00  0.00     0.029 A 
ATOM     45  C   UNL A   1      40.796  27.483  28.767  1.00  0.00     0.049 A 
ATOM     46  H   UNL A   1      42.876  27.406  28.758  1.00  0.00     0.167 HD
ATOM     47  C   UNL A   1      47.235  27.126  28.663  1.00  0.00     0.031 A 
ATOM     48  C   UNL A   1      40.447  28.722  29.162  1.00  0.00     0.031 A 
ATOM     49  C   UNL A   1      46.958  28.492  29.018  1.00  0.00     0.049 A 
ATOM     50  C   UNL A   1      41.522  29.723  29.475  1.00  0.00     0.074 A 
ATOM     51  C   UNL A   1      47.854  29.522  29.248  1.00  0.00     0.029 A 
ATOM     52  N   UNL A   1      45.689  29.017  29.204  1.00  0.00    -0.354 N 
ATOM     53  N   UNL A   1      42.824  29.589  29.405  1.00  0.00    -0.248 NA
ATOM     54  C   UNL A   1      41.074  31.054  29.912  1.00  0.00     0.031 C 
ATOM     55  C   UNL A   1      47.128  30.657  29.626  1.00  0.00     0.029 A 
ATOM     56  C   UNL A   1      45.777  30.347  29.576  1.00  0.00     0.049 A 
ATOM     57  H   UNL A   1      44.849  28.517  29.089  1.00  0.00     0.167 HD
ATOM     58  C   UNL A   1      43.351  30.824  29.762  1.00  0.00     0.074 A 
ATOM     59  C   UNL A   1      42.227  31.697  30.032  1.00  0.00     0.031 C 
ATOM     60  C   UNL A   1      44.650  31.201  29.852  1.00  0.00     0.031 A 
BRANCH  47  61
ATOM     61  C   UNL A   1      48.668  26.672  28.612  1.00  0.00    -0.014 A 
ATOM     62  C   UNL A   1      49.406  26.713  27.417  1.00  0.00     0.009 A 
ATOM     63  C   UNL A   1      49.294  26.209  29.779  1.00  0.00     0.009 A 
ATOM     64  C   UNL A   1      50.726  26.256  27.384  1.00  0.00     0.001 A 
ATOM     65  C   UNL A   1      50.623  25.780  29.750  1.00  0.00     0.001 A 
ATOM     66  C   UNL A   1      51.333  25.793  28.551  1.00  0.00     0.000 A 
ENDBRANCH  47  61
BRANCH  48  67
ATOM     67  C   UNL A   1      39.013  29.099  29.243  1.00  0.00    -0.014 A 
ATOM     68  C   UNL A   1      38.365  29.655  28.129  1.00  0.00     0.009 A 
ATOM     69  C   UNL A   1      38.284  28.905  30.426  1.00  0.00     0.009 A 
ATOM     70  C   UNL A   1      37.023  30.031  28.204  1.00  0.00     0.001 A 
ATOM     71  C   UNL A   1      36.933  29.257  30.490  1.00  0.00     0.001 A 
ATOM     72  C   UNL A   1      36.307  29.827  29.382  1.00  0.00     0.000 A 
ENDBRANCH  48  67
BRANCH  60  73
ATOM     73  C   UNL A   1      44.919  32.630  30.233  1.00  0.00    -0.014 A 
ATOM     74  C   UNL A   1      45.101  33.006  31.573  1.00  0.00     0.009 A 
ATOM     75  C   UNL A   1      45.013  33.610  29.232  1.00  0.00     0.009 A 
ATOM     76  C   UNL A   1      45.332  34.342  31.905  1.00  0.00     0.001 A 
ATOM     77  C   UNL A   1      45.274  34.939  29.564  1.00  0.00     0.001 A 
ATOM     78  C   UNL A   1      45.422  35.306  30.901  1.00  0.00     0.000 A 
ENDBRANCH  60  73
ENDBRANCH  34  35
ENDBRANCH  26  29
ENDBRANCH  24  25
ENDBRANCH  23  24
ENDBRANCH  22  23
ENDBRANCH   1  22
TORSDOF 17
ENDMDL
MODEL 2
REMARK VINA RESULT:     -10.3      1.077      1.529
REMARK SMILES C[C@@](O)(c1cccc(O)c1)[C@@H](F)C(=O)NCCCCCCNC(=O)c1ccc(-c2c3nc(c(-c4ccccc4)c4ccc([nH]4)c(-c4ccccc4)c4nc(c(-c5ccccc5)c5ccc2[nH]5)C=C4)C=C3)cc1
REMARK SMILES IDX 18 1 17 2 16 3 15 4 13 5 14 6 11 8 12 9 2 10 1 11 3 12 4 14
REMARK SMILES IDX 5 15 10 16 6 17 8 18 7 19 9 20 19 22 20 23 21 24 22 25 23 26
REMARK SMILES IDX 24 28 25 29 26 30 72 31 27 32 71 33 28 34 29 35 30 36 65 37
REMARK SMILES IDX 31 38 70 39 64 40 66 41 32 42 69 43 63 44 62 45 33 47 55 48
REMARK SMILES IDX 40 49 54 50 41 51 44 52 53 53 67 54 42 55 43 56 52 58 68 59
REMARK SMILES IDX 45 60 34 61 35 62 39 63 36 64 38 65 37 66 56 67 57 68 61 69
REMARK SMILES IDX 58 70 60 71 59 72 46 73 47 74 51 75 48 76 50 77 49 78
REMARK H PARENT 15 7 3 13 9 21 22 27 66 46 44 57
REMARK Flexibility Score: inf
ROOT
ATOM      1  C   UNL A   1      36.437  21.888  24.999  1.00  0.00     0.002 C 
ENDROOT
BRANCH   1   2
ATOM      2  C   UNL A   1      36.657  22.525  23.626  1.00  0.00     0.021 C 
BRANCH   2   3
ATOM      3  C   UNL A   1      35.440  23.271  23.075  1.00  0.00     0.116 C 
BRANCH   3   4
ATOM      4  N   UNL A   1      34.877  24.141  24.092  1.00  0.00    -0.353 N 
ATOM      5  C   UNL A   1      33.590  24.250  24.530  1.00  0.00     0.257 C 
ATOM      6  O   UNL A   1      33.305  25.247  25.202  1.00  0.00    -0.272 OA
ATOM      7  H   UNL A   1      35.521  24.743  24.532  1.00  0.00     0.163 HD
BRANCH   5   8
ATOM      8  C   UNL A   1      32.511  23.225  24.171  1.00  0.00     0.291 C 
ATOM      9  F   UNL A   1      31.342  23.800  23.762  1.00  0.00    -0.233 F 
BRANCH   8  10
ATOM     10  C   UNL A   1      32.242  22.196  25.314  1.00  0.00     0.127 C 
ATOM     11  C   UNL A   1      30.869  22.452  25.955  1.00  0.00     0.051 C 
BRANCH  10  12
ATOM     12  O   UNL A   1      33.222  22.333  26.359  1.00  0.00    -0.382 OA
ATOM     13  H   UNL A   1      33.014  23.113  26.897  1.00  0.00     0.212 HD
ENDBRANCH  10  12
BRANCH  10  14
ATOM     14  C   UNL A   1      32.401  20.741  24.831  1.00  0.00    -0.010 A 
ATOM     15  C   UNL A   1      32.282  20.414  23.465  1.00  0.00     0.007 A 
ATOM     16  C   UNL A   1      32.733  19.689  25.707  1.00  0.00     0.053 A 
ATOM     17  C   UNL A   1      32.444  19.101  23.007  1.00  0.00     0.004 A 
ATOM     18  C   UNL A   1      32.905  18.385  25.243  1.00  0.00     0.115 A 
ATOM     19  C   UNL A   1      32.755  18.079  23.899  1.00  0.00     0.046 A 
BRANCH  18  20
ATOM     20  O   UNL A   1      33.231  17.428  26.159  1.00  0.00    -0.508 OA
ATOM     21  H   UNL A   1      32.590  17.134  26.777  1.00  0.00     0.293 HD
ENDBRANCH  18  20
ENDBRANCH  10  14
ENDBRANCH   8  10
ENDBRANCH   5   8
ENDBRANCH   3   4
ENDBRANCH   2   3
ENDBRANCH   1   2
BRANCH   1  22
ATOM     22  C   UNL A   1      36.334  20.361  24.990  1.00  0.00     0.002 C 
BRANCH  22  23
ATOM     23  C   UNL A   1      37.667  19.617  24.863  1.00  0.00     0.021 C 
BRANCH  23  24
ATOM     24  C   UNL A   1      38.805  20.178  25.711  1.00  0.00     0.116 C 
BRANCH  24  25
ATOM     25  N   UNL A   1      39.950  19.283  25.755  1.00  0.00    -0.352 N 
ATOM     26  C   UNL A   1      41.259  19.559  26.043  1.00  0.00     0.251 C 
ATOM     27  H   UNL A   1      39.755  18.340  25.546  1.00  0.00     0.163 HD
ATOM     28  O   UNL A   1      42.131  18.716  25.833  1.00  0.00    -0.269 OA
BRANCH  26  29
ATOM     29  C   UNL A   1      41.633  20.878  26.593  1.00  0.00     0.039 A 
ATOM     30  C   UNL A   1      42.077  21.872  25.718  1.00  0.00     0.014 A 
ATOM     31  C   UNL A   1      41.569  21.126  27.968  1.00  0.00     0.014 A 
ATOM     32  C   UNL A   1      42.411  23.132  26.216  1.00  0.00     0.010 A 
ATOM     33  C   UNL A   1      41.836  22.404  28.454  1.00  0.00     0.010 A 
ATOM     34  C   UNL A   1      42.269  23.416  27.585  1.00  0.00    -0.014 A 
BRANCH  34  35
ATOM     35  C   UNL A   1      42.576  24.765  28.118  1.00  0.00     0.031 A 
ATOM     36  C   UNL A   1      43.985  25.132  28.494  1.00  0.00     0.074 A 
ATOM     37  C   UNL A   1      41.577  25.648  28.305  1.00  0.00     0.049 A 
ATOM     38  N   UNL A   1      44.444  26.262  28.973  1.00  0.00    -0.248 NA
ATOM     39  C   UNL A   1      45.009  24.087  28.334  1.00  0.00     0.031 C 
ATOM     40  C   UNL A   1      40.162  25.402  28.018  1.00  0.00     0.029 A 
ATOM     41  N   UNL A   1      41.601  26.935  28.779  1.00  0.00    -0.354 N 
ATOM     42  C   UNL A   1      45.801  26.056  29.189  1.00  0.00     0.074 A 
ATOM     43  C   UNL A   1      46.081  24.681  28.834  1.00  0.00     0.031 C 
ATOM     44  C   UNL A   1      39.461  26.516  28.280  1.00  0.00     0.029 A 
ATOM     45  C   UNL A   1      40.368  27.540  28.788  1.00  0.00     0.049 A 
ATOM     46  H   UNL A   1      42.423  27.383  29.084  1.00  0.00     0.167 HD
ATOM     47  C   UNL A   1      46.734  26.935  29.626  1.00  0.00     0.031 A 
ATOM     48  C   UNL A   1      40.009  28.784  29.155  1.00  0.00     0.031 A 
ATOM     49  C   UNL A   1      46.457  28.304  29.968  1.00  0.00     0.049 A 
ATOM     50  C   UNL A   1      41.061  29.737  29.646  1.00  0.00     0.074 A 
ATOM     51  C   UNL A   1      47.345  29.295  30.351  1.00  0.00     0.029 A 
ATOM     52  N   UNL A   1      45.194  28.875  29.976  1.00  0.00    -0.354 N 
ATOM     53  N   UNL A   1      42.353  29.554  29.766  1.00  0.00    -0.248 NA
ATOM     54  C   UNL A   1      40.601  31.077  30.042  1.00  0.00     0.031 C 
ATOM     55  C   UNL A   1      46.612  30.450  30.643  1.00  0.00     0.029 A 
ATOM     56  C   UNL A   1      45.274  30.194  30.388  1.00  0.00     0.049 A 
ATOM     57  H   UNL A   1      44.363  28.410  29.727  1.00  0.00     0.167 HD
ATOM     58  C   UNL A   1      42.866  30.761  30.224  1.00  0.00     0.074 A 
ATOM     59  C   UNL A   1      41.746  31.672  30.346  1.00  0.00     0.031 C 
ATOM     60  C   UNL A   1      44.149  31.086  30.514  1.00  0.00     0.031 A 
BRANCH  47  61
ATOM     61  C   UNL A   1      48.142  26.426  29.777  1.00  0.00    -0.014 A 
ATOM     62  C   UNL A   1      48.580  25.830  30.971  1.00  0.00     0.009 A 
ATOM     63  C   UNL A   1      49.039  26.531  28.703  1.00  0.00     0.009 A 
ATOM     64  C   UNL A   1      49.901  25.394  31.101  1.00  0.00     0.001 A 
ATOM     65  C   UNL A   1      50.350  26.067  28.825  1.00  0.00     0.001 A 
ATOM     66  C   UNL A   1      50.783  25.510  30.027  1.00  0.00     0.000 A 
ENDBRANCH  47  61
BRANCH  48  67
ATOM     67  C   UNL A   1      38.593  29.215  29.032  1.00  0.00    -0.014 A 
ATOM     68  C   UNL A   1      38.108  29.705  27.810  1.00  0.00     0.009 A 
ATOM     69  C   UNL A   1      37.720  29.139  30.128  1.00  0.00     0.009 A 
ATOM     70  C   UNL A   1      36.784  30.131  27.692  1.00  0.00     0.001 A 
ATOM     71  C   UNL A   1      36.388  29.541  30.001  1.00  0.00     0.001 A 
ATOM     72  C   UNL A   1      35.924  30.044  28.786  1.00  0.00     0.000 A 
ENDBRANCH  48  67
BRANCH  60  73
ATOM     73  C   UNL A   1      44.410  32.497  30.963  1.00  0.00    -0.014 A 
ATOM     74  C   UNL A   1      44.682  33.518  30.038  1.00  0.00     0.009 A 
ATOM     75  C   UNL A   1      44.361  32.811  32.330  1.00  0.00     0.009 A 
ATOM     76  C   UNL A   1      44.939  34.817  30.479  1.00  0.00     0.001 A 
ATOM     77  C   UNL A   1      44.589  34.117  32.765  1.00  0.00     0.001 A 
ATOM     78  C   UNL A   1      44.888  35.116  31.841  1.00  0.00     0.000 A 
ENDBRANCH  60  73
ENDBRANCH  34  35
ENDBRANCH  26  29
ENDBRANCH  24  25
ENDBRANCH  23  24
ENDBRANCH  22  23
ENDBRANCH   1  22
TORSDOF 17
ENDMDL
MODEL 3
REMARK VINA RESULT:     -10.3      0.793      6.063
REMARK SMILES C[C@@](O)(c1cccc(O)c1)[C@@H](F)C(=O)NCCCCCCNC(=O)c1ccc(-c2c3nc(c(-c4ccccc4)c4ccc([nH]4)c(-c4ccccc4)c4nc(c(-c5ccccc5)c5ccc2[nH]5)C=C4)C=C3)cc1
REMARK SMILES IDX 18 1 17 2 16 3 15 4 13 5 14 6 11 8 12 9 2 10 1 11 3 12 4 14
REMARK SMILES IDX 5 15 10 16 6 17 8 18 7 19 9 20 19 22 20 23 21 24 22 25 23 26
REMARK SMILES IDX 24 28 25 29 26 30 72 31 27 32 71 33 28 34 29 35 30 36 65 37
REMARK SMILES IDX 31 38 70 39 64 40 66 41 32 42 69 43 63 44 62 45 33 47 55 48
REMARK SMILES IDX 40 49 54 50 41 51 44 52 53 53 67 54 42 55 43 56 52 58 68 59
REMARK SMILES IDX 45 60 34 61 35 62 39 63 36 64 38 65 37 66 56 67 57 68 61 69
REMARK SMILES IDX 58 70 60 71 59 72 46 73 47 74 51 75 48 76 50 77 49 78
REMARK H PARENT 15 7 3 13 9 21 22 27 66 46 44 57
REMARK Flexibility Score: inf
ROOT
ATOM      1  C   UNL A   1      37.004  22.000  24.015  1.00  0.00     0.002 C 
ENDROOT
BRANCH   1   2
ATOM      2  C   UNL A   1      37.006  23.278  24.854  1.00  0.00     0.021 C 
BRANCH   2   3
ATOM      3  C   UNL A   1      35.755  23.468  25.716  1.00  0.00     0.116 C 
BRANCH   3   4
ATOM      4  N   UNL A   1      35.021  24.644  25.288  1.00  0.00    -0.353 N 
ATOM      5  C   UNL A   1      34.157  24.800  24.243  1.00  0.00     0.257 C 
ATOM      6  O   UNL A   1      33.873  25.957  23.913  1.00  0.00    -0.272 OA
ATOM      7  H   UNL A   1      35.169  25.452  25.832  1.00  0.00     0.163 HD
BRANCH   5   8
ATOM      8  C   UNL A   1      33.594  23.611  23.460  1.00  0.00     0.291 C 
ATOM      9  F   UNL A   1      33.353  23.902  22.148  1.00  0.00    -0.233 F 
BRANCH   8  10
ATOM     10  C   UNL A   1      32.326  22.988  24.123  1.00  0.00     0.127 C 
ATOM     11  C   UNL A   1      31.052  23.506  23.437  1.00  0.00     0.051 C 
BRANCH  10  12
ATOM     12  O   UNL A   1      32.239  23.373  25.508  1.00  0.00    -0.382 OA
ATOM     13  H   UNL A   1      31.715  24.186  25.585  1.00  0.00     0.212 HD
ENDBRANCH  10  12
BRANCH  10  14
ATOM     14  C   UNL A   1      32.388  21.449  24.159  1.00  0.00    -0.010 A 
ATOM     15  C   UNL A   1      32.267  20.692  22.976  1.00  0.00     0.007 A 
ATOM     16  C   UNL A   1      32.630  20.732  25.347  1.00  0.00     0.053 A 
ATOM     17  C   UNL A   1      32.342  19.294  22.988  1.00  0.00     0.004 A 
ATOM     18  C   UNL A   1      32.715  19.340  25.350  1.00  0.00     0.115 A 
ATOM     19  C   UNL A   1      32.566  18.612  24.179  1.00  0.00     0.046 A 
BRANCH  18  20
ATOM     20  O   UNL A   1      32.958  18.726  26.544  1.00  0.00    -0.508 OA
ATOM     21  H   UNL A   1      32.982  17.791  26.593  1.00  0.00     0.293 HD
ENDBRANCH  18  20
ENDBRANCH  10  14
ENDBRANCH   8  10
ENDBRANCH   5   8
ENDBRANCH   3   4
ENDBRANCH   2   3
ENDBRANCH   1   2
BRANCH   1  22
ATOM     22  C   UNL A   1      36.568  20.739  24.765  1.00  0.00     0.002 C 
BRANCH  22  23
ATOM     23  C   UNL A   1      37.690  19.745  25.081  1.00  0.00     0.021 C 
BRANCH  23  24
ATOM     24  C   UNL A   1      38.945  20.360  25.694  1.00  0.00     0.116 C 
BRANCH  24  25
ATOM     25  N   UNL A   1      40.028  19.396  25.810  1.00  0.00    -0.352 N 
ATOM     26  C   UNL A   1      41.344  19.601  26.124  1.00  0.00     0.251 C 
ATOM     27  H   UNL A   1      39.778  18.460  25.636  1.00  0.00     0.163 HD
ATOM     28  O   UNL A   1      42.165  18.696  25.976  1.00  0.00    -0.269 OA
BRANCH  26  29
ATOM     29  C   UNL A   1      41.788  20.916  26.629  1.00  0.00     0.039 A 
ATOM     30  C   UNL A   1      42.210  21.883  25.713  1.00  0.00     0.014 A 
ATOM     31  C   UNL A   1      41.810  21.189  28.001  1.00  0.00     0.014 A 
ATOM     32  C   UNL A   1      42.609  23.139  26.169  1.00  0.00     0.010 A 
ATOM     33  C   UNL A   1      42.142  22.465  28.448  1.00  0.00     0.010 A 
ATOM     34  C   UNL A   1      42.555  23.449  27.538  1.00  0.00    -0.014 A 
BRANCH  34  35
ATOM     35  C   UNL A   1      42.932  24.797  28.029  1.00  0.00     0.031 A 
ATOM     36  C   UNL A   1      41.878  25.842  28.269  1.00  0.00     0.074 A 
ATOM     37  C   UNL A   1      44.232  25.095  28.217  1.00  0.00     0.049 A 
ATOM     38  N   UNL A   1      42.016  27.071  28.698  1.00  0.00    -0.248 NA
ATOM     39  C   UNL A   1      40.487  25.464  27.966  1.00  0.00     0.031 C 
ATOM     40  C   UNL A   1      45.354  24.184  27.983  1.00  0.00     0.029 A 
ATOM     41  N   UNL A   1      44.827  26.252  28.653  1.00  0.00    -0.354 N 
ATOM     42  C   UNL A   1      40.739  27.618  28.696  1.00  0.00     0.074 A 
ATOM     43  C   UNL A   1      39.846  26.603  28.180  1.00  0.00     0.031 C 
ATOM     44  C   UNL A   1      46.497  24.801  28.319  1.00  0.00     0.029 A 
ATOM     45  C   UNL A   1      46.193  26.160  28.757  1.00  0.00     0.049 A 
ATOM     46  H   UNL A   1      44.324  27.068  28.872  1.00  0.00     0.167 HD
ATOM     47  C   UNL A   1      40.340  28.847  29.103  1.00  0.00     0.031 A 
ATOM     48  C   UNL A   1      47.100  27.066  29.166  1.00  0.00     0.031 A 
ATOM     49  C   UNL A   1      41.227  29.852  29.627  1.00  0.00     0.049 A 
ATOM     50  C   UNL A   1      46.635  28.425  29.603  1.00  0.00     0.074 A 
ATOM     51  C   UNL A   1      40.913  31.100  30.134  1.00  0.00     0.029 A 
ATOM     52  N   UNL A   1      42.605  29.725  29.702  1.00  0.00    -0.354 N 
ATOM     53  N   UNL A   1      45.414  28.899  29.675  1.00  0.00    -0.248 NA
ATOM     54  C   UNL A   1      47.677  29.372  30.028  1.00  0.00     0.031 C 
ATOM     55  C   UNL A   1      42.106  31.751  30.467  1.00  0.00     0.029 A 
ATOM     56  C   UNL A   1      43.159  30.885  30.218  1.00  0.00     0.049 A 
ATOM     57  H   UNL A   1      43.115  28.929  29.429  1.00  0.00     0.167 HD
ATOM     58  C   UNL A   1      45.538  30.188  30.179  1.00  0.00     0.074 A 
ATOM     59  C   UNL A   1      46.950  30.414  30.408  1.00  0.00     0.031 C 
ATOM     60  C   UNL A   1      44.567  31.099  30.431  1.00  0.00     0.031 A 
BRANCH  47  61
ATOM     61  C   UNL A   1      38.878  29.174  28.976  1.00  0.00    -0.014 A 
ATOM     62  C   UNL A   1      38.348  29.706  27.789  1.00  0.00     0.009 A 
ATOM     63  C   UNL A   1      38.013  28.931  30.054  1.00  0.00     0.009 A 
ATOM     64  C   UNL A   1      36.992  30.033  27.703  1.00  0.00     0.001 A 
ATOM     65  C   UNL A   1      36.653  29.231  29.955  1.00  0.00     0.001 A 
ATOM     66  C   UNL A   1      36.146  29.792  28.785  1.00  0.00     0.000 A 
ENDBRANCH  47  61
BRANCH  48  67
ATOM     67  C   UNL A   1      48.539  26.703  29.223  1.00  0.00    -0.014 A 
ATOM     68  C   UNL A   1      49.355  26.873  28.094  1.00  0.00     0.009 A 
ATOM     69  C   UNL A   1      49.106  26.191  30.400  1.00  0.00     0.009 A 
ATOM     70  C   UNL A   1      50.704  26.516  28.134  1.00  0.00     0.001 A 
ATOM     71  C   UNL A   1      50.463  25.859  30.445  1.00  0.00     0.001 A 
ATOM     72  C   UNL A   1      51.257  26.014  29.310  1.00  0.00     0.000 A 
ENDBRANCH  48  67
BRANCH  60  73
ATOM     73  C   UNL A   1      45.004  32.415  31.014  1.00  0.00    -0.014 A 
ATOM     74  C   UNL A   1      45.119  32.596  32.401  1.00  0.00     0.009 A 
ATOM     75  C   UNL A   1      45.324  33.481  30.159  1.00  0.00     0.009 A 
ATOM     76  C   UNL A   1      45.509  33.832  32.920  1.00  0.00     0.001 A 
ATOM     77  C   UNL A   1      45.742  34.705  30.679  1.00  0.00     0.001 A 
ATOM     78  C   UNL A   1      45.823  34.883  32.060  1.00  0.00     0.000 A 
ENDBRANCH  60  73
ENDBRANCH  34  35
ENDBRANCH  26  29
ENDBRANCH  24  25
ENDBRANCH  23  24
ENDBRANCH  22  23
ENDBRANCH   1  22
TORSDOF 17
ENDMDL
