MODEL 1
REMARK VINA RESULT:     -10.5      0.000      0.000
REMARK SMILES CC(C)(C)SCC(=O)N1CC(n2cc(C(=O)NCCCCCCNC(=O)c3ccc(-c4c5nc(c(-c6ccccc6)c6ccc([nH]6)c(-c6ccccc6)c6nc(c(-c7ccccc7)c7ccc4[nH]7)C=C6)C=C5)cc3)nn2)C1
REMARK SMILES IDX 19 1 18 2 17 3 15 4 16 5 14 7 12 8 13 9 76 10 75 11 11 12
REMARK SMILES IDX 7 13 8 14 9 15 10 16 77 17 6 18 5 19 2 20 1 21 3 22 4 23
REMARK SMILES IDX 20 24 21 25 22 26 23 27 24 28 25 29 26 31 27 32 28 33 74 34
REMARK SMILES IDX 29 35 73 36 30 37 31 38 32 39 67 40 33 41 72 42 66 43 68 44
REMARK SMILES IDX 34 45 71 46 65 47 64 48 35 50 57 51 42 52 56 53 43 54 46 55
REMARK SMILES IDX 55 56 69 57 44 58 45 59 54 61 70 62 47 63 36 64 37 65 41 66
REMARK SMILES IDX 38 67 40 68 39 69 58 70 59 71 63 72 60 73 62 74 61 75 48 76
REMARK SMILES IDX 49 77 53 78 50 79 52 80 51 81
REMARK H PARENT 17 6 24 30 68 49 46 60
REMARK Flexibility Score: inf
ROOT
ATOM      1  C   UNL A   1      43.757  23.073  24.664  1.00  0.00     0.021 C 
ENDROOT
BRANCH   1   2
ATOM      2  C   UNL A   1      42.485  23.366  25.458  1.00  0.00     0.116 C 
BRANCH   2   3
ATOM      3  N   UNL A   1      42.226  22.320  26.427  1.00  0.00    -0.351 N 
ATOM      4  C   UNL A   1      41.063  21.764  26.905  1.00  0.00     0.273 C 
ATOM      5  O   UNL A   1      41.188  20.806  27.668  1.00  0.00    -0.267 OA
ATOM      6  H   UNL A   1      43.041  21.935  26.820  1.00  0.00     0.163 HD
BRANCH   4   7
ATOM      7  C   UNL A   1      39.750  22.258  26.501  1.00  0.00     0.170 A 
ATOM      8  N   UNL A   1      37.717  22.569  25.802  1.00  0.00    -0.245 N 
ATOM      9  C   UNL A   1      38.749  21.674  25.754  1.00  0.00     0.145 A 
ATOM     10  N   UNL A   1      38.072  23.687  26.442  1.00  0.00    -0.066 NA
ATOM     11  N   UNL A   1      39.324  23.526  26.851  1.00  0.00    -0.125 NA
BRANCH   8  12
ATOM     12  C   UNL A   1      36.417  22.267  25.304  1.00  0.00     0.148 C 
ATOM     13  C   UNL A   1      33.690  20.526  25.074  1.00  0.00     0.232 C 
ATOM     14  O   UNL A   1      32.697  21.234  25.264  1.00  0.00    -0.274 OA
ATOM     15  N   UNL A   1      34.918  20.920  25.522  1.00  0.00    -0.338 N 
ATOM     16  C   UNL A   1      35.286  22.091  26.321  1.00  0.00     0.148 C 
ATOM     17  C   UNL A   1      36.275  20.745  25.039  1.00  0.00     0.148 C 
BRANCH  13  18
ATOM     18  C   UNL A   1      33.524  19.131  24.495  1.00  0.00     0.170 C 
BRANCH  18  19
ATOM     19  S   UNL A   1      32.868  17.835  25.581  1.00  0.00    -0.146 SA
BRANCH  19  20
ATOM     20  C   UNL A   1      33.606  16.272  24.926  1.00  0.00     0.008 C 
ATOM     21  C   UNL A   1      33.674  16.473  23.399  1.00  0.00     0.022 C 
ATOM     22  C   UNL A   1      32.714  15.064  25.223  1.00  0.00     0.022 C 
ATOM     23  C   UNL A   1      35.024  16.041  25.456  1.00  0.00     0.022 C 
ENDBRANCH  19  20
ENDBRANCH  18  19
ENDBRANCH  13  18
ENDBRANCH   8  12
ENDBRANCH   4   7
ENDBRANCH   2   3
ENDBRANCH   1   2
BRANCH   1  24
ATOM     24  C   UNL A   1      44.636  21.982  25.292  1.00  0.00     0.002 C 
BRANCH  24  25
ATOM     25  C   UNL A   1      45.820  22.486  26.137  1.00  0.00     0.002 C 
BRANCH  25  26
ATOM     26  C   UNL A   1      46.047  24.005  26.154  1.00  0.00     0.021 C 
BRANCH  26  27
ATOM     27  C   UNL A   1      45.763  24.640  27.504  1.00  0.00     0.116 C 
BRANCH  27  28
ATOM     28  N   UNL A   1      45.030  23.742  28.398  1.00  0.00    -0.352 N 
ATOM     29  C   UNL A   1      44.116  24.060  29.388  1.00  0.00     0.251 C 
ATOM     30  H   UNL A   1      45.212  22.781  28.279  1.00  0.00     0.163 HD
ATOM     31  O   UNL A   1      43.855  23.278  30.286  1.00  0.00    -0.269 OA
BRANCH  29  32
ATOM     32  C   UNL A   1      43.439  25.366  29.314  1.00  0.00     0.039 A 
ATOM     33  C   UNL A   1      42.486  25.663  28.335  1.00  0.00     0.014 A 
ATOM     34  C   UNL A   1      43.782  26.304  30.281  1.00  0.00     0.014 A 
ATOM     35  C   UNL A   1      41.853  26.903  28.377  1.00  0.00     0.010 A 
ATOM     36  C   UNL A   1      43.004  27.408  30.459  1.00  0.00     0.010 A 
ATOM     37  C   UNL A   1      42.124  27.765  29.450  1.00  0.00    -0.014 A 
BRANCH  37  38
ATOM     38  C   UNL A   1      41.444  29.036  29.629  1.00  0.00     0.031 A 
ATOM     39  C   UNL A   1      42.311  30.211  29.370  1.00  0.00     0.074 A 
ATOM     40  C   UNL A   1      40.097  29.107  29.721  1.00  0.00     0.049 A 
ATOM     41  N   UNL A   1      42.747  31.067  30.229  1.00  0.00    -0.248 NA
ATOM     42  C   UNL A   1      42.905  30.355  28.028  1.00  0.00     0.031 C 
ATOM     43  C   UNL A   1      39.115  28.015  29.619  1.00  0.00     0.029 A 
ATOM     44  N   UNL A   1      39.299  30.203  29.789  1.00  0.00    -0.354 N 
ATOM     45  C   UNL A   1      43.482  31.993  29.497  1.00  0.00     0.074 A 
ATOM     46  C   UNL A   1      43.733  31.385  28.217  1.00  0.00     0.031 C 
ATOM     47  C   UNL A   1      37.885  28.527  29.385  1.00  0.00     0.029 A 
ATOM     48  C   UNL A   1      37.960  29.973  29.486  1.00  0.00     0.049 A 
ATOM     49  H   UNL A   1      39.641  31.092  30.036  1.00  0.00     0.167 HD
ATOM     50  C   UNL A   1      43.559  33.295  29.891  1.00  0.00     0.031 A 
ATOM     51  C   UNL A   1      36.996  30.910  29.298  1.00  0.00     0.031 A 
ATOM     52  C   UNL A   1      43.075  33.459  31.240  1.00  0.00     0.049 A 
ATOM     53  C   UNL A   1      37.501  32.177  29.882  1.00  0.00     0.074 A 
ATOM     54  C   UNL A   1      43.434  32.947  32.471  1.00  0.00     0.029 A 
ATOM     55  N   UNL A   1      41.787  33.920  31.377  1.00  0.00    -0.354 N 
ATOM     56  N   UNL A   1      37.703  32.342  31.158  1.00  0.00    -0.248 NA
ATOM     57  C   UNL A   1      38.249  33.069  29.009  1.00  0.00     0.031 C 
ATOM     58  C   UNL A   1      42.196  32.690  33.131  1.00  0.00     0.029 A 
ATOM     59  C   UNL A   1      41.158  33.146  32.315  1.00  0.00     0.049 A 
ATOM     60  H   UNL A   1      41.387  34.674  30.886  1.00  0.00     0.167 HD
ATOM     61  C   UNL A   1      38.910  33.022  31.237  1.00  0.00     0.074 A 
ATOM     62  C   UNL A   1      39.154  33.521  29.882  1.00  0.00     0.031 C 
ATOM     63  C   UNL A   1      39.741  32.857  32.308  1.00  0.00     0.031 A 
BRANCH  50  64
ATOM     64  C   UNL A   1      43.620  34.462  28.934  1.00  0.00    -0.014 A 
ATOM     65  C   UNL A   1      44.798  35.230  28.898  1.00  0.00     0.009 A 
ATOM     66  C   UNL A   1      42.492  35.008  28.293  1.00  0.00     0.009 A 
ATOM     67  C   UNL A   1      44.816  36.512  28.337  1.00  0.00     0.001 A 
ATOM     68  C   UNL A   1      42.518  36.270  27.695  1.00  0.00     0.001 A 
ATOM     69  C   UNL A   1      43.671  37.036  27.746  1.00  0.00     0.000 A 
ENDBRANCH  50  64
BRANCH  51  70
ATOM     70  C   UNL A   1      35.809  30.874  28.410  1.00  0.00    -0.014 A 
ATOM     71  C   UNL A   1      35.360  29.669  27.843  1.00  0.00     0.009 A 
ATOM     72  C   UNL A   1      34.948  31.985  28.340  1.00  0.00     0.009 A 
ATOM     73  C   UNL A   1      34.089  29.574  27.257  1.00  0.00     0.001 A 
ATOM     74  C   UNL A   1      33.678  31.889  27.757  1.00  0.00     0.001 A 
ATOM     75  C   UNL A   1      33.243  30.680  27.226  1.00  0.00     0.000 A 
ENDBRANCH  51  70
BRANCH  63  76
ATOM     76  C   UNL A   1      39.219  32.108  33.510  1.00  0.00    -0.014 A 
ATOM     77  C   UNL A   1      39.310  30.711  33.657  1.00  0.00     0.009 A 
ATOM     78  C   UNL A   1      38.795  32.866  34.611  1.00  0.00     0.009 A 
ATOM     79  C   UNL A   1      38.975  30.097  34.870  1.00  0.00     0.001 A 
ATOM     80  C   UNL A   1      38.481  32.256  35.825  1.00  0.00     0.001 A 
ATOM     81  C   UNL A   1      38.568  30.872  35.955  1.00  0.00     0.000 A 
ENDBRANCH  63  76
ENDBRANCH  37  38
ENDBRANCH  29  32
ENDBRANCH  27  28
ENDBRANCH  26  27
ENDBRANCH  25  26
ENDBRANCH  24  25
ENDBRANCH   1  24
TORSDOF 17
ENDMDL
MODEL 2
REMARK VINA RESULT:     -10.3      5.838     13.152
REMARK SMILES CC(C)(C)SCC(=O)N1CC(n2cc(C(=O)NCCCCCCNC(=O)c3ccc(-c4c5nc(c(-c6ccccc6)c6ccc([nH]6)c(-c6ccccc6)c6nc(c(-c7ccccc7)c7ccc4[nH]7)C=C6)C=C5)cc3)nn2)C1
REMARK SMILES IDX 19 1 18 2 17 3 15 4 16 5 14 7 12 8 13 9 76 10 75 11 11 12
REMARK SMILES IDX 7 13 8 14 9 15 10 16 77 17 6 18 5 19 2 20 1 21 3 22 4 23
REMARK SMILES IDX 20 24 21 25 22 26 23 27 24 28 25 29 26 31 27 32 28 33 74 34
REMARK SMILES IDX 29 35 73 36 30 37 31 38 32 39 67 40 33 41 72 42 66 43 68 44
REMARK SMILES IDX 34 45 71 46 65 47 64 48 35 50 57 51 42 52 56 53 43 54 46 55
REMARK SMILES IDX 55 56 69 57 44 58 45 59 54 61 70 62 47 63 36 64 37 65 41 66
REMARK SMILES IDX 38 67 40 68 39 69 58 70 59 71 63 72 60 73 62 74 61 75 48 76
REMARK SMILES IDX 49 77 53 78 50 79 52 80 51 81
REMARK H PARENT 17 6 24 30 68 49 46 60
REMARK Flexibility Score: inf
ROOT
ATOM      1  C   UNL A   1      35.782  33.844  33.443  1.00  0.00     0.021 C 
ENDROOT
BRANCH   1   2
ATOM      2  C   UNL A   1      35.941  33.787  34.962  1.00  0.00     0.116 C 
BRANCH   2   3
ATOM      3  N   UNL A   1      37.253  34.254  35.363  1.00  0.00    -0.351 N 
ATOM      4  C   UNL A   1      38.120  33.851  36.351  1.00  0.00     0.273 C 
ATOM      5  O   UNL A   1      39.221  34.400  36.370  1.00  0.00    -0.267 OA
ATOM      6  H   UNL A   1      37.587  35.006  34.824  1.00  0.00     0.163 HD
BRANCH   4   7
ATOM      7  C   UNL A   1      37.768  32.802  37.304  1.00  0.00     0.170 A 
ATOM      8  N   UNL A   1      37.051  31.573  38.945  1.00  0.00    -0.245 N 
ATOM      9  C   UNL A   1      37.310  32.871  38.603  1.00  0.00     0.145 A 
ATOM     10  N   UNL A   1      37.418  30.731  37.974  1.00  0.00    -0.066 NA
ATOM     11  N   UNL A   1      37.887  31.465  36.973  1.00  0.00    -0.125 NA
BRANCH   8  12
ATOM     12  C   UNL A   1      36.385  31.218  40.153  1.00  0.00     0.148 C 
ATOM     13  C   UNL A   1      35.180  31.765  43.114  1.00  0.00     0.232 C 
ATOM     14  O   UNL A   1      33.992  31.434  43.176  1.00  0.00    -0.274 OA
ATOM     15  N   UNL A   1      35.767  32.022  41.908  1.00  0.00    -0.338 N 
ATOM     16  C   UNL A   1      35.170  32.050  40.571  1.00  0.00     0.148 C 
ATOM     17  C   UNL A   1      37.104  31.845  41.376  1.00  0.00     0.148 C 
BRANCH  13  18
ATOM     18  C   UNL A   1      35.949  32.061  44.391  1.00  0.00     0.170 C 
BRANCH  18  19
ATOM     19  S   UNL A   1      36.483  30.655  45.404  1.00  0.00    -0.146 SA
BRANCH  19  20
ATOM     20  C   UNL A   1      38.268  30.435  44.978  1.00  0.00     0.008 C 
ATOM     21  C   UNL A   1      38.270  29.554  43.714  1.00  0.00     0.022 C 
ATOM     22  C   UNL A   1      39.023  29.701  46.090  1.00  0.00     0.022 C 
ATOM     23  C   UNL A   1      38.947  31.768  44.651  1.00  0.00     0.022 C 
ENDBRANCH  19  20
ENDBRANCH  18  19
ENDBRANCH  13  18
ENDBRANCH   8  12
ENDBRANCH   4   7
ENDBRANCH   2   3
ENDBRANCH   1   2
BRANCH   1  24
ATOM     24  C   UNL A   1      35.631  35.269  32.893  1.00  0.00     0.002 C 
BRANCH  24  25
ATOM     25  C   UNL A   1      34.394  36.043  33.381  1.00  0.00     0.002 C 
BRANCH  25  26
ATOM     26  C   UNL A   1      33.142  35.955  32.495  1.00  0.00     0.021 C 
BRANCH  26  27
ATOM     27  C   UNL A   1      33.359  36.494  31.092  1.00  0.00     0.116 C 
BRANCH  27  28
ATOM     28  N   UNL A   1      32.603  35.745  30.086  1.00  0.00    -0.352 N 
ATOM     29  C   UNL A   1      33.060  34.795  29.188  1.00  0.00     0.251 C 
ATOM     30  H   UNL A   1      31.640  35.945  30.041  1.00  0.00     0.163 HD
ATOM     31  O   UNL A   1      32.430  34.517  28.183  1.00  0.00    -0.269 OA
BRANCH  29  32
ATOM     32  C   UNL A   1      34.323  34.102  29.494  1.00  0.00     0.039 A 
ATOM     33  C   UNL A   1      34.378  32.967  30.308  1.00  0.00     0.014 A 
ATOM     34  C   UNL A   1      35.477  34.624  28.921  1.00  0.00     0.014 A 
ATOM     35  C   UNL A   1      35.608  32.341  30.495  1.00  0.00     0.010 A 
ATOM     36  C   UNL A   1      36.622  33.886  28.913  1.00  0.00     0.010 A 
ATOM     37  C   UNL A   1      36.723  32.815  29.786  1.00  0.00    -0.014 A 
BRANCH  37  38
ATOM     38  C   UNL A   1      38.023  32.170  29.844  1.00  0.00     0.031 A 
ATOM     39  C   UNL A   1      38.028  30.797  29.283  1.00  0.00     0.074 A 
ATOM     40  C   UNL A   1      39.147  32.876  30.103  1.00  0.00     0.049 A 
ATOM     41  N   UNL A   1      38.177  29.689  29.925  1.00  0.00    -0.248 NA
ATOM     42  C   UNL A   1      37.651  30.622  27.868  1.00  0.00     0.031 C 
ATOM     43  C   UNL A   1      39.288  34.325  30.313  1.00  0.00     0.029 A 
ATOM     44  N   UNL A   1      40.440  32.461  30.098  1.00  0.00    -0.354 N 
ATOM     45  C   UNL A   1      38.146  28.689  28.960  1.00  0.00     0.074 A 
ATOM     46  C   UNL A   1      37.596  29.292  27.774  1.00  0.00     0.031 C 
ATOM     47  C   UNL A   1      40.584  34.685  30.165  1.00  0.00     0.029 A 
ATOM     48  C   UNL A   1      41.383  33.482  30.018  1.00  0.00     0.049 A 
ATOM     49  H   UNL A   1      40.692  31.511  30.148  1.00  0.00     0.167 HD
ATOM     50  C   UNL A   1      38.853  27.536  29.122  1.00  0.00     0.031 A 
ATOM     51  C   UNL A   1      42.717  33.343  29.810  1.00  0.00     0.031 A 
ATOM     52  C   UNL A   1      39.325  27.404  30.479  1.00  0.00     0.049 A 
ATOM     53  C   UNL A   1      43.058  31.930  30.107  1.00  0.00     0.074 A 
ATOM     54  C   UNL A   1      38.719  27.339  31.718  1.00  0.00     0.029 A 
ATOM     55  N   UNL A   1      40.634  27.758  30.710  1.00  0.00    -0.354 N 
ATOM     56  N   UNL A   1      42.980  31.414  31.300  1.00  0.00    -0.248 NA
ATOM     57  C   UNL A   1      42.997  30.978  29.008  1.00  0.00     0.031 C 
ATOM     58  C   UNL A   1      39.554  28.120  32.570  1.00  0.00     0.029 A 
ATOM     59  C   UNL A   1      40.668  28.534  31.838  1.00  0.00     0.049 A 
ATOM     60  H   UNL A   1      41.409  27.500  30.161  1.00  0.00     0.167 HD
ATOM     61  C   UNL A   1      42.413  30.162  31.105  1.00  0.00     0.074 A 
ATOM     62  C   UNL A   1      42.529  29.914  29.667  1.00  0.00     0.031 C 
ATOM     63  C   UNL A   1      41.636  29.585  32.067  1.00  0.00     0.031 A 
BRANCH  50  64
ATOM     64  C   UNL A   1      39.509  26.785  27.989  1.00  0.00    -0.014 A 
ATOM     65  C   UNL A   1      39.384  25.384  27.962  1.00  0.00     0.009 A 
ATOM     66  C   UNL A   1      40.470  27.347  27.127  1.00  0.00     0.009 A 
ATOM     67  C   UNL A   1      40.239  24.589  27.189  1.00  0.00     0.001 A 
ATOM     68  C   UNL A   1      41.297  26.560  26.324  1.00  0.00     0.001 A 
ATOM     69  C   UNL A   1      41.204  25.179  26.379  1.00  0.00     0.000 A 
ENDBRANCH  50  64
BRANCH  51  70
ATOM     70  C   UNL A   1      43.659  34.247  29.108  1.00  0.00    -0.014 A 
ATOM     71  C   UNL A   1      43.627  34.388  27.711  1.00  0.00     0.009 A 
ATOM     72  C   UNL A   1      44.412  35.184  29.839  1.00  0.00     0.009 A 
ATOM     73  C   UNL A   1      44.298  35.445  27.075  1.00  0.00     0.001 A 
ATOM     74  C   UNL A   1      45.079  36.239  29.205  1.00  0.00     0.001 A 
ATOM     75  C   UNL A   1      45.013  36.378  27.823  1.00  0.00     0.000 A 
ENDBRANCH  51  70
BRANCH  63  76
ATOM     76  C   UNL A   1      41.597  30.224  33.434  1.00  0.00    -0.014 A 
ATOM     77  C   UNL A   1      42.425  29.831  34.502  1.00  0.00     0.009 A 
ATOM     78  C   UNL A   1      40.829  31.388  33.583  1.00  0.00     0.009 A 
ATOM     79  C   UNL A   1      42.471  30.581  35.684  1.00  0.00     0.001 A 
ATOM     80  C   UNL A   1      40.890  32.146  34.752  1.00  0.00     0.001 A 
ATOM     81  C   UNL A   1      41.708  31.742  35.804  1.00  0.00     0.000 A 
ENDBRANCH  63  76
ENDBRANCH  37  38
ENDBRANCH  29  32
ENDBRANCH  27  28
ENDBRANCH  26  27
ENDBRANCH  25  26
ENDBRANCH  24  25
ENDBRANCH   1  24
TORSDOF 17
ENDMDL
MODEL 3
REMARK VINA RESULT:     -10.1      3.902      9.844
REMARK SMILES CC(C)(C)SCC(=O)N1CC(n2cc(C(=O)NCCCCCCNC(=O)c3ccc(-c4c5nc(c(-c6ccccc6)c6ccc([nH]6)c(-c6ccccc6)c6nc(c(-c7ccccc7)c7ccc4[nH]7)C=C6)C=C5)cc3)nn2)C1
REMARK SMILES IDX 19 1 18 2 17 3 15 4 16 5 14 7 12 8 13 9 76 10 75 11 11 12
REMARK SMILES IDX 7 13 8 14 9 15 10 16 77 17 6 18 5 19 2 20 1 21 3 22 4 23
REMARK SMILES IDX 20 24 21 25 22 26 23 27 24 28 25 29 26 31 27 32 28 33 74 34
REMARK SMILES IDX 29 35 73 36 30 37 31 38 32 39 67 40 33 41 72 42 66 43 68 44
REMARK SMILES IDX 34 45 71 46 65 47 64 48 35 50 57 51 42 52 56 53 43 54 46 55
REMARK SMILES IDX 55 56 69 57 44 58 45 59 54 61 70 62 47 63 36 64 37 65 41 66
REMARK SMILES IDX 38 67 40 68 39 69 58 70 59 71 63 72 60 73 62 74 61 75 48 76
REMARK SMILES IDX 49 77 53 78 50 79 52 80 51 81
REMARK H PARENT 17 6 24 30 68 49 46 60
REMARK Flexibility Score: inf
ROOT
ATOM      1  C   UNL A   1      36.234  32.348  33.188  1.00  0.00     0.021 C 
ENDROOT
BRANCH   1   2
ATOM      2  C   UNL A   1      35.660  31.952  31.828  1.00  0.00     0.116 C 
BRANCH   2   3
ATOM      3  N   UNL A   1      35.638  33.086  30.926  1.00  0.00    -0.351 N 
ATOM      4  C   UNL A   1      35.406  33.193  29.575  1.00  0.00     0.273 C 
ATOM      5  O   UNL A   1      35.362  34.335  29.116  1.00  0.00    -0.267 OA
ATOM      6  H   UNL A   1      35.826  33.945  31.366  1.00  0.00     0.163 HD
BRANCH   4   7
ATOM      7  C   UNL A   1      35.188  32.019  28.735  1.00  0.00     0.170 A 
ATOM      8  N   UNL A   1      34.487  30.477  27.375  1.00  0.00    -0.245 N 
ATOM      9  C   UNL A   1      34.056  31.553  28.100  1.00  0.00     0.145 A 
ATOM     10  N   UNL A   1      35.774  30.213  27.615  1.00  0.00    -0.066 NA
ATOM     11  N   UNL A   1      36.212  31.129  28.469  1.00  0.00    -0.125 NA
BRANCH   8  12
ATOM     12  C   UNL A   1      33.658  29.812  26.426  1.00  0.00     0.148 C 
ATOM     13  C   UNL A   1      31.721  27.434  25.373  1.00  0.00     0.232 C 
ATOM     14  O   UNL A   1      30.653  27.888  24.951  1.00  0.00    -0.274 OA
ATOM     15  N   UNL A   1      32.495  28.164  26.228  1.00  0.00    -0.338 N 
ATOM     16  C   UNL A   1      32.228  29.465  26.845  1.00  0.00     0.148 C 
ATOM     17  C   UNL A   1      33.924  28.284  26.446  1.00  0.00     0.148 C 
BRANCH  13  18
ATOM     18  C   UNL A   1      32.094  25.990  25.083  1.00  0.00     0.170 C 
BRANCH  18  19
ATOM     19  S   UNL A   1      32.162  25.464  23.349  1.00  0.00    -0.146 SA
BRANCH  19  20
ATOM     20  C   UNL A   1      33.083  23.861  23.392  1.00  0.00     0.008 C 
ATOM     21  C   UNL A   1      34.462  24.211  23.983  1.00  0.00     0.022 C 
ATOM     22  C   UNL A   1      33.280  23.291  21.985  1.00  0.00     0.022 C 
ATOM     23  C   UNL A   1      32.402  22.835  24.301  1.00  0.00     0.022 C 
ENDBRANCH  19  20
ENDBRANCH  18  19
ENDBRANCH  13  18
ENDBRANCH   8  12
ENDBRANCH   4   7
ENDBRANCH   2   3
ENDBRANCH   1   2
BRANCH   1  24
ATOM     24  C   UNL A   1      36.226  33.862  33.442  1.00  0.00     0.002 C 
BRANCH  24  25
ATOM     25  C   UNL A   1      37.540  34.453  33.983  1.00  0.00     0.002 C 
BRANCH  25  26
ATOM     26  C   UNL A   1      38.742  33.498  34.046  1.00  0.00     0.021 C 
BRANCH  26  27
ATOM     27  C   UNL A   1      39.852  33.863  33.076  1.00  0.00     0.116 C 
BRANCH  27  28
ATOM     28  N   UNL A   1      39.336  34.268  31.767  1.00  0.00    -0.352 N 
ATOM     29  C   UNL A   1      39.578  33.702  30.527  1.00  0.00     0.251 C 
ATOM     30  H   UNL A   1      38.735  35.048  31.769  1.00  0.00     0.163 HD
ATOM     31  O   UNL A   1      39.394  34.327  29.498  1.00  0.00    -0.269 OA
BRANCH  29  32
ATOM     32  C   UNL A   1      40.041  32.304  30.480  1.00  0.00     0.039 A 
ATOM     33  C   UNL A   1      39.174  31.220  30.643  1.00  0.00     0.014 A 
ATOM     34  C   UNL A   1      41.398  32.103  30.253  1.00  0.00     0.014 A 
ATOM     35  C   UNL A   1      39.689  29.932  30.524  1.00  0.00     0.010 A 
ATOM     36  C   UNL A   1      41.849  30.865  29.909  1.00  0.00     0.010 A 
ATOM     37  C   UNL A   1      41.033  29.772  30.154  1.00  0.00    -0.014 A 
BRANCH  37  38
ATOM     38  C   UNL A   1      41.634  28.472  29.915  1.00  0.00     0.031 A 
ATOM     39  C   UNL A   1      42.393  27.949  31.078  1.00  0.00     0.074 A 
ATOM     40  C   UNL A   1      41.271  27.712  28.858  1.00  0.00     0.049 A 
ATOM     41  N   UNL A   1      43.668  27.794  31.176  1.00  0.00    -0.248 NA
ATOM     42  C   UNL A   1      41.667  27.735  32.344  1.00  0.00     0.031 C 
ATOM     43  C   UNL A   1      40.246  27.993  27.840  1.00  0.00     0.029 A 
ATOM     44  N   UNL A   1      41.650  26.448  28.539  1.00  0.00    -0.354 N 
ATOM     45  C   UNL A   1      43.885  27.243  32.433  1.00  0.00     0.074 A 
ATOM     46  C   UNL A   1      42.669  27.447  33.176  1.00  0.00     0.031 C 
ATOM     47  C   UNL A   1      39.922  26.851  27.191  1.00  0.00     0.029 A 
ATOM     48  C   UNL A   1      40.826  25.801  27.624  1.00  0.00     0.049 A 
ATOM     49  H   UNL A   1      42.449  26.021  28.926  1.00  0.00     0.167 HD
ATOM     50  C   UNL A   1      44.931  26.399  32.658  1.00  0.00     0.031 A 
ATOM     51  C   UNL A   1      40.865  24.488  27.279  1.00  0.00     0.031 A 
ATOM     52  C   UNL A   1      45.872  26.436  31.565  1.00  0.00     0.049 A 
ATOM     53  C   UNL A   1      42.184  23.965  27.710  1.00  0.00     0.074 A 
ATOM     54  C   UNL A   1      46.644  27.418  30.978  1.00  0.00     0.029 A 
ATOM     55  N   UNL A   1      45.779  25.419  30.643  1.00  0.00    -0.354 N 
ATOM     56  N   UNL A   1      43.310  24.351  27.181  1.00  0.00    -0.248 NA
ATOM     57  C   UNL A   1      42.280  23.403  29.048  1.00  0.00     0.031 C 
ATOM     58  C   UNL A   1      46.567  27.152  29.579  1.00  0.00     0.029 A 
ATOM     59  C   UNL A   1      45.840  25.975  29.393  1.00  0.00     0.049 A 
ATOM     60  H   UNL A   1      45.686  24.460  30.846  1.00  0.00     0.167 HD
ATOM     61  C   UNL A   1      44.169  24.506  28.261  1.00  0.00     0.074 A 
ATOM     62  C   UNL A   1      43.507  23.822  29.373  1.00  0.00     0.031 C 
ATOM     63  C   UNL A   1      45.178  25.425  28.230  1.00  0.00     0.031 A 
BRANCH  50  64
ATOM     64  C   UNL A   1      44.875  25.223  33.603  1.00  0.00    -0.014 A 
ATOM     65  C   UNL A   1      43.953  24.196  33.330  1.00  0.00     0.009 A 
ATOM     66  C   UNL A   1      45.466  25.215  34.881  1.00  0.00     0.009 A 
ATOM     67  C   UNL A   1      43.573  23.275  34.314  1.00  0.00     0.001 A 
ATOM     68  C   UNL A   1      45.120  24.273  35.852  1.00  0.00     0.001 A 
ATOM     69  C   UNL A   1      44.149  23.323  35.579  1.00  0.00     0.000 A 
ENDBRANCH  50  64
BRANCH  51  70
ATOM     70  C   UNL A   1      39.758  23.589  26.872  1.00  0.00    -0.014 A 
ATOM     71  C   UNL A   1      38.497  24.099  26.522  1.00  0.00     0.009 A 
ATOM     72  C   UNL A   1      40.024  22.243  26.560  1.00  0.00     0.009 A 
ATOM     73  C   UNL A   1      37.551  23.300  25.860  1.00  0.00     0.001 A 
ATOM     74  C   UNL A   1      39.082  21.447  25.898  1.00  0.00     0.001 A 
ATOM     75  C   UNL A   1      37.849  21.979  25.536  1.00  0.00     0.000 A 
ENDBRANCH  51  70
BRANCH  63  76
ATOM     76  C   UNL A   1      45.488  26.104  26.918  1.00  0.00    -0.014 A 
ATOM     77  C   UNL A   1      44.875  27.297  26.494  1.00  0.00     0.009 A 
ATOM     78  C   UNL A   1      46.576  25.616  26.179  1.00  0.00     0.009 A 
ATOM     79  C   UNL A   1      45.336  27.972  25.357  1.00  0.00     0.001 A 
ATOM     80  C   UNL A   1      47.048  26.300  25.059  1.00  0.00     0.001 A 
ATOM     81  C   UNL A   1      46.428  27.476  24.646  1.00  0.00     0.000 A 
ENDBRANCH  63  76
ENDBRANCH  37  38
ENDBRANCH  29  32
ENDBRANCH  27  28
ENDBRANCH  26  27
ENDBRANCH  25  26
ENDBRANCH  24  25
ENDBRANCH   1  24
TORSDOF 17
ENDMDL
