MODEL 1
REMARK VINA RESULT:     -11.7      0.000      0.000
REMARK SMILES Cc1onc(-c2ccccc2Cl)c1C(=O)N1CCCC[C@@H]1C(=O)NCCCCCCNC(=O)c1ccc(-c2c3nc(c(-c4ccccc4)c4ccc([nH]4)c(-c4ccccc4)c4nc(c(-c5ccccc5)c5ccc2[nH]5)C=C4)C=C3)cc1
REMARK SMILES IDX 27 1 26 2 25 3 24 4 22 5 23 6 21 8 16 9 17 10 18 11 20 12
REMARK SMILES IDX 19 13 14 14 15 15 13 16 1 17 2 18 3 19 4 20 5 21 6 22 7 23
REMARK SMILES IDX 11 24 8 25 10 26 12 27 9 28 28 29 29 30 30 31 31 32 32 33
REMARK SMILES IDX 33 35 34 36 35 37 81 38 36 39 80 40 37 41 38 42 39 43 74 44
REMARK SMILES IDX 40 45 79 46 73 47 75 48 41 49 78 50 72 51 71 52 42 54 64 55
REMARK SMILES IDX 49 56 63 57 50 58 53 59 62 60 76 61 51 62 52 63 61 65 77 66
REMARK SMILES IDX 54 67 43 68 44 69 48 70 45 71 47 72 46 73 65 74 66 75 70 76
REMARK SMILES IDX 67 77 69 78 68 79 55 80 56 81 60 82 57 83 59 84 58 85
REMARK H PARENT 24 7 31 34 75 53 53 64
REMARK Flexibility Score: inf
ROOT
ATOM      1  C   UNL A   1      37.028  22.335  24.665  1.00  0.00     0.002 C 
ENDROOT
BRANCH   1   2
ATOM      2  C   UNL A   1      36.387  22.945  23.412  1.00  0.00     0.021 C 
BRANCH   2   3
ATOM      3  C   UNL A   1      34.996  23.538  23.650  1.00  0.00     0.116 C 
BRANCH   3   4
ATOM      4  N   UNL A   1      34.034  22.942  22.742  1.00  0.00    -0.354 N 
ATOM      5  C   UNL A   1      32.763  22.512  22.969  1.00  0.00     0.242 C 
ATOM      6  O   UNL A   1      32.246  21.761  22.138  1.00  0.00    -0.273 OA
ATOM      7  H   UNL A   1      34.351  22.831  21.816  1.00  0.00     0.163 HD
BRANCH   5   8
ATOM      8  C   UNL A   1      32.024  22.851  24.276  1.00  0.00     0.174 C 
ATOM      9  N   UNL A   1      31.703  24.290  24.453  1.00  0.00    -0.326 N 
ATOM     10  C   UNL A   1      31.318  24.698  25.803  1.00  0.00     0.120 C 
ATOM     11  C   UNL A   1      32.313  24.256  26.858  1.00  0.00     0.022 C 
ATOM     12  C   UNL A   1      32.884  22.277  25.436  1.00  0.00     0.035 C 
ATOM     13  C   UNL A   1      32.465  22.744  26.824  1.00  0.00     0.004 C 
BRANCH   9  14
ATOM     14  C   UNL A   1      31.394  25.232  23.452  1.00  0.00     0.260 C 
ATOM     15  O   UNL A   1      30.222  25.330  23.080  1.00  0.00    -0.269 OA
BRANCH  14  16
ATOM     16  C   UNL A   1      32.396  26.071  22.813  1.00  0.00     0.110 A 
ATOM     17  C   UNL A   1      32.687  25.228  20.313  1.00  0.00     0.092 C 
ATOM     18  C   UNL A   1      32.883  26.051  21.519  1.00  0.00     0.147 A 
ATOM     19  O   UNL A   1      33.710  27.112  21.327  1.00  0.00    -0.360 OA
ATOM     20  N   UNL A   1      33.756  27.887  22.457  1.00  0.00    -0.079 NA
ATOM     21  C   UNL A   1      32.974  27.275  23.356  1.00  0.00     0.128 A 
BRANCH  21  22
ATOM     22  C   UNL A   1      32.826  27.845  24.690  1.00  0.00     0.023 A 
ATOM     23  C   UNL A   1      33.746  27.513  25.696  1.00  0.00     0.012 A 
ATOM     24  C   UNL A   1      31.767  28.710  24.995  1.00  0.00     0.050 A 
ATOM     25  C   UNL A   1      33.643  28.090  26.966  1.00  0.00     0.001 A 
ATOM     26  C   UNL A   1      31.696  29.325  26.250  1.00  0.00     0.021 A 
ATOM     27  Cl  UNL A   1      30.480  28.994  23.875  1.00  0.00    -0.084 Cl
ATOM     28  C   UNL A   1      32.638  29.017  27.234  1.00  0.00     0.002 A 
ENDBRANCH  21  22
ENDBRANCH  14  16
ENDBRANCH   9  14
ENDBRANCH   5   8
ENDBRANCH   3   4
ENDBRANCH   2   3
ENDBRANCH   1   2
BRANCH   1  29
ATOM     29  C   UNL A   1      36.648  20.876  24.928  1.00  0.00     0.002 C 
BRANCH  29  30
ATOM     30  C   UNL A   1      37.812  19.893  24.942  1.00  0.00     0.021 C 
BRANCH  30  31
ATOM     31  C   UNL A   1      39.013  20.393  25.723  1.00  0.00     0.116 C 
BRANCH  31  32
ATOM     32  N   UNL A   1      40.049  19.376  25.835  1.00  0.00    -0.352 N 
ATOM     33  C   UNL A   1      41.378  19.541  26.134  1.00  0.00     0.251 C 
ATOM     34  H   UNL A   1      39.757  18.449  25.676  1.00  0.00     0.163 HD
ATOM     35  O   UNL A   1      42.176  18.620  26.000  1.00  0.00    -0.269 OA
BRANCH  33  36
ATOM     36  C   UNL A   1      41.833  20.862  26.602  1.00  0.00     0.039 A 
ATOM     37  C   UNL A   1      42.298  21.796  25.673  1.00  0.00     0.014 A 
ATOM     38  C   UNL A   1      41.740  21.187  27.958  1.00  0.00     0.014 A 
ATOM     39  C   UNL A   1      42.613  23.085  26.101  1.00  0.00     0.010 A 
ATOM     40  C   UNL A   1      41.964  22.492  28.364  1.00  0.00     0.010 A 
ATOM     41  C   UNL A   1      42.414  23.450  27.443  1.00  0.00    -0.014 A 
BRANCH  41  42
ATOM     42  C   UNL A   1      42.697  24.821  27.930  1.00  0.00     0.031 A 
ATOM     43  C   UNL A   1      44.100  25.189  28.323  1.00  0.00     0.074 A 
ATOM     44  C   UNL A   1      41.689  25.695  28.108  1.00  0.00     0.049 A 
ATOM     45  N   UNL A   1      44.541  26.283  28.889  1.00  0.00    -0.248 NA
ATOM     46  C   UNL A   1      45.140  24.173  28.082  1.00  0.00     0.031 C 
ATOM     47  C   UNL A   1      40.280  25.444  27.798  1.00  0.00     0.029 A 
ATOM     48  N   UNL A   1      41.698  26.972  28.606  1.00  0.00    -0.354 N 
ATOM     49  C   UNL A   1      45.898  26.072  29.099  1.00  0.00     0.074 A 
ATOM     50  C   UNL A   1      46.196  24.730  28.653  1.00  0.00     0.031 C 
ATOM     51  C   UNL A   1      39.566  26.544  28.084  1.00  0.00     0.029 A 
ATOM     52  C   UNL A   1      40.457  27.558  28.641  1.00  0.00     0.049 A 
ATOM     53  H   UNL A   1      42.517  27.426  28.910  1.00  0.00     0.167 HD
ATOM     54  C   UNL A   1      46.820  26.928  29.599  1.00  0.00     0.031 A 
ATOM     55  C   UNL A   1      40.080  28.773  29.077  1.00  0.00     0.031 A 
ATOM     56  C   UNL A   1      46.524  28.270  30.022  1.00  0.00     0.049 A 
ATOM     57  C   UNL A   1      41.117  29.705  29.637  1.00  0.00     0.074 A 
ATOM     58  C   UNL A   1      47.394  29.241  30.487  1.00  0.00     0.029 A 
ATOM     59  N   UNL A   1      45.256  28.830  30.028  1.00  0.00    -0.354 N 
ATOM     60  N   UNL A   1      42.407  29.514  29.781  1.00  0.00    -0.248 NA
ATOM     61  C   UNL A   1      40.648  31.023  30.084  1.00  0.00     0.031 C 
ATOM     62  C   UNL A   1      46.643  30.373  30.818  1.00  0.00     0.029 A 
ATOM     63  C   UNL A   1      45.316  30.126  30.508  1.00  0.00     0.049 A 
ATOM     64  H   UNL A   1      44.435  28.373  29.734  1.00  0.00     0.167 HD
ATOM     65  C   UNL A   1      42.908  30.697  30.308  1.00  0.00     0.074 A 
ATOM     66  C   UNL A   1      41.785  31.602  30.449  1.00  0.00     0.031 C 
ATOM     67  C   UNL A   1      44.185  31.009  30.641  1.00  0.00     0.031 A 
BRANCH  54  68
ATOM     68  C   UNL A   1      48.230  26.420  29.722  1.00  0.00    -0.014 A 
ATOM     69  C   UNL A   1      48.674  25.769  30.886  1.00  0.00     0.009 A 
ATOM     70  C   UNL A   1      49.131  26.599  28.661  1.00  0.00     0.009 A 
ATOM     71  C   UNL A   1      50.002  25.358  31.005  1.00  0.00     0.001 A 
ATOM     72  C   UNL A   1      50.451  26.156  28.771  1.00  0.00     0.001 A 
ATOM     73  C   UNL A   1      50.889  25.549  29.946  1.00  0.00     0.000 A 
ENDBRANCH  54  68
BRANCH  55  74
ATOM     74  C   UNL A   1      38.657  29.189  28.973  1.00  0.00    -0.014 A 
ATOM     75  C   UNL A   1      38.170  29.744  27.780  1.00  0.00     0.009 A 
ATOM     76  C   UNL A   1      37.777  29.021  30.052  1.00  0.00     0.009 A 
ATOM     77  C   UNL A   1      36.836  30.140  27.675  1.00  0.00     0.001 A 
ATOM     78  C   UNL A   1      36.435  29.393  29.937  1.00  0.00     0.001 A 
ATOM     79  C   UNL A   1      35.968  29.960  28.751  1.00  0.00     0.000 A 
ENDBRANCH  55  74
BRANCH  67  80
ATOM     80  C   UNL A   1      44.440  32.398  31.152  1.00  0.00    -0.014 A 
ATOM     81  C   UNL A   1      44.717  33.459  30.278  1.00  0.00     0.009 A 
ATOM     82  C   UNL A   1      44.356  32.653  32.530  1.00  0.00     0.009 A 
ATOM     83  C   UNL A   1      44.934  34.745  30.777  1.00  0.00     0.001 A 
ATOM     84  C   UNL A   1      44.545  33.945  33.024  1.00  0.00     0.001 A 
ATOM     85  C   UNL A   1      44.842  34.988  32.148  1.00  0.00     0.000 A 
ENDBRANCH  67  80
ENDBRANCH  41  42
ENDBRANCH  33  36
ENDBRANCH  31  32
ENDBRANCH  30  31
ENDBRANCH  29  30
ENDBRANCH   1  29
TORSDOF 16
ENDMDL
MODEL 2
REMARK VINA RESULT:     -11.7      1.286      6.190
REMARK SMILES Cc1onc(-c2ccccc2Cl)c1C(=O)N1CCCC[C@@H]1C(=O)NCCCCCCNC(=O)c1ccc(-c2c3nc(c(-c4ccccc4)c4ccc([nH]4)c(-c4ccccc4)c4nc(c(-c5ccccc5)c5ccc2[nH]5)C=C4)C=C3)cc1
REMARK SMILES IDX 27 1 26 2 25 3 24 4 22 5 23 6 21 8 16 9 17 10 18 11 20 12
REMARK SMILES IDX 19 13 14 14 15 15 13 16 1 17 2 18 3 19 4 20 5 21 6 22 7 23
REMARK SMILES IDX 11 24 8 25 10 26 12 27 9 28 28 29 29 30 30 31 31 32 32 33
REMARK SMILES IDX 33 35 34 36 35 37 81 38 36 39 80 40 37 41 38 42 39 43 74 44
REMARK SMILES IDX 40 45 79 46 73 47 75 48 41 49 78 50 72 51 71 52 42 54 64 55
REMARK SMILES IDX 49 56 63 57 50 58 53 59 62 60 76 61 51 62 52 63 61 65 77 66
REMARK SMILES IDX 54 67 43 68 44 69 48 70 45 71 47 72 46 73 65 74 66 75 70 76
REMARK SMILES IDX 67 77 69 78 68 79 55 80 56 81 60 82 57 83 59 84 58 85
REMARK H PARENT 24 7 31 34 75 53 53 64
REMARK Flexibility Score: inf
ROOT
ATOM      1  C   UNL A   1      34.867  20.666  24.964  1.00  0.00     0.002 C 
ENDROOT
BRANCH   1   2
ATOM      2  C   UNL A   1      33.711  21.528  24.443  1.00  0.00     0.021 C 
BRANCH   2   3
ATOM      3  C   UNL A   1      34.129  22.565  23.396  1.00  0.00     0.116 C 
BRANCH   3   4
ATOM      4  N   UNL A   1      32.956  23.161  22.784  1.00  0.00    -0.354 N 
ATOM      5  C   UNL A   1      32.623  24.470  22.620  1.00  0.00     0.242 C 
ATOM      6  O   UNL A   1      31.448  24.743  22.359  1.00  0.00    -0.273 OA
ATOM      7  H   UNL A   1      32.298  22.518  22.434  1.00  0.00     0.163 HD
BRANCH   5   8
ATOM      8  C   UNL A   1      33.646  25.595  22.864  1.00  0.00     0.174 C 
ATOM      9  N   UNL A   1      33.688  26.105  24.257  1.00  0.00    -0.326 N 
ATOM     10  C   UNL A   1      34.382  27.377  24.452  1.00  0.00     0.120 C 
ATOM     11  C   UNL A   1      33.890  28.464  23.518  1.00  0.00     0.022 C 
ATOM     12  C   UNL A   1      33.339  26.708  21.823  1.00  0.00     0.035 C 
ATOM     13  C   UNL A   1      34.064  28.023  22.074  1.00  0.00     0.004 C 
BRANCH   9  14
ATOM     14  C   UNL A   1      33.456  25.382  25.444  1.00  0.00     0.260 C 
ATOM     15  O   UNL A   1      34.427  24.941  26.063  1.00  0.00    -0.269 OA
BRANCH  14  16
ATOM     16  C   UNL A   1      32.123  25.105  25.958  1.00  0.00     0.110 A 
ATOM     17  C   UNL A   1      32.231  22.818  27.300  1.00  0.00     0.092 C 
ATOM     18  C   UNL A   1      31.667  24.055  26.733  1.00  0.00     0.147 A 
ATOM     19  O   UNL A   1      30.377  24.281  27.093  1.00  0.00    -0.360 OA
ATOM     20  N   UNL A   1      29.959  25.498  26.618  1.00  0.00    -0.079 NA
ATOM     21  C   UNL A   1      30.995  26.002  25.936  1.00  0.00     0.128 A 
BRANCH  21  22
ATOM     22  C   UNL A   1      30.864  27.297  25.279  1.00  0.00     0.023 A 
ATOM     23  C   UNL A   1      30.255  27.382  24.018  1.00  0.00     0.012 A 
ATOM     24  C   UNL A   1      31.352  28.466  25.878  1.00  0.00     0.050 A 
ATOM     25  C   UNL A   1      30.080  28.623  23.399  1.00  0.00     0.001 A 
ATOM     26  C   UNL A   1      31.131  29.712  25.279  1.00  0.00     0.021 A 
ATOM     27  Cl  UNL A   1      32.301  28.414  27.323  1.00  0.00    -0.084 Cl
ATOM     28  C   UNL A   1      30.490  29.790  24.042  1.00  0.00     0.002 A 
ENDBRANCH  21  22
ENDBRANCH  14  16
ENDBRANCH   9  14
ENDBRANCH   5   8
ENDBRANCH   3   4
ENDBRANCH   2   3
ENDBRANCH   1   2
BRANCH   1  29
ATOM     29  C   UNL A   1      36.180  21.423  25.178  1.00  0.00     0.002 C 
BRANCH  29  30
ATOM     30  C   UNL A   1      37.438  20.674  24.759  1.00  0.00     0.021 C 
BRANCH  30  31
ATOM     31  C   UNL A   1      38.638  20.976  25.636  1.00  0.00     0.116 C 
BRANCH  31  32
ATOM     32  N   UNL A   1      39.568  19.856  25.688  1.00  0.00    -0.352 N 
ATOM     33  C   UNL A   1      40.900  19.867  26.019  1.00  0.00     0.251 C 
ATOM     34  H   UNL A   1      39.192  18.976  25.455  1.00  0.00     0.163 HD
ATOM     35  O   UNL A   1      41.608  18.885  25.828  1.00  0.00    -0.269 OA
BRANCH  33  36
ATOM     36  C   UNL A   1      41.470  21.099  26.593  1.00  0.00     0.039 A 
ATOM     37  C   UNL A   1      41.981  22.080  25.741  1.00  0.00     0.014 A 
ATOM     38  C   UNL A   1      41.439  21.299  27.976  1.00  0.00     0.014 A 
ATOM     39  C   UNL A   1      42.408  23.295  26.277  1.00  0.00     0.010 A 
ATOM     40  C   UNL A   1      41.775  22.538  28.495  1.00  0.00     0.010 A 
ATOM     41  C   UNL A   1      42.275  23.543  27.653  1.00  0.00    -0.014 A 
BRANCH  41  42
ATOM     42  C   UNL A   1      42.677  24.835  28.256  1.00  0.00     0.031 A 
ATOM     43  C   UNL A   1      41.641  25.902  28.475  1.00  0.00     0.074 A 
ATOM     44  C   UNL A   1      43.974  25.083  28.518  1.00  0.00     0.049 A 
ATOM     45  N   UNL A   1      41.797  27.139  28.868  1.00  0.00    -0.248 NA
ATOM     46  C   UNL A   1      40.246  25.537  28.172  1.00  0.00     0.031 C 
ATOM     47  C   UNL A   1      45.078  24.142  28.315  1.00  0.00     0.029 A 
ATOM     48  N   UNL A   1      44.583  26.212  29.001  1.00  0.00    -0.354 N 
ATOM     49  C   UNL A   1      40.529  27.706  28.829  1.00  0.00     0.074 A 
ATOM     50  C   UNL A   1      39.627  26.697  28.321  1.00  0.00     0.031 C 
ATOM     51  C   UNL A   1      46.225  24.724  28.701  1.00  0.00     0.029 A 
ATOM     52  C   UNL A   1      45.944  26.090  29.132  1.00  0.00     0.049 A 
ATOM     53  H   UNL A   1      44.091  27.033  29.232  1.00  0.00     0.167 HD
ATOM     54  C   UNL A   1      40.145  28.949  29.201  1.00  0.00     0.031 A 
ATOM     55  C   UNL A   1      46.862  26.981  29.548  1.00  0.00     0.031 A 
ATOM     56  C   UNL A   1      41.042  29.943  29.725  1.00  0.00     0.049 A 
ATOM     57  C   UNL A   1      46.416  28.358  29.949  1.00  0.00     0.074 A 
ATOM     58  C   UNL A   1      40.748  31.213  30.190  1.00  0.00     0.029 A 
ATOM     59  N   UNL A   1      42.412  29.775  29.855  1.00  0.00    -0.354 N 
ATOM     60  N   UNL A   1      45.207  28.866  29.957  1.00  0.00    -0.248 NA
ATOM     61  C   UNL A   1      47.462  29.283  30.407  1.00  0.00     0.031 C 
ATOM     62  C   UNL A   1      41.949  31.829  30.558  1.00  0.00     0.029 A 
ATOM     63  C   UNL A   1      42.981  30.924  30.373  1.00  0.00     0.049 A 
ATOM     64  H   UNL A   1      42.907  28.958  29.615  1.00  0.00     0.167 HD
ATOM     65  C   UNL A   1      45.342  30.157  30.449  1.00  0.00     0.074 A 
ATOM     66  C   UNL A   1      46.748  30.352  30.735  1.00  0.00     0.031 C 
ATOM     67  C   UNL A   1      44.385  31.097  30.650  1.00  0.00     0.031 A 
BRANCH  54  68
ATOM     68  C   UNL A   1      38.691  29.294  29.038  1.00  0.00    -0.014 A 
ATOM     69  C   UNL A   1      37.788  29.178  30.108  1.00  0.00     0.009 A 
ATOM     70  C   UNL A   1      38.214  29.736  27.795  1.00  0.00     0.009 A 
ATOM     71  C   UNL A   1      36.430  29.445  29.922  1.00  0.00     0.001 A 
ATOM     72  C   UNL A   1      36.861  30.035  27.621  1.00  0.00     0.001 A 
ATOM     73  C   UNL A   1      35.968  29.876  28.679  1.00  0.00     0.000 A 
ENDBRANCH  54  68
BRANCH  55  74
ATOM     74  C   UNL A   1      48.292  26.586  29.633  1.00  0.00    -0.014 A 
ATOM     75  C   UNL A   1      49.157  26.833  28.556  1.00  0.00     0.009 A 
ATOM     76  C   UNL A   1      48.804  25.980  30.790  1.00  0.00     0.009 A 
ATOM     77  C   UNL A   1      50.501  26.462  28.628  1.00  0.00     0.001 A 
ATOM     78  C   UNL A   1      50.155  25.634  30.870  1.00  0.00     0.001 A 
ATOM     79  C   UNL A   1      51.001  25.869  29.786  1.00  0.00     0.000 A 
ENDBRANCH  55  74
BRANCH  67  80
ATOM     80  C   UNL A   1      44.823  32.405  31.243  1.00  0.00    -0.014 A 
ATOM     81  C   UNL A   1      45.203  33.485  30.432  1.00  0.00     0.009 A 
ATOM     82  C   UNL A   1      44.811  32.571  32.637  1.00  0.00     0.009 A 
ATOM     83  C   UNL A   1      45.591  34.697  31.007  1.00  0.00     0.001 A 
ATOM     84  C   UNL A   1      45.173  33.792  33.208  1.00  0.00     0.001 A 
ATOM     85  C   UNL A   1      45.569  34.851  32.393  1.00  0.00     0.000 A 
ENDBRANCH  67  80
ENDBRANCH  41  42
ENDBRANCH  33  36
ENDBRANCH  31  32
ENDBRANCH  30  31
ENDBRANCH  29  30
ENDBRANCH   1  29
TORSDOF 16
ENDMDL
MODEL 3
REMARK VINA RESULT:     -11.6      1.467      2.351
REMARK SMILES Cc1onc(-c2ccccc2Cl)c1C(=O)N1CCCC[C@@H]1C(=O)NCCCCCCNC(=O)c1ccc(-c2c3nc(c(-c4ccccc4)c4ccc([nH]4)c(-c4ccccc4)c4nc(c(-c5ccccc5)c5ccc2[nH]5)C=C4)C=C3)cc1
REMARK SMILES IDX 27 1 26 2 25 3 24 4 22 5 23 6 21 8 16 9 17 10 18 11 20 12
REMARK SMILES IDX 19 13 14 14 15 15 13 16 1 17 2 18 3 19 4 20 5 21 6 22 7 23
REMARK SMILES IDX 11 24 8 25 10 26 12 27 9 28 28 29 29 30 30 31 31 32 32 33
REMARK SMILES IDX 33 35 34 36 35 37 81 38 36 39 80 40 37 41 38 42 39 43 74 44
REMARK SMILES IDX 40 45 79 46 73 47 75 48 41 49 78 50 72 51 71 52 42 54 64 55
REMARK SMILES IDX 49 56 63 57 50 58 53 59 62 60 76 61 51 62 52 63 61 65 77 66
REMARK SMILES IDX 54 67 43 68 44 69 48 70 45 71 47 72 46 73 65 74 66 75 70 76
REMARK SMILES IDX 67 77 69 78 68 79 55 80 56 81 60 82 57 83 59 84 58 85
REMARK H PARENT 24 7 31 34 75 53 53 64
REMARK Flexibility Score: inf
ROOT
ATOM      1  C   UNL A   1      38.473  22.221  26.108  1.00  0.00     0.002 C 
ENDROOT
BRANCH   1   2
ATOM      2  C   UNL A   1      38.010  23.681  26.030  1.00  0.00     0.021 C 
BRANCH   2   3
ATOM      3  C   UNL A   1      36.532  23.848  25.669  1.00  0.00     0.116 C 
BRANCH   3   4
ATOM      4  N   UNL A   1      35.696  23.197  26.661  1.00  0.00    -0.354 N 
ATOM      5  C   UNL A   1      34.618  22.383  26.500  1.00  0.00     0.242 C 
ATOM      6  O   UNL A   1      33.878  22.199  27.471  1.00  0.00    -0.273 OA
ATOM      7  H   UNL A   1      35.948  23.373  27.596  1.00  0.00     0.163 HD
BRANCH   5   8
ATOM      8  C   UNL A   1      34.256  21.794  25.125  1.00  0.00     0.174 C 
ATOM      9  N   UNL A   1      33.132  22.475  24.434  1.00  0.00    -0.326 N 
ATOM     10  C   UNL A   1      32.541  21.753  23.309  1.00  0.00     0.120 C 
ATOM     11  C   UNL A   1      32.147  20.332  23.662  1.00  0.00     0.022 C 
ATOM     12  C   UNL A   1      33.999  20.277  25.344  1.00  0.00     0.035 C 
ATOM     13  C   UNL A   1      33.362  19.567  24.156  1.00  0.00     0.004 C 
BRANCH   9  14
ATOM     14  C   UNL A   1      32.787  23.839  24.494  1.00  0.00     0.260 C 
ATOM     15  O   UNL A   1      33.456  24.644  23.842  1.00  0.00    -0.269 OA
BRANCH  14  16
ATOM     16  C   UNL A   1      31.697  24.348  25.314  1.00  0.00     0.110 A 
ATOM     17  C   UNL A   1      30.418  22.265  26.348  1.00  0.00     0.092 C 
ATOM     18  C   UNL A   1      30.762  23.671  26.074  1.00  0.00     0.147 A 
ATOM     19  O   UNL A   1      30.021  24.562  26.784  1.00  0.00    -0.360 OA
ATOM     20  N   UNL A   1      30.470  25.838  26.559  1.00  0.00    -0.079 NA
ATOM     21  C   UNL A   1      31.474  25.724  25.679  1.00  0.00     0.128 A 
BRANCH  21  22
ATOM     22  C   UNL A   1      32.161  26.922  25.211  1.00  0.00     0.023 A 
ATOM     23  C   UNL A   1      33.262  27.420  25.924  1.00  0.00     0.012 A 
ATOM     24  C   UNL A   1      31.731  27.602  24.063  1.00  0.00     0.050 A 
ATOM     25  C   UNL A   1      33.958  28.540  25.459  1.00  0.00     0.001 A 
ATOM     26  C   UNL A   1      32.460  28.692  23.572  1.00  0.00     0.021 A 
ATOM     27  Cl  UNL A   1      30.261  27.177  23.257  1.00  0.00    -0.084 Cl
ATOM     28  C   UNL A   1      33.577  29.157  24.269  1.00  0.00     0.002 A 
ENDBRANCH  21  22
ENDBRANCH  14  16
ENDBRANCH   9  14
ENDBRANCH   5   8
ENDBRANCH   3   4
ENDBRANCH   2   3
ENDBRANCH   1   2
BRANCH   1  29
ATOM     29  C   UNL A   1      37.946  21.326  24.985  1.00  0.00     0.002 C 
BRANCH  29  30
ATOM     30  C   UNL A   1      38.517  19.913  24.957  1.00  0.00     0.021 C 
BRANCH  30  31
ATOM     31  C   UNL A   1      39.338  19.572  26.187  1.00  0.00     0.116 C 
BRANCH  31  32
ATOM     32  N   UNL A   1      40.644  19.033  25.834  1.00  0.00    -0.352 N 
ATOM     33  C   UNL A   1      41.853  19.680  25.800  1.00  0.00     0.251 C 
ATOM     34  H   UNL A   1      40.661  18.080  25.588  1.00  0.00     0.163 HD
ATOM     35  O   UNL A   1      42.839  19.155  25.295  1.00  0.00    -0.269 OA
BRANCH  33  36
ATOM     36  C   UNL A   1      41.940  21.037  26.370  1.00  0.00     0.039 A 
ATOM     37  C   UNL A   1      41.867  21.205  27.754  1.00  0.00     0.014 A 
ATOM     38  C   UNL A   1      42.153  22.131  25.526  1.00  0.00     0.014 A 
ATOM     39  C   UNL A   1      42.071  22.473  28.299  1.00  0.00     0.010 A 
ATOM     40  C   UNL A   1      42.447  23.368  26.075  1.00  0.00     0.010 A 
ATOM     41  C   UNL A   1      42.397  23.554  27.464  1.00  0.00    -0.014 A 
BRANCH  41  42
ATOM     42  C   UNL A   1      42.662  24.908  28.006  1.00  0.00     0.031 A 
ATOM     43  C   UNL A   1      44.048  25.259  28.468  1.00  0.00     0.074 A 
ATOM     44  C   UNL A   1      41.649  25.779  28.170  1.00  0.00     0.049 A 
ATOM     45  N   UNL A   1      44.468  26.332  29.085  1.00  0.00    -0.248 NA
ATOM     46  C   UNL A   1      45.095  24.248  28.238  1.00  0.00     0.031 C 
ATOM     47  C   UNL A   1      40.253  25.542  27.795  1.00  0.00     0.029 A 
ATOM     48  N   UNL A   1      41.640  27.040  28.708  1.00  0.00    -0.354 N 
ATOM     49  C   UNL A   1      45.815  26.111  29.344  1.00  0.00     0.074 A 
ATOM     50  C   UNL A   1      46.128  24.783  28.869  1.00  0.00     0.031 C 
ATOM     51  C   UNL A   1      39.530  26.636  28.086  1.00  0.00     0.029 A 
ATOM     52  C   UNL A   1      40.400  27.628  28.711  1.00  0.00     0.049 A 
ATOM     53  H   UNL A   1      42.447  27.481  29.060  1.00  0.00     0.167 HD
ATOM     54  C   UNL A   1      46.717  26.948  29.910  1.00  0.00     0.031 A 
ATOM     55  C   UNL A   1      40.007  28.830  29.170  1.00  0.00     0.031 A 
ATOM     56  C   UNL A   1      46.406  28.276  30.362  1.00  0.00     0.049 A 
ATOM     57  C   UNL A   1      41.023  29.740  29.801  1.00  0.00     0.074 A 
ATOM     58  C   UNL A   1      47.258  29.229  30.893  1.00  0.00     0.029 A 
ATOM     59  N   UNL A   1      45.140  28.840  30.334  1.00  0.00    -0.354 N 
ATOM     60  N   UNL A   1      42.305  29.541  29.992  1.00  0.00    -0.248 NA
ATOM     61  C   UNL A   1      40.538  31.045  30.271  1.00  0.00     0.031 C 
ATOM     62  C   UNL A   1      46.496  30.353  31.229  1.00  0.00     0.029 A 
ATOM     63  C   UNL A   1      45.182  30.120  30.857  1.00  0.00     0.049 A 
ATOM     64  H   UNL A   1      44.331  28.395  29.992  1.00  0.00     0.167 HD
ATOM     65  C   UNL A   1      42.786  30.705  30.577  1.00  0.00     0.074 A 
ATOM     66  C   UNL A   1      41.660  31.608  30.700  1.00  0.00     0.031 C 
ATOM     67  C   UNL A   1      44.049  31.002  30.972  1.00  0.00     0.031 A 
BRANCH  54  68
ATOM     68  C   UNL A   1      48.120  26.431  30.074  1.00  0.00    -0.014 A 
ATOM     69  C   UNL A   1      49.080  26.590  29.061  1.00  0.00     0.009 A 
ATOM     70  C   UNL A   1      48.485  25.770  31.256  1.00  0.00     0.009 A 
ATOM     71  C   UNL A   1      50.360  26.051  29.207  1.00  0.00     0.001 A 
ATOM     72  C   UNL A   1      49.776  25.261  31.412  1.00  0.00     0.001 A 
ATOM     73  C   UNL A   1      50.708  25.390  30.384  1.00  0.00     0.000 A 
ENDBRANCH  54  68
BRANCH  55  74
ATOM     74  C   UNL A   1      38.591  29.254  29.021  1.00  0.00    -0.014 A 
ATOM     75  C   UNL A   1      38.124  29.730  27.786  1.00  0.00     0.009 A 
ATOM     76  C   UNL A   1      37.697  29.171  30.099  1.00  0.00     0.009 A 
ATOM     77  C   UNL A   1      36.795  30.133  27.639  1.00  0.00     0.001 A 
ATOM     78  C   UNL A   1      36.361  29.549  29.942  1.00  0.00     0.001 A 
ATOM     79  C   UNL A   1      35.914  30.037  28.714  1.00  0.00     0.000 A 
ENDBRANCH  55  74
BRANCH  67  80
ATOM     80  C   UNL A   1      44.285  32.373  31.537  1.00  0.00    -0.014 A 
ATOM     81  C   UNL A   1      44.602  33.460  30.709  1.00  0.00     0.009 A 
ATOM     82  C   UNL A   1      44.142  32.586  32.917  1.00  0.00     0.009 A 
ATOM     83  C   UNL A   1      44.801  34.729  31.258  1.00  0.00     0.001 A 
ATOM     84  C   UNL A   1      44.314  33.860  33.459  1.00  0.00     0.001 A 
ATOM     85  C   UNL A   1      44.651  34.929  32.630  1.00  0.00     0.000 A 
ENDBRANCH  67  80
ENDBRANCH  41  42
ENDBRANCH  33  36
ENDBRANCH  31  32
ENDBRANCH  30  31
ENDBRANCH  29  30
ENDBRANCH   1  29
TORSDOF 16
ENDMDL
