MODEL 1
REMARK VINA RESULT:     -11.6      0.000      0.000
REMARK SMILES O=C(NCCCCCCNC(=O)[C@@]1(Cl)C=CC=C(c2ccccc2)[C@H]1Cl)c1ccc(-c2c3nc(c(-c4ccccc4)c4ccc([nH]4)c(-c4ccccc4)c4nc(c(-c5ccccc5)c5ccc2[nH]5)C=C4)C=C3)cc1
REMARK SMILES IDX 6 1 5 2 4 3 3 4 1 5 2 6 27 8 28 9 74 10 29 11 73 12 30 13
REMARK SMILES IDX 31 14 32 15 67 16 33 17 72 18 66 19 68 20 34 21 71 22 65 23
REMARK SMILES IDX 64 24 35 26 57 27 42 28 56 29 43 30 46 31 55 32 69 33 44 34
REMARK SMILES IDX 45 35 54 37 70 38 47 39 36 40 37 41 41 42 38 43 40 44 39 45
REMARK SMILES IDX 58 46 59 47 63 48 60 49 62 50 61 51 48 52 49 53 53 54 50 55
REMARK SMILES IDX 52 56 51 57 7 58 8 59 9 60 10 61 11 62 12 64 13 65 14 66
REMARK SMILES IDX 15 67 25 68 16 69 18 70 26 71 17 72 19 73 20 74 24 75 21 76
REMARK SMILES IDX 23 77 22 78
REMARK H PARENT 3 7 68 25 46 36 10 63
REMARK Flexibility Score: inf
ROOT
ATOM      1  C   UNL A   1      36.837  20.821  24.675  1.00  0.00     0.002 C 
ENDROOT
BRANCH   1   2
ATOM      2  C   UNL A   1      37.813  19.696  25.019  1.00  0.00     0.021 C 
BRANCH   2   3
ATOM      3  C   UNL A   1      39.054  20.176  25.755  1.00  0.00     0.116 C 
BRANCH   3   4
ATOM      4  N   UNL A   1      40.050  19.121  25.859  1.00  0.00    -0.352 N 
ATOM      5  O   UNL A   1      42.154  18.294  25.873  1.00  0.00    -0.269 OA
ATOM      6  C   UNL A   1      41.399  19.246  26.051  1.00  0.00     0.251 C 
ATOM      7  H   UNL A   1      39.710  18.200  25.781  1.00  0.00     0.163 HD
BRANCH   6   8
ATOM      8  C   UNL A   1      41.934  20.551  26.481  1.00  0.00     0.039 A 
ATOM      9  C   UNL A   1      42.333  21.486  25.521  1.00  0.00     0.014 A 
ATOM     10  C   UNL A   1      42.020  20.846  27.843  1.00  0.00     0.014 A 
ATOM     11  C   UNL A   1      42.905  22.683  25.923  1.00  0.00     0.010 A 
ATOM     12  C   UNL A   1      42.513  22.087  28.244  1.00  0.00     0.010 A 
ATOM     13  C   UNL A   1      42.953  23.014  27.285  1.00  0.00    -0.014 A 
BRANCH  13  14
ATOM     14  C   UNL A   1      43.312  24.397  27.673  1.00  0.00     0.031 A 
ATOM     15  C   UNL A   1      42.268  25.405  28.043  1.00  0.00     0.074 A 
ATOM     16  C   UNL A   1      44.618  24.728  27.662  1.00  0.00     0.049 A 
ATOM     17  N   UNL A   1      42.428  26.662  28.370  1.00  0.00    -0.248 NA
ATOM     18  C   UNL A   1      40.866  24.957  28.045  1.00  0.00     0.031 C 
ATOM     19  C   UNL A   1      45.716  23.820  27.303  1.00  0.00     0.029 A 
ATOM     20  N   UNL A   1      45.251  25.906  27.960  1.00  0.00    -0.354 N 
ATOM     21  C   UNL A   1      41.152  27.164  28.591  1.00  0.00     0.074 A 
ATOM     22  C   UNL A   1      40.225  26.077  28.356  1.00  0.00     0.031 C 
ATOM     23  C   UNL A   1      46.882  24.466  27.428  1.00  0.00     0.029 A 
ATOM     24  C   UNL A   1      46.614  25.849  27.797  1.00  0.00     0.049 A 
ATOM     25  H   UNL A   1      44.775  26.713  28.261  1.00  0.00     0.167 HD
ATOM     26  C   UNL A   1      40.798  28.419  28.953  1.00  0.00     0.031 A 
ATOM     27  C   UNL A   1      47.546  26.815  27.887  1.00  0.00     0.031 A 
ATOM     28  C   UNL A   1      41.735  29.488  29.183  1.00  0.00     0.049 A 
ATOM     29  C   UNL A   1      47.107  28.205  28.237  1.00  0.00     0.074 A 
ATOM     30  C   UNL A   1      41.477  30.777  29.617  1.00  0.00     0.029 A 
ATOM     31  N   UNL A   1      43.104  29.401  28.981  1.00  0.00    -0.354 N 
ATOM     32  N   UNL A   1      45.905  28.642  28.525  1.00  0.00    -0.248 NA
ATOM     33  C   UNL A   1      48.151  29.238  28.267  1.00  0.00     0.031 C 
ATOM     34  C   UNL A   1      42.678  31.491  29.603  1.00  0.00     0.029 A 
ATOM     35  C   UNL A   1      43.695  30.629  29.228  1.00  0.00     0.049 A 
ATOM     36  H   UNL A   1      43.583  28.587  28.702  1.00  0.00     0.167 HD
ATOM     37  C   UNL A   1      46.050  29.998  28.780  1.00  0.00     0.074 A 
ATOM     38  C   UNL A   1      47.460  30.302  28.648  1.00  0.00     0.031 C 
ATOM     39  C   UNL A   1      45.098  30.913  29.084  1.00  0.00     0.031 A 
BRANCH  26  40
ATOM     40  C   UNL A   1      39.335  28.736  29.091  1.00  0.00    -0.014 A 
ATOM     41  C   UNL A   1      38.662  28.579  30.311  1.00  0.00     0.009 A 
ATOM     42  C   UNL A   1      38.649  29.306  28.005  1.00  0.00     0.009 A 
ATOM     43  C   UNL A   1      37.328  28.976  30.438  1.00  0.00     0.001 A 
ATOM     44  C   UNL A   1      37.324  29.725  28.142  1.00  0.00     0.001 A 
ATOM     45  C   UNL A   1      36.665  29.557  29.357  1.00  0.00     0.000 A 
ENDBRANCH  26  40
BRANCH  27  46
ATOM     46  C   UNL A   1      48.967  26.514  27.575  1.00  0.00    -0.014 A 
ATOM     47  C   UNL A   1      49.444  26.571  26.257  1.00  0.00     0.009 A 
ATOM     48  C   UNL A   1      49.852  26.142  28.600  1.00  0.00     0.009 A 
ATOM     49  C   UNL A   1      50.766  26.222  25.969  1.00  0.00     0.001 A 
ATOM     50  C   UNL A   1      51.182  25.832  28.315  1.00  0.00     0.001 A 
ATOM     51  C   UNL A   1      51.634  25.857  26.997  1.00  0.00     0.000 A 
ENDBRANCH  27  46
BRANCH  39  52
ATOM     52  C   UNL A   1      45.558  32.324  29.307  1.00  0.00    -0.014 A 
ATOM     53  C   UNL A   1      46.065  32.730  30.552  1.00  0.00     0.009 A 
ATOM     54  C   UNL A   1      45.520  33.247  28.251  1.00  0.00     0.009 A 
ATOM     55  C   UNL A   1      46.499  34.043  30.741  1.00  0.00     0.001 A 
ATOM     56  C   UNL A   1      45.985  34.549  28.434  1.00  0.00     0.001 A 
ATOM     57  C   UNL A   1      46.466  34.948  29.680  1.00  0.00     0.000 A 
ENDBRANCH  39  52
ENDBRANCH  13  14
ENDBRANCH   6   8
ENDBRANCH   3   4
ENDBRANCH   2   3
ENDBRANCH   1   2
BRANCH   1  58
ATOM     58  C   UNL A   1      37.352  22.227  25.012  1.00  0.00     0.002 C 
BRANCH  58  59
ATOM     59  C   UNL A   1      36.627  23.356  24.269  1.00  0.00     0.021 C 
BRANCH  59  60
ATOM     60  C   UNL A   1      35.131  23.091  24.121  1.00  0.00     0.116 C 
BRANCH  60  61
ATOM     61  N   UNL A   1      34.413  23.746  25.193  1.00  0.00    -0.354 N 
ATOM     62  C   UNL A   1      33.126  23.604  25.631  1.00  0.00     0.247 C 
ATOM     63  H   UNL A   1      34.943  24.409  25.693  1.00  0.00     0.163 HD
ATOM     64  O   UNL A   1      32.779  24.408  26.504  1.00  0.00    -0.273 OA
BRANCH  62  65
ATOM     65  C   UNL A   1      32.196  22.467  25.102  1.00  0.00     0.161 C 
ATOM     66  Cl  UNL A   1      30.525  22.789  25.820  1.00  0.00    -0.102 Cl
ATOM     67  C   UNL A   1      31.950  22.618  23.606  1.00  0.00     0.008 C 
ATOM     68  C   UNL A   1      32.636  21.035  25.567  1.00  0.00     0.146 C 
ATOM     69  C   UNL A   1      32.150  21.624  22.727  1.00  0.00    -0.002 C 
ATOM     70  C   UNL A   1      32.871  20.038  24.434  1.00  0.00    -0.020 C 
ATOM     71  Cl  UNL A   1      34.075  21.025  26.671  1.00  0.00    -0.115 Cl
ATOM     72  C   UNL A   1      32.636  20.332  23.143  1.00  0.00     0.006 C 
BRANCH  70  73
ATOM     73  C   UNL A   1      33.272  18.667  24.803  1.00  0.00    -0.021 A 
ATOM     74  C   UNL A   1      32.487  17.896  25.669  1.00  0.00     0.008 A 
ATOM     75  C   UNL A   1      34.415  18.098  24.225  1.00  0.00     0.008 A 
ATOM     76  C   UNL A   1      32.827  16.566  25.930  1.00  0.00     0.001 A 
ATOM     77  C   UNL A   1      34.754  16.771  24.491  1.00  0.00     0.001 A 
ATOM     78  C   UNL A   1      33.957  16.004  25.337  1.00  0.00     0.000 A 
ENDBRANCH  70  73
ENDBRANCH  62  65
ENDBRANCH  60  61
ENDBRANCH  59  60
ENDBRANCH  58  59
ENDBRANCH   1  58
TORSDOF 14
ENDMDL
MODEL 2
REMARK VINA RESULT:     -11.5      5.935     10.820
REMARK SMILES O=C(NCCCCCCNC(=O)[C@@]1(Cl)C=CC=C(c2ccccc2)[C@H]1Cl)c1ccc(-c2c3nc(c(-c4ccccc4)c4ccc([nH]4)c(-c4ccccc4)c4nc(c(-c5ccccc5)c5ccc2[nH]5)C=C4)C=C3)cc1
REMARK SMILES IDX 6 1 5 2 4 3 3 4 1 5 2 6 27 8 28 9 74 10 29 11 73 12 30 13
REMARK SMILES IDX 31 14 32 15 67 16 33 17 72 18 66 19 68 20 34 21 71 22 65 23
REMARK SMILES IDX 64 24 35 26 57 27 42 28 56 29 43 30 46 31 55 32 69 33 44 34
REMARK SMILES IDX 45 35 54 37 70 38 47 39 36 40 37 41 41 42 38 43 40 44 39 45
REMARK SMILES IDX 58 46 59 47 63 48 60 49 62 50 61 51 48 52 49 53 53 54 50 55
REMARK SMILES IDX 52 56 51 57 7 58 8 59 9 60 10 61 11 62 12 64 13 65 14 66
REMARK SMILES IDX 15 67 25 68 16 69 18 70 26 71 17 72 19 73 20 74 24 75 21 76
REMARK SMILES IDX 23 77 22 78
REMARK H PARENT 3 7 68 25 46 36 10 63
REMARK Flexibility Score: inf
ROOT
ATOM      1  C   UNL A   1      31.582  30.364  26.186  1.00  0.00     0.002 C 
ENDROOT
BRANCH   1   2
ATOM      2  C   UNL A   1      31.401  31.849  26.501  1.00  0.00     0.021 C 
BRANCH   2   3
ATOM      3  C   UNL A   1      32.592  32.463  27.220  1.00  0.00     0.116 C 
BRANCH   3   4
ATOM      4  N   UNL A   1      32.368  33.871  27.506  1.00  0.00    -0.352 N 
ATOM      5  O   UNL A   1      32.528  35.752  28.751  1.00  0.00    -0.269 OA
ATOM      6  C   UNL A   1      32.982  34.652  28.449  1.00  0.00     0.251 C 
ATOM      7  H   UNL A   1      31.690  34.321  26.951  1.00  0.00     0.163 HD
BRANCH   6   8
ATOM      8  C   UNL A   1      34.205  34.146  29.098  1.00  0.00     0.039 A 
ATOM      9  C   UNL A   1      34.104  33.377  30.262  1.00  0.00     0.014 A 
ATOM     10  C   UNL A   1      35.451  34.427  28.534  1.00  0.00     0.014 A 
ATOM     11  C   UNL A   1      35.255  32.964  30.915  1.00  0.00     0.010 A 
ATOM     12  C   UNL A   1      36.605  33.934  29.143  1.00  0.00     0.010 A 
ATOM     13  C   UNL A   1      36.511  33.195  30.335  1.00  0.00    -0.014 A 
BRANCH  13  14
ATOM     14  C   UNL A   1      37.697  32.514  30.901  1.00  0.00     0.031 A 
ATOM     15  C   UNL A   1      38.310  31.320  30.237  1.00  0.00     0.074 A 
ATOM     16  C   UNL A   1      38.200  32.996  32.055  1.00  0.00     0.049 A 
ATOM     17  N   UNL A   1      39.327  30.598  30.634  1.00  0.00    -0.248 NA
ATOM     18  C   UNL A   1      37.710  30.868  28.971  1.00  0.00     0.031 C 
ATOM     19  C   UNL A   1      37.667  34.150  32.791  1.00  0.00     0.029 A 
ATOM     20  N   UNL A   1      39.265  32.587  32.814  1.00  0.00    -0.354 N 
ATOM     21  C   UNL A   1      39.475  29.595  29.686  1.00  0.00     0.074 A 
ATOM     22  C   UNL A   1      38.439  29.794  28.695  1.00  0.00     0.031 C 
ATOM     23  C   UNL A   1      38.422  34.370  33.875  1.00  0.00     0.029 A 
ATOM     24  C   UNL A   1      39.440  33.331  33.956  1.00  0.00     0.049 A 
ATOM     25  H   UNL A   1      39.847  31.833  32.565  1.00  0.00     0.167 HD
ATOM     26  C   UNL A   1      40.392  28.600  29.658  1.00  0.00     0.031 A 
ATOM     27  C   UNL A   1      40.293  33.170  34.982  1.00  0.00     0.031 A 
ATOM     28  C   UNL A   1      41.417  28.417  30.653  1.00  0.00     0.049 A 
ATOM     29  C   UNL A   1      41.258  32.023  34.939  1.00  0.00     0.074 A 
ATOM     30  C   UNL A   1      42.433  27.478  30.676  1.00  0.00     0.029 A 
ATOM     31  N   UNL A   1      41.545  29.172  31.808  1.00  0.00    -0.354 N 
ATOM     32  N   UNL A   1      41.439  31.134  33.993  1.00  0.00    -0.248 NA
ATOM     33  C   UNL A   1      42.132  31.853  36.107  1.00  0.00     0.031 C 
ATOM     34  C   UNL A   1      43.128  27.616  31.881  1.00  0.00     0.029 A 
ATOM     35  C   UNL A   1      42.589  28.684  32.577  1.00  0.00     0.049 A 
ATOM     36  H   UNL A   1      40.977  29.941  32.047  1.00  0.00     0.167 HD
ATOM     37  C   UNL A   1      42.454  30.304  34.448  1.00  0.00     0.074 A 
ATOM     38  C   UNL A   1      42.872  30.818  35.737  1.00  0.00     0.031 C 
ATOM     39  C   UNL A   1      42.984  29.206  33.858  1.00  0.00     0.031 A 
BRANCH  26  40
ATOM     40  C   UNL A   1      40.324  27.597  28.540  1.00  0.00    -0.014 A 
ATOM     41  C   UNL A   1      41.025  27.787  27.340  1.00  0.00     0.009 A 
ATOM     42  C   UNL A   1      39.632  26.391  28.739  1.00  0.00     0.009 A 
ATOM     43  C   UNL A   1      41.024  26.793  26.357  1.00  0.00     0.001 A 
ATOM     44  C   UNL A   1      39.654  25.390  27.766  1.00  0.00     0.001 A 
ATOM     45  C   UNL A   1      40.348  25.593  26.576  1.00  0.00     0.000 A 
ENDBRANCH  26  40
BRANCH  27  46
ATOM     46  C   UNL A   1      40.226  34.073  36.160  1.00  0.00    -0.014 A 
ATOM     47  C   UNL A   1      39.363  33.797  37.231  1.00  0.00     0.009 A 
ATOM     48  C   UNL A   1      41.012  35.236  36.205  1.00  0.00     0.009 A 
ATOM     49  C   UNL A   1      39.260  34.688  38.302  1.00  0.00     0.001 A 
ATOM     50  C   UNL A   1      40.937  36.104  37.295  1.00  0.00     0.001 A 
ATOM     51  C   UNL A   1      40.049  35.837  38.335  1.00  0.00     0.000 A 
ENDBRANCH  27  46
BRANCH  39  52
ATOM     52  C   UNL A   1      44.083  28.499  34.598  1.00  0.00    -0.014 A 
ATOM     53  C   UNL A   1      45.422  28.891  34.447  1.00  0.00     0.009 A 
ATOM     54  C   UNL A   1      43.771  27.457  35.485  1.00  0.00     0.009 A 
ATOM     55  C   UNL A   1      46.432  28.231  35.150  1.00  0.00     0.001 A 
ATOM     56  C   UNL A   1      44.779  26.823  36.211  1.00  0.00     0.001 A 
ATOM     57  C   UNL A   1      46.108  27.204  36.036  1.00  0.00     0.000 A 
ENDBRANCH  39  52
ENDBRANCH  13  14
ENDBRANCH   6   8
ENDBRANCH   3   4
ENDBRANCH   2   3
ENDBRANCH   1   2
BRANCH   1  58
ATOM     58  C   UNL A   1      32.449  29.606  27.200  1.00  0.00     0.002 C 
BRANCH  58  59
ATOM     59  C   UNL A   1      32.023  28.149  27.425  1.00  0.00     0.021 C 
BRANCH  59  60
ATOM     60  C   UNL A   1      31.473  27.500  26.158  1.00  0.00     0.116 C 
BRANCH  60  61
ATOM     61  N   UNL A   1      32.567  27.009  25.348  1.00  0.00    -0.354 N 
ATOM     62  C   UNL A   1      32.593  26.528  24.069  1.00  0.00     0.247 C 
ATOM     63  H   UNL A   1      33.445  27.025  25.795  1.00  0.00     0.163 HD
ATOM     64  O   UNL A   1      33.683  26.072  23.704  1.00  0.00    -0.273 OA
BRANCH  62  65
ATOM     65  C   UNL A   1      31.347  26.611  23.132  1.00  0.00     0.161 C 
ATOM     66  Cl  UNL A   1      31.779  25.654  21.612  1.00  0.00    -0.102 Cl
ATOM     67  C   UNL A   1      30.181  25.817  23.704  1.00  0.00     0.008 C 
ATOM     68  C   UNL A   1      31.003  28.073  22.680  1.00  0.00     0.146 C 
ATOM     69  C   UNL A   1      28.955  26.335  23.876  1.00  0.00    -0.002 C 
ATOM     70  C   UNL A   1      29.579  28.523  22.997  1.00  0.00    -0.020 C 
ATOM     71  Cl  UNL A   1      32.168  29.327  23.283  1.00  0.00    -0.115 Cl
ATOM     72  C   UNL A   1      28.660  27.706  23.541  1.00  0.00     0.006 C 
BRANCH  70  73
ATOM     73  C   UNL A   1      29.185  29.885  22.586  1.00  0.00    -0.021 A 
ATOM     74  C   UNL A   1      28.871  30.171  21.251  1.00  0.00     0.008 A 
ATOM     75  C   UNL A   1      29.051  30.891  23.552  1.00  0.00     0.008 A 
ATOM     76  C   UNL A   1      28.403  31.438  20.895  1.00  0.00     0.001 A 
ATOM     77  C   UNL A   1      28.588  32.157  23.192  1.00  0.00     0.001 A 
ATOM     78  C   UNL A   1      28.258  32.428  21.866  1.00  0.00     0.000 A 
ENDBRANCH  70  73
ENDBRANCH  62  65
ENDBRANCH  60  61
ENDBRANCH  59  60
ENDBRANCH  58  59
ENDBRANCH   1  58
TORSDOF 14
ENDMDL
MODEL 3
REMARK VINA RESULT:     -11.5      0.402      5.957
REMARK SMILES O=C(NCCCCCCNC(=O)[C@@]1(Cl)C=CC=C(c2ccccc2)[C@H]1Cl)c1ccc(-c2c3nc(c(-c4ccccc4)c4ccc([nH]4)c(-c4ccccc4)c4nc(c(-c5ccccc5)c5ccc2[nH]5)C=C4)C=C3)cc1
REMARK SMILES IDX 6 1 5 2 4 3 3 4 1 5 2 6 27 8 28 9 74 10 29 11 73 12 30 13
REMARK SMILES IDX 31 14 32 15 67 16 33 17 72 18 66 19 68 20 34 21 71 22 65 23
REMARK SMILES IDX 64 24 35 26 57 27 42 28 56 29 43 30 46 31 55 32 69 33 44 34
REMARK SMILES IDX 45 35 54 37 70 38 47 39 36 40 37 41 41 42 38 43 40 44 39 45
REMARK SMILES IDX 58 46 59 47 63 48 60 49 62 50 61 51 48 52 49 53 53 54 50 55
REMARK SMILES IDX 52 56 51 57 7 58 8 59 9 60 10 61 11 62 12 64 13 65 14 66
REMARK SMILES IDX 15 67 25 68 16 69 18 70 26 71 17 72 19 73 20 74 24 75 21 76
REMARK SMILES IDX 23 77 22 78
REMARK H PARENT 3 7 68 25 46 36 10 63
REMARK Flexibility Score: inf
ROOT
ATOM      1  C   UNL A   1      36.749  20.838  24.982  1.00  0.00     0.002 C 
ENDROOT
BRANCH   1   2
ATOM      2  C   UNL A   1      37.905  19.837  24.967  1.00  0.00     0.021 C 
BRANCH   2   3
ATOM      3  C   UNL A   1      39.111  20.296  25.773  1.00  0.00     0.116 C 
BRANCH   3   4
ATOM      4  N   UNL A   1      40.081  19.223  25.930  1.00  0.00    -0.352 N 
ATOM      5  O   UNL A   1      42.163  18.342  25.965  1.00  0.00    -0.269 OA
ATOM      6  C   UNL A   1      41.436  19.324  26.091  1.00  0.00     0.251 C 
ATOM      7  H   UNL A   1      39.715  18.308  25.921  1.00  0.00     0.163 HD
BRANCH   6   8
ATOM      8  C   UNL A   1      42.013  20.640  26.421  1.00  0.00     0.039 A 
ATOM      9  C   UNL A   1      42.438  21.488  25.393  1.00  0.00     0.014 A 
ATOM     10  C   UNL A   1      42.112  21.033  27.757  1.00  0.00     0.014 A 
ATOM     11  C   UNL A   1      43.049  22.692  25.704  1.00  0.00     0.010 A 
ATOM     12  C   UNL A   1      42.645  22.285  28.064  1.00  0.00     0.010 A 
ATOM     13  C   UNL A   1      43.111  23.123  27.037  1.00  0.00    -0.014 A 
BRANCH  13  14
ATOM     14  C   UNL A   1      43.514  24.519  27.321  1.00  0.00     0.031 A 
ATOM     15  C   UNL A   1      44.945  24.956  27.240  1.00  0.00     0.074 A 
ATOM     16  C   UNL A   1      42.546  25.386  27.676  1.00  0.00     0.049 A 
ATOM     17  N   UNL A   1      45.452  26.135  27.494  1.00  0.00    -0.248 NA
ATOM     18  C   UNL A   1      45.936  23.950  26.828  1.00  0.00     0.031 C 
ATOM     19  C   UNL A   1      41.120  25.056  27.797  1.00  0.00     0.029 A 
ATOM     20  N   UNL A   1      42.603  26.716  28.000  1.00  0.00    -0.354 N 
ATOM     21  C   UNL A   1      46.821  26.010  27.299  1.00  0.00     0.074 A 
ATOM     22  C   UNL A   1      47.069  24.638  26.911  1.00  0.00     0.031 C 
ATOM     23  C   UNL A   1      40.439  26.157  28.140  1.00  0.00     0.029 A 
ATOM     24  C   UNL A   1      41.383  27.248  28.341  1.00  0.00     0.049 A 
ATOM     25  H   UNL A   1      43.437  27.239  27.989  1.00  0.00     0.167 HD
ATOM     26  C   UNL A   1      47.775  26.960  27.439  1.00  0.00     0.031 A 
ATOM     27  C   UNL A   1      41.061  28.466  28.810  1.00  0.00     0.031 A 
ATOM     28  C   UNL A   1      47.510  28.321  27.827  1.00  0.00     0.049 A 
ATOM     29  C   UNL A   1      42.155  29.473  29.003  1.00  0.00     0.074 A 
ATOM     30  C   UNL A   1      48.404  29.373  27.931  1.00  0.00     0.029 A 
ATOM     31  N   UNL A   1      46.268  28.815  28.191  1.00  0.00    -0.354 N 
ATOM     32  N   UNL A   1      43.432  29.363  28.733  1.00  0.00    -0.248 NA
ATOM     33  C   UNL A   1      41.764  30.770  29.571  1.00  0.00     0.031 C 
ATOM     34  C   UNL A   1      47.716  30.482  28.432  1.00  0.00     0.029 A 
ATOM     35  C   UNL A   1      46.381  30.141  28.574  1.00  0.00     0.049 A 
ATOM     36  H   UNL A   1      45.429  28.299  28.180  1.00  0.00     0.167 HD
ATOM     37  C   UNL A   1      43.997  30.579  29.091  1.00  0.00     0.074 A 
ATOM     38  C   UNL A   1      42.917  31.422  29.561  1.00  0.00     0.031 C 
ATOM     39  C   UNL A   1      45.296  30.960  29.045  1.00  0.00     0.031 A 
BRANCH  26  40
ATOM     40  C   UNL A   1      49.209  26.569  27.213  1.00  0.00    -0.014 A 
ATOM     41  C   UNL A   1      50.006  26.067  28.253  1.00  0.00     0.009 A 
ATOM     42  C   UNL A   1      49.736  26.604  25.911  1.00  0.00     0.009 A 
ATOM     43  C   UNL A   1      51.304  25.618  27.994  1.00  0.00     0.001 A 
ATOM     44  C   UNL A   1      51.023  26.132  25.651  1.00  0.00     0.001 A 
ATOM     45  C   UNL A   1      51.807  25.642  26.694  1.00  0.00     0.000 A 
ENDBRANCH  26  40
BRANCH  27  46
ATOM     46  C   UNL A   1      39.658  28.774  29.192  1.00  0.00    -0.014 A 
ATOM     47  C   UNL A   1      39.187  28.503  30.485  1.00  0.00     0.009 A 
ATOM     48  C   UNL A   1      38.772  29.320  28.249  1.00  0.00     0.009 A 
ATOM     49  C   UNL A   1      37.849  28.735  30.813  1.00  0.00     0.001 A 
ATOM     50  C   UNL A   1      37.446  29.589  28.590  1.00  0.00     0.001 A 
ATOM     51  C   UNL A   1      36.982  29.281  29.867  1.00  0.00     0.000 A 
ENDBRANCH  27  46
BRANCH  39  52
ATOM     52  C   UNL A   1      45.613  32.354  29.504  1.00  0.00    -0.014 A 
ATOM     53  C   UNL A   1      45.971  32.611  30.837  1.00  0.00     0.009 A 
ATOM     54  C   UNL A   1      45.592  33.414  28.585  1.00  0.00     0.009 A 
ATOM     55  C   UNL A   1      46.274  33.911  31.246  1.00  0.00     0.001 A 
ATOM     56  C   UNL A   1      45.927  34.706  28.990  1.00  0.00     0.001 A 
ATOM     57  C   UNL A   1      46.259  34.955  30.321  1.00  0.00     0.000 A 
ENDBRANCH  39  52
ENDBRANCH  13  14
ENDBRANCH   6   8
ENDBRANCH   3   4
ENDBRANCH   2   3
ENDBRANCH   1   2
BRANCH   1  58
ATOM     58  C   UNL A   1      36.953  22.049  24.063  1.00  0.00     0.002 C 
BRANCH  58  59
ATOM     59  C   UNL A   1      36.327  23.348  24.589  1.00  0.00     0.021 C 
BRANCH  59  60
ATOM     60  C   UNL A   1      34.836  23.444  24.278  1.00  0.00     0.116 C 
BRANCH  60  61
ATOM     61  N   UNL A   1      34.125  23.921  25.444  1.00  0.00    -0.354 N 
ATOM     62  C   UNL A   1      32.874  23.633  25.914  1.00  0.00     0.247 C 
ATOM     63  H   UNL A   1      34.629  24.564  25.994  1.00  0.00     0.163 HD
ATOM     64  O   UNL A   1      32.512  24.307  26.886  1.00  0.00    -0.273 OA
BRANCH  62  65
ATOM     65  C   UNL A   1      32.004  22.493  25.298  1.00  0.00     0.161 C 
ATOM     66  Cl  UNL A   1      30.302  22.715  25.978  1.00  0.00    -0.102 Cl
ATOM     67  C   UNL A   1      31.797  22.713  23.805  1.00  0.00     0.008 C 
ATOM     68  C   UNL A   1      32.483  21.055  25.701  1.00  0.00     0.146 C 
ATOM     69  C   UNL A   1      32.060  21.775  22.882  1.00  0.00    -0.002 C 
ATOM     70  C   UNL A   1      32.790  20.128  24.526  1.00  0.00    -0.020 C 
ATOM     71  Cl  UNL A   1      33.889  21.039  26.849  1.00  0.00    -0.115 Cl
ATOM     72  C   UNL A   1      32.582  20.481  23.246  1.00  0.00     0.006 C 
BRANCH  70  73
ATOM     73  C   UNL A   1      33.232  18.755  24.837  1.00  0.00    -0.021 A 
ATOM     74  C   UNL A   1      32.442  17.904  25.620  1.00  0.00     0.008 A 
ATOM     75  C   UNL A   1      34.423  18.266  24.283  1.00  0.00     0.008 A 
ATOM     76  C   UNL A   1      32.825  16.576  25.821  1.00  0.00     0.001 A 
ATOM     77  C   UNL A   1      34.806  16.941  24.489  1.00  0.00     0.001 A 
ATOM     78  C   UNL A   1      34.004  16.095  25.252  1.00  0.00     0.000 A 
ENDBRANCH  70  73
ENDBRANCH  62  65
ENDBRANCH  60  61
ENDBRANCH  59  60
ENDBRANCH  58  59
ENDBRANCH   1  58
TORSDOF 14
ENDMDL
