MODEL 1
REMARK VINA RESULT:     -10.9      0.000      0.000
REMARK SMILES Cc1nsc(N(C)C(=O)[C@@H](C)NC(N)=O)c1C(=O)NCCCCCCNC(=O)c1ccc(-c2c3nc(c(-c4ccccc4)c4ccc([nH]4)c(-c4ccccc4)c4nc(c(-c5ccccc5)c5ccc2[nH]5)C=C4)C=C3)cc1
REMARK SMILES IDX 21 1 20 2 19 3 17 4 18 5 16 7 1 8 2 9 3 10 4 11 5 12 6 13
REMARK SMILES IDX 7 14 8 15 9 16 10 17 11 18 12 19 13 20 14 22 15 23 22 26
REMARK SMILES IDX 23 27 24 28 25 29 26 30 27 31 28 33 29 34 30 35 76 36 31 37
REMARK SMILES IDX 75 38 32 39 33 40 34 41 69 42 35 43 74 44 68 45 70 46 36 47
REMARK SMILES IDX 73 48 67 49 66 50 37 52 59 53 44 54 58 55 45 56 48 57 57 58
REMARK SMILES IDX 71 59 46 60 47 61 56 63 72 64 49 65 38 66 39 67 43 68 40 69
REMARK SMILES IDX 42 70 41 71 60 72 61 73 65 74 62 75 64 76 63 77 50 78 51 79
REMARK SMILES IDX 55 80 52 81 54 82 53 83
REMARK H PARENT 19 6 12 21 14 24 14 25 26 32 70 51 48 62
REMARK Flexibility Score: inf
ROOT
ATOM      1  C   UNL A   1      36.701  22.980  24.614  1.00  0.00     0.021 C 
ENDROOT
BRANCH   1   2
ATOM      2  C   UNL A   1      35.468  23.764  24.175  1.00  0.00     0.116 C 
BRANCH   2   3
ATOM      3  N   UNL A   1      34.801  23.347  22.966  1.00  0.00    -0.352 N 
ATOM      4  C   UNL A   1      33.469  23.041  22.756  1.00  0.00     0.256 C 
ATOM      5  O   UNL A   1      33.074  23.000  21.590  1.00  0.00    -0.269 OA
ATOM      6  H   UNL A   1      35.378  23.271  22.172  1.00  0.00     0.163 HD
BRANCH   4   7
ATOM      7  C   UNL A   1      32.554  22.762  23.870  1.00  0.00     0.097 A 
ATOM      8  C   UNL A   1      32.694  20.102  24.055  1.00  0.00     0.069 C 
ATOM      9  C   UNL A   1      32.207  21.458  24.438  1.00  0.00     0.066 A 
ATOM     10  N   UNL A   1      31.366  21.466  25.469  1.00  0.00    -0.195 NA
ATOM     11  S   UNL A   1      31.061  23.007  25.901  1.00  0.00    -0.017 S 
ATOM     12  C   UNL A   1      32.008  23.768  24.690  1.00  0.00     0.131 A 
BRANCH  12  13
ATOM     13  N   UNL A   1      32.068  25.191  24.707  1.00  0.00    -0.303 N 
ATOM     14  C   UNL A   1      32.404  25.954  25.910  1.00  0.00     0.154 C 
BRANCH  13  15
ATOM     15  C   UNL A   1      31.616  25.859  23.557  1.00  0.00     0.249 C 
ATOM     16  O   UNL A   1      30.483  25.632  23.104  1.00  0.00    -0.272 OA
BRANCH  15  17
ATOM     17  C   UNL A   1      32.407  27.077  22.968  1.00  0.00     0.170 C 
ATOM     18  C   UNL A   1      33.657  26.609  22.221  1.00  0.00     0.041 C 
BRANCH  17  19
ATOM     19  N   UNL A   1      31.696  28.070  22.161  1.00  0.00    -0.327 N 
ATOM     20  C   UNL A   1      30.998  29.098  22.718  1.00  0.00     0.312 C 
ATOM     21  H   UNL A   1      31.724  27.992  21.180  1.00  0.00     0.166 HD
ATOM     22  N   UNL A   1      30.441  29.918  21.792  1.00  0.00    -0.352 N 
ATOM     23  O   UNL A   1      30.879  29.320  23.911  1.00  0.00    -0.249 OA
ATOM     24  H   UNL A   1      30.549  29.722  20.834  1.00  0.00     0.161 HD
ATOM     25  H   UNL A   1      29.929  30.709  22.079  1.00  0.00     0.161 HD
ENDBRANCH  17  19
ENDBRANCH  15  17
ENDBRANCH  13  15
ENDBRANCH  12  13
ENDBRANCH   4   7
ENDBRANCH   2   3
ENDBRANCH   1   2
BRANCH   1  26
ATOM     26  C   UNL A   1      36.519  21.783  25.547  1.00  0.00     0.002 C 
BRANCH  26  27
ATOM     27  C   UNL A   1      36.421  20.369  24.956  1.00  0.00     0.002 C 
BRANCH  27  28
ATOM     28  C   UNL A   1      37.665  19.472  24.926  1.00  0.00     0.021 C 
BRANCH  28  29
ATOM     29  C   UNL A   1      38.932  20.062  25.523  1.00  0.00     0.116 C 
BRANCH  29  30
ATOM     30  N   UNL A   1      40.007  19.091  25.749  1.00  0.00    -0.352 N 
ATOM     31  C   UNL A   1      41.356  19.331  25.992  1.00  0.00     0.251 C 
ATOM     32  H   UNL A   1      39.739  18.144  25.725  1.00  0.00     0.163 HD
ATOM     33  O   UNL A   1      42.198  18.474  25.787  1.00  0.00    -0.269 OA
BRANCH  31  34
ATOM     34  C   UNL A   1      41.752  20.651  26.523  1.00  0.00     0.039 A 
ATOM     35  C   UNL A   1      42.386  21.632  25.753  1.00  0.00     0.014 A 
ATOM     36  C   UNL A   1      41.446  20.898  27.852  1.00  0.00     0.014 A 
ATOM     37  C   UNL A   1      42.651  22.868  26.343  1.00  0.00     0.010 A 
ATOM     38  C   UNL A   1      41.425  22.176  28.318  1.00  0.00     0.010 A 
ATOM     39  C   UNL A   1      42.156  23.123  27.631  1.00  0.00    -0.014 A 
BRANCH  39  40
ATOM     40  C   UNL A   1      42.348  24.380  28.325  1.00  0.00     0.031 A 
ATOM     41  C   UNL A   1      41.301  25.388  28.068  1.00  0.00     0.074 A 
ATOM     42  C   UNL A   1      43.260  24.541  29.307  1.00  0.00     0.049 A 
ATOM     43  N   UNL A   1      41.410  26.428  27.318  1.00  0.00    -0.248 NA
ATOM     44  C   UNL A   1      39.943  25.148  28.574  1.00  0.00     0.031 C 
ATOM     45  C   UNL A   1      44.142  23.546  29.935  1.00  0.00     0.029 A 
ATOM     46  N   UNL A   1      43.507  25.654  30.042  1.00  0.00    -0.354 N 
ATOM     47  C   UNL A   1      40.200  27.096  27.411  1.00  0.00     0.074 A 
ATOM     48  C   UNL A   1      39.281  26.172  28.030  1.00  0.00     0.031 C 
ATOM     49  C   UNL A   1      44.643  24.047  31.088  1.00  0.00     0.029 A 
ATOM     50  C   UNL A   1      44.259  25.443  31.189  1.00  0.00     0.049 A 
ATOM     51  H   UNL A   1      43.176  26.543  29.782  1.00  0.00     0.167 HD
ATOM     52  C   UNL A   1      40.125  28.438  27.195  1.00  0.00     0.031 A 
ATOM     53  C   UNL A   1      44.513  26.359  32.157  1.00  0.00     0.031 A 
ATOM     54  C   UNL A   1      41.367  28.952  26.662  1.00  0.00     0.049 A 
ATOM     55  C   UNL A   1      44.301  27.697  31.552  1.00  0.00     0.074 A 
ATOM     56  C   UNL A   1      42.118  28.696  25.533  1.00  0.00     0.029 A 
ATOM     57  N   UNL A   1      42.222  29.553  27.560  1.00  0.00    -0.354 N 
ATOM     58  N   UNL A   1      45.062  28.181  30.611  1.00  0.00    -0.248 NA
ATOM     59  C   UNL A   1      42.974  28.289  31.642  1.00  0.00     0.031 C 
ATOM     60  C   UNL A   1      43.471  28.697  25.988  1.00  0.00     0.029 A 
ATOM     61  C   UNL A   1      43.474  29.038  27.343  1.00  0.00     0.049 A 
ATOM     62  H   UNL A   1      41.979  30.229  28.232  1.00  0.00     0.167 HD
ATOM     63  C   UNL A   1      44.183  28.781  29.720  1.00  0.00     0.074 A 
ATOM     64  C   UNL A   1      42.926  28.909  30.458  1.00  0.00     0.031 C 
ATOM     65  C   UNL A   1      44.462  28.843  28.384  1.00  0.00     0.031 A 
BRANCH  52  66
ATOM     66  C   UNL A   1      39.115  29.350  27.833  1.00  0.00    -0.014 A 
ATOM     67  C   UNL A   1      39.270  29.661  29.197  1.00  0.00     0.009 A 
ATOM     68  C   UNL A   1      37.885  29.688  27.241  1.00  0.00     0.009 A 
ATOM     69  C   UNL A   1      38.218  30.199  29.946  1.00  0.00     0.001 A 
ATOM     70  C   UNL A   1      36.847  30.264  27.976  1.00  0.00     0.001 A 
ATOM     71  C   UNL A   1      37.002  30.489  29.336  1.00  0.00     0.000 A 
ENDBRANCH  52  66
BRANCH  53  72
ATOM     72  C   UNL A   1      44.649  26.159  33.616  1.00  0.00    -0.014 A 
ATOM     73  C   UNL A   1      43.578  26.432  34.482  1.00  0.00     0.009 A 
ATOM     74  C   UNL A   1      45.735  25.427  34.133  1.00  0.00     0.009 A 
ATOM     75  C   UNL A   1      43.568  25.942  35.796  1.00  0.00     0.001 A 
ATOM     76  C   UNL A   1      45.727  24.941  35.445  1.00  0.00     0.001 A 
ATOM     77  C   UNL A   1      44.634  25.183  36.271  1.00  0.00     0.000 A 
ENDBRANCH  53  72
BRANCH  65  78
ATOM     78  C   UNL A   1      45.842  28.432  27.925  1.00  0.00    -0.014 A 
ATOM     79  C   UNL A   1      46.909  29.338  27.777  1.00  0.00     0.009 A 
ATOM     80  C   UNL A   1      46.117  27.062  27.801  1.00  0.00     0.009 A 
ATOM     81  C   UNL A   1      48.202  28.885  27.485  1.00  0.00     0.001 A 
ATOM     82  C   UNL A   1      47.410  26.610  27.531  1.00  0.00     0.001 A 
ATOM     83  C   UNL A   1      48.451  27.520  27.366  1.00  0.00     0.000 A 
ENDBRANCH  65  78
ENDBRANCH  39  40
ENDBRANCH  31  34
ENDBRANCH  29  30
ENDBRANCH  28  29
ENDBRANCH  27  28
ENDBRANCH  26  27
ENDBRANCH   1  26
TORSDOF 17
ENDMDL
MODEL 2
REMARK VINA RESULT:     -10.7      1.930      5.456
REMARK SMILES Cc1nsc(N(C)C(=O)[C@@H](C)NC(N)=O)c1C(=O)NCCCCCCNC(=O)c1ccc(-c2c3nc(c(-c4ccccc4)c4ccc([nH]4)c(-c4ccccc4)c4nc(c(-c5ccccc5)c5ccc2[nH]5)C=C4)C=C3)cc1
REMARK SMILES IDX 21 1 20 2 19 3 17 4 18 5 16 7 1 8 2 9 3 10 4 11 5 12 6 13
REMARK SMILES IDX 7 14 8 15 9 16 10 17 11 18 12 19 13 20 14 22 15 23 22 26
REMARK SMILES IDX 23 27 24 28 25 29 26 30 27 31 28 33 29 34 30 35 76 36 31 37
REMARK SMILES IDX 75 38 32 39 33 40 34 41 69 42 35 43 74 44 68 45 70 46 36 47
REMARK SMILES IDX 73 48 67 49 66 50 37 52 59 53 44 54 58 55 45 56 48 57 57 58
REMARK SMILES IDX 71 59 46 60 47 61 56 63 72 64 49 65 38 66 39 67 43 68 40 69
REMARK SMILES IDX 42 70 41 71 60 72 61 73 65 74 62 75 64 76 63 77 50 78 51 79
REMARK SMILES IDX 55 80 52 81 54 82 53 83
REMARK H PARENT 19 6 12 21 14 24 14 25 26 32 70 51 48 62
REMARK Flexibility Score: inf
ROOT
ATOM      1  C   UNL A   1      38.829  23.005  26.481  1.00  0.00     0.021 C 
ENDROOT
BRANCH   1   2
ATOM      2  C   UNL A   1      37.575  23.554  25.808  1.00  0.00     0.116 C 
BRANCH   2   3
ATOM      3  N   UNL A   1      37.432  23.357  24.386  1.00  0.00    -0.352 N 
ATOM      4  C   UNL A   1      36.346  22.895  23.666  1.00  0.00     0.256 C 
ATOM      5  O   UNL A   1      36.349  23.090  22.449  1.00  0.00    -0.269 OA
ATOM      6  H   UNL A   1      38.224  23.587  23.848  1.00  0.00     0.163 HD
BRANCH   4   7
ATOM      7  C   UNL A   1      35.233  22.187  24.311  1.00  0.00     0.097 A 
ATOM      8  C   UNL A   1      36.344  19.838  24.923  1.00  0.00     0.069 C 
ATOM      9  C   UNL A   1      35.233  20.831  24.860  1.00  0.00     0.066 A 
ATOM     10  N   UNL A   1      34.099  20.418  25.421  1.00  0.00    -0.195 NA
ATOM     11  S   UNL A   1      33.036  21.652  25.452  1.00  0.00    -0.017 S 
ATOM     12  C   UNL A   1      34.022  22.814  24.664  1.00  0.00     0.131 A 
BRANCH  12  13
ATOM     13  N   UNL A   1      33.483  24.121  24.497  1.00  0.00    -0.303 N 
ATOM     14  C   UNL A   1      33.756  25.215  25.430  1.00  0.00     0.154 C 
BRANCH  13  15
ATOM     15  C   UNL A   1      32.522  24.288  23.486  1.00  0.00     0.249 C 
ATOM     16  O   UNL A   1      31.673  23.407  23.276  1.00  0.00    -0.272 OA
BRANCH  15  17
ATOM     17  C   UNL A   1      32.329  25.671  22.775  1.00  0.00     0.170 C 
ATOM     18  C   UNL A   1      32.905  25.644  21.359  1.00  0.00     0.041 C 
BRANCH  17  19
ATOM     19  N   UNL A   1      31.001  26.286  22.753  1.00  0.00    -0.327 N 
ATOM     20  C   UNL A   1      30.793  27.586  23.102  1.00  0.00     0.312 C 
ATOM     21  H   UNL A   1      30.230  25.739  22.476  1.00  0.00     0.166 HD
ATOM     22  N   UNL A   1      29.495  27.960  22.983  1.00  0.00    -0.352 N 
ATOM     23  O   UNL A   1      31.648  28.377  23.462  1.00  0.00    -0.249 OA
ATOM     24  H   UNL A   1      28.819  27.308  22.691  1.00  0.00     0.161 HD
ATOM     25  H   UNL A   1      29.229  28.886  23.189  1.00  0.00     0.161 HD
ENDBRANCH  17  19
ENDBRANCH  15  17
ENDBRANCH  13  15
ENDBRANCH  12  13
ENDBRANCH   4   7
ENDBRANCH   2   3
ENDBRANCH   1   2
BRANCH   1  26
ATOM     26  C   UNL A   1      39.397  21.669  26.002  1.00  0.00     0.002 C 
BRANCH  26  27
ATOM     27  C   UNL A   1      40.525  20.996  26.795  1.00  0.00     0.002 C 
BRANCH  27  28
ATOM     28  C   UNL A   1      41.248  19.780  26.203  1.00  0.00     0.021 C 
BRANCH  28  29
ATOM     29  C   UNL A   1      42.637  19.494  26.747  1.00  0.00     0.116 C 
BRANCH  29  30
ATOM     30  N   UNL A   1      43.694  19.455  25.731  1.00  0.00    -0.352 N 
ATOM     31  C   UNL A   1      44.184  20.496  24.949  1.00  0.00     0.251 C 
ATOM     32  H   UNL A   1      44.111  18.576  25.583  1.00  0.00     0.163 HD
ATOM     33  O   UNL A   1      44.771  20.279  23.903  1.00  0.00    -0.269 OA
BRANCH  31  34
ATOM     34  C   UNL A   1      43.992  21.882  25.421  1.00  0.00     0.039 A 
ATOM     35  C   UNL A   1      43.059  22.762  24.864  1.00  0.00     0.014 A 
ATOM     36  C   UNL A   1      44.786  22.287  26.483  1.00  0.00     0.014 A 
ATOM     37  C   UNL A   1      42.917  24.026  25.437  1.00  0.00     0.010 A 
ATOM     38  C   UNL A   1      44.434  23.379  27.215  1.00  0.00     0.010 A 
ATOM     39  C   UNL A   1      43.614  24.315  26.620  1.00  0.00    -0.014 A 
BRANCH  39  40
ATOM     40  C   UNL A   1      43.518  25.584  27.313  1.00  0.00     0.031 A 
ATOM     41  C   UNL A   1      44.556  26.564  26.941  1.00  0.00     0.074 A 
ATOM     42  C   UNL A   1      42.443  25.936  28.050  1.00  0.00     0.049 A 
ATOM     43  N   UNL A   1      45.583  26.894  27.644  1.00  0.00    -0.248 NA
ATOM     44  C   UNL A   1      44.542  27.136  25.588  1.00  0.00     0.031 C 
ATOM     45  C   UNL A   1      41.168  25.228  28.237  1.00  0.00     0.029 A 
ATOM     46  N   UNL A   1      42.232  27.099  28.713  1.00  0.00    -0.354 N 
ATOM     47  C   UNL A   1      46.246  27.870  26.918  1.00  0.00     0.074 A 
ATOM     48  C   UNL A   1      45.679  27.836  25.592  1.00  0.00     0.031 C 
ATOM     49  C   UNL A   1      40.253  26.075  28.765  1.00  0.00     0.029 A 
ATOM     50  C   UNL A   1      40.919  27.318  29.108  1.00  0.00     0.049 A 
ATOM     51  H   UNL A   1      42.954  27.741  28.900  1.00  0.00     0.167 HD
ATOM     52  C   UNL A   1      47.034  28.788  27.542  1.00  0.00     0.031 A 
ATOM     53  C   UNL A   1      40.429  28.460  29.651  1.00  0.00     0.031 A 
ATOM     54  C   UNL A   1      47.233  28.449  28.933  1.00  0.00     0.049 A 
ATOM     55  C   UNL A   1      41.585  29.207  30.205  1.00  0.00     0.074 A 
ATOM     56  C   UNL A   1      47.768  27.367  29.601  1.00  0.00     0.029 A 
ATOM     57  N   UNL A   1      46.439  29.105  29.848  1.00  0.00    -0.354 N 
ATOM     58  N   UNL A   1      42.284  28.784  31.221  1.00  0.00    -0.248 NA
ATOM     59  C   UNL A   1      42.262  30.164  29.342  1.00  0.00     0.031 C 
ATOM     60  C   UNL A   1      46.892  27.151  30.707  1.00  0.00     0.029 A 
ATOM     61  C   UNL A   1      45.927  28.161  30.701  1.00  0.00     0.049 A 
ATOM     62  H   UNL A   1      46.271  30.075  29.884  1.00  0.00     0.167 HD
ATOM     63  C   UNL A   1      43.602  29.046  30.875  1.00  0.00     0.074 A 
ATOM     64  C   UNL A   1      43.520  29.989  29.760  1.00  0.00     0.031 C 
ATOM     65  C   UNL A   1      44.622  28.252  31.320  1.00  0.00     0.031 A 
BRANCH  52  66
ATOM     66  C   UNL A   1      47.283  30.182  27.038  1.00  0.00    -0.014 A 
ATOM     67  C   UNL A   1      48.570  30.728  27.201  1.00  0.00     0.009 A 
ATOM     68  C   UNL A   1      46.258  31.073  26.670  1.00  0.00     0.009 A 
ATOM     69  C   UNL A   1      48.797  32.103  27.089  1.00  0.00     0.001 A 
ATOM     70  C   UNL A   1      46.491  32.441  26.515  1.00  0.00     0.001 A 
ATOM     71  C   UNL A   1      47.754  32.961  26.757  1.00  0.00     0.000 A 
ENDBRANCH  52  66
BRANCH  53  72
ATOM     72  C   UNL A   1      39.094  29.074  29.480  1.00  0.00    -0.014 A 
ATOM     73  C   UNL A   1      38.606  29.387  28.201  1.00  0.00     0.009 A 
ATOM     74  C   UNL A   1      38.178  29.089  30.549  1.00  0.00     0.009 A 
ATOM     75  C   UNL A   1      37.244  29.650  27.992  1.00  0.00     0.001 A 
ATOM     76  C   UNL A   1      36.820  29.354  30.341  1.00  0.00     0.001 A 
ATOM     77  C   UNL A   1      36.349  29.615  29.058  1.00  0.00     0.000 A 
ENDBRANCH  53  72
BRANCH  65  78
ATOM     78  C   UNL A   1      44.306  27.208  32.366  1.00  0.00    -0.014 A 
ATOM     79  C   UNL A   1      44.215  25.832  32.082  1.00  0.00     0.009 A 
ATOM     80  C   UNL A   1      44.264  27.608  33.710  1.00  0.00     0.009 A 
ATOM     81  C   UNL A   1      44.058  24.894  33.110  1.00  0.00     0.001 A 
ATOM     82  C   UNL A   1      44.129  26.671  34.736  1.00  0.00     0.001 A 
ATOM     83  C   UNL A   1      44.020  25.315  34.436  1.00  0.00     0.000 A 
ENDBRANCH  65  78
ENDBRANCH  39  40
ENDBRANCH  31  34
ENDBRANCH  29  30
ENDBRANCH  28  29
ENDBRANCH  27  28
ENDBRANCH  26  27
ENDBRANCH   1  26
TORSDOF 17
ENDMDL
MODEL 3
REMARK VINA RESULT:     -10.5      2.833      6.801
REMARK SMILES Cc1nsc(N(C)C(=O)[C@@H](C)NC(N)=O)c1C(=O)NCCCCCCNC(=O)c1ccc(-c2c3nc(c(-c4ccccc4)c4ccc([nH]4)c(-c4ccccc4)c4nc(c(-c5ccccc5)c5ccc2[nH]5)C=C4)C=C3)cc1
REMARK SMILES IDX 21 1 20 2 19 3 17 4 18 5 16 7 1 8 2 9 3 10 4 11 5 12 6 13
REMARK SMILES IDX 7 14 8 15 9 16 10 17 11 18 12 19 13 20 14 22 15 23 22 26
REMARK SMILES IDX 23 27 24 28 25 29 26 30 27 31 28 33 29 34 30 35 76 36 31 37
REMARK SMILES IDX 75 38 32 39 33 40 34 41 69 42 35 43 74 44 68 45 70 46 36 47
REMARK SMILES IDX 73 48 67 49 66 50 37 52 59 53 44 54 58 55 45 56 48 57 57 58
REMARK SMILES IDX 71 59 46 60 47 61 56 63 72 64 49 65 38 66 39 67 43 68 40 69
REMARK SMILES IDX 42 70 41 71 60 72 61 73 65 74 62 75 64 76 63 77 50 78 51 79
REMARK SMILES IDX 55 80 52 81 54 82 53 83
REMARK H PARENT 19 6 12 21 14 24 14 25 26 32 70 51 48 62
REMARK Flexibility Score: inf
ROOT
ATOM      1  C   UNL A   1      36.581  22.360  23.959  1.00  0.00     0.021 C 
ENDROOT
BRANCH   1   2
ATOM      2  C   UNL A   1      35.696  23.587  24.150  1.00  0.00     0.116 C 
BRANCH   2   3
ATOM      3  N   UNL A   1      34.793  23.939  23.082  1.00  0.00    -0.352 N 
ATOM      4  C   UNL A   1      33.833  24.933  23.031  1.00  0.00     0.256 C 
ATOM      5  O   UNL A   1      33.391  25.238  21.923  1.00  0.00    -0.269 OA
ATOM      6  H   UNL A   1      34.871  23.391  22.267  1.00  0.00     0.163 HD
BRANCH   4   7
ATOM      7  C   UNL A   1      33.343  25.598  24.245  1.00  0.00     0.097 A 
ATOM      8  C   UNL A   1      34.120  28.122  23.853  1.00  0.00     0.069 C 
ATOM      9  C   UNL A   1      33.478  27.009  24.610  1.00  0.00     0.066 A 
ATOM     10  N   UNL A   1      32.922  27.380  25.760  1.00  0.00    -0.195 NA
ATOM     11  S   UNL A   1      32.100  26.121  26.389  1.00  0.00    -0.017 S 
ATOM     12  C   UNL A   1      32.483  24.976  25.170  1.00  0.00     0.131 A 
BRANCH  12  13
ATOM     13  N   UNL A   1      31.917  23.675  25.297  1.00  0.00    -0.303 N 
ATOM     14  C   UNL A   1      30.951  23.135  24.340  1.00  0.00     0.154 C 
BRANCH  13  15
ATOM     15  C   UNL A   1      32.189  22.979  26.487  1.00  0.00     0.249 C 
ATOM     16  O   UNL A   1      31.335  22.916  27.385  1.00  0.00    -0.272 OA
BRANCH  15  17
ATOM     17  C   UNL A   1      33.451  22.058  26.613  1.00  0.00     0.170 C 
ATOM     18  C   UNL A   1      34.450  22.633  27.617  1.00  0.00     0.041 C 
BRANCH  17  19
ATOM     19  N   UNL A   1      33.271  20.627  26.864  1.00  0.00    -0.327 N 
ATOM     20  C   UNL A   1      32.900  19.755  25.885  1.00  0.00     0.312 C 
ATOM     21  H   UNL A   1      33.425  20.282  27.774  1.00  0.00     0.166 HD
ATOM     22  N   UNL A   1      32.821  18.475  26.325  1.00  0.00    -0.352 N 
ATOM     23  O   UNL A   1      32.679  20.039  24.720  1.00  0.00    -0.249 OA
ATOM     24  H   UNL A   1      33.003  18.267  27.269  1.00  0.00     0.161 HD
ATOM     25  H   UNL A   1      32.581  17.754  25.699  1.00  0.00     0.161 HD
ENDBRANCH  17  19
ENDBRANCH  15  17
ENDBRANCH  13  15
ENDBRANCH  12  13
ENDBRANCH   4   7
ENDBRANCH   2   3
ENDBRANCH   1   2
BRANCH   1  26
ATOM     26  C   UNL A   1      37.180  21.685  25.193  1.00  0.00     0.002 C 
BRANCH  26  27
ATOM     27  C   UNL A   1      38.507  22.197  25.770  1.00  0.00     0.002 C 
BRANCH  27  28
ATOM     28  C   UNL A   1      39.612  21.197  26.134  1.00  0.00     0.021 C 
BRANCH  28  29
ATOM     29  C   UNL A   1      40.825  21.768  26.847  1.00  0.00     0.116 C 
BRANCH  29  30
ATOM     30  N   UNL A   1      41.988  21.994  25.983  1.00  0.00    -0.352 N 
ATOM     31  C   UNL A   1      42.595  23.199  25.641  1.00  0.00     0.251 C 
ATOM     32  H   UNL A   1      42.393  21.186  25.593  1.00  0.00     0.163 HD
ATOM     33  O   UNL A   1      43.290  23.297  24.644  1.00  0.00    -0.269 OA
BRANCH  31  34
ATOM     34  C   UNL A   1      42.392  24.365  26.524  1.00  0.00     0.039 A 
ATOM     35  C   UNL A   1      43.113  24.571  27.705  1.00  0.00     0.014 A 
ATOM     36  C   UNL A   1      41.440  25.287  26.118  1.00  0.00     0.014 A 
ATOM     37  C   UNL A   1      42.884  25.744  28.424  1.00  0.00     0.010 A 
ATOM     38  C   UNL A   1      41.444  26.542  26.643  1.00  0.00     0.010 A 
ATOM     39  C   UNL A   1      42.045  26.724  27.872  1.00  0.00    -0.014 A 
BRANCH  39  40
ATOM     40  C   UNL A   1      41.761  27.988  28.519  1.00  0.00     0.031 A 
ATOM     41  C   UNL A   1      42.718  29.066  28.205  1.00  0.00     0.074 A 
ATOM     42  C   UNL A   1      40.597  28.239  29.156  1.00  0.00     0.049 A 
ATOM     43  N   UNL A   1      43.643  29.516  28.980  1.00  0.00    -0.248 NA
ATOM     44  C   UNL A   1      42.758  29.607  26.840  1.00  0.00     0.031 C 
ATOM     45  C   UNL A   1      39.391  27.404  29.259  1.00  0.00     0.029 A 
ATOM     46  N   UNL A   1      40.211  29.386  29.767  1.00  0.00    -0.354 N 
ATOM     47  C   UNL A   1      44.260  30.542  28.283  1.00  0.00     0.074 A 
ATOM     48  C   UNL A   1      43.812  30.423  26.917  1.00  0.00     0.031 C 
ATOM     49  C   UNL A   1      38.352  28.159  29.687  1.00  0.00     0.029 A 
ATOM     50  C   UNL A   1      38.854  29.471  30.048  1.00  0.00     0.049 A 
ATOM     51  H   UNL A   1      40.845  30.104  29.994  1.00  0.00     0.167 HD
ATOM     52  C   UNL A   1      44.893  31.551  28.943  1.00  0.00     0.031 A 
ATOM     53  C   UNL A   1      38.204  30.566  30.517  1.00  0.00     0.031 A 
ATOM     54  C   UNL A   1      45.008  31.261  30.355  1.00  0.00     0.049 A 
ATOM     55  C   UNL A   1      39.226  31.441  31.142  1.00  0.00     0.074 A 
ATOM     56  C   UNL A   1      45.596  30.255  31.094  1.00  0.00     0.029 A 
ATOM     57  N   UNL A   1      44.077  31.848  31.183  1.00  0.00    -0.354 N 
ATOM     58  N   UNL A   1      39.877  31.114  32.223  1.00  0.00    -0.248 NA
ATOM     59  C   UNL A   1      39.869  32.448  30.310  1.00  0.00     0.031 C 
ATOM     60  C   UNL A   1      44.657  29.970  32.130  1.00  0.00     0.029 A 
ATOM     61  C   UNL A   1      43.597  30.872  32.018  1.00  0.00     0.049 A 
ATOM     62  H   UNL A   1      43.807  32.795  31.178  1.00  0.00     0.167 HD
ATOM     63  C   UNL A   1      41.186  31.508  31.978  1.00  0.00     0.074 A 
ATOM     64  C   UNL A   1      41.100  32.415  30.834  1.00  0.00     0.031 C 
ATOM     65  C   UNL A   1      42.241  30.835  32.527  1.00  0.00     0.031 A 
BRANCH  52  66
ATOM     66  C   UNL A   1      45.036  32.954  28.422  1.00  0.00    -0.014 A 
ATOM     67  C   UNL A   1      46.309  33.378  27.998  1.00  0.00     0.009 A 
ATOM     68  C   UNL A   1      44.057  33.950  28.585  1.00  0.00     0.009 A 
ATOM     69  C   UNL A   1      46.608  34.734  27.835  1.00  0.00     0.001 A 
ATOM     70  C   UNL A   1      44.341  35.303  28.382  1.00  0.00     0.001 A 
ATOM     71  C   UNL A   1      45.626  35.697  28.038  1.00  0.00     0.000 A 
ENDBRANCH  52  66
BRANCH  53  72
ATOM     72  C   UNL A   1      36.831  31.031  30.221  1.00  0.00    -0.014 A 
ATOM     73  C   UNL A   1      36.070  31.692  31.200  1.00  0.00     0.009 A 
ATOM     74  C   UNL A   1      36.373  31.086  28.892  1.00  0.00     0.009 A 
ATOM     75  C   UNL A   1      34.926  32.425  30.852  1.00  0.00     0.001 A 
ATOM     76  C   UNL A   1      35.229  31.815  28.545  1.00  0.00     0.001 A 
ATOM     77  C   UNL A   1      34.516  32.500  29.524  1.00  0.00     0.000 A 
ENDBRANCH  53  72
BRANCH  65  78
ATOM     78  C   UNL A   1      41.949  29.783  33.572  1.00  0.00    -0.014 A 
ATOM     79  C   UNL A   1      41.654  28.444  33.259  1.00  0.00     0.009 A 
ATOM     80  C   UNL A   1      42.144  30.119  34.920  1.00  0.00     0.009 A 
ATOM     81  C   UNL A   1      41.528  27.480  34.267  1.00  0.00     0.001 A 
ATOM     82  C   UNL A   1      42.040  29.153  35.924  1.00  0.00     0.001 A 
ATOM     83  C   UNL A   1      41.726  27.836  35.599  1.00  0.00     0.000 A 
ENDBRANCH  65  78
ENDBRANCH  39  40
ENDBRANCH  31  34
ENDBRANCH  29  30
ENDBRANCH  28  29
ENDBRANCH  27  28
ENDBRANCH  26  27
ENDBRANCH   1  26
TORSDOF 17
ENDMDL
