MODEL 1
REMARK VINA RESULT:      -9.8      0.000      0.000
REMARK SMILES Cc1nc([C@H](C)[NH2+]CC(=O)NCCCCCCNC(=O)c2ccc(-c3c4nc(c(-c5ccccc5)c5ccc([nH]5)c(-c5ccccc5)c5nc(c(-c6ccccc6)c6ccc3[nH]6)C=C5)C=C4)cc2)cs1
REMARK SMILES IDX 14 1 13 2 12 3 11 4 9 5 10 6 8 8 7 9 5 12 6 13 4 14 1 15
REMARK SMILES IDX 2 16 3 17 70 18 69 19 15 20 16 21 17 22 18 23 19 24 20 26
REMARK SMILES IDX 21 27 22 28 68 29 23 30 67 31 24 32 25 33 26 34 61 35 27 36
REMARK SMILES IDX 66 37 60 38 62 39 28 40 65 41 59 42 58 43 29 45 51 46 36 47
REMARK SMILES IDX 50 48 37 49 40 50 49 51 63 52 38 53 39 54 48 56 64 57 41 58
REMARK SMILES IDX 30 59 31 60 35 61 32 62 34 63 33 64 52 65 53 66 57 67 54 68
REMARK SMILES IDX 56 69 55 70 42 71 43 72 47 73 44 74 46 75 45 76
REMARK H PARENT 11 7 7 10 7 11 18 25 62 44 40 55
REMARK Flexibility Score: inf
ROOT
ATOM      1  C   UNL A   1      32.709  29.121  27.190  1.00  0.00     0.002 C 
ENDROOT
BRANCH   1   2
ATOM      2  C   UNL A   1      33.938  28.479  26.540  1.00  0.00     0.021 C 
BRANCH   2   3
ATOM      3  C   UNL A   1      33.750  27.076  25.938  1.00  0.00     0.116 C 
BRANCH   3   4
ATOM      4  N   UNL A   1      34.008  26.938  24.512  1.00  0.00    -0.351 N 
ATOM      5  C   UNL A   1      33.242  27.223  23.417  1.00  0.00     0.275 C 
ATOM      6  O   UNL A   1      33.799  27.232  22.315  1.00  0.00    -0.269 OA
ATOM      7  H   UNL A   1      34.897  26.573  24.297  1.00  0.00     0.163 HD
BRANCH   5   8
ATOM      8  C   UNL A   1      31.723  27.412  23.517  1.00  0.00     0.362 C 
BRANCH   8   9
ATOM      9  N   UNL A   1      31.187  28.182  22.365  1.00  0.00    -0.331 N 
ATOM     10  H   UNL A   1      31.579  29.124  22.385  1.00  0.00     0.347 HD
ATOM     11  H   UNL A   1      31.451  27.698  21.507  1.00  0.00     0.347 HD
BRANCH   9  12
ATOM     12  C   UNL A   1      29.722  28.274  22.412  1.00  0.00     0.230 C 
ATOM     13  C   UNL A   1      29.153  27.397  23.526  1.00  0.00     0.082 C 
BRANCH  12  14
ATOM     14  C   UNL A   1      29.193  29.696  22.415  1.00  0.00     0.108 A 
ATOM     15  C   UNL A   1      27.858  32.373  20.293  1.00  0.00     0.079 C 
ATOM     16  C   UNL A   1      28.394  31.501  21.372  1.00  0.00     0.090 A 
ATOM     17  N   UNL A   1      28.746  30.243  21.211  1.00  0.00    -0.240 NA
ATOM     18  S   UNL A   1      28.623  32.135  22.947  1.00  0.00    -0.127 S 
ATOM     19  C   UNL A   1      29.185  30.605  23.461  1.00  0.00     0.096 A 
ENDBRANCH  12  14
ENDBRANCH   9  12
ENDBRANCH   8   9
ENDBRANCH   5   8
ENDBRANCH   3   4
ENDBRANCH   2   3
ENDBRANCH   1   2
BRANCH   1  20
ATOM     20  C   UNL A   1      31.897  30.037  26.273  1.00  0.00     0.002 C 
BRANCH  20  21
ATOM     21  C   UNL A   1      31.621  31.439  26.822  1.00  0.00     0.021 C 
BRANCH  21  22
ATOM     22  C   UNL A   1      32.862  32.290  27.076  1.00  0.00     0.116 C 
BRANCH  22  23
ATOM     23  N   UNL A   1      32.526  33.619  27.563  1.00  0.00    -0.352 N 
ATOM     24  C   UNL A   1      33.156  34.353  28.542  1.00  0.00     0.251 C 
ATOM     25  H   UNL A   1      31.750  34.048  27.136  1.00  0.00     0.163 HD
ATOM     26  O   UNL A   1      32.657  35.374  28.989  1.00  0.00    -0.269 OA
BRANCH  24  27
ATOM     27  C   UNL A   1      34.450  33.867  29.068  1.00  0.00     0.039 A 
ATOM     28  C   UNL A   1      34.466  33.066  30.211  1.00  0.00     0.014 A 
ATOM     29  C   UNL A   1      35.635  34.165  28.390  1.00  0.00     0.014 A 
ATOM     30  C   UNL A   1      35.672  32.506  30.640  1.00  0.00     0.010 A 
ATOM     31  C   UNL A   1      36.821  33.549  28.778  1.00  0.00     0.010 A 
ATOM     32  C   UNL A   1      36.852  32.714  29.906  1.00  0.00    -0.014 A 
BRANCH  32  33
ATOM     33  C   UNL A   1      38.130  32.070  30.303  1.00  0.00     0.031 A 
ATOM     34  C   UNL A   1      39.051  32.760  31.272  1.00  0.00     0.074 A 
ATOM     35  C   UNL A   1      38.494  30.898  29.746  1.00  0.00     0.049 A 
ATOM     36  N   UNL A   1      40.232  32.388  31.698  1.00  0.00    -0.248 NA
ATOM     37  C   UNL A   1      38.596  34.051  31.813  1.00  0.00     0.031 C 
ATOM     38  C   UNL A   1      37.713  30.148  28.760  1.00  0.00     0.029 A 
ATOM     39  N   UNL A   1      39.620  30.135  29.927  1.00  0.00    -0.354 N 
ATOM     40  C   UNL A   1      40.663  33.403  32.543  1.00  0.00     0.074 A 
ATOM     41  C   UNL A   1      39.646  34.431  32.525  1.00  0.00     0.031 C 
ATOM     42  C   UNL A   1      38.373  29.021  28.443  1.00  0.00     0.029 A 
ATOM     43  C   UNL A   1      39.636  28.986  29.173  1.00  0.00     0.049 A 
ATOM     44  H   UNL A   1      40.349  30.386  30.539  1.00  0.00     0.167 HD
ATOM     45  C   UNL A   1      41.792  33.463  33.289  1.00  0.00     0.031 A 
ATOM     46  C   UNL A   1      40.565  28.015  29.077  1.00  0.00     0.031 A 
ATOM     47  C   UNL A   1      42.801  32.440  33.314  1.00  0.00     0.049 A 
ATOM     48  C   UNL A   1      41.816  28.112  29.906  1.00  0.00     0.074 A 
ATOM     49  C   UNL A   1      43.959  32.388  34.071  1.00  0.00     0.029 A 
ATOM     50  N   UNL A   1      42.772  31.286  32.546  1.00  0.00    -0.354 N 
ATOM     51  N   UNL A   1      42.177  29.047  30.752  1.00  0.00    -0.248 NA
ATOM     52  C   UNL A   1      42.783  27.012  29.775  1.00  0.00     0.031 C 
ATOM     53  C   UNL A   1      44.652  31.224  33.726  1.00  0.00     0.029 A 
ATOM     54  C   UNL A   1      43.899  30.524  32.797  1.00  0.00     0.049 A 
ATOM     55  H   UNL A   1      42.054  31.045  31.917  1.00  0.00     0.167 HD
ATOM     56  C   UNL A   1      43.395  28.633  31.275  1.00  0.00     0.074 A 
ATOM     57  C   UNL A   1      43.704  27.357  30.664  1.00  0.00     0.031 C 
ATOM     58  C   UNL A   1      44.189  29.255  32.181  1.00  0.00     0.031 A 
BRANCH  45  59
ATOM     59  C   UNL A   1      41.988  34.687  34.142  1.00  0.00    -0.014 A 
ATOM     60  C   UNL A   1      41.582  34.709  35.486  1.00  0.00     0.009 A 
ATOM     61  C   UNL A   1      42.608  35.826  33.603  1.00  0.00     0.009 A 
ATOM     62  C   UNL A   1      41.754  35.857  36.261  1.00  0.00     0.001 A 
ATOM     63  C   UNL A   1      42.807  36.962  34.390  1.00  0.00     0.001 A 
ATOM     64  C   UNL A   1      42.371  36.980  35.714  1.00  0.00     0.000 A 
ENDBRANCH  45  59
BRANCH  46  65
ATOM     65  C   UNL A   1      40.345  26.856  28.172  1.00  0.00    -0.014 A 
ATOM     66  C   UNL A   1      39.687  25.706  28.634  1.00  0.00     0.009 A 
ATOM     67  C   UNL A   1      40.805  26.886  26.847  1.00  0.00     0.009 A 
ATOM     68  C   UNL A   1      39.522  24.598  27.799  1.00  0.00     0.001 A 
ATOM     69  C   UNL A   1      40.612  25.788  26.004  1.00  0.00     0.001 A 
ATOM     70  C   UNL A   1      39.981  24.643  26.483  1.00  0.00     0.000 A 
ENDBRANCH  46  65
BRANCH  58  71
ATOM     71  C   UNL A   1      45.448  28.547  32.593  1.00  0.00    -0.014 A 
ATOM     72  C   UNL A   1      46.666  28.782  31.938  1.00  0.00     0.009 A 
ATOM     73  C   UNL A   1      45.420  27.662  33.683  1.00  0.00     0.009 A 
ATOM     74  C   UNL A   1      47.825  28.119  32.346  1.00  0.00     0.001 A 
ATOM     75  C   UNL A   1      46.586  27.023  34.107  1.00  0.00     0.001 A 
ATOM     76  C   UNL A   1      47.785  27.245  33.432  1.00  0.00     0.000 A 
ENDBRANCH  58  71
ENDBRANCH  32  33
ENDBRANCH  24  27
ENDBRANCH  22  23
ENDBRANCH  21  22
ENDBRANCH  20  21
ENDBRANCH   1  20
TORSDOF 16
ENDMDL
MODEL 2
REMARK VINA RESULT:      -9.6      4.452      6.146
REMARK SMILES Cc1nc([C@H](C)[NH2+]CC(=O)NCCCCCCNC(=O)c2ccc(-c3c4nc(c(-c5ccccc5)c5ccc([nH]5)c(-c5ccccc5)c5nc(c(-c6ccccc6)c6ccc3[nH]6)C=C5)C=C4)cc2)cs1
REMARK SMILES IDX 14 1 13 2 12 3 11 4 9 5 10 6 8 8 7 9 5 12 6 13 4 14 1 15
REMARK SMILES IDX 2 16 3 17 70 18 69 19 15 20 16 21 17 22 18 23 19 24 20 26
REMARK SMILES IDX 21 27 22 28 68 29 23 30 67 31 24 32 25 33 26 34 61 35 27 36
REMARK SMILES IDX 66 37 60 38 62 39 28 40 65 41 59 42 58 43 29 45 51 46 36 47
REMARK SMILES IDX 50 48 37 49 40 50 49 51 63 52 38 53 39 54 48 56 64 57 41 58
REMARK SMILES IDX 30 59 31 60 35 61 32 62 34 63 33 64 52 65 53 66 57 67 54 68
REMARK SMILES IDX 56 69 55 70 42 71 43 72 47 73 44 74 46 75 45 76
REMARK H PARENT 11 7 7 10 7 11 18 25 62 44 40 55
REMARK Flexibility Score: inf
ROOT
ATOM      1  C   UNL A   1      33.730  26.892  24.311  1.00  0.00     0.002 C 
ENDROOT
BRANCH   1   2
ATOM      2  C   UNL A   1      34.036  25.735  25.268  1.00  0.00     0.021 C 
BRANCH   2   3
ATOM      3  C   UNL A   1      34.978  24.637  24.748  1.00  0.00     0.116 C 
BRANCH   3   4
ATOM      4  N   UNL A   1      35.261  23.536  25.658  1.00  0.00    -0.351 N 
ATOM      5  C   UNL A   1      34.634  22.339  25.862  1.00  0.00     0.275 C 
ATOM      6  O   UNL A   1      35.228  21.489  26.532  1.00  0.00    -0.269 OA
ATOM      7  H   UNL A   1      36.047  23.681  26.233  1.00  0.00     0.163 HD
BRANCH   5   8
ATOM      8  C   UNL A   1      33.200  22.083  25.382  1.00  0.00     0.362 C 
BRANCH   8   9
ATOM      9  N   UNL A   1      32.683  20.776  25.865  1.00  0.00    -0.331 N 
ATOM     10  H   UNL A   1      33.421  20.299  26.384  1.00  0.00     0.347 HD
ATOM     11  H   UNL A   1      31.876  20.952  26.461  1.00  0.00     0.347 HD
BRANCH   9  12
ATOM     12  C   UNL A   1      32.256  19.921  24.749  1.00  0.00     0.230 C 
ATOM     13  C   UNL A   1      32.363  20.661  23.418  1.00  0.00     0.082 C 
BRANCH  12  14
ATOM     14  C   UNL A   1      32.899  18.546  24.746  1.00  0.00     0.108 A 
ATOM     15  C   UNL A   1      32.404  15.031  25.667  1.00  0.00     0.079 C 
ATOM     16  C   UNL A   1      32.889  16.366  25.228  1.00  0.00     0.090 A 
ATOM     17  N   UNL A   1      32.163  17.464  25.231  1.00  0.00    -0.240 NA
ATOM     18  S   UNL A   1      34.509  16.555  24.703  1.00  0.00    -0.127 S 
ATOM     19  C   UNL A   1      34.202  18.212  24.412  1.00  0.00     0.096 A 
ENDBRANCH  12  14
ENDBRANCH   9  12
ENDBRANCH   8   9
ENDBRANCH   5   8
ENDBRANCH   3   4
ENDBRANCH   2   3
ENDBRANCH   1   2
BRANCH   1  20
ATOM     20  C   UNL A   1      33.565  28.256  24.981  1.00  0.00     0.002 C 
BRANCH  20  21
ATOM     21  C   UNL A   1      32.728  28.261  26.263  1.00  0.00     0.021 C 
BRANCH  21  22
ATOM     22  C   UNL A   1      33.484  28.668  27.526  1.00  0.00     0.116 C 
BRANCH  22  23
ATOM     23  N   UNL A   1      33.542  30.112  27.688  1.00  0.00    -0.352 N 
ATOM     24  C   UNL A   1      34.583  30.875  28.168  1.00  0.00     0.251 C 
ATOM     25  H   UNL A   1      32.735  30.607  27.421  1.00  0.00     0.163 HD
ATOM     26  O   UNL A   1      34.432  32.057  28.434  1.00  0.00    -0.269 OA
BRANCH  24  27
ATOM     27  C   UNL A   1      35.895  30.227  28.381  1.00  0.00     0.039 A 
ATOM     28  C   UNL A   1      36.831  30.223  27.346  1.00  0.00     0.014 A 
ATOM     29  C   UNL A   1      36.206  29.675  29.626  1.00  0.00     0.014 A 
ATOM     30  C   UNL A   1      38.114  29.720  27.583  1.00  0.00     0.010 A 
ATOM     31  C   UNL A   1      37.503  29.240  29.879  1.00  0.00     0.010 A 
ATOM     32  C   UNL A   1      38.470  29.258  28.861  1.00  0.00    -0.014 A 
BRANCH  32  33
ATOM     33  C   UNL A   1      39.847  28.786  29.153  1.00  0.00     0.031 A 
ATOM     34  C   UNL A   1      40.830  29.701  29.831  1.00  0.00     0.074 A 
ATOM     35  C   UNL A   1      40.236  27.559  28.753  1.00  0.00     0.049 A 
ATOM     36  N   UNL A   1      42.089  29.495  30.121  1.00  0.00    -0.248 NA
ATOM     37  C   UNL A   1      40.337  31.036  30.210  1.00  0.00     0.031 C 
ATOM     38  C   UNL A   1      39.396  26.590  28.046  1.00  0.00     0.029 A 
ATOM     39  N   UNL A   1      41.444  26.919  28.880  1.00  0.00    -0.354 N 
ATOM     40  C   UNL A   1      42.540  30.673  30.702  1.00  0.00     0.074 A 
ATOM     41  C   UNL A   1      41.439  31.609  30.671  1.00  0.00     0.031 C 
ATOM     42  C   UNL A   1      40.106  25.472  27.825  1.00  0.00     0.029 A 
ATOM     43  C   UNL A   1      41.459  25.656  28.339  1.00  0.00     0.049 A 
ATOM     44  H   UNL A   1      42.226  27.327  29.316  1.00  0.00     0.167 HD
ATOM     45  C   UNL A   1      43.754  30.945  31.237  1.00  0.00     0.031 A 
ATOM     46  C   UNL A   1      42.452  24.749  28.263  1.00  0.00     0.031 A 
ATOM     47  C   UNL A   1      44.849  30.014  31.275  1.00  0.00     0.049 A 
ATOM     48  C   UNL A   1      43.795  25.080  28.854  1.00  0.00     0.074 A 
ATOM     49  C   UNL A   1      46.103  30.179  31.835  1.00  0.00     0.029 A 
ATOM     50  N   UNL A   1      44.818  28.740  30.729  1.00  0.00    -0.354 N 
ATOM     51  N   UNL A   1      44.184  26.176  29.460  1.00  0.00    -0.248 NA
ATOM     52  C   UNL A   1      44.833  24.042  28.760  1.00  0.00     0.031 C 
ATOM     53  C   UNL A   1      46.847  29.021  31.587  1.00  0.00     0.029 A 
ATOM     54  C   UNL A   1      46.037  28.114  30.923  1.00  0.00     0.049 A 
ATOM     55  H   UNL A   1      44.043  28.340  30.272  1.00  0.00     0.167 HD
ATOM     56  C   UNL A   1      45.499  25.948  29.845  1.00  0.00     0.074 A 
ATOM     57  C   UNL A   1      45.836  24.605  29.419  1.00  0.00     0.031 C 
ATOM     58  C   UNL A   1      46.353  26.777  30.494  1.00  0.00     0.031 A 
BRANCH  45  59
ATOM     59  C   UNL A   1      43.955  32.314  31.826  1.00  0.00    -0.014 A 
ATOM     60  C   UNL A   1      44.430  33.379  31.043  1.00  0.00     0.009 A 
ATOM     61  C   UNL A   1      43.644  32.551  33.175  1.00  0.00     0.009 A 
ATOM     62  C   UNL A   1      44.629  34.641  31.606  1.00  0.00     0.001 A 
ATOM     63  C   UNL A   1      43.815  33.822  33.728  1.00  0.00     0.001 A 
ATOM     64  C   UNL A   1      44.317  34.862  32.947  1.00  0.00     0.000 A 
ENDBRANCH  45  59
BRANCH  46  65
ATOM     65  C   UNL A   1      42.214  23.431  27.616  1.00  0.00    -0.014 A 
ATOM     66  C   UNL A   1      41.695  22.357  28.355  1.00  0.00     0.009 A 
ATOM     67  C   UNL A   1      42.520  23.236  26.261  1.00  0.00     0.009 A 
ATOM     68  C   UNL A   1      41.516  21.106  27.759  1.00  0.00     0.001 A 
ATOM     69  C   UNL A   1      42.312  21.992  25.659  1.00  0.00     0.001 A 
ATOM     70  C   UNL A   1      41.821  20.927  26.410  1.00  0.00     0.000 A 
ENDBRANCH  46  65
BRANCH  58  71
ATOM     71  C   UNL A   1      47.720  26.242  30.815  1.00  0.00    -0.014 A 
ATOM     72  C   UNL A   1      48.017  25.708  32.078  1.00  0.00     0.009 A 
ATOM     73  C   UNL A   1      48.712  26.234  29.821  1.00  0.00     0.009 A 
ATOM     74  C   UNL A   1      49.292  25.208  32.349  1.00  0.00     0.001 A 
ATOM     75  C   UNL A   1      49.977  25.707  30.086  1.00  0.00     0.001 A 
ATOM     76  C   UNL A   1      50.268  25.203  31.352  1.00  0.00     0.000 A 
ENDBRANCH  58  71
ENDBRANCH  32  33
ENDBRANCH  24  27
ENDBRANCH  22  23
ENDBRANCH  21  22
ENDBRANCH  20  21
ENDBRANCH   1  20
TORSDOF 16
ENDMDL
MODEL 3
REMARK VINA RESULT:      -9.5      4.824      8.347
REMARK SMILES Cc1nc([C@H](C)[NH2+]CC(=O)NCCCCCCNC(=O)c2ccc(-c3c4nc(c(-c5ccccc5)c5ccc([nH]5)c(-c5ccccc5)c5nc(c(-c6ccccc6)c6ccc3[nH]6)C=C5)C=C4)cc2)cs1
REMARK SMILES IDX 14 1 13 2 12 3 11 4 9 5 10 6 8 8 7 9 5 12 6 13 4 14 1 15
REMARK SMILES IDX 2 16 3 17 70 18 69 19 15 20 16 21 17 22 18 23 19 24 20 26
REMARK SMILES IDX 21 27 22 28 68 29 23 30 67 31 24 32 25 33 26 34 61 35 27 36
REMARK SMILES IDX 66 37 60 38 62 39 28 40 65 41 59 42 58 43 29 45 51 46 36 47
REMARK SMILES IDX 50 48 37 49 40 50 49 51 63 52 38 53 39 54 48 56 64 57 41 58
REMARK SMILES IDX 30 59 31 60 35 61 32 62 34 63 33 64 52 65 53 66 57 67 54 68
REMARK SMILES IDX 56 69 55 70 42 71 43 72 47 73 44 74 46 75 45 76
REMARK H PARENT 11 7 7 10 7 11 18 25 62 44 40 55
REMARK Flexibility Score: inf
ROOT
ATOM      1  C   UNL A   1      34.729  34.374  33.932  1.00  0.00     0.002 C 
ENDROOT
BRANCH   1   2
ATOM      2  C   UNL A   1      35.912  34.403  34.905  1.00  0.00     0.021 C 
BRANCH   2   3
ATOM      3  C   UNL A   1      36.821  33.163  34.927  1.00  0.00     0.116 C 
BRANCH   3   4
ATOM      4  N   UNL A   1      37.462  32.847  36.196  1.00  0.00    -0.351 N 
ATOM      5  C   UNL A   1      38.372  31.889  36.542  1.00  0.00     0.275 C 
ATOM      6  O   UNL A   1      38.928  31.997  37.640  1.00  0.00    -0.269 OA
ATOM      7  H   UNL A   1      37.188  33.430  36.941  1.00  0.00     0.163 HD
BRANCH   5   8
ATOM      8  C   UNL A   1      38.623  30.654  35.667  1.00  0.00     0.362 C 
BRANCH   8   9
ATOM      9  N   UNL A   1      39.928  30.737  34.961  1.00  0.00    -0.331 N 
ATOM     10  H   UNL A   1      39.766  30.672  33.955  1.00  0.00     0.347 HD
ATOM     11  H   UNL A   1      40.365  31.627  35.200  1.00  0.00     0.347 HD
BRANCH   9  12
ATOM     12  C   UNL A   1      40.832  29.654  35.370  1.00  0.00     0.230 C 
ATOM     13  C   UNL A   1      41.133  28.719  34.201  1.00  0.00     0.082 C 
BRANCH  12  14
ATOM     14  C   UNL A   1      42.065  30.129  36.115  1.00  0.00     0.108 A 
ATOM     15  C   UNL A   1      45.383  29.126  37.314  1.00  0.00     0.079 C 
ATOM     16  C   UNL A   1      44.093  29.789  36.986  1.00  0.00     0.090 A 
ATOM     17  N   UNL A   1      43.141  29.250  36.253  1.00  0.00    -0.240 NA
ATOM     18  S   UNL A   1      43.753  31.350  37.605  1.00  0.00    -0.127 S 
ATOM     19  C   UNL A   1      42.248  31.323  36.795  1.00  0.00     0.096 A 
ENDBRANCH  12  14
ENDBRANCH   9  12
ENDBRANCH   8   9
ENDBRANCH   5   8
ENDBRANCH   3   4
ENDBRANCH   2   3
ENDBRANCH   1   2
BRANCH   1  20
ATOM     20  C   UNL A   1      34.876  35.283  32.711  1.00  0.00     0.002 C 
BRANCH  20  21
ATOM     21  C   UNL A   1      33.561  35.756  32.083  1.00  0.00     0.021 C 
BRANCH  21  22
ATOM     22  C   UNL A   1      33.693  36.364  30.690  1.00  0.00     0.116 C 
BRANCH  22  23
ATOM     23  N   UNL A   1      32.827  35.710  29.721  1.00  0.00    -0.352 N 
ATOM     24  C   UNL A   1      33.109  34.627  28.919  1.00  0.00     0.251 C 
ATOM     25  H   UNL A   1      31.924  36.089  29.628  1.00  0.00     0.163 HD
ATOM     26  O   UNL A   1      32.361  34.298  28.012  1.00  0.00    -0.269 OA
BRANCH  24  27
ATOM     27  C   UNL A   1      34.360  33.876  29.160  1.00  0.00     0.039 A 
ATOM     28  C   UNL A   1      35.512  34.218  28.451  1.00  0.00     0.014 A 
ATOM     29  C   UNL A   1      34.393  32.870  30.131  1.00  0.00     0.014 A 
ATOM     30  C   UNL A   1      36.722  33.593  28.763  1.00  0.00     0.010 A 
ATOM     31  C   UNL A   1      35.612  32.301  30.488  1.00  0.00     0.010 A 
ATOM     32  C   UNL A   1      36.788  32.656  29.808  1.00  0.00    -0.014 A 
BRANCH  32  33
ATOM     33  C   UNL A   1      38.077  32.033  30.204  1.00  0.00     0.031 A 
ATOM     34  C   UNL A   1      38.998  32.746  31.154  1.00  0.00     0.074 A 
ATOM     35  C   UNL A   1      38.448  30.857  29.661  1.00  0.00     0.049 A 
ATOM     36  N   UNL A   1      40.186  32.395  31.576  1.00  0.00    -0.248 NA
ATOM     37  C   UNL A   1      38.533  34.041  31.680  1.00  0.00     0.031 C 
ATOM     38  C   UNL A   1      37.668  30.083  28.692  1.00  0.00     0.029 A 
ATOM     39  N   UNL A   1      39.585  30.108  29.844  1.00  0.00    -0.354 N 
ATOM     40  C   UNL A   1      40.613  33.426  32.402  1.00  0.00     0.074 A 
ATOM     41  C   UNL A   1      39.585  34.442  32.378  1.00  0.00     0.031 C 
ATOM     42  C   UNL A   1      38.337  28.959  28.387  1.00  0.00     0.029 A 
ATOM     43  C   UNL A   1      39.607  28.949  29.106  1.00  0.00     0.049 A 
ATOM     44  H   UNL A   1      40.316  30.377  30.445  1.00  0.00     0.167 HD
ATOM     45  C   UNL A   1      41.748  33.510  33.138  1.00  0.00     0.031 A 
ATOM     46  C   UNL A   1      40.546  27.987  29.016  1.00  0.00     0.031 A 
ATOM     47  C   UNL A   1      42.769  32.498  33.169  1.00  0.00     0.049 A 
ATOM     48  C   UNL A   1      41.803  28.110  29.833  1.00  0.00     0.074 A 
ATOM     49  C   UNL A   1      43.933  32.471  33.916  1.00  0.00     0.029 A 
ATOM     50  N   UNL A   1      42.745  31.333  32.418  1.00  0.00    -0.354 N 
ATOM     51  N   UNL A   1      42.160  29.061  30.662  1.00  0.00    -0.248 NA
ATOM     52  C   UNL A   1      42.781  27.019  29.710  1.00  0.00     0.031 C 
ATOM     53  C   UNL A   1      44.637  31.309  33.582  1.00  0.00     0.029 A 
ATOM     54  C   UNL A   1      43.884  30.587  32.670  1.00  0.00     0.049 A 
ATOM     55  H   UNL A   1      42.025  31.075  31.798  1.00  0.00     0.167 HD
ATOM     56  C   UNL A   1      43.387  28.669  31.181  1.00  0.00     0.074 A 
ATOM     57  C   UNL A   1      43.705  27.387  30.586  1.00  0.00     0.031 C 
ATOM     58  C   UNL A   1      44.182  29.313  32.070  1.00  0.00     0.031 A 
BRANCH  45  59
ATOM     59  C   UNL A   1      41.938  34.748  33.970  1.00  0.00    -0.014 A 
ATOM     60  C   UNL A   1      41.442  34.824  35.282  1.00  0.00     0.009 A 
ATOM     61  C   UNL A   1      42.641  35.846  33.447  1.00  0.00     0.009 A 
ATOM     62  C   UNL A   1      41.610  35.986  36.038  1.00  0.00     0.001 A 
ATOM     63  C   UNL A   1      42.834  36.994  34.216  1.00  0.00     0.001 A 
ATOM     64  C   UNL A   1      42.310  37.068  35.506  1.00  0.00     0.000 A 
ENDBRANCH  45  59
BRANCH  46  65
ATOM     65  C   UNL A   1      40.331  26.812  28.131  1.00  0.00    -0.014 A 
ATOM     66  C   UNL A   1      39.593  25.706  28.580  1.00  0.00     0.009 A 
ATOM     67  C   UNL A   1      40.876  26.782  26.838  1.00  0.00     0.009 A 
ATOM     68  C   UNL A   1      39.431  24.583  27.765  1.00  0.00     0.001 A 
ATOM     69  C   UNL A   1      40.688  25.670  26.014  1.00  0.00     0.001 A 
ATOM     70  C   UNL A   1      39.975  24.568  26.482  1.00  0.00     0.000 A 
ENDBRANCH  46  65
BRANCH  58  71
ATOM     71  C   UNL A   1      45.452  28.624  32.482  1.00  0.00    -0.014 A 
ATOM     72  C   UNL A   1      46.658  28.846  31.799  1.00  0.00     0.009 A 
ATOM     73  C   UNL A   1      45.448  27.774  33.599  1.00  0.00     0.009 A 
ATOM     74  C   UNL A   1      47.828  28.202  32.207  1.00  0.00     0.001 A 
ATOM     75  C   UNL A   1      46.626  27.154  34.022  1.00  0.00     0.001 A 
ATOM     76  C   UNL A   1      47.812  27.362  33.320  1.00  0.00     0.000 A 
ENDBRANCH  58  71
ENDBRANCH  32  33
ENDBRANCH  24  27
ENDBRANCH  22  23
ENDBRANCH  21  22
ENDBRANCH  20  21
ENDBRANCH   1  20
TORSDOF 16
ENDMDL
