MODEL 1
REMARK VINA RESULT:     -10.3      0.000      0.000
REMARK SMILES CCC(CC)(NC(=O)c1c(C)noc1C)C(=O)NCCCCCCNC(=O)c1ccc(-c2c3nc(c(-c4ccccc4)c4ccc([nH]4)c(-c4ccccc4)c4nc(c(-c5ccccc5)c5ccc2[nH]5)C=C4)C=C3)cc1
REMARK SMILES IDX 21 1 20 2 19 3 18 4 16 5 17 6 3 8 2 9 1 10 4 11 5 12 6 13
REMARK SMILES IDX 7 14 8 16 9 17 10 18 14 19 11 20 12 21 13 22 15 23 22 24
REMARK SMILES IDX 23 25 24 26 25 27 26 28 27 30 28 31 29 32 75 33 30 34 74 35
REMARK SMILES IDX 31 36 32 37 33 38 68 39 34 40 73 41 67 42 69 43 35 44 72 45
REMARK SMILES IDX 66 46 65 47 36 49 58 50 43 51 57 52 44 53 47 54 56 55 70 56
REMARK SMILES IDX 45 57 46 58 55 60 71 61 48 62 37 63 38 64 42 65 39 66 41 67
REMARK SMILES IDX 40 68 59 69 60 70 64 71 61 72 63 73 62 74 49 75 50 76 54 77
REMARK SMILES IDX 51 78 53 79 52 80
REMARK H PARENT 18 7 6 15 25 29 69 48 47 59
REMARK Flexibility Score: inf
ROOT
ATOM      1  C   UNL A   1      34.476  20.646  25.375  1.00  0.00     0.002 C 
ENDROOT
BRANCH   1   2
ATOM      2  C   UNL A   1      33.413  20.706  24.283  1.00  0.00     0.021 C 
BRANCH   2   3
ATOM      3  C   UNL A   1      32.017  21.245  24.631  1.00  0.00     0.116 C 
BRANCH   3   4
ATOM      4  N   UNL A   1      31.782  21.761  25.976  1.00  0.00    -0.354 N 
ATOM      5  C   UNL A   1      31.501  23.015  26.477  1.00  0.00     0.245 C 
ATOM      6  O   UNL A   1      31.059  23.067  27.628  1.00  0.00    -0.272 OA
ATOM      7  H   UNL A   1      31.832  21.067  26.673  1.00  0.00     0.163 HD
BRANCH   5   8
ATOM      8  C   UNL A   1      31.525  24.260  25.571  1.00  0.00     0.118 C 
BRANCH   8   9
ATOM      9  C   UNL A   1      30.648  24.245  24.293  1.00  0.00     0.035 C 
ATOM     10  C   UNL A   1      31.293  24.628  22.968  1.00  0.00     0.007 C 
ENDBRANCH   8   9
BRANCH   8  11
ATOM     11  C   UNL A   1      33.053  24.337  25.189  1.00  0.00     0.035 C 
ATOM     12  C   UNL A   1      34.088  24.234  26.296  1.00  0.00     0.007 C 
ENDBRANCH   8  11
BRANCH   8  13
ATOM     13  N   UNL A   1      31.078  25.408  26.377  1.00  0.00    -0.337 N 
ATOM     14  C   UNL A   1      31.248  26.775  26.323  1.00  0.00     0.257 C 
ATOM     15  H   UNL A   1      30.520  25.133  27.140  1.00  0.00     0.164 HD
ATOM     16  O   UNL A   1      31.012  27.284  27.428  1.00  0.00    -0.269 OA
BRANCH  14  17
ATOM     17  C   UNL A   1      31.633  27.662  25.207  1.00  0.00     0.105 A 
ATOM     18  C   UNL A   1      32.922  28.342  25.225  1.00  0.00     0.093 A 
ATOM     19  C   UNL A   1      31.051  28.240  24.074  1.00  0.00     0.146 A 
ATOM     20  C   UNL A   1      34.000  28.304  26.245  1.00  0.00     0.071 C 
ATOM     21  N   UNL A   1      33.106  29.132  24.171  1.00  0.00    -0.084 NA
ATOM     22  O   UNL A   1      31.957  29.052  23.457  1.00  0.00    -0.361 OA
ATOM     23  C   UNL A   1      29.771  28.350  23.344  1.00  0.00     0.092 C 
ENDBRANCH  14  17
ENDBRANCH   8  13
ENDBRANCH   5   8
ENDBRANCH   3   4
ENDBRANCH   2   3
ENDBRANCH   1   2
BRANCH   1  24
ATOM     24  C   UNL A   1      35.921  20.716  24.898  1.00  0.00     0.002 C 
BRANCH  24  25
ATOM     25  C   UNL A   1      36.877  21.378  25.886  1.00  0.00     0.021 C 
BRANCH  25  26
ATOM     26  C   UNL A   1      38.312  21.502  25.392  1.00  0.00     0.116 C 
BRANCH  26  27
ATOM     27  N   UNL A   1      39.049  20.248  25.474  1.00  0.00    -0.352 N 
ATOM     28  C   UNL A   1      40.328  20.055  25.938  1.00  0.00     0.251 C 
ATOM     29  H   UNL A   1      38.575  19.445  25.160  1.00  0.00     0.163 HD
ATOM     30  O   UNL A   1      40.892  18.971  25.833  1.00  0.00    -0.269 OA
BRANCH  28  31
ATOM     31  C   UNL A   1      41.028  21.204  26.542  1.00  0.00     0.039 A 
ATOM     32  C   UNL A   1      41.632  22.150  25.712  1.00  0.00     0.014 A 
ATOM     33  C   UNL A   1      40.982  21.389  27.926  1.00  0.00     0.014 A 
ATOM     34  C   UNL A   1      42.131  23.329  26.270  1.00  0.00     0.010 A 
ATOM     35  C   UNL A   1      41.411  22.595  28.467  1.00  0.00     0.010 A 
ATOM     36  C   UNL A   1      41.989  23.576  27.644  1.00  0.00    -0.014 A 
BRANCH  36  37
ATOM     37  C   UNL A   1      42.449  24.846  28.262  1.00  0.00     0.031 A 
ATOM     38  C   UNL A   1      41.454  25.946  28.514  1.00  0.00     0.074 A 
ATOM     39  C   UNL A   1      43.760  25.046  28.505  1.00  0.00     0.049 A 
ATOM     40  N   UNL A   1      41.664  27.171  28.920  1.00  0.00    -0.248 NA
ATOM     41  C   UNL A   1      40.039  25.636  28.242  1.00  0.00     0.031 C 
ATOM     42  C   UNL A   1      44.830  24.073  28.268  1.00  0.00     0.029 A 
ATOM     43  N   UNL A   1      44.417  26.148  28.995  1.00  0.00    -0.354 N 
ATOM     44  C   UNL A   1      40.418  27.787  28.912  1.00  0.00     0.074 A 
ATOM     45  C   UNL A   1      39.464  26.815  28.428  1.00  0.00     0.031 C 
ATOM     46  C   UNL A   1      46.005  24.616  28.631  1.00  0.00     0.029 A 
ATOM     47  C   UNL A   1      45.779  25.984  29.085  1.00  0.00     0.049 A 
ATOM     48  H   UNL A   1      43.956  26.977  29.257  1.00  0.00     0.167 HD
ATOM     49  C   UNL A   1      40.094  29.044  29.290  1.00  0.00     0.031 A 
ATOM     50  C   UNL A   1      46.737  26.845  29.478  1.00  0.00     0.031 A 
ATOM     51  C   UNL A   1      41.035  29.994  29.817  1.00  0.00     0.049 A 
ATOM     52  C   UNL A   1      46.344  28.233  29.907  1.00  0.00     0.074 A 
ATOM     53  C   UNL A   1      40.789  31.265  30.307  1.00  0.00     0.029 A 
ATOM     54  N   UNL A   1      42.398  29.775  29.928  1.00  0.00    -0.354 N 
ATOM     55  N   UNL A   1      45.151  28.774  29.965  1.00  0.00    -0.248 NA
ATOM     56  C   UNL A   1      47.430  29.128  30.334  1.00  0.00     0.031 C 
ATOM     57  C   UNL A   1      42.012  31.832  30.675  1.00  0.00     0.029 A 
ATOM     58  C   UNL A   1      43.010  30.895  30.460  1.00  0.00     0.049 A 
ATOM     59  H   UNL A   1      42.861  28.946  29.666  1.00  0.00     0.167 HD
ATOM     60  C   UNL A   1      45.340  30.054  30.471  1.00  0.00     0.074 A 
ATOM     61  C   UNL A   1      46.759  30.207  30.711  1.00  0.00     0.031 C 
ATOM     62  C   UNL A   1      44.420  31.017  30.715  1.00  0.00     0.031 A 
BRANCH  49  63
ATOM     63  C   UNL A   1      38.661  29.469  29.154  1.00  0.00    -0.014 A 
ATOM     64  C   UNL A   1      38.152  29.936  27.931  1.00  0.00     0.009 A 
ATOM     65  C   UNL A   1      37.793  29.345  30.249  1.00  0.00     0.009 A 
ATOM     66  C   UNL A   1      36.807  30.294  27.817  1.00  0.00     0.001 A 
ATOM     67  C   UNL A   1      36.443  29.678  30.125  1.00  0.00     0.001 A 
ATOM     68  C   UNL A   1      35.953  30.158  28.911  1.00  0.00     0.000 A 
ENDBRANCH  49  63
BRANCH  50  69
ATOM     69  C   UNL A   1      48.166  26.435  29.495  1.00  0.00    -0.014 A 
ATOM     70  C   UNL A   1      48.978  26.641  28.368  1.00  0.00     0.009 A 
ATOM     71  C   UNL A   1      48.715  25.792  30.616  1.00  0.00     0.009 A 
ATOM     72  C   UNL A   1      50.296  26.178  28.349  1.00  0.00     0.001 A 
ATOM     73  C   UNL A   1      50.043  25.357  30.604  1.00  0.00     0.001 A 
ATOM     74  C   UNL A   1      50.828  25.538  29.467  1.00  0.00     0.000 A 
ENDBRANCH  50  69
BRANCH  62  75
ATOM     75  C   UNL A   1      44.906  32.301  31.324  1.00  0.00    -0.014 A 
ATOM     76  C   UNL A   1      45.001  32.459  32.715  1.00  0.00     0.009 A 
ATOM     77  C   UNL A   1      45.332  33.343  30.486  1.00  0.00     0.009 A 
ATOM     78  C   UNL A   1      45.490  33.650  33.254  1.00  0.00     0.001 A 
ATOM     79  C   UNL A   1      45.847  34.521  31.029  1.00  0.00     0.001 A 
ATOM     80  C   UNL A   1      45.919  34.676  32.412  1.00  0.00     0.000 A 
ENDBRANCH  62  75
ENDBRANCH  36  37
ENDBRANCH  28  31
ENDBRANCH  26  27
ENDBRANCH  25  26
ENDBRANCH  24  25
ENDBRANCH   1  24
TORSDOF 17
ENDMDL
MODEL 2
REMARK VINA RESULT:     -10.2      3.129      8.544
REMARK SMILES CCC(CC)(NC(=O)c1c(C)noc1C)C(=O)NCCCCCCNC(=O)c1ccc(-c2c3nc(c(-c4ccccc4)c4ccc([nH]4)c(-c4ccccc4)c4nc(c(-c5ccccc5)c5ccc2[nH]5)C=C4)C=C3)cc1
REMARK SMILES IDX 21 1 20 2 19 3 18 4 16 5 17 6 3 8 2 9 1 10 4 11 5 12 6 13
REMARK SMILES IDX 7 14 8 16 9 17 10 18 14 19 11 20 12 21 13 22 15 23 22 24
REMARK SMILES IDX 23 25 24 26 25 27 26 28 27 30 28 31 29 32 75 33 30 34 74 35
REMARK SMILES IDX 31 36 32 37 33 38 68 39 34 40 73 41 67 42 69 43 35 44 72 45
REMARK SMILES IDX 66 46 65 47 36 49 58 50 43 51 57 52 44 53 47 54 56 55 70 56
REMARK SMILES IDX 45 57 46 58 55 60 71 61 48 62 37 63 38 64 42 65 39 66 41 67
REMARK SMILES IDX 40 68 59 69 60 70 64 71 61 72 63 73 62 74 49 75 50 76 54 77
REMARK SMILES IDX 51 78 53 79 52 80
REMARK H PARENT 18 7 6 15 25 29 69 48 47 59
REMARK Flexibility Score: inf
ROOT
ATOM      1  C   UNL A   1      31.326  28.793  25.319  1.00  0.00     0.002 C 
ENDROOT
BRANCH   1   2
ATOM      2  C   UNL A   1      30.836  28.822  23.874  1.00  0.00     0.021 C 
BRANCH   2   3
ATOM      3  C   UNL A   1      30.767  27.507  23.084  1.00  0.00     0.116 C 
BRANCH   3   4
ATOM      4  N   UNL A   1      31.827  27.212  22.123  1.00  0.00    -0.354 N 
ATOM      5  C   UNL A   1      32.667  26.135  21.937  1.00  0.00     0.245 C 
ATOM      6  O   UNL A   1      33.247  26.066  20.850  1.00  0.00    -0.272 OA
ATOM      7  H   UNL A   1      31.971  27.934  21.470  1.00  0.00     0.163 HD
BRANCH   5   8
ATOM      8  C   UNL A   1      32.703  24.967  22.940  1.00  0.00     0.118 C 
BRANCH   8   9
ATOM      9  C   UNL A   1      31.461  24.044  23.025  1.00  0.00     0.035 C 
ATOM     10  C   UNL A   1      30.853  23.774  24.394  1.00  0.00     0.007 C 
ENDBRANCH   8   9
BRANCH   8  11
ATOM     11  C   UNL A   1      32.914  25.734  24.301  1.00  0.00     0.035 C 
ATOM     12  C   UNL A   1      34.171  26.568  24.483  1.00  0.00     0.007 C 
ENDBRANCH   8  11
BRANCH   8  13
ATOM     13  N   UNL A   1      33.845  24.107  22.585  1.00  0.00    -0.337 N 
ATOM     14  C   UNL A   1      34.608  23.163  23.238  1.00  0.00     0.257 C 
ATOM     15  H   UNL A   1      34.134  24.239  21.653  1.00  0.00     0.164 HD
ATOM     16  O   UNL A   1      35.689  23.002  22.656  1.00  0.00    -0.269 OA
BRANCH  14  17
ATOM     17  C   UNL A   1      34.332  22.360  24.446  1.00  0.00     0.105 A 
ATOM     18  C   UNL A   1      35.062  22.622  25.680  1.00  0.00     0.093 A 
ATOM     19  C   UNL A   1      33.619  21.211  24.805  1.00  0.00     0.146 A 
ATOM     20  C   UNL A   1      36.118  23.626  25.963  1.00  0.00     0.071 C 
ATOM     21  N   UNL A   1      34.728  21.793  26.666  1.00  0.00    -0.084 NA
ATOM     22  O   UNL A   1      33.827  20.937  26.126  1.00  0.00    -0.361 OA
ATOM     23  C   UNL A   1      32.779  20.133  24.244  1.00  0.00     0.092 C 
ENDBRANCH  14  17
ENDBRANCH   8  13
ENDBRANCH   5   8
ENDBRANCH   3   4
ENDBRANCH   2   3
ENDBRANCH   1   2
BRANCH   1  24
ATOM     24  C   UNL A   1      32.395  29.819  25.676  1.00  0.00     0.002 C 
BRANCH  24  25
ATOM     25  C   UNL A   1      31.997  30.778  26.793  1.00  0.00     0.021 C 
BRANCH  25  26
ATOM     26  C   UNL A   1      33.108  31.711  27.252  1.00  0.00     0.116 C 
BRANCH  26  27
ATOM     27  N   UNL A   1      32.633  33.056  27.549  1.00  0.00    -0.352 N 
ATOM     28  C   UNL A   1      33.202  33.982  28.389  1.00  0.00     0.251 C 
ATOM     29  H   UNL A   1      31.806  33.333  27.092  1.00  0.00     0.163 HD
ATOM     30  O   UNL A   1      32.635  35.035  28.661  1.00  0.00    -0.269 OA
BRANCH  28  31
ATOM     31  C   UNL A   1      34.510  33.662  28.989  1.00  0.00     0.039 A 
ATOM     32  C   UNL A   1      34.560  32.866  30.135  1.00  0.00     0.014 A 
ATOM     33  C   UNL A   1      35.682  34.064  28.344  1.00  0.00     0.014 A 
ATOM     34  C   UNL A   1      35.796  32.410  30.597  1.00  0.00     0.010 A 
ATOM     35  C   UNL A   1      36.902  33.546  28.760  1.00  0.00     0.010 A 
ATOM     36  C   UNL A   1      36.971  32.714  29.890  1.00  0.00    -0.014 A 
BRANCH  36  37
ATOM     37  C   UNL A   1      38.295  32.192  30.314  1.00  0.00     0.031 A 
ATOM     38  C   UNL A   1      38.793  30.893  29.741  1.00  0.00     0.074 A 
ATOM     39  C   UNL A   1      39.000  32.827  31.271  1.00  0.00     0.049 A 
ATOM     40  N   UNL A   1      39.851  30.198  30.069  1.00  0.00    -0.248 NA
ATOM     41  C   UNL A   1      37.973  30.276  28.684  1.00  0.00     0.031 C 
ATOM     42  C   UNL A   1      38.608  34.075  31.934  1.00  0.00     0.029 A 
ATOM     43  N   UNL A   1      40.193  32.498  31.866  1.00  0.00    -0.354 N 
ATOM     44  C   UNL A   1      39.801  29.049  29.290  1.00  0.00     0.074 A 
ATOM     45  C   UNL A   1      38.593  29.120  28.501  1.00  0.00     0.031 C 
ATOM     46  C   UNL A   1      39.554  34.413  32.827  1.00  0.00     0.029 A 
ATOM     47  C   UNL A   1      40.594  33.390  32.833  1.00  0.00     0.049 A 
ATOM     48  H   UNL A   1      40.713  31.699  31.622  1.00  0.00     0.167 HD
ATOM     49  C   UNL A   1      40.692  28.033  29.225  1.00  0.00     0.031 A 
ATOM     50  C   UNL A   1      41.672  33.375  33.639  1.00  0.00     0.031 A 
ATOM     51  C   UNL A   1      41.917  27.986  29.973  1.00  0.00     0.049 A 
ATOM     52  C   UNL A   1      42.652  32.238  33.533  1.00  0.00     0.074 A 
ATOM     53  C   UNL A   1      42.925  27.039  29.913  1.00  0.00     0.029 A 
ATOM     54  N   UNL A   1      42.303  28.928  30.912  1.00  0.00    -0.354 N 
ATOM     55  N   UNL A   1      42.628  31.198  32.736  1.00  0.00    -0.248 NA
ATOM     56  C   UNL A   1      43.815  32.279  34.432  1.00  0.00     0.031 C 
ATOM     57  C   UNL A   1      43.903  27.387  30.849  1.00  0.00     0.029 A 
ATOM     58  C   UNL A   1      43.525  28.574  31.454  1.00  0.00     0.049 A 
ATOM     59  H   UNL A   1      41.784  29.728  31.158  1.00  0.00     0.167 HD
ATOM     60  C   UNL A   1      43.788  30.484  33.011  1.00  0.00     0.074 A 
ATOM     61  C   UNL A   1      44.498  31.213  34.041  1.00  0.00     0.031 C 
ATOM     62  C   UNL A   1      44.227  29.328  32.460  1.00  0.00     0.031 A 
BRANCH  49  63
ATOM     63  C   UNL A   1      40.378  26.885  28.308  1.00  0.00    -0.014 A 
ATOM     64  C   UNL A   1      39.571  25.816  28.729  1.00  0.00     0.009 A 
ATOM     65  C   UNL A   1      40.849  26.904  26.987  1.00  0.00     0.009 A 
ATOM     66  C   UNL A   1      39.264  24.776  27.848  1.00  0.00     0.001 A 
ATOM     67  C   UNL A   1      40.519  25.876  26.102  1.00  0.00     0.001 A 
ATOM     68  C   UNL A   1      39.732  24.810  26.535  1.00  0.00     0.000 A 
ENDBRANCH  49  63
BRANCH  50  69
ATOM     69  C   UNL A   1      41.899  34.469  34.621  1.00  0.00    -0.014 A 
ATOM     70  C   UNL A   1      41.399  34.365  35.929  1.00  0.00     0.009 A 
ATOM     71  C   UNL A   1      42.575  35.641  34.247  1.00  0.00     0.009 A 
ATOM     72  C   UNL A   1      41.534  35.427  36.827  1.00  0.00     0.001 A 
ATOM     73  C   UNL A   1      42.736  36.688  35.157  1.00  0.00     0.001 A 
ATOM     74  C   UNL A   1      42.204  36.586  36.441  1.00  0.00     0.000 A 
ENDBRANCH  50  69
BRANCH  62  75
ATOM     75  C   UNL A   1      45.560  28.806  32.912  1.00  0.00    -0.014 A 
ATOM     76  C   UNL A   1      45.674  27.956  34.021  1.00  0.00     0.009 A 
ATOM     77  C   UNL A   1      46.711  29.126  32.174  1.00  0.00     0.009 A 
ATOM     78  C   UNL A   1      46.921  27.456  34.398  1.00  0.00     0.001 A 
ATOM     79  C   UNL A   1      47.952  28.601  32.536  1.00  0.00     0.001 A 
ATOM     80  C   UNL A   1      48.057  27.773  33.652  1.00  0.00     0.000 A 
ENDBRANCH  62  75
ENDBRANCH  36  37
ENDBRANCH  28  31
ENDBRANCH  26  27
ENDBRANCH  25  26
ENDBRANCH  24  25
ENDBRANCH   1  24
TORSDOF 17
ENDMDL
MODEL 3
REMARK VINA RESULT:     -10.1      3.538      7.902
REMARK SMILES CCC(CC)(NC(=O)c1c(C)noc1C)C(=O)NCCCCCCNC(=O)c1ccc(-c2c3nc(c(-c4ccccc4)c4ccc([nH]4)c(-c4ccccc4)c4nc(c(-c5ccccc5)c5ccc2[nH]5)C=C4)C=C3)cc1
REMARK SMILES IDX 21 1 20 2 19 3 18 4 16 5 17 6 3 8 2 9 1 10 4 11 5 12 6 13
REMARK SMILES IDX 7 14 8 16 9 17 10 18 14 19 11 20 12 21 13 22 15 23 22 24
REMARK SMILES IDX 23 25 24 26 25 27 26 28 27 30 28 31 29 32 75 33 30 34 74 35
REMARK SMILES IDX 31 36 32 37 33 38 68 39 34 40 73 41 67 42 69 43 35 44 72 45
REMARK SMILES IDX 66 46 65 47 36 49 58 50 43 51 57 52 44 53 47 54 56 55 70 56
REMARK SMILES IDX 45 57 46 58 55 60 71 61 48 62 37 63 38 64 42 65 39 66 41 67
REMARK SMILES IDX 40 68 59 69 60 70 64 71 61 72 63 73 62 74 49 75 50 76 54 77
REMARK SMILES IDX 51 78 53 79 52 80
REMARK H PARENT 18 7 6 15 25 29 69 48 47 59
REMARK Flexibility Score: inf
ROOT
ATOM      1  C   UNL A   1      37.482  23.599  26.396  1.00  0.00     0.002 C 
ENDROOT
BRANCH   1   2
ATOM      2  C   UNL A   1      36.668  23.708  25.110  1.00  0.00     0.021 C 
BRANCH   2   3
ATOM      3  C   UNL A   1      35.135  23.717  25.196  1.00  0.00     0.116 C 
BRANCH   3   4
ATOM      4  N   UNL A   1      34.498  23.140  26.377  1.00  0.00    -0.354 N 
ATOM      5  C   UNL A   1      33.865  21.939  26.623  1.00  0.00     0.245 C 
ATOM      6  O   UNL A   1      33.702  21.631  27.807  1.00  0.00    -0.272 OA
ATOM      7  H   UNL A   1      34.528  23.731  27.163  1.00  0.00     0.163 HD
BRANCH   5   8
ATOM      8  C   UNL A   1      33.584  20.937  25.488  1.00  0.00     0.118 C 
BRANCH   8   9
ATOM      9  C   UNL A   1      34.727  20.635  24.487  1.00  0.00     0.035 C 
ATOM     10  C   UNL A   1      36.047  20.107  25.033  1.00  0.00     0.007 C 
ENDBRANCH   8   9
BRANCH   8  11
ATOM     11  C   UNL A   1      32.377  21.634  24.751  1.00  0.00     0.035 C 
ATOM     12  C   UNL A   1      32.557  22.072  23.307  1.00  0.00     0.007 C 
ENDBRANCH   8  11
BRANCH   8  13
ATOM     13  N   UNL A   1      33.212  19.653  26.106  1.00  0.00    -0.337 N 
ATOM     14  C   UNL A   1      32.905  18.391  25.646  1.00  0.00     0.257 C 
ATOM     15  H   UNL A   1      33.174  19.710  27.088  1.00  0.00     0.164 HD
ATOM     16  O   UNL A   1      32.283  17.756  26.509  1.00  0.00    -0.269 OA
BRANCH  14  17
ATOM     17  C   UNL A   1      33.205  17.727  24.361  1.00  0.00     0.105 A 
ATOM     18  C   UNL A   1      34.229  16.692  24.295  1.00  0.00     0.093 A 
ATOM     19  C   UNL A   1      32.894  17.872  23.005  1.00  0.00     0.146 A 
ATOM     20  C   UNL A   1      35.095  16.144  25.370  1.00  0.00     0.071 C 
ATOM     21  N   UNL A   1      34.408  16.217  23.065  1.00  0.00    -0.084 NA
ATOM     22  O   UNL A   1      33.571  16.936  22.278  1.00  0.00    -0.361 OA
ATOM     23  C   UNL A   1      32.152  18.732  22.060  1.00  0.00     0.092 C 
ENDBRANCH  14  17
ENDBRANCH   8  13
ENDBRANCH   5   8
ENDBRANCH   3   4
ENDBRANCH   2   3
ENDBRANCH   1   2
BRANCH   1  24
ATOM     24  C   UNL A   1      38.967  23.308  26.218  1.00  0.00     0.002 C 
BRANCH  24  25
ATOM     25  C   UNL A   1      39.310  21.824  26.129  1.00  0.00     0.021 C 
BRANCH  25  26
ATOM     26  C   UNL A   1      40.672  21.454  26.697  1.00  0.00     0.116 C 
BRANCH  26  27
ATOM     27  N   UNL A   1      41.739  21.534  25.708  1.00  0.00    -0.352 N 
ATOM     28  C   UNL A   1      42.613  22.573  25.496  1.00  0.00     0.251 C 
ATOM     29  H   UNL A   1      41.847  20.750  25.123  1.00  0.00     0.163 HD
ATOM     30  O   UNL A   1      43.384  22.579  24.544  1.00  0.00    -0.269 OA
BRANCH  28  31
ATOM     31  C   UNL A   1      42.577  23.711  26.435  1.00  0.00     0.039 A 
ATOM     32  C   UNL A   1      42.676  25.011  25.937  1.00  0.00     0.014 A 
ATOM     33  C   UNL A   1      42.334  23.478  27.791  1.00  0.00     0.014 A 
ATOM     34  C   UNL A   1      42.458  26.090  26.796  1.00  0.00     0.010 A 
ATOM     35  C   UNL A   1      42.042  24.550  28.625  1.00  0.00     0.010 A 
ATOM     36  C   UNL A   1      42.101  25.866  28.136  1.00  0.00    -0.014 A 
BRANCH  36  37
ATOM     37  C   UNL A   1      41.798  26.987  29.062  1.00  0.00     0.031 A 
ATOM     38  C   UNL A   1      42.674  27.206  30.265  1.00  0.00     0.074 A 
ATOM     39  C   UNL A   1      40.695  27.739  28.878  1.00  0.00     0.049 A 
ATOM     40  N   UNL A   1      42.513  28.037  31.262  1.00  0.00    -0.248 NA
ATOM     41  C   UNL A   1      43.872  26.355  30.378  1.00  0.00     0.031 C 
ATOM     42  C   UNL A   1      39.742  27.601  27.773  1.00  0.00     0.029 A 
ATOM     43  N   UNL A   1      40.179  28.764  29.632  1.00  0.00    -0.354 N 
ATOM     44  C   UNL A   1      43.563  27.780  32.136  1.00  0.00     0.074 A 
ATOM     45  C   UNL A   1      44.332  26.694  31.572  1.00  0.00     0.031 C 
ATOM     46  C   UNL A   1      38.772  28.521  27.912  1.00  0.00     0.029 A 
ATOM     47  C   UNL A   1      39.007  29.283  29.134  1.00  0.00     0.049 A 
ATOM     48  H   UNL A   1      40.609  29.097  30.453  1.00  0.00     0.167 HD
ATOM     49  C   UNL A   1      43.868  28.405  33.296  1.00  0.00     0.031 A 
ATOM     50  C   UNL A   1      38.209  30.254  29.616  1.00  0.00     0.031 A 
ATOM     51  C   UNL A   1      43.131  29.516  33.832  1.00  0.00     0.049 A 
ATOM     52  C   UNL A   1      38.583  30.940  30.902  1.00  0.00     0.074 A 
ATOM     53  C   UNL A   1      43.411  30.270  34.958  1.00  0.00     0.029 A 
ATOM     54  N   UNL A   1      41.974  30.034  33.276  1.00  0.00    -0.354 N 
ATOM     55  N   UNL A   1      39.621  30.736  31.676  1.00  0.00    -0.248 NA
ATOM     56  C   UNL A   1      37.680  31.999  31.376  1.00  0.00     0.031 C 
ATOM     57  C   UNL A   1      42.397  31.220  35.107  1.00  0.00     0.029 A 
ATOM     58  C   UNL A   1      41.515  31.087  34.047  1.00  0.00     0.049 A 
ATOM     59  H   UNL A   1      41.542  29.702  32.455  1.00  0.00     0.167 HD
ATOM     60  C   UNL A   1      39.515  31.665  32.704  1.00  0.00     0.074 A 
ATOM     61  C   UNL A   1      38.318  32.438  32.451  1.00  0.00     0.031 C 
ATOM     62  C   UNL A   1      40.335  31.860  33.763  1.00  0.00     0.031 A 
BRANCH  49  63
ATOM     63  C   UNL A   1      45.055  27.905  34.069  1.00  0.00    -0.014 A 
ATOM     64  C   UNL A   1      44.927  26.882  35.021  1.00  0.00     0.009 A 
ATOM     65  C   UNL A   1      46.329  28.426  33.797  1.00  0.00     0.009 A 
ATOM     66  C   UNL A   1      46.050  26.408  35.703  1.00  0.00     0.001 A 
ATOM     67  C   UNL A   1      47.453  27.933  34.461  1.00  0.00     0.001 A 
ATOM     68  C   UNL A   1      47.312  26.930  35.418  1.00  0.00     0.000 A 
ENDBRANCH  49  63
BRANCH  50  69
ATOM     69  C   UNL A   1      36.975  30.652  28.888  1.00  0.00    -0.014 A 
ATOM     70  C   UNL A   1      36.787  31.984  28.484  1.00  0.00     0.009 A 
ATOM     71  C   UNL A   1      35.958  29.718  28.634  1.00  0.00     0.009 A 
ATOM     72  C   UNL A   1      35.591  32.380  27.879  1.00  0.00     0.001 A 
ATOM     73  C   UNL A   1      34.776  30.111  28.001  1.00  0.00     0.001 A 
ATOM     74  C   UNL A   1      34.588  31.444  27.636  1.00  0.00     0.000 A 
ENDBRANCH  50  69
BRANCH  62  75
ATOM     75  C   UNL A   1      40.004  32.988  34.698  1.00  0.00    -0.014 A 
ATOM     76  C   UNL A   1      40.457  34.293  34.457  1.00  0.00     0.009 A 
ATOM     77  C   UNL A   1      39.174  32.744  35.804  1.00  0.00     0.009 A 
ATOM     78  C   UNL A   1      40.105  35.330  35.322  1.00  0.00     0.001 A 
ATOM     79  C   UNL A   1      38.800  33.789  36.650  1.00  0.00     0.001 A 
ATOM     80  C   UNL A   1      39.272  35.078  36.413  1.00  0.00     0.000 A 
ENDBRANCH  62  75
ENDBRANCH  36  37
ENDBRANCH  28  31
ENDBRANCH  26  27
ENDBRANCH  25  26
ENDBRANCH  24  25
ENDBRANCH   1  24
TORSDOF 17
ENDMDL
