MODEL 1
REMARK VINA RESULT:     -11.3      0.000      0.000
REMARK SMILES O=C(NCCCCCCNC(=O)[C@H]1c2[nH]cnc2CC[N@H+]1Cc1ccoc1)c1ccc(-c2c3nc(c(-c4ccccc4)c4ccc([nH]4)c(-c4ccccc4)c4nc(c(-c5ccccc5)c5ccc2[nH]5)C=C4)C=C3)cc1
REMARK SMILES IDX 6 1 5 2 4 3 3 4 1 5 2 6 28 8 29 9 75 10 30 11 74 12 31 13
REMARK SMILES IDX 32 14 33 15 68 16 34 17 73 18 67 19 69 20 35 21 72 22 66 23
REMARK SMILES IDX 65 24 36 26 58 27 43 28 57 29 44 30 47 31 56 32 70 33 45 34
REMARK SMILES IDX 46 35 55 37 71 38 48 39 37 40 38 41 42 42 39 43 41 44 40 45
REMARK SMILES IDX 59 46 60 47 64 48 61 49 63 50 62 51 49 52 50 53 54 54 51 55
REMARK SMILES IDX 53 56 52 57 7 58 8 59 9 60 10 61 11 62 12 64 13 65 14 66
REMARK SMILES IDX 21 67 15 68 18 69 20 70 16 72 17 74 19 75 22 76 23 77 24 78
REMARK SMILES IDX 27 79 25 80 26 81
REMARK H PARENT 3 7 69 25 47 36 10 63 21 71 15 73
REMARK Flexibility Score: inf
ROOT
ATOM      1  C   UNL A   1      37.888  21.606  25.392  1.00  0.00     0.002 C 
ENDROOT
BRANCH   1   2
ATOM      2  C   UNL A   1      38.290  20.251  24.798  1.00  0.00     0.021 C 
BRANCH   2   3
ATOM      3  C   UNL A   1      38.753  19.221  25.831  1.00  0.00     0.116 C 
BRANCH   3   4
ATOM      4  N   UNL A   1      40.097  18.726  25.618  1.00  0.00    -0.352 N 
ATOM      5  O   UNL A   1      42.309  18.526  25.599  1.00  0.00    -0.269 OA
ATOM      6  C   UNL A   1      41.337  19.222  25.900  1.00  0.00     0.251 C 
ATOM      7  H   UNL A   1      40.121  17.845  25.178  1.00  0.00     0.163 HD
BRANCH   6   8
ATOM      8  C   UNL A   1      41.571  20.570  26.473  1.00  0.00     0.039 A 
ATOM      9  C   UNL A   1      42.213  21.620  25.811  1.00  0.00     0.014 A 
ATOM     10  C   UNL A   1      41.103  20.777  27.780  1.00  0.00     0.014 A 
ATOM     11  C   UNL A   1      42.503  22.805  26.474  1.00  0.00     0.010 A 
ATOM     12  C   UNL A   1      41.339  21.981  28.429  1.00  0.00     0.010 A 
ATOM     13  C   UNL A   1      42.085  22.974  27.791  1.00  0.00    -0.014 A 
BRANCH  13  14
ATOM     14  C   UNL A   1      42.354  24.256  28.437  1.00  0.00     0.031 A 
ATOM     15  C   UNL A   1      41.387  25.364  28.161  1.00  0.00     0.074 A 
ATOM     16  C   UNL A   1      43.299  24.366  29.392  1.00  0.00     0.049 A 
ATOM     17  N   UNL A   1      41.626  26.614  27.909  1.00  0.00    -0.248 NA
ATOM     18  C   UNL A   1      39.954  25.017  28.143  1.00  0.00     0.031 C 
ATOM     19  C   UNL A   1      44.104  23.287  29.973  1.00  0.00     0.029 A 
ATOM     20  N   UNL A   1      43.612  25.444  30.165  1.00  0.00    -0.354 N 
ATOM     21  C   UNL A   1      40.380  27.241  27.843  1.00  0.00     0.074 A 
ATOM     22  C   UNL A   1      39.388  26.199  27.913  1.00  0.00     0.031 C 
ATOM     23  C   UNL A   1      44.593  23.698  31.161  1.00  0.00     0.029 A 
ATOM     24  C   UNL A   1      44.240  25.095  31.351  1.00  0.00     0.049 A 
ATOM     25  H   UNL A   1      43.414  26.373  29.909  1.00  0.00     0.167 HD
ATOM     26  C   UNL A   1      40.215  28.590  27.909  1.00  0.00     0.031 A 
ATOM     27  C   UNL A   1      44.364  25.859  32.461  1.00  0.00     0.031 A 
ATOM     28  C   UNL A   1      41.400  29.319  27.571  1.00  0.00     0.049 A 
ATOM     29  C   UNL A   1      44.114  27.267  32.087  1.00  0.00     0.074 A 
ATOM     30  C   UNL A   1      42.188  29.441  26.445  1.00  0.00     0.029 A 
ATOM     31  N   UNL A   1      42.125  29.884  28.590  1.00  0.00    -0.354 N 
ATOM     32  N   UNL A   1      44.903  27.969  31.326  1.00  0.00    -0.248 NA
ATOM     33  C   UNL A   1      42.771  27.800  32.250  1.00  0.00     0.031 C 
ATOM     34  C   UNL A   1      43.513  29.617  26.938  1.00  0.00     0.029 A 
ATOM     35  C   UNL A   1      43.441  29.605  28.332  1.00  0.00     0.049 A 
ATOM     36  H   UNL A   1      41.769  30.391  29.356  1.00  0.00     0.167 HD
ATOM     37  C   UNL A   1      44.058  28.788  30.595  1.00  0.00     0.074 A 
ATOM     38  C   UNL A   1      42.777  28.731  31.293  1.00  0.00     0.031 C 
ATOM     39  C   UNL A   1      44.397  29.213  29.342  1.00  0.00     0.031 A 
BRANCH  26  40
ATOM     40  C   UNL A   1      39.047  29.240  28.608  1.00  0.00    -0.014 A 
ATOM     41  C   UNL A   1      38.872  29.046  29.990  1.00  0.00     0.009 A 
ATOM     42  C   UNL A   1      37.964  29.804  27.905  1.00  0.00     0.009 A 
ATOM     43  C   UNL A   1      37.658  29.350  30.621  1.00  0.00     0.001 A 
ATOM     44  C   UNL A   1      36.767  30.147  28.538  1.00  0.00     0.001 A 
ATOM     45  C   UNL A   1      36.605  29.896  29.894  1.00  0.00     0.000 A 
ENDBRANCH  26  40
BRANCH  27  46
ATOM     46  C   UNL A   1      44.377  25.390  33.862  1.00  0.00    -0.014 A 
ATOM     47  C   UNL A   1      45.361  25.818  34.761  1.00  0.00     0.009 A 
ATOM     48  C   UNL A   1      43.273  24.683  34.382  1.00  0.00     0.009 A 
ATOM     49  C   UNL A   1      45.241  25.554  36.132  1.00  0.00     0.001 A 
ATOM     50  C   UNL A   1      43.157  24.413  35.746  1.00  0.00     0.001 A 
ATOM     51  C   UNL A   1      44.137  24.858  36.624  1.00  0.00     0.000 A 
ENDBRANCH  27  46
BRANCH  39  52
ATOM     52  C   UNL A   1      45.799  28.936  28.860  1.00  0.00    -0.014 A 
ATOM     53  C   UNL A   1      46.827  29.890  28.969  1.00  0.00     0.009 A 
ATOM     54  C   UNL A   1      46.137  27.639  28.451  1.00  0.00     0.009 A 
ATOM     55  C   UNL A   1      48.147  29.566  28.648  1.00  0.00     0.001 A 
ATOM     56  C   UNL A   1      47.460  27.308  28.149  1.00  0.00     0.001 A 
ATOM     57  C   UNL A   1      48.463  28.272  28.242  1.00  0.00     0.000 A 
ENDBRANCH  39  52
ENDBRANCH  13  14
ENDBRANCH   6   8
ENDBRANCH   3   4
ENDBRANCH   2   3
ENDBRANCH   1   2
BRANCH   1  58
ATOM     58  C   UNL A   1      36.429  22.014  25.152  1.00  0.00     0.002 C 
BRANCH  58  59
ATOM     59  C   UNL A   1      36.093  23.437  25.606  1.00  0.00     0.021 C 
BRANCH  59  60
ATOM     60  C   UNL A   1      34.603  23.738  25.524  1.00  0.00     0.116 C 
BRANCH  60  61
ATOM     61  N   UNL A   1      33.938  23.271  26.720  1.00  0.00    -0.351 N 
ATOM     62  C   UNL A   1      32.745  22.636  26.886  1.00  0.00     0.284 C 
ATOM     63  H   UNL A   1      34.432  23.440  27.555  1.00  0.00     0.163 HD
ATOM     64  O   UNL A   1      32.352  22.505  28.054  1.00  0.00    -0.268 OA
BRANCH  62  65
ATOM     65  C   UNL A   1      31.883  22.093  25.723  1.00  0.00     0.324 C 
ATOM     66  C   UNL A   1      31.301  23.200  24.923  1.00  0.00     0.106 A 
ATOM     67  N   UNL A   1      32.550  21.101  24.848  1.00  0.00    -0.315 N 
ATOM     68  N   UNL A   1      30.571  24.267  25.367  1.00  0.00    -0.343 N 
ATOM     69  C   UNL A   1      31.461  23.401  23.575  1.00  0.00     0.074 A 
ATOM     70  C   UNL A   1      33.146  21.555  23.585  1.00  0.00     0.270 C 
ATOM     71  H   UNL A   1      31.708  20.679  24.455  1.00  0.00     0.349 HD
ATOM     72  C   UNL A   1      30.379  25.087  24.285  1.00  0.00     0.197 A 
ATOM     73  H   UNL A   1      30.246  24.417  26.284  1.00  0.00     0.167 HD
ATOM     74  N   UNL A   1      30.907  24.587  23.186  1.00  0.00    -0.241 NA
ATOM     75  C   UNL A   1      32.235  22.473  22.717  1.00  0.00     0.120 C 
BRANCH  67  76
ATOM     76  C   UNL A   1      33.161  19.945  25.497  1.00  0.00     0.303 C 
BRANCH  76  77
ATOM     77  C   UNL A   1      33.372  18.768  24.598  1.00  0.00     0.044 A 
ATOM     78  C   UNL A   1      34.592  18.072  24.345  1.00  0.00     0.051 A 
ATOM     79  C   UNL A   1      32.412  18.056  23.903  1.00  0.00     0.204 A 
ATOM     80  C   UNL A   1      34.300  17.058  23.466  1.00  0.00     0.195 A 
ATOM     81  O   UNL A   1      32.971  17.038  23.199  1.00  0.00    -0.472 OA
ENDBRANCH  76  77
ENDBRANCH  67  76
ENDBRANCH  62  65
ENDBRANCH  60  61
ENDBRANCH  59  60
ENDBRANCH  58  59
ENDBRANCH   1  58
TORSDOF 15
ENDMDL
MODEL 2
REMARK VINA RESULT:     -11.2      4.500      9.594
REMARK SMILES O=C(NCCCCCCNC(=O)[C@H]1c2[nH]cnc2CC[N@H+]1Cc1ccoc1)c1ccc(-c2c3nc(c(-c4ccccc4)c4ccc([nH]4)c(-c4ccccc4)c4nc(c(-c5ccccc5)c5ccc2[nH]5)C=C4)C=C3)cc1
REMARK SMILES IDX 6 1 5 2 4 3 3 4 1 5 2 6 28 8 29 9 75 10 30 11 74 12 31 13
REMARK SMILES IDX 32 14 33 15 68 16 34 17 73 18 67 19 69 20 35 21 72 22 66 23
REMARK SMILES IDX 65 24 36 26 58 27 43 28 57 29 44 30 47 31 56 32 70 33 45 34
REMARK SMILES IDX 46 35 55 37 71 38 48 39 37 40 38 41 42 42 39 43 41 44 40 45
REMARK SMILES IDX 59 46 60 47 64 48 61 49 63 50 62 51 49 52 50 53 54 54 51 55
REMARK SMILES IDX 53 56 52 57 7 58 8 59 9 60 10 61 11 62 12 64 13 65 14 66
REMARK SMILES IDX 21 67 15 68 18 69 20 70 16 72 17 74 19 75 22 76 23 77 24 78
REMARK SMILES IDX 27 79 25 80 26 81
REMARK H PARENT 3 7 69 25 47 36 10 63 21 71 15 73
REMARK Flexibility Score: inf
ROOT
ATOM      1  C   UNL A   1      46.328  26.697  26.202  1.00  0.00     0.002 C 
ENDROOT
BRANCH   1   2
ATOM      2  C   UNL A   1      46.841  25.557  27.089  1.00  0.00     0.021 C 
BRANCH   2   3
ATOM      3  C   UNL A   1      46.539  25.732  28.579  1.00  0.00     0.116 C 
BRANCH   3   4
ATOM      4  N   UNL A   1      45.704  24.693  29.144  1.00  0.00    -0.352 N 
ATOM      5  O   UNL A   1      43.987  23.589  30.019  1.00  0.00    -0.269 OA
ATOM      6  C   UNL A   1      44.420  24.667  29.606  1.00  0.00     0.251 C 
ATOM      7  H   UNL A   1      46.159  23.822  29.209  1.00  0.00     0.163 HD
BRANCH   6   8
ATOM      8  C   UNL A   1      43.558  25.870  29.707  1.00  0.00     0.039 A 
ATOM      9  C   UNL A   1      42.614  26.260  28.753  1.00  0.00     0.014 A 
ATOM     10  C   UNL A   1      43.725  26.657  30.856  1.00  0.00     0.014 A 
ATOM     11  C   UNL A   1      41.946  27.470  28.870  1.00  0.00     0.010 A 
ATOM     12  C   UNL A   1      43.018  27.841  31.008  1.00  0.00     0.010 A 
ATOM     13  C   UNL A   1      42.167  28.271  29.987  1.00  0.00    -0.014 A 
BRANCH  13  14
ATOM     14  C   UNL A   1      41.402  29.509  30.106  1.00  0.00     0.031 A 
ATOM     15  C   UNL A   1      42.143  30.784  29.851  1.00  0.00     0.074 A 
ATOM     16  C   UNL A   1      40.060  29.487  30.229  1.00  0.00     0.049 A 
ATOM     17  N   UNL A   1      42.094  31.904  30.505  1.00  0.00    -0.248 NA
ATOM     18  C   UNL A   1      43.090  30.797  28.721  1.00  0.00     0.031 C 
ATOM     19  C   UNL A   1      39.184  28.313  30.180  1.00  0.00     0.029 A 
ATOM     20  N   UNL A   1      39.185  30.532  30.249  1.00  0.00    -0.354 N 
ATOM     21  C   UNL A   1      42.885  32.805  29.790  1.00  0.00     0.074 A 
ATOM     22  C   UNL A   1      43.537  32.050  28.751  1.00  0.00     0.031 C 
ATOM     23  C   UNL A   1      37.928  28.716  29.898  1.00  0.00     0.029 A 
ATOM     24  C   UNL A   1      37.900  30.169  29.877  1.00  0.00     0.049 A 
ATOM     25  H   UNL A   1      39.439  31.449  30.502  1.00  0.00     0.167 HD
ATOM     26  C   UNL A   1      42.838  34.153  29.972  1.00  0.00     0.031 A 
ATOM     27  C   UNL A   1      36.909  30.993  29.466  1.00  0.00     0.031 A 
ATOM     28  C   UNL A   1      42.294  34.530  31.241  1.00  0.00     0.049 A 
ATOM     29  C   UNL A   1      37.249  32.372  29.877  1.00  0.00     0.074 A 
ATOM     30  C   UNL A   1      42.655  34.336  32.559  1.00  0.00     0.029 A 
ATOM     31  N   UNL A   1      41.008  35.007  31.279  1.00  0.00    -0.354 N 
ATOM     32  N   UNL A   1      37.284  32.775  31.114  1.00  0.00    -0.248 NA
ATOM     33  C   UNL A   1      37.934  33.230  28.923  1.00  0.00     0.031 C 
ATOM     34  C   UNL A   1      41.424  34.235  33.268  1.00  0.00     0.029 A 
ATOM     35  C   UNL A   1      40.396  34.390  32.337  1.00  0.00     0.049 A 
ATOM     36  H   UNL A   1      40.604  35.664  30.666  1.00  0.00     0.167 HD
ATOM     37  C   UNL A   1      38.321  33.693  31.161  1.00  0.00     0.074 A 
ATOM     38  C   UNL A   1      38.598  34.024  29.767  1.00  0.00     0.031 C 
ATOM     39  C   UNL A   1      39.042  33.886  32.306  1.00  0.00     0.031 A 
BRANCH  26  40
ATOM     40  C   UNL A   1      42.989  35.139  28.840  1.00  0.00    -0.014 A 
ATOM     41  C   UNL A   1      44.245  35.723  28.594  1.00  0.00     0.009 A 
ATOM     42  C   UNL A   1      41.881  35.721  28.193  1.00  0.00     0.009 A 
ATOM     43  C   UNL A   1      44.374  36.860  27.785  1.00  0.00     0.001 A 
ATOM     44  C   UNL A   1      42.011  36.829  27.353  1.00  0.00     0.001 A 
ATOM     45  C   UNL A   1      43.256  37.415  27.169  1.00  0.00     0.000 A 
ENDBRANCH  26  40
BRANCH  27  46
ATOM     46  C   UNL A   1      35.856  30.687  28.476  1.00  0.00    -0.014 A 
ATOM     47  C   UNL A   1      35.823  29.458  27.808  1.00  0.00     0.009 A 
ATOM     48  C   UNL A   1      34.737  31.535  28.349  1.00  0.00     0.009 A 
ATOM     49  C   UNL A   1      34.707  29.086  27.047  1.00  0.00     0.001 A 
ATOM     50  C   UNL A   1      33.628  31.170  27.584  1.00  0.00     0.001 A 
ATOM     51  C   UNL A   1      33.608  29.939  26.940  1.00  0.00     0.000 A 
ENDBRANCH  27  46
BRANCH  39  52
ATOM     52  C   UNL A   1      38.547  33.226  33.568  1.00  0.00    -0.014 A 
ATOM     53  C   UNL A   1      38.843  31.885  33.873  1.00  0.00     0.009 A 
ATOM     54  C   UNL A   1      37.925  34.008  34.550  1.00  0.00     0.009 A 
ATOM     55  C   UNL A   1      38.497  31.334  35.109  1.00  0.00     0.001 A 
ATOM     56  C   UNL A   1      37.597  33.464  35.794  1.00  0.00     0.001 A 
ATOM     57  C   UNL A   1      37.878  32.127  36.072  1.00  0.00     0.000 A 
ENDBRANCH  39  52
ENDBRANCH  13  14
ENDBRANCH   6   8
ENDBRANCH   3   4
ENDBRANCH   2   3
ENDBRANCH   1   2
BRANCH   1  58
ATOM     58  C   UNL A   1      45.434  26.261  25.034  1.00  0.00     0.002 C 
BRANCH  58  59
ATOM     59  C   UNL A   1      43.937  26.272  25.351  1.00  0.00     0.021 C 
BRANCH  59  60
ATOM     60  C   UNL A   1      43.345  24.871  25.415  1.00  0.00     0.116 C 
BRANCH  60  61
ATOM     61  N   UNL A   1      44.244  23.987  26.123  1.00  0.00    -0.351 N 
ATOM     62  C   UNL A   1      44.152  22.657  26.399  1.00  0.00     0.284 C 
ATOM     63  H   UNL A   1      45.061  24.420  26.462  1.00  0.00     0.163 HD
ATOM     64  O   UNL A   1      45.003  22.198  27.175  1.00  0.00    -0.268 OA
BRANCH  62  65
ATOM     65  C   UNL A   1      43.067  21.723  25.814  1.00  0.00     0.324 C 
ATOM     66  C   UNL A   1      43.676  20.544  25.147  1.00  0.00     0.106 A 
ATOM     67  N   UNL A   1      42.008  21.308  26.763  1.00  0.00    -0.315 N 
ATOM     68  N   UNL A   1      44.641  20.528  24.180  1.00  0.00    -0.343 N 
ATOM     69  C   UNL A   1      43.432  19.227  25.444  1.00  0.00     0.074 A 
ATOM     70  C   UNL A   1      42.121  20.003  27.426  1.00  0.00     0.270 C 
ATOM     71  H   UNL A   1      41.303  21.047  26.073  1.00  0.00     0.349 HD
ATOM     72  C   UNL A   1      44.977  19.213  23.984  1.00  0.00     0.197 A 
ATOM     73  H   UNL A   1      45.021  21.308  23.715  1.00  0.00     0.167 HD
ATOM     74  N   UNL A   1      44.260  18.403  24.736  1.00  0.00    -0.241 NA
ATOM     75  C   UNL A   1      42.461  18.809  26.483  1.00  0.00     0.120 C 
BRANCH  67  76
ATOM     76  C   UNL A   1      41.310  22.365  27.487  1.00  0.00     0.303 C 
BRANCH  76  77
ATOM     77  C   UNL A   1      39.997  22.763  26.891  1.00  0.00     0.044 A 
ATOM     78  C   UNL A   1      39.414  24.065  26.856  1.00  0.00     0.051 A 
ATOM     79  C   UNL A   1      39.123  21.969  26.172  1.00  0.00     0.204 A 
ATOM     80  C   UNL A   1      38.213  23.949  26.200  1.00  0.00     0.195 A 
ATOM     81  O   UNL A   1      38.034  22.675  25.773  1.00  0.00    -0.472 OA
ENDBRANCH  76  77
ENDBRANCH  67  76
ENDBRANCH  62  65
ENDBRANCH  60  61
ENDBRANCH  59  60
ENDBRANCH  58  59
ENDBRANCH   1  58
TORSDOF 15
ENDMDL
MODEL 3
REMARK VINA RESULT:     -11.2      3.051      8.028
REMARK SMILES O=C(NCCCCCCNC(=O)[C@H]1c2[nH]cnc2CC[N@H+]1Cc1ccoc1)c1ccc(-c2c3nc(c(-c4ccccc4)c4ccc([nH]4)c(-c4ccccc4)c4nc(c(-c5ccccc5)c5ccc2[nH]5)C=C4)C=C3)cc1
REMARK SMILES IDX 6 1 5 2 4 3 3 4 1 5 2 6 28 8 29 9 75 10 30 11 74 12 31 13
REMARK SMILES IDX 32 14 33 15 68 16 34 17 73 18 67 19 69 20 35 21 72 22 66 23
REMARK SMILES IDX 65 24 36 26 58 27 43 28 57 29 44 30 47 31 56 32 70 33 45 34
REMARK SMILES IDX 46 35 55 37 71 38 48 39 37 40 38 41 42 42 39 43 41 44 40 45
REMARK SMILES IDX 59 46 60 47 64 48 61 49 63 50 62 51 49 52 50 53 54 54 51 55
REMARK SMILES IDX 53 56 52 57 7 58 8 59 9 60 10 61 11 62 12 64 13 65 14 66
REMARK SMILES IDX 21 67 15 68 18 69 20 70 16 72 17 74 19 75 22 76 23 77 24 78
REMARK SMILES IDX 27 79 25 80 26 81
REMARK H PARENT 3 7 69 25 47 36 10 63 21 71 15 73
REMARK Flexibility Score: inf
ROOT
ATOM      1  C   UNL A   1      36.990  31.317  28.244  1.00  0.00     0.002 C 
ENDROOT
BRANCH   1   2
ATOM      2  C   UNL A   1      36.396  32.655  28.699  1.00  0.00     0.021 C 
BRANCH   2   3
ATOM      3  C   UNL A   1      36.019  32.708  30.181  1.00  0.00     0.116 C 
BRANCH   3   4
ATOM      4  N   UNL A   1      36.974  33.406  31.015  1.00  0.00    -0.352 N 
ATOM      5  O   UNL A   1      38.817  33.971  32.118  1.00  0.00    -0.269 OA
ATOM      6  C   UNL A   1      38.258  33.143  31.395  1.00  0.00     0.251 C 
ATOM      7  H   UNL A   1      36.624  34.249  31.385  1.00  0.00     0.163 HD
BRANCH   6   8
ATOM      8  C   UNL A   1      38.978  31.892  31.051  1.00  0.00     0.039 A 
ATOM      9  C   UNL A   1      38.553  30.605  31.392  1.00  0.00     0.014 A 
ATOM     10  C   UNL A   1      40.170  32.043  30.328  1.00  0.00     0.014 A 
ATOM     11  C   UNL A   1      39.358  29.503  31.140  1.00  0.00     0.010 A 
ATOM     12  C   UNL A   1      40.953  30.939  30.021  1.00  0.00     0.010 A 
ATOM     13  C   UNL A   1      40.568  29.675  30.475  1.00  0.00    -0.014 A 
BRANCH  13  14
ATOM     14  C   UNL A   1      41.361  28.486  30.173  1.00  0.00     0.031 A 
ATOM     15  C   UNL A   1      42.212  27.947  31.280  1.00  0.00     0.074 A 
ATOM     16  C   UNL A   1      41.170  27.796  29.032  1.00  0.00     0.049 A 
ATOM     17  N   UNL A   1      43.432  27.508  31.234  1.00  0.00    -0.248 NA
ATOM     18  C   UNL A   1      41.621  27.919  32.630  1.00  0.00     0.031 C 
ATOM     19  C   UNL A   1      40.151  28.042  28.006  1.00  0.00     0.029 A 
ATOM     20  N   UNL A   1      41.738  26.622  28.636  1.00  0.00    -0.354 N 
ATOM     21  C   UNL A   1      43.715  27.015  32.509  1.00  0.00     0.074 A 
ATOM     22  C   UNL A   1      42.597  27.367  33.347  1.00  0.00     0.031 C 
ATOM     23  C   UNL A   1      39.991  26.922  27.272  1.00  0.00     0.029 A 
ATOM     24  C   UNL A   1      40.978  25.943  27.696  1.00  0.00     0.049 A 
ATOM     25  H   UNL A   1      42.599  26.291  28.980  1.00  0.00     0.167 HD
ATOM     26  C   UNL A   1      44.766  26.195  32.781  1.00  0.00     0.031 A 
ATOM     27  C   UNL A   1      41.071  24.634  27.367  1.00  0.00     0.031 A 
ATOM     28  C   UNL A   1      45.803  26.265  31.795  1.00  0.00     0.049 A 
ATOM     29  C   UNL A   1      42.379  24.128  27.836  1.00  0.00     0.074 A 
ATOM     30  C   UNL A   1      46.653  27.251  31.336  1.00  0.00     0.029 A 
ATOM     31  N   UNL A   1      45.910  25.238  30.892  1.00  0.00    -0.354 N 
ATOM     32  N   UNL A   1      43.523  24.496  27.338  1.00  0.00    -0.248 NA
ATOM     33  C   UNL A   1      42.445  23.484  29.139  1.00  0.00     0.031 C 
ATOM     34  C   UNL A   1      46.836  26.966  29.952  1.00  0.00     0.029 A 
ATOM     35  C   UNL A   1      46.097  25.817  29.665  1.00  0.00     0.049 A 
ATOM     36  H   UNL A   1      45.861  24.273  31.088  1.00  0.00     0.167 HD
ATOM     37  C   UNL A   1      44.394  24.509  28.416  1.00  0.00     0.074 A 
ATOM     38  C   UNL A   1      43.710  23.760  29.465  1.00  0.00     0.031 C 
ATOM     39  C   UNL A   1      45.463  25.360  28.450  1.00  0.00     0.031 A 
BRANCH  26  40
ATOM     40  C   UNL A   1      44.694  25.074  33.788  1.00  0.00    -0.014 A 
ATOM     41  C   UNL A   1      45.654  25.004  34.814  1.00  0.00     0.009 A 
ATOM     42  C   UNL A   1      43.887  23.935  33.595  1.00  0.00     0.009 A 
ATOM     43  C   UNL A   1      45.829  23.836  35.569  1.00  0.00     0.001 A 
ATOM     44  C   UNL A   1      44.031  22.784  34.373  1.00  0.00     0.001 A 
ATOM     45  C   UNL A   1      45.021  22.726  35.344  1.00  0.00     0.000 A 
ENDBRANCH  26  40
BRANCH  27  46
ATOM     46  C   UNL A   1      39.968  23.744  26.952  1.00  0.00    -0.014 A 
ATOM     47  C   UNL A   1      38.695  24.252  26.665  1.00  0.00     0.009 A 
ATOM     48  C   UNL A   1      40.230  22.399  26.620  1.00  0.00     0.009 A 
ATOM     49  C   UNL A   1      37.723  23.444  26.059  1.00  0.00     0.001 A 
ATOM     50  C   UNL A   1      39.260  21.592  26.025  1.00  0.00     0.001 A 
ATOM     51  C   UNL A   1      38.007  22.118  25.735  1.00  0.00     0.000 A 
ENDBRANCH  27  46
BRANCH  39  52
ATOM     52  C   UNL A   1      45.785  26.136  27.198  1.00  0.00    -0.014 A 
ATOM     53  C   UNL A   1      45.138  27.344  26.883  1.00  0.00     0.009 A 
ATOM     54  C   UNL A   1      46.876  25.741  26.412  1.00  0.00     0.009 A 
ATOM     55  C   UNL A   1      45.548  28.118  25.794  1.00  0.00     0.001 A 
ATOM     56  C   UNL A   1      47.300  26.524  25.335  1.00  0.00     0.001 A 
ATOM     57  C   UNL A   1      46.633  27.709  25.024  1.00  0.00     0.000 A 
ENDBRANCH  39  52
ENDBRANCH  13  14
ENDBRANCH   6   8
ENDBRANCH   3   4
ENDBRANCH   2   3
ENDBRANCH   1   2
BRANCH   1  58
ATOM     58  C   UNL A   1      36.067  30.104  28.417  1.00  0.00     0.002 C 
BRANCH  58  59
ATOM     59  C   UNL A   1      34.698  30.255  27.750  1.00  0.00     0.021 C 
BRANCH  59  60
ATOM     60  C   UNL A   1      34.253  28.986  27.038  1.00  0.00     0.116 C 
BRANCH  60  61
ATOM     61  N   UNL A   1      34.475  29.114  25.615  1.00  0.00    -0.351 N 
ATOM     62  C   UNL A   1      33.840  28.536  24.558  1.00  0.00     0.284 C 
ATOM     63  H   UNL A   1      35.209  29.722  25.369  1.00  0.00     0.163 HD
ATOM     64  O   UNL A   1      34.361  28.706  23.447  1.00  0.00    -0.268 OA
BRANCH  62  65
ATOM     65  C   UNL A   1      32.544  27.701  24.677  1.00  0.00     0.324 C 
ATOM     66  C   UNL A   1      31.494  28.204  23.755  1.00  0.00     0.106 A 
ATOM     67  N   UNL A   1      32.717  26.237  24.535  1.00  0.00    -0.315 N 
ATOM     68  N   UNL A   1      31.021  29.480  23.633  1.00  0.00    -0.343 N 
ATOM     69  C   UNL A   1      30.852  27.480  22.782  1.00  0.00     0.074 A 
ATOM     70  C   UNL A   1      32.453  25.614  23.233  1.00  0.00     0.270 C 
ATOM     71  H   UNL A   1      31.853  25.953  24.997  1.00  0.00     0.349 HD
ATOM     72  C   UNL A   1      30.167  29.480  22.559  1.00  0.00     0.197 A 
ATOM     73  H   UNL A   1      31.248  30.249  24.204  1.00  0.00     0.167 HD
ATOM     74  N   UNL A   1      30.046  28.282  22.025  1.00  0.00    -0.241 NA
ATOM     75  C   UNL A   1      31.116  26.039  22.555  1.00  0.00     0.120 C 
BRANCH  67  76
ATOM     76  C   UNL A   1      33.712  25.598  25.391  1.00  0.00     0.303 C 
BRANCH  76  77
ATOM     77  C   UNL A   1      33.184  24.472  26.222  1.00  0.00     0.044 A 
ATOM     78  C   UNL A   1      33.916  23.376  26.771  1.00  0.00     0.051 A 
ATOM     79  C   UNL A   1      31.900  24.313  26.708  1.00  0.00     0.204 A 
ATOM     80  C   UNL A   1      33.018  22.604  27.468  1.00  0.00     0.195 A 
ATOM     81  O   UNL A   1      31.789  23.175  27.441  1.00  0.00    -0.472 OA
ENDBRANCH  76  77
ENDBRANCH  67  76
ENDBRANCH  62  65
ENDBRANCH  60  61
ENDBRANCH  59  60
ENDBRANCH  58  59
ENDBRANCH   1  58
TORSDOF 15
ENDMDL
