MODEL 1
REMARK VINA RESULT:      -9.7      0.000      0.000
REMARK SMILES C#CCN(CC(=O)NCCCCCCNC(=O)c1ccc(-c2c3nc(c(-c4ccccc4)c4ccc([nH]4)c(-c4ccccc4)c4nc(c(-c5ccccc5)c5ccc2[nH]5)C=C4)C=C3)cc1)C(=O)NCCc1ccco1
REMARK SMILES IDX 10 1 9 2 8 3 6 4 7 5 5 7 4 8 3 9 2 10 1 11 66 12 67 13 68 14
REMARK SMILES IDX 69 16 70 17 71 18 72 19 75 20 73 21 74 22 11 23 12 24 13 25
REMARK SMILES IDX 14 26 15 27 16 28 17 30 18 31 19 32 65 33 20 34 64 35 21 36
REMARK SMILES IDX 22 37 23 38 58 39 24 40 63 41 57 42 59 43 25 44 62 45 56 46
REMARK SMILES IDX 55 47 26 49 48 50 33 51 47 52 34 53 37 54 46 55 60 56 35 57
REMARK SMILES IDX 36 58 45 60 61 61 38 62 27 63 28 64 32 65 29 66 31 67 30 68
REMARK SMILES IDX 49 69 50 70 54 71 51 72 53 73 52 74 39 75 40 76 44 77 41 78
REMARK SMILES IDX 43 79 42 80
REMARK H PARENT 8 6 68 15 15 29 59 48 37 59
REMARK Flexibility Score: inf
ROOT
ATOM      1  C   UNL A   1      30.327  26.575  25.347  1.00  0.00     0.021 C 
ENDROOT
BRANCH   1   2
ATOM      2  C   UNL A   1      30.530  25.197  24.719  1.00  0.00     0.116 C 
BRANCH   2   3
ATOM      3  N   UNL A   1      30.252  24.117  25.636  1.00  0.00    -0.355 N 
ATOM      4  C   UNL A   1      30.966  23.693  26.716  1.00  0.00     0.239 C 
ATOM      5  O   UNL A   1      30.382  22.967  27.526  1.00  0.00    -0.273 OA
ATOM      6  H   UNL A   1      29.425  23.613  25.453  1.00  0.00     0.163 HD
BRANCH   4   7
ATOM      7  C   UNL A   1      32.385  24.208  27.005  1.00  0.00     0.222 C 
BRANCH   7   8
ATOM      8  N   UNL A   1      33.465  23.365  26.500  1.00  0.00    -0.304 N 
BRANCH   8   9
ATOM      9  C   UNL A   1      34.621  24.064  25.935  1.00  0.00     0.211 C 
BRANCH   9  10
ATOM     10  C   UNL A   1      34.248  24.918  24.734  1.00  0.00    -0.085 C 
ATOM     11  C   UNL A   1      33.929  25.651  23.704  1.00  0.00     0.006 C 
ENDBRANCH   9  10
ENDBRANCH   8   9
BRANCH   8  12
ATOM     12  C   UNL A   1      33.537  22.003  26.537  1.00  0.00     0.318 C 
ATOM     13  O   UNL A   1      33.747  21.399  27.595  1.00  0.00    -0.249 OA
ATOM     14  N   UNL A   1      33.399  21.206  25.467  1.00  0.00    -0.337 N 
ATOM     15  H   UNL A   1      33.409  20.260  25.739  1.00  0.00     0.165 HD
BRANCH  14  16
ATOM     16  C   UNL A   1      33.238  21.319  24.019  1.00  0.00     0.125 C 
BRANCH  16  17
ATOM     17  C   UNL A   1      32.288  20.249  23.472  1.00  0.00     0.096 C 
BRANCH  17  18
ATOM     18  C   UNL A   1      32.622  18.900  24.002  1.00  0.00     0.105 A 
ATOM     19  C   UNL A   1      33.327  17.825  23.504  1.00  0.00     0.045 A 
ATOM     20  O   UNL A   1      32.171  18.621  25.258  1.00  0.00    -0.469 OA
ATOM     21  C   UNL A   1      33.311  16.835  24.517  1.00  0.00     0.042 A 
ATOM     22  C   UNL A   1      32.589  17.366  25.561  1.00  0.00     0.195 A 
ENDBRANCH  17  18
ENDBRANCH  16  17
ENDBRANCH  14  16
ENDBRANCH   8  12
ENDBRANCH   7   8
ENDBRANCH   4   7
ENDBRANCH   2   3
ENDBRANCH   1   2
BRANCH   1  23
ATOM     23  C   UNL A   1      30.917  27.727  24.528  1.00  0.00     0.002 C 
BRANCH  23  24
ATOM     24  C   UNL A   1      32.065  28.487  25.204  1.00  0.00     0.002 C 
BRANCH  24  25
ATOM     25  C   UNL A   1      32.286  28.146  26.680  1.00  0.00     0.021 C 
BRANCH  25  26
ATOM     26  C   UNL A   1      33.627  28.609  27.236  1.00  0.00     0.116 C 
BRANCH  26  27
ATOM     27  N   UNL A   1      33.599  30.015  27.608  1.00  0.00    -0.352 N 
ATOM     28  C   UNL A   1      34.544  30.756  28.268  1.00  0.00     0.251 C 
ATOM     29  H   UNL A   1      32.785  30.504  27.348  1.00  0.00     0.163 HD
ATOM     30  O   UNL A   1      34.265  31.873  28.699  1.00  0.00    -0.269 OA
BRANCH  28  31
ATOM     31  C   UNL A   1      35.898  30.204  28.475  1.00  0.00     0.039 A 
ATOM     32  C   UNL A   1      36.809  30.225  27.417  1.00  0.00     0.014 A 
ATOM     33  C   UNL A   1      36.264  29.655  29.708  1.00  0.00     0.014 A 
ATOM     34  C   UNL A   1      38.105  29.745  27.610  1.00  0.00     0.010 A 
ATOM     35  C   UNL A   1      37.578  29.250  29.922  1.00  0.00     0.010 A 
ATOM     36  C   UNL A   1      38.509  29.282  28.875  1.00  0.00    -0.014 A 
BRANCH  36  37
ATOM     37  C   UNL A   1      39.898  28.814  29.116  1.00  0.00     0.031 A 
ATOM     38  C   UNL A   1      40.908  29.741  29.738  1.00  0.00     0.074 A 
ATOM     39  C   UNL A   1      40.264  27.577  28.726  1.00  0.00     0.049 A 
ATOM     40  N   UNL A   1      42.182  29.540  29.963  1.00  0.00    -0.248 NA
ATOM     41  C   UNL A   1      40.430  31.074  30.138  1.00  0.00     0.031 C 
ATOM     42  C   UNL A   1      39.388  26.592  28.088  1.00  0.00     0.029 A 
ATOM     43  N   UNL A   1      41.476  26.938  28.807  1.00  0.00    -0.354 N 
ATOM     44  C   UNL A   1      42.657  30.722  30.518  1.00  0.00     0.074 A 
ATOM     45  C   UNL A   1      41.551  31.653  30.545  1.00  0.00     0.031 C 
ATOM     46  C   UNL A   1      40.084  25.467  27.858  1.00  0.00     0.029 A 
ATOM     47  C   UNL A   1      41.464  25.665  28.289  1.00  0.00     0.049 A 
ATOM     48  H   UNL A   1      42.278  27.352  29.199  1.00  0.00     0.167 HD
ATOM     49  C   UNL A   1      43.897  31.001  30.986  1.00  0.00     0.031 A 
ATOM     50  C   UNL A   1      42.456  24.762  28.165  1.00  0.00     0.031 A 
ATOM     51  C   UNL A   1      44.996  30.074  30.966  1.00  0.00     0.049 A 
ATOM     52  C   UNL A   1      43.833  25.114  28.658  1.00  0.00     0.074 A 
ATOM     53  C   UNL A   1      46.280  30.251  31.451  1.00  0.00     0.029 A 
ATOM     54  N   UNL A   1      44.941  28.797  30.433  1.00  0.00    -0.354 N 
ATOM     55  N   UNL A   1      44.249  26.217  29.234  1.00  0.00    -0.248 NA
ATOM     56  C   UNL A   1      44.876  24.091  28.493  1.00  0.00     0.031 C 
ATOM     57  C   UNL A   1      47.018  29.100  31.163  1.00  0.00     0.029 A 
ATOM     58  C   UNL A   1      46.174  28.181  30.559  1.00  0.00     0.049 A 
ATOM     59  H   UNL A   1      44.143  28.387  30.027  1.00  0.00     0.167 HD
ATOM     60  C   UNL A   1      45.589  26.003  29.534  1.00  0.00     0.074 A 
ATOM     61  C   UNL A   1      45.911  24.663  29.092  1.00  0.00     0.031 C 
ATOM     62  C   UNL A   1      46.475  26.843  30.124  1.00  0.00     0.031 A 
BRANCH  49  63
ATOM     63  C   UNL A   1      44.132  32.370  31.563  1.00  0.00    -0.014 A 
ATOM     64  C   UNL A   1      44.355  33.480  30.732  1.00  0.00     0.009 A 
ATOM     65  C   UNL A   1      44.072  32.563  32.952  1.00  0.00     0.009 A 
ATOM     66  C   UNL A   1      44.542  34.750  31.282  1.00  0.00     0.001 A 
ATOM     67  C   UNL A   1      44.229  33.839  33.498  1.00  0.00     0.001 A 
ATOM     68  C   UNL A   1      44.472  34.929  32.663  1.00  0.00     0.000 A 
ENDBRANCH  49  63
BRANCH  50  69
ATOM     69  C   UNL A   1      42.195  23.435  27.546  1.00  0.00    -0.014 A 
ATOM     70  C   UNL A   1      41.701  22.371  28.316  1.00  0.00     0.009 A 
ATOM     71  C   UNL A   1      42.478  23.212  26.188  1.00  0.00     0.009 A 
ATOM     72  C   UNL A   1      41.538  21.103  27.753  1.00  0.00     0.001 A 
ATOM     73  C   UNL A   1      42.280  21.952  25.619  1.00  0.00     0.001 A 
ATOM     74  C   UNL A   1      41.824  20.895  26.405  1.00  0.00     0.000 A 
ENDBRANCH  50  69
BRANCH  62  75
ATOM     75  C   UNL A   1      47.861  26.318  30.375  1.00  0.00    -0.014 A 
ATOM     76  C   UNL A   1      48.227  25.774  31.616  1.00  0.00     0.009 A 
ATOM     77  C   UNL A   1      48.803  26.331  29.334  1.00  0.00     0.009 A 
ATOM     78  C   UNL A   1      49.519  25.288  31.820  1.00  0.00     0.001 A 
ATOM     79  C   UNL A   1      50.084  25.812  29.531  1.00  0.00     0.001 A 
ATOM     80  C   UNL A   1      50.444  25.301  30.775  1.00  0.00     0.000 A 
ENDBRANCH  62  75
ENDBRANCH  36  37
ENDBRANCH  28  31
ENDBRANCH  26  27
ENDBRANCH  25  26
ENDBRANCH  24  25
ENDBRANCH  23  24
ENDBRANCH   1  23
TORSDOF 20
ENDMDL
MODEL 2
REMARK VINA RESULT:      -9.6      3.421      8.148
REMARK SMILES C#CCN(CC(=O)NCCCCCCNC(=O)c1ccc(-c2c3nc(c(-c4ccccc4)c4ccc([nH]4)c(-c4ccccc4)c4nc(c(-c5ccccc5)c5ccc2[nH]5)C=C4)C=C3)cc1)C(=O)NCCc1ccco1
REMARK SMILES IDX 10 1 9 2 8 3 6 4 7 5 5 7 4 8 3 9 2 10 1 11 66 12 67 13 68 14
REMARK SMILES IDX 69 16 70 17 71 18 72 19 75 20 73 21 74 22 11 23 12 24 13 25
REMARK SMILES IDX 14 26 15 27 16 28 17 30 18 31 19 32 65 33 20 34 64 35 21 36
REMARK SMILES IDX 22 37 23 38 58 39 24 40 63 41 57 42 59 43 25 44 62 45 56 46
REMARK SMILES IDX 55 47 26 49 48 50 33 51 47 52 34 53 37 54 46 55 60 56 35 57
REMARK SMILES IDX 36 58 45 60 61 61 38 62 27 63 28 64 32 65 29 66 31 67 30 68
REMARK SMILES IDX 49 69 50 70 54 71 51 72 53 73 52 74 39 75 40 76 44 77 41 78
REMARK SMILES IDX 43 79 42 80
REMARK H PARENT 8 6 68 15 15 29 59 48 37 59
REMARK Flexibility Score: inf
ROOT
ATOM      1  C   UNL A   1      33.504  28.907  26.877  1.00  0.00     0.021 C 
ENDROOT
BRANCH   1   2
ATOM      2  C   UNL A   1      33.492  27.667  25.986  1.00  0.00     0.116 C 
BRANCH   2   3
ATOM      3  N   UNL A   1      32.409  26.763  26.296  1.00  0.00    -0.355 N 
ATOM      4  C   UNL A   1      32.247  25.456  25.948  1.00  0.00     0.239 C 
ATOM      5  O   UNL A   1      31.411  24.805  26.583  1.00  0.00    -0.273 OA
ATOM      6  H   UNL A   1      31.682  27.148  26.838  1.00  0.00     0.163 HD
BRANCH   4   7
ATOM      7  C   UNL A   1      33.159  24.769  24.919  1.00  0.00     0.222 C 
BRANCH   7   8
ATOM      8  N   UNL A   1      32.654  24.765  23.549  1.00  0.00    -0.304 N 
BRANCH   8   9
ATOM      9  C   UNL A   1      31.739  23.677  23.199  1.00  0.00     0.211 C 
BRANCH   9  10
ATOM     10  C   UNL A   1      32.100  22.374  23.893  1.00  0.00    -0.085 C 
ATOM     11  C   UNL A   1      32.410  21.255  24.487  1.00  0.00     0.006 C 
ENDBRANCH   9  10
ENDBRANCH   8   9
BRANCH   8  12
ATOM     12  C   UNL A   1      32.904  25.687  22.573  1.00  0.00     0.318 C 
ATOM     13  O   UNL A   1      33.850  25.551  21.789  1.00  0.00    -0.249 OA
ATOM     14  N   UNL A   1      32.180  26.798  22.376  1.00  0.00    -0.337 N 
ATOM     15  H   UNL A   1      32.491  27.273  21.572  1.00  0.00     0.165 HD
BRANCH  14  16
ATOM     16  C   UNL A   1      31.068  27.516  22.994  1.00  0.00     0.125 C 
BRANCH  16  17
ATOM     17  C   UNL A   1      31.198  29.031  22.804  1.00  0.00     0.096 C 
BRANCH  17  18
ATOM     18  C   UNL A   1      29.869  29.672  22.610  1.00  0.00     0.105 A 
ATOM     19  C   UNL A   1      28.928  30.200  23.468  1.00  0.00     0.045 A 
ATOM     20  O   UNL A   1      29.451  29.807  21.319  1.00  0.00    -0.469 OA
ATOM     21  C   UNL A   1      27.879  30.691  22.654  1.00  0.00     0.042 A 
ATOM     22  C   UNL A   1      28.242  30.421  21.356  1.00  0.00     0.195 A 
ENDBRANCH  17  18
ENDBRANCH  16  17
ENDBRANCH  14  16
ENDBRANCH   8  12
ENDBRANCH   7   8
ENDBRANCH   4   7
ENDBRANCH   2   3
ENDBRANCH   1   2
BRANCH   1  23
ATOM     23  C   UNL A   1      32.118  29.515  27.118  1.00  0.00     0.002 C 
BRANCH  23  24
ATOM     24  C   UNL A   1      31.677  30.561  26.087  1.00  0.00     0.002 C 
BRANCH  24  25
ATOM     25  C   UNL A   1      31.479  31.974  26.641  1.00  0.00     0.021 C 
BRANCH  25  26
ATOM     26  C   UNL A   1      32.742  32.606  27.213  1.00  0.00     0.116 C 
BRANCH  26  27
ATOM     27  N   UNL A   1      32.510  33.972  27.651  1.00  0.00    -0.352 N 
ATOM     28  C   UNL A   1      33.148  34.690  28.628  1.00  0.00     0.251 C 
ATOM     29  H   UNL A   1      31.790  34.451  27.178  1.00  0.00     0.163 HD
ATOM     30  O   UNL A   1      32.677  35.755  29.023  1.00  0.00    -0.269 OA
BRANCH  28  31
ATOM     31  C   UNL A   1      34.399  34.174  29.220  1.00  0.00     0.039 A 
ATOM     32  C   UNL A   1      34.343  33.496  30.440  1.00  0.00     0.014 A 
ATOM     33  C   UNL A   1      35.626  34.369  28.579  1.00  0.00     0.014 A 
ATOM     34  C   UNL A   1      35.511  32.966  30.991  1.00  0.00     0.010 A 
ATOM     35  C   UNL A   1      36.776  33.774  29.089  1.00  0.00     0.010 A 
ATOM     36  C   UNL A   1      36.732  33.074  30.303  1.00  0.00    -0.014 A 
BRANCH  36  37
ATOM     37  C   UNL A   1      37.977  32.474  30.846  1.00  0.00     0.031 A 
ATOM     38  C   UNL A   1      38.531  31.211  30.243  1.00  0.00     0.074 A 
ATOM     39  C   UNL A   1      38.579  33.034  31.915  1.00  0.00     0.049 A 
ATOM     40  N   UNL A   1      39.563  30.500  30.621  1.00  0.00    -0.248 NA
ATOM     41  C   UNL A   1      37.819  30.663  29.078  1.00  0.00     0.031 C 
ATOM     42  C   UNL A   1      38.128  34.242  32.608  1.00  0.00     0.029 A 
ATOM     43  N   UNL A   1      39.700  32.653  32.609  1.00  0.00    -0.354 N 
ATOM     44  C   UNL A   1      39.615  29.419  29.749  1.00  0.00     0.074 A 
ATOM     45  C   UNL A   1      38.482  29.536  28.859  1.00  0.00     0.031 C 
ATOM     46  C   UNL A   1      38.977  34.517  33.612  1.00  0.00     0.029 A 
ATOM     47  C   UNL A   1      40.005  33.482  33.662  1.00  0.00     0.049 A 
ATOM     48  H   UNL A   1      40.236  31.862  32.374  1.00  0.00     0.167 HD
ATOM     49  C   UNL A   1      40.538  28.430  29.680  1.00  0.00     0.031 A 
ATOM     50  C   UNL A   1      40.994  33.411  34.573  1.00  0.00     0.031 A 
ATOM     51  C   UNL A   1      41.669  28.316  30.560  1.00  0.00     0.049 A 
ATOM     52  C   UNL A   1      41.982  32.278  34.495  1.00  0.00     0.074 A 
ATOM     53  C   UNL A   1      42.680  27.370  30.545  1.00  0.00     0.029 A 
ATOM     54  N   UNL A   1      41.940  29.176  31.612  1.00  0.00    -0.354 N 
ATOM     55  N   UNL A   1      42.050  31.297  33.626  1.00  0.00    -0.248 NA
ATOM     56  C   UNL A   1      43.038  32.250  35.517  1.00  0.00     0.031 C 
ATOM     57  C   UNL A   1      43.533  27.626  31.622  1.00  0.00     0.029 A 
ATOM     58  C   UNL A   1      43.091  28.770  32.266  1.00  0.00     0.049 A 
ATOM     59  H   UNL A   1      41.396  29.959  31.857  1.00  0.00     0.167 HD
ATOM     60  C   UNL A   1      43.174  30.561  33.976  1.00  0.00     0.074 A 
ATOM     61  C   UNL A   1      43.767  31.216  35.123  1.00  0.00     0.031 C 
ATOM     62  C   UNL A   1      43.673  29.440  33.399  1.00  0.00     0.031 A 
BRANCH  49  63
ATOM     63  C   UNL A   1      40.361  27.387  28.611  1.00  0.00    -0.014 A 
ATOM     64  C   UNL A   1      39.590  26.236  28.839  1.00  0.00     0.009 A 
ATOM     65  C   UNL A   1      40.925  27.586  27.340  1.00  0.00     0.009 A 
ATOM     66  C   UNL A   1      39.411  25.292  27.825  1.00  0.00     0.001 A 
ATOM     67  C   UNL A   1      40.719  26.654  26.320  1.00  0.00     0.001 A 
ATOM     68  C   UNL A   1      39.970  25.506  26.566  1.00  0.00     0.000 A 
ENDBRANCH  49  63
BRANCH  50  69
ATOM     69  C   UNL A   1      41.108  34.435  35.645  1.00  0.00    -0.014 A 
ATOM     70  C   UNL A   1      40.423  34.278  36.860  1.00  0.00     0.009 A 
ATOM     71  C   UNL A   1      41.870  35.598  35.444  1.00  0.00     0.009 A 
ATOM     72  C   UNL A   1      40.463  35.281  37.832  1.00  0.00     0.001 A 
ATOM     73  C   UNL A   1      41.936  36.583  36.432  1.00  0.00     0.001 A 
ATOM     74  C   UNL A   1      41.221  36.431  37.619  1.00  0.00     0.000 A 
ENDBRANCH  50  69
BRANCH  62  75
ATOM     75  C   UNL A   1      44.951  28.884  33.962  1.00  0.00    -0.014 A 
ATOM     76  C   UNL A   1      44.946  27.910  34.972  1.00  0.00     0.009 A 
ATOM     77  C   UNL A   1      46.181  29.313  33.439  1.00  0.00     0.009 A 
ATOM     78  C   UNL A   1      46.147  27.405  35.472  1.00  0.00     0.001 A 
ATOM     79  C   UNL A   1      47.380  28.782  33.917  1.00  0.00     0.001 A 
ATOM     80  C   UNL A   1      47.362  27.836  34.939  1.00  0.00     0.000 A 
ENDBRANCH  62  75
ENDBRANCH  36  37
ENDBRANCH  28  31
ENDBRANCH  26  27
ENDBRANCH  25  26
ENDBRANCH  24  25
ENDBRANCH  23  24
ENDBRANCH   1  23
TORSDOF 20
ENDMDL
MODEL 3
REMARK VINA RESULT:      -9.5      3.197      7.374
REMARK SMILES C#CCN(CC(=O)NCCCCCCNC(=O)c1ccc(-c2c3nc(c(-c4ccccc4)c4ccc([nH]4)c(-c4ccccc4)c4nc(c(-c5ccccc5)c5ccc2[nH]5)C=C4)C=C3)cc1)C(=O)NCCc1ccco1
REMARK SMILES IDX 10 1 9 2 8 3 6 4 7 5 5 7 4 8 3 9 2 10 1 11 66 12 67 13 68 14
REMARK SMILES IDX 69 16 70 17 71 18 72 19 75 20 73 21 74 22 11 23 12 24 13 25
REMARK SMILES IDX 14 26 15 27 16 28 17 30 18 31 19 32 65 33 20 34 64 35 21 36
REMARK SMILES IDX 22 37 23 38 58 39 24 40 63 41 57 42 59 43 25 44 62 45 56 46
REMARK SMILES IDX 55 47 26 49 48 50 33 51 47 52 34 53 37 54 46 55 60 56 35 57
REMARK SMILES IDX 36 58 45 60 61 61 38 62 27 63 28 64 32 65 29 66 31 67 30 68
REMARK SMILES IDX 49 69 50 70 54 71 51 72 53 73 52 74 39 75 40 76 44 77 41 78
REMARK SMILES IDX 43 79 42 80
REMARK H PARENT 8 6 68 15 15 29 59 48 37 59
REMARK Flexibility Score: inf
ROOT
ATOM      1  C   UNL A   1      33.317  28.728  26.536  1.00  0.00     0.021 C 
ENDROOT
BRANCH   1   2
ATOM      2  C   UNL A   1      33.024  27.440  25.770  1.00  0.00     0.116 C 
BRANCH   2   3
ATOM      3  N   UNL A   1      33.986  26.397  26.039  1.00  0.00    -0.355 N 
ATOM      4  C   UNL A   1      34.138  25.185  25.435  1.00  0.00     0.239 C 
ATOM      5  O   UNL A   1      35.211  24.599  25.612  1.00  0.00    -0.273 OA
ATOM      6  H   UNL A   1      34.624  26.589  26.763  1.00  0.00     0.163 HD
BRANCH   4   7
ATOM      7  C   UNL A   1      33.093  24.628  24.454  1.00  0.00     0.222 C 
BRANCH   7   8
ATOM      8  N   UNL A   1      31.926  24.010  25.076  1.00  0.00    -0.304 N 
BRANCH   8   9
ATOM      9  C   UNL A   1      30.679  24.064  24.312  1.00  0.00     0.211 C 
BRANCH   9  10
ATOM     10  C   UNL A   1      30.151  25.482  24.170  1.00  0.00    -0.085 C 
ATOM     11  C   UNL A   1      29.698  26.699  24.048  1.00  0.00     0.006 C 
ENDBRANCH   9  10
ENDBRANCH   8   9
BRANCH   8  12
ATOM     12  C   UNL A   1      31.879  23.347  26.269  1.00  0.00     0.318 C 
ATOM     13  O   UNL A   1      31.370  23.864  27.271  1.00  0.00    -0.249 OA
ATOM     14  N   UNL A   1      32.368  22.116  26.473  1.00  0.00    -0.337 N 
ATOM     15  H   UNL A   1      32.154  21.807  27.383  1.00  0.00     0.165 HD
BRANCH  14  16
ATOM     16  C   UNL A   1      33.121  21.093  25.751  1.00  0.00     0.125 C 
BRANCH  16  17
ATOM     17  C   UNL A   1      32.304  20.497  24.599  1.00  0.00     0.096 C 
BRANCH  17  18
ATOM     18  C   UNL A   1      32.880  19.207  24.132  1.00  0.00     0.105 A 
ATOM     19  C   UNL A   1      32.496  18.272  23.195  1.00  0.00     0.045 A 
ATOM     20  O   UNL A   1      34.054  18.829  24.714  1.00  0.00    -0.469 OA
ATOM     21  C   UNL A   1      33.495  17.269  23.201  1.00  0.00     0.042 A 
ATOM     22  C   UNL A   1      34.417  17.651  24.147  1.00  0.00     0.195 A 
ENDBRANCH  17  18
ENDBRANCH  16  17
ENDBRANCH  14  16
ENDBRANCH   8  12
ENDBRANCH   7   8
ENDBRANCH   4   7
ENDBRANCH   2   3
ENDBRANCH   1   2
BRANCH   1  23
ATOM     23  C   UNL A   1      32.064  29.499  26.966  1.00  0.00     0.002 C 
BRANCH  23  24
ATOM     24  C   UNL A   1      31.604  30.590  25.991  1.00  0.00     0.002 C 
BRANCH  24  25
ATOM     25  C   UNL A   1      31.378  31.967  26.621  1.00  0.00     0.021 C 
BRANCH  25  26
ATOM     26  C   UNL A   1      32.625  32.588  27.236  1.00  0.00     0.116 C 
BRANCH  26  27
ATOM     27  N   UNL A   1      32.415  33.983  27.589  1.00  0.00    -0.352 N 
ATOM     28  C   UNL A   1      33.051  34.744  28.534  1.00  0.00     0.251 C 
ATOM     29  H   UNL A   1      31.714  34.447  27.075  1.00  0.00     0.163 HD
ATOM     30  O   UNL A   1      32.596  35.839  28.857  1.00  0.00    -0.269 OA
BRANCH  28  31
ATOM     31  C   UNL A   1      34.280  34.238  29.180  1.00  0.00     0.039 A 
ATOM     32  C   UNL A   1      34.180  33.581  30.408  1.00  0.00     0.014 A 
ATOM     33  C   UNL A   1      35.529  34.422  28.579  1.00  0.00     0.014 A 
ATOM     34  C   UNL A   1      35.327  33.062  31.009  1.00  0.00     0.010 A 
ATOM     35  C   UNL A   1      36.659  33.835  29.140  1.00  0.00     0.010 A 
ATOM     36  C   UNL A   1      36.572  33.157  30.364  1.00  0.00    -0.014 A 
BRANCH  36  37
ATOM     37  C   UNL A   1      37.797  32.567  30.961  1.00  0.00     0.031 A 
ATOM     38  C   UNL A   1      38.421  31.344  30.346  1.00  0.00     0.074 A 
ATOM     39  C   UNL A   1      38.315  33.097  32.087  1.00  0.00     0.049 A 
ATOM     40  N   UNL A   1      39.447  30.643  30.761  1.00  0.00    -0.248 NA
ATOM     41  C   UNL A   1      37.799  30.825  29.117  1.00  0.00     0.031 C 
ATOM     42  C   UNL A   1      37.788  34.265  32.797  1.00  0.00     0.029 A 
ATOM     43  N   UNL A   1      39.400  32.717  32.836  1.00  0.00    -0.354 N 
ATOM     44  C   UNL A   1      39.583  29.601  29.852  1.00  0.00     0.074 A 
ATOM     45  C   UNL A   1      38.505  29.726  28.897  1.00  0.00     0.031 C 
ATOM     46  C   UNL A   1      38.565  34.520  33.862  1.00  0.00     0.029 A 
ATOM     47  C   UNL A   1      39.615  33.510  33.938  1.00  0.00     0.049 A 
ATOM     48  H   UNL A   1      39.971  31.949  32.605  1.00  0.00     0.167 HD
ATOM     49  C   UNL A   1      40.535  28.638  29.803  1.00  0.00     0.031 A 
ATOM     50  C   UNL A   1      40.547  33.426  34.907  1.00  0.00     0.031 A 
ATOM     51  C   UNL A   1      41.612  28.517  30.749  1.00  0.00     0.049 A 
ATOM     52  C   UNL A   1      41.568  32.322  34.847  1.00  0.00     0.074 A 
ATOM     53  C   UNL A   1      42.647  27.598  30.762  1.00  0.00     0.029 A 
ATOM     54  N   UNL A   1      41.792  29.339  31.849  1.00  0.00    -0.354 N 
ATOM     55  N   UNL A   1      41.717  31.379  33.948  1.00  0.00    -0.248 NA
ATOM     56  C   UNL A   1      42.558  32.278  35.933  1.00  0.00     0.031 C 
ATOM     57  C   UNL A   1      43.423  27.831  31.899  1.00  0.00     0.029 A 
ATOM     58  C   UNL A   1      42.910  28.936  32.558  1.00  0.00     0.049 A 
ATOM     59  H   UNL A   1      41.212  30.098  32.089  1.00  0.00     0.167 HD
ATOM     60  C   UNL A   1      42.838  30.657  34.339  1.00  0.00     0.074 A 
ATOM     61  C   UNL A   1      43.339  31.280  35.546  1.00  0.00     0.031 C 
ATOM     62  C   UNL A   1      43.402  29.574  33.751  1.00  0.00     0.031 A 
BRANCH  49  63
ATOM     63  C   UNL A   1      40.455  27.636  28.685  1.00  0.00    -0.014 A 
ATOM     64  C   UNL A   1      39.743  26.435  28.836  1.00  0.00     0.009 A 
ATOM     65  C   UNL A   1      41.049  27.922  27.446  1.00  0.00     0.009 A 
ATOM     66  C   UNL A   1      39.653  25.528  27.778  1.00  0.00     0.001 A 
ATOM     67  C   UNL A   1      40.931  27.027  26.380  1.00  0.00     0.001 A 
ATOM     68  C   UNL A   1      40.241  25.828  26.550  1.00  0.00     0.000 A 
ENDBRANCH  49  63
BRANCH  50  69
ATOM     69  C   UNL A   1      40.566  34.408  36.023  1.00  0.00    -0.014 A 
ATOM     70  C   UNL A   1      39.810  34.185  37.185  1.00  0.00     0.009 A 
ATOM     71  C   UNL A   1      41.306  35.597  35.917  1.00  0.00     0.009 A 
ATOM     72  C   UNL A   1      39.761  35.148  38.196  1.00  0.00     0.001 A 
ATOM     73  C   UNL A   1      41.284  36.542  36.945  1.00  0.00     0.001 A 
ATOM     74  C   UNL A   1      40.499  36.324  38.076  1.00  0.00     0.000 A 
ENDBRANCH  50  69
BRANCH  62  75
ATOM     75  C   UNL A   1      44.657  29.027  34.373  1.00  0.00    -0.014 A 
ATOM     76  C   UNL A   1      45.918  29.567  34.079  1.00  0.00     0.009 A 
ATOM     77  C   UNL A   1      44.566  27.979  35.303  1.00  0.00     0.009 A 
ATOM     78  C   UNL A   1      47.066  29.044  34.676  1.00  0.00     0.001 A 
ATOM     79  C   UNL A   1      45.712  27.480  35.924  1.00  0.00     0.001 A 
ATOM     80  C   UNL A   1      46.961  28.006  35.603  1.00  0.00     0.000 A 
ENDBRANCH  62  75
ENDBRANCH  36  37
ENDBRANCH  28  31
ENDBRANCH  26  27
ENDBRANCH  25  26
ENDBRANCH  24  25
ENDBRANCH  23  24
ENDBRANCH   1  23
TORSDOF 20
ENDMDL
