MODEL 1
REMARK VINA RESULT:     -11.6      0.000      0.000
REMARK SMILES Cc1c(/C=C/C(=O)NCCCCCCNC(=O)c2ccc(-c3c4nc(c(-c5ccccc5)c5ccc([nH]5)c(-c5ccccc5)c5nc(c(-c6ccccc6)c6ccc3[nH]6)C=C5)C=C4)cc2)cccc1C(=O)N1C[C@@H](C)[C@@H](C)C1
REMARK SMILES IDX 11 1 10 2 9 3 8 4 6 5 7 6 5 8 4 9 3 10 1 11 2 12 69 13 66 14
REMARK SMILES IDX 68 15 67 16 70 17 71 18 72 19 73 20 78 21 74 22 76 23 75 24
REMARK SMILES IDX 77 25 12 26 13 27 14 28 15 29 16 30 17 32 18 33 19 34 65 35
REMARK SMILES IDX 20 36 64 37 21 38 22 39 23 40 58 41 24 42 63 43 57 44 59 45
REMARK SMILES IDX 25 46 62 47 56 48 55 49 26 51 48 52 33 53 47 54 34 55 37 56
REMARK SMILES IDX 46 57 60 58 35 59 36 60 45 62 61 63 38 64 27 65 28 66 32 67
REMARK SMILES IDX 29 68 31 69 30 70 49 71 50 72 54 73 51 74 53 75 52 76 39 77
REMARK SMILES IDX 40 78 44 79 41 80 43 81 42 82
REMARK H PARENT 8 7 15 31 59 50 37 61
REMARK Flexibility Score: inf
ROOT
ATOM      1  C   UNL A   1      32.967  28.324  26.944  1.00  0.00     0.002 C 
ENDROOT
BRANCH   1   2
ATOM      2  C   UNL A   1      31.813  29.328  26.806  1.00  0.00     0.021 C 
BRANCH   2   3
ATOM      3  C   UNL A   1      32.000  30.374  25.707  1.00  0.00     0.116 C 
BRANCH   3   4
ATOM      4  N   UNL A   1      30.838  30.464  24.842  1.00  0.00    -0.353 N 
ATOM      5  C   UNL A   1      30.389  29.579  23.907  1.00  0.00     0.243 C 
ATOM      6  O   UNL A   1      29.294  29.728  23.373  1.00  0.00    -0.270 OA
ATOM      7  H   UNL A   1      30.295  31.279  24.946  1.00  0.00     0.163 HD
BRANCH   5   8
ATOM      8  C   UNL A   1      31.205  28.384  23.607  1.00  0.00     0.072 C 
ATOM      9  C   UNL A   1      30.649  27.164  23.550  1.00  0.00     0.014 C 
BRANCH   9  10
ATOM     10  C   UNL A   1      31.397  25.948  23.183  1.00  0.00    -0.022 A 
ATOM     11  C   UNL A   1      30.848  24.895  25.425  1.00  0.00     0.046 C 
ATOM     12  C   UNL A   1      31.518  24.846  24.075  1.00  0.00    -0.031 A 
ATOM     13  C   UNL A   1      32.270  23.718  23.660  1.00  0.00     0.043 A 
ATOM     14  C   UNL A   1      32.065  25.925  21.947  1.00  0.00     0.008 A 
ATOM     15  C   UNL A   1      32.909  23.719  22.407  1.00  0.00     0.014 A 
ATOM     16  C   UNL A   1      32.809  24.816  21.557  1.00  0.00     0.001 A 
BRANCH  13  17
ATOM     17  C   UNL A   1      32.706  22.643  24.593  1.00  0.00     0.254 C 
ATOM     18  O   UNL A   1      31.867  21.790  24.885  1.00  0.00    -0.269 OA
BRANCH  17  19
ATOM     19  N   UNL A   1      34.013  22.553  25.034  1.00  0.00    -0.338 N 
ATOM     20  C   UNL A   1      34.806  21.409  24.633  1.00  0.00     0.123 C 
ATOM     21  C   UNL A   1      34.698  23.365  26.028  1.00  0.00     0.123 C 
ATOM     22  C   UNL A   1      35.991  21.372  25.589  1.00  0.00     0.010 C 
ATOM     23  C   UNL A   1      36.146  22.840  26.044  1.00  0.00     0.010 C 
ATOM     24  C   UNL A   1      37.206  20.716  24.949  1.00  0.00     0.010 C 
ATOM     25  C   UNL A   1      37.068  23.690  25.171  1.00  0.00     0.010 C 
ENDBRANCH  17  19
ENDBRANCH  13  17
ENDBRANCH   9  10
ENDBRANCH   5   8
ENDBRANCH   3   4
ENDBRANCH   2   3
ENDBRANCH   1   2
BRANCH   1  26
ATOM     26  C   UNL A   1      34.389  28.913  26.970  1.00  0.00     0.002 C 
BRANCH  26  27
ATOM     27  C   UNL A   1      34.676  29.929  28.079  1.00  0.00     0.021 C 
BRANCH  27  28
ATOM     28  C   UNL A   1      35.043  31.319  27.573  1.00  0.00     0.116 C 
BRANCH  28  29
ATOM     29  N   UNL A   1      34.136  32.365  28.037  1.00  0.00    -0.352 N 
ATOM     30  C   UNL A   1      34.258  33.237  29.108  1.00  0.00     0.251 C 
ATOM     31  H   UNL A   1      33.313  32.466  27.507  1.00  0.00     0.163 HD
ATOM     32  O   UNL A   1      33.375  34.036  29.354  1.00  0.00    -0.269 OA
BRANCH  30  33
ATOM     33  C   UNL A   1      35.542  33.291  29.851  1.00  0.00     0.039 A 
ATOM     34  C   UNL A   1      36.609  33.948  29.227  1.00  0.00     0.014 A 
ATOM     35  C   UNL A   1      35.757  32.509  30.981  1.00  0.00     0.014 A 
ATOM     36  C   UNL A   1      37.909  33.586  29.555  1.00  0.00     0.010 A 
ATOM     37  C   UNL A   1      37.042  32.080  31.247  1.00  0.00     0.010 A 
ATOM     38  C   UNL A   1      38.103  32.551  30.468  1.00  0.00    -0.014 A 
BRANCH  38  39
ATOM     39  C   UNL A   1      39.338  31.782  30.532  1.00  0.00     0.031 A 
ATOM     40  C   UNL A   1      39.466  30.498  29.820  1.00  0.00     0.074 A 
ATOM     41  C   UNL A   1      40.388  32.269  31.230  1.00  0.00     0.049 A 
ATOM     42  N   UNL A   1      40.301  29.567  30.142  1.00  0.00    -0.248 NA
ATOM     43  C   UNL A   1      38.594  30.128  28.711  1.00  0.00     0.031 C 
ATOM     44  C   UNL A   1      41.771  31.802  31.202  1.00  0.00     0.029 A 
ATOM     45  N   UNL A   1      40.403  33.203  32.248  1.00  0.00    -0.354 N 
ATOM     46  C   UNL A   1      40.307  28.650  29.119  1.00  0.00     0.074 A 
ATOM     47  C   UNL A   1      39.146  28.976  28.324  1.00  0.00     0.031 C 
ATOM     48  C   UNL A   1      42.400  32.238  32.308  1.00  0.00     0.029 A 
ATOM     49  C   UNL A   1      41.400  32.863  33.158  1.00  0.00     0.049 A 
ATOM     50  H   UNL A   1      39.806  33.983  32.318  1.00  0.00     0.167 HD
ATOM     51  C   UNL A   1      41.384  27.826  28.968  1.00  0.00     0.031 A 
ATOM     52  C   UNL A   1      41.132  32.477  34.442  1.00  0.00     0.031 A 
ATOM     53  C   UNL A   1      42.321  27.944  30.088  1.00  0.00     0.049 A 
ATOM     54  C   UNL A   1      41.581  31.061  34.760  1.00  0.00     0.074 A 
ATOM     55  C   UNL A   1      43.544  28.579  30.237  1.00  0.00     0.029 A 
ATOM     56  N   UNL A   1      41.902  27.596  31.368  1.00  0.00    -0.354 N 
ATOM     57  N   UNL A   1      41.887  30.172  33.855  1.00  0.00    -0.248 NA
ATOM     58  C   UNL A   1      41.675  30.520  36.116  1.00  0.00     0.031 C 
ATOM     59  C   UNL A   1      43.817  28.685  31.627  1.00  0.00     0.029 A 
ATOM     60  C   UNL A   1      42.778  28.086  32.317  1.00  0.00     0.049 A 
ATOM     61  H   UNL A   1      41.093  27.073  31.569  1.00  0.00     0.167 HD
ATOM     62  C   UNL A   1      42.196  28.982  34.459  1.00  0.00     0.074 A 
ATOM     63  C   UNL A   1      42.065  29.255  35.878  1.00  0.00     0.031 C 
ATOM     64  C   UNL A   1      42.519  27.870  33.735  1.00  0.00     0.031 A 
BRANCH  51  65
ATOM     65  C   UNL A   1      41.736  27.151  27.657  1.00  0.00    -0.014 A 
ATOM     66  C   UNL A   1      41.317  25.827  27.423  1.00  0.00     0.009 A 
ATOM     67  C   UNL A   1      42.542  27.714  26.653  1.00  0.00     0.009 A 
ATOM     68  C   UNL A   1      41.760  25.086  26.317  1.00  0.00     0.001 A 
ATOM     69  C   UNL A   1      43.014  26.974  25.559  1.00  0.00     0.001 A 
ATOM     70  C   UNL A   1      42.633  25.652  25.399  1.00  0.00     0.000 A 
ENDBRANCH  51  65
BRANCH  52  71
ATOM     71  C   UNL A   1      39.935  33.127  35.042  1.00  0.00    -0.014 A 
ATOM     72  C   UNL A   1      38.670  32.567  34.783  1.00  0.00     0.009 A 
ATOM     73  C   UNL A   1      40.061  34.037  36.101  1.00  0.00     0.009 A 
ATOM     74  C   UNL A   1      37.588  32.821  35.630  1.00  0.00     0.001 A 
ATOM     75  C   UNL A   1      38.971  34.296  36.942  1.00  0.00     0.001 A 
ATOM     76  C   UNL A   1      37.748  33.662  36.728  1.00  0.00     0.000 A 
ENDBRANCH  52  71
BRANCH  64  77
ATOM     77  C   UNL A   1      42.679  26.474  34.283  1.00  0.00    -0.014 A 
ATOM     78  C   UNL A   1      41.737  25.833  35.098  1.00  0.00     0.009 A 
ATOM     79  C   UNL A   1      43.775  25.695  33.846  1.00  0.00     0.009 A 
ATOM     80  C   UNL A   1      41.904  24.496  35.490  1.00  0.00     0.001 A 
ATOM     81  C   UNL A   1      43.922  24.351  34.198  1.00  0.00     0.001 A 
ATOM     82  C   UNL A   1      42.989  23.754  35.033  1.00  0.00     0.000 A 
ENDBRANCH  64  77
ENDBRANCH  38  39
ENDBRANCH  30  33
ENDBRANCH  28  29
ENDBRANCH  27  28
ENDBRANCH  26  27
ENDBRANCH   1  26
TORSDOF 16
ENDMDL
MODEL 2
REMARK VINA RESULT:     -11.5      1.751      2.497
REMARK SMILES Cc1c(/C=C/C(=O)NCCCCCCNC(=O)c2ccc(-c3c4nc(c(-c5ccccc5)c5ccc([nH]5)c(-c5ccccc5)c5nc(c(-c6ccccc6)c6ccc3[nH]6)C=C5)C=C4)cc2)cccc1C(=O)N1C[C@@H](C)[C@@H](C)C1
REMARK SMILES IDX 11 1 10 2 9 3 8 4 6 5 7 6 5 8 4 9 3 10 1 11 2 12 69 13 66 14
REMARK SMILES IDX 68 15 67 16 70 17 71 18 72 19 73 20 78 21 74 22 76 23 75 24
REMARK SMILES IDX 77 25 12 26 13 27 14 28 15 29 16 30 17 32 18 33 19 34 65 35
REMARK SMILES IDX 20 36 64 37 21 38 22 39 23 40 58 41 24 42 63 43 57 44 59 45
REMARK SMILES IDX 25 46 62 47 56 48 55 49 26 51 48 52 33 53 47 54 34 55 37 56
REMARK SMILES IDX 46 57 60 58 35 59 36 60 45 62 61 63 38 64 27 65 28 66 32 67
REMARK SMILES IDX 29 68 31 69 30 70 49 71 50 72 54 73 51 74 53 75 52 76 39 77
REMARK SMILES IDX 40 78 44 79 41 80 43 81 42 82
REMARK H PARENT 8 7 15 31 59 50 37 61
REMARK Flexibility Score: inf
ROOT
ATOM      1  C   UNL A   1      33.642  28.188  25.686  1.00  0.00     0.002 C 
ENDROOT
BRANCH   1   2
ATOM      2  C   UNL A   1      32.977  29.003  24.567  1.00  0.00     0.021 C 
BRANCH   2   3
ATOM      3  C   UNL A   1      33.617  28.842  23.188  1.00  0.00     0.116 C 
BRANCH   3   4
ATOM      4  N   UNL A   1      32.736  28.155  22.260  1.00  0.00    -0.353 N 
ATOM      5  C   UNL A   1      32.513  26.817  22.114  1.00  0.00     0.243 C 
ATOM      6  O   UNL A   1      31.611  26.405  21.391  1.00  0.00    -0.270 OA
ATOM      7  H   UNL A   1      32.227  28.736  21.650  1.00  0.00     0.163 HD
BRANCH   5   8
ATOM      8  C   UNL A   1      33.319  25.869  22.910  1.00  0.00     0.072 C 
ATOM      9  C   UNL A   1      33.215  24.545  22.721  1.00  0.00     0.014 C 
BRANCH   9  10
ATOM     10  C   UNL A   1      34.045  23.555  23.432  1.00  0.00    -0.022 A 
ATOM     11  C   UNL A   1      31.980  22.216  24.046  1.00  0.00     0.046 C 
ATOM     12  C   UNL A   1      33.472  22.431  24.089  1.00  0.00    -0.031 A 
ATOM     13  C   UNL A   1      34.332  21.533  24.770  1.00  0.00     0.043 A 
ATOM     14  C   UNL A   1      35.429  23.786  23.517  1.00  0.00     0.008 A 
ATOM     15  C   UNL A   1      35.716  21.782  24.818  1.00  0.00     0.014 A 
ATOM     16  C   UNL A   1      36.260  22.902  24.197  1.00  0.00     0.001 A 
BRANCH  13  17
ATOM     17  C   UNL A   1      33.841  20.500  25.722  1.00  0.00     0.254 C 
ATOM     18  O   UNL A   1      33.630  20.869  26.878  1.00  0.00    -0.269 OA
BRANCH  17  19
ATOM     19  N   UNL A   1      33.545  19.216  25.307  1.00  0.00    -0.338 N 
ATOM     20  C   UNL A   1      34.147  18.722  24.084  1.00  0.00     0.123 C 
ATOM     21  C   UNL A   1      32.542  18.298  25.825  1.00  0.00     0.123 C 
ATOM     22  C   UNL A   1      33.324  17.507  23.680  1.00  0.00     0.010 C 
ATOM     23  C   UNL A   1      32.729  17.002  25.014  1.00  0.00     0.010 C 
ATOM     24  C   UNL A   1      34.151  16.514  22.875  1.00  0.00     0.010 C 
ATOM     25  C   UNL A   1      33.590  15.985  25.760  1.00  0.00     0.010 C 
ENDBRANCH  17  19
ENDBRANCH  13  17
ENDBRANCH   9  10
ENDBRANCH   5   8
ENDBRANCH   3   4
ENDBRANCH   2   3
ENDBRANCH   1   2
BRANCH   1  26
ATOM     26  C   UNL A   1      34.359  28.992  26.785  1.00  0.00     0.002 C 
BRANCH  26  27
ATOM     27  C   UNL A   1      33.574  30.160  27.387  1.00  0.00     0.021 C 
BRANCH  27  28
ATOM     28  C   UNL A   1      34.416  31.397  27.672  1.00  0.00     0.116 C 
BRANCH  28  29
ATOM     29  N   UNL A   1      33.622  32.596  27.927  1.00  0.00    -0.352 N 
ATOM     30  C   UNL A   1      33.789  33.588  28.880  1.00  0.00     0.251 C 
ATOM     31  H   UNL A   1      32.849  32.717  27.330  1.00  0.00     0.163 HD
ATOM     32  O   UNL A   1      33.001  34.511  28.954  1.00  0.00    -0.269 OA
BRANCH  30  33
ATOM     33  C   UNL A   1      35.026  33.597  29.702  1.00  0.00     0.039 A 
ATOM     34  C   UNL A   1      36.101  34.352  29.222  1.00  0.00     0.014 A 
ATOM     35  C   UNL A   1      35.204  32.698  30.749  1.00  0.00     0.014 A 
ATOM     36  C   UNL A   1      37.394  33.995  29.587  1.00  0.00     0.010 A 
ATOM     37  C   UNL A   1      36.487  32.281  31.044  1.00  0.00     0.010 A 
ATOM     38  C   UNL A   1      37.572  32.869  30.389  1.00  0.00    -0.014 A 
BRANCH  38  39
ATOM     39  C   UNL A   1      38.830  32.136  30.442  1.00  0.00     0.031 A 
ATOM     40  C   UNL A   1      38.999  30.872  29.703  1.00  0.00     0.074 A 
ATOM     41  C   UNL A   1      39.862  32.639  31.156  1.00  0.00     0.049 A 
ATOM     42  N   UNL A   1      39.860  29.960  30.009  1.00  0.00    -0.248 NA
ATOM     43  C   UNL A   1      38.143  30.501  28.582  1.00  0.00     0.031 C 
ATOM     44  C   UNL A   1      41.258  32.213  31.125  1.00  0.00     0.029 A 
ATOM     45  N   UNL A   1      39.845  33.551  32.194  1.00  0.00    -0.354 N 
ATOM     46  C   UNL A   1      39.897  29.065  28.966  1.00  0.00     0.074 A 
ATOM     47  C   UNL A   1      38.731  29.374  28.173  1.00  0.00     0.031 C 
ATOM     48  C   UNL A   1      41.869  32.644  32.243  1.00  0.00     0.029 A 
ATOM     49  C   UNL A   1      40.848  33.220  33.101  1.00  0.00     0.049 A 
ATOM     50  H   UNL A   1      39.225  34.311  32.278  1.00  0.00     0.167 HD
ATOM     51  C   UNL A   1      40.999  28.278  28.804  1.00  0.00     0.031 A 
ATOM     52  C   UNL A   1      40.585  32.799  34.376  1.00  0.00     0.031 A 
ATOM     53  C   UNL A   1      41.928  28.398  29.930  1.00  0.00     0.049 A 
ATOM     54  C   UNL A   1      41.075  31.390  34.665  1.00  0.00     0.074 A 
ATOM     55  C   UNL A   1      43.130  29.066  30.100  1.00  0.00     0.029 A 
ATOM     56  N   UNL A   1      41.513  28.011  31.200  1.00  0.00    -0.354 N 
ATOM     57  N   UNL A   1      41.411  30.530  33.742  1.00  0.00    -0.248 NA
ATOM     58  C   UNL A   1      41.179  30.823  36.009  1.00  0.00     0.031 C 
ATOM     59  C   UNL A   1      43.394  29.150  31.493  1.00  0.00     0.029 A 
ATOM     60  C   UNL A   1      42.370  28.506  32.165  1.00  0.00     0.049 A 
ATOM     61  H   UNL A   1      40.719  27.460  31.386  1.00  0.00     0.167 HD
ATOM     62  C   UNL A   1      41.753  29.337  34.322  1.00  0.00     0.074 A 
ATOM     63  C   UNL A   1      41.607  29.575  35.746  1.00  0.00     0.031 C 
ATOM     64  C   UNL A   1      42.112  28.251  33.576  1.00  0.00     0.031 A 
BRANCH  51  65
ATOM     65  C   UNL A   1      41.377  27.642  27.480  1.00  0.00    -0.014 A 
ATOM     66  C   UNL A   1      41.551  26.246  27.405  1.00  0.00     0.009 A 
ATOM     67  C   UNL A   1      41.662  28.349  26.300  1.00  0.00     0.009 A 
ATOM     68  C   UNL A   1      42.073  25.618  26.264  1.00  0.00     0.001 A 
ATOM     69  C   UNL A   1      42.211  27.736  25.165  1.00  0.00     0.001 A 
ATOM     70  C   UNL A   1      42.431  26.368  25.153  1.00  0.00     0.000 A 
ENDBRANCH  51  65
BRANCH  52  71
ATOM     71  C   UNL A   1      39.367  33.400  34.983  1.00  0.00    -0.014 A 
ATOM     72  C   UNL A   1      38.111  33.031  34.466  1.00  0.00     0.009 A 
ATOM     73  C   UNL A   1      39.418  34.028  36.236  1.00  0.00     0.009 A 
ATOM     74  C   UNL A   1      36.950  33.182  35.230  1.00  0.00     0.001 A 
ATOM     75  C   UNL A   1      38.251  34.184  36.995  1.00  0.00     0.001 A 
ATOM     76  C   UNL A   1      37.026  33.730  36.507  1.00  0.00     0.000 A 
ENDBRANCH  52  71
BRANCH  64  77
ATOM     77  C   UNL A   1      42.311  26.849  34.094  1.00  0.00    -0.014 A 
ATOM     78  C   UNL A   1      43.473  26.092  33.896  1.00  0.00     0.009 A 
ATOM     79  C   UNL A   1      41.333  26.297  34.953  1.00  0.00     0.009 A 
ATOM     80  C   UNL A   1      43.631  24.832  34.492  1.00  0.00     0.001 A 
ATOM     81  C   UNL A   1      41.505  25.063  35.583  1.00  0.00     0.001 A 
ATOM     82  C   UNL A   1      42.654  24.323  35.342  1.00  0.00     0.000 A 
ENDBRANCH  64  77
ENDBRANCH  38  39
ENDBRANCH  30  33
ENDBRANCH  28  29
ENDBRANCH  27  28
ENDBRANCH  26  27
ENDBRANCH   1  26
TORSDOF 16
ENDMDL
MODEL 3
REMARK VINA RESULT:     -10.9      3.267      9.007
REMARK SMILES Cc1c(/C=C/C(=O)NCCCCCCNC(=O)c2ccc(-c3c4nc(c(-c5ccccc5)c5ccc([nH]5)c(-c5ccccc5)c5nc(c(-c6ccccc6)c6ccc3[nH]6)C=C5)C=C4)cc2)cccc1C(=O)N1C[C@@H](C)[C@@H](C)C1
REMARK SMILES IDX 11 1 10 2 9 3 8 4 6 5 7 6 5 8 4 9 3 10 1 11 2 12 69 13 66 14
REMARK SMILES IDX 68 15 67 16 70 17 71 18 72 19 73 20 78 21 74 22 76 23 75 24
REMARK SMILES IDX 77 25 12 26 13 27 14 28 15 29 16 30 17 32 18 33 19 34 65 35
REMARK SMILES IDX 20 36 64 37 21 38 22 39 23 40 58 41 24 42 63 43 57 44 59 45
REMARK SMILES IDX 25 46 62 47 56 48 55 49 26 51 48 52 33 53 47 54 34 55 37 56
REMARK SMILES IDX 46 57 60 58 35 59 36 60 45 62 61 63 38 64 27 65 28 66 32 67
REMARK SMILES IDX 29 68 31 69 30 70 49 71 50 72 54 73 51 74 53 75 52 76 39 77
REMARK SMILES IDX 40 78 44 79 41 80 43 81 42 82
REMARK H PARENT 8 7 15 31 59 50 37 61
REMARK Flexibility Score: inf
ROOT
ATOM      1  C   UNL A   1      45.621  22.007  25.601  1.00  0.00     0.002 C 
ENDROOT
BRANCH   1   2
ATOM      2  C   UNL A   1      45.957  20.613  25.050  1.00  0.00     0.021 C 
BRANCH   2   3
ATOM      3  C   UNL A   1      44.808  19.917  24.321  1.00  0.00     0.116 C 
BRANCH   3   4
ATOM      4  N   UNL A   1      44.225  18.854  25.120  1.00  0.00    -0.353 N 
ATOM      5  C   UNL A   1      43.013  18.810  25.743  1.00  0.00     0.243 C 
ATOM      6  O   UNL A   1      42.601  17.768  26.245  1.00  0.00    -0.270 OA
ATOM      7  H   UNL A   1      44.784  18.051  25.228  1.00  0.00     0.163 HD
BRANCH   5   8
ATOM      8  C   UNL A   1      42.159  20.015  25.727  1.00  0.00     0.072 C 
ATOM      9  C   UNL A   1      40.940  20.006  26.287  1.00  0.00     0.014 C 
BRANCH   9  10
ATOM     10  C   UNL A   1      40.075  21.197  26.368  1.00  0.00    -0.022 A 
ATOM     11  C   UNL A   1      38.277  20.023  25.016  1.00  0.00     0.046 C 
ATOM     12  C   UNL A   1      38.792  21.234  25.752  1.00  0.00    -0.031 A 
ATOM     13  C   UNL A   1      38.025  22.422  25.855  1.00  0.00     0.043 A 
ATOM     14  C   UNL A   1      40.577  22.343  27.008  1.00  0.00     0.008 A 
ATOM     15  C   UNL A   1      38.550  23.544  26.522  1.00  0.00     0.014 A 
ATOM     16  C   UNL A   1      39.818  23.506  27.092  1.00  0.00     0.001 A 
BRANCH  13  17
ATOM     17  C   UNL A   1      36.817  22.685  25.026  1.00  0.00     0.254 C 
ATOM     18  O   UNL A   1      37.010  22.995  23.850  1.00  0.00    -0.269 OA
BRANCH  17  19
ATOM     19  N   UNL A   1      35.542  22.498  25.525  1.00  0.00    -0.338 N 
ATOM     20  C   UNL A   1      34.707  23.659  25.757  1.00  0.00     0.123 C 
ATOM     21  C   UNL A   1      34.937  21.283  26.050  1.00  0.00     0.123 C 
ATOM     22  C   UNL A   1      33.589  23.187  26.677  1.00  0.00     0.010 C 
ATOM     23  C   UNL A   1      33.486  21.673  26.389  1.00  0.00     0.010 C 
ATOM     24  C   UNL A   1      32.324  24.013  26.488  1.00  0.00     0.010 C 
ATOM     25  C   UNL A   1      32.520  21.295  25.267  1.00  0.00     0.010 C 
ENDBRANCH  17  19
ENDBRANCH  13  17
ENDBRANCH   9  10
ENDBRANCH   5   8
ENDBRANCH   3   4
ENDBRANCH   2   3
ENDBRANCH   1   2
BRANCH   1  26
ATOM     26  C   UNL A   1      44.705  22.886  24.731  1.00  0.00     0.002 C 
BRANCH  26  27
ATOM     27  C   UNL A   1      44.621  24.364  25.121  1.00  0.00     0.021 C 
BRANCH  27  28
ATOM     28  C   UNL A   1      43.199  24.887  25.286  1.00  0.00     0.116 C 
BRANCH  28  29
ATOM     29  N   UNL A   1      43.035  26.272  24.855  1.00  0.00    -0.352 N 
ATOM     30  C   UNL A   1      42.326  27.308  25.442  1.00  0.00     0.251 C 
ATOM     31  H   UNL A   1      43.502  26.506  24.020  1.00  0.00     0.163 HD
ATOM     32  O   UNL A   1      42.288  28.404  24.915  1.00  0.00    -0.269 OA
BRANCH  30  33
ATOM     33  C   UNL A   1      41.747  27.110  26.794  1.00  0.00     0.039 A 
ATOM     34  C   UNL A   1      40.391  26.772  26.861  1.00  0.00     0.014 A 
ATOM     35  C   UNL A   1      42.437  27.498  27.940  1.00  0.00     0.014 A 
ATOM     36  C   UNL A   1      39.668  27.102  28.000  1.00  0.00     0.010 A 
ATOM     37  C   UNL A   1      41.706  27.911  29.036  1.00  0.00     0.010 A 
ATOM     38  C   UNL A   1      40.314  27.797  29.022  1.00  0.00    -0.014 A 
BRANCH  38  39
ATOM     39  C   UNL A   1      39.593  28.591  30.007  1.00  0.00     0.031 A 
ATOM     40  C   UNL A   1      38.888  29.825  29.612  1.00  0.00     0.074 A 
ATOM     41  C   UNL A   1      39.548  28.175  31.292  1.00  0.00     0.049 A 
ATOM     42  N   UNL A   1      38.606  30.792  30.420  1.00  0.00    -0.248 NA
ATOM     43  C   UNL A   1      38.503  30.098  28.232  1.00  0.00     0.031 C 
ATOM     44  C   UNL A   1      38.679  28.666  32.358  1.00  0.00     0.029 A 
ATOM     45  N   UNL A   1      40.396  27.316  31.963  1.00  0.00    -0.354 N 
ATOM     46  C   UNL A   1      37.741  31.635  29.763  1.00  0.00     0.074 A 
ATOM     47  C   UNL A   1      37.812  31.231  28.378  1.00  0.00     0.031 C 
ATOM     48  C   UNL A   1      39.209  28.321  33.544  1.00  0.00     0.029 A 
ATOM     49  C   UNL A   1      40.515  27.739  33.284  1.00  0.00     0.049 A 
ATOM     50  H   UNL A   1      40.844  26.531  31.570  1.00  0.00     0.167 HD
ATOM     51  C   UNL A   1      36.941  32.467  30.491  1.00  0.00     0.031 A 
ATOM     52  C   UNL A   1      41.687  28.209  33.809  1.00  0.00     0.031 A 
ATOM     53  C   UNL A   1      37.284  32.446  31.914  1.00  0.00     0.049 A 
ATOM     54  C   UNL A   1      41.610  29.652  34.277  1.00  0.00     0.074 A 
ATOM     55  C   UNL A   1      36.703  31.847  33.021  1.00  0.00     0.029 A 
ATOM     56  N   UNL A   1      38.545  32.875  32.319  1.00  0.00    -0.354 N 
ATOM     57  N   UNL A   1      40.662  30.481  33.933  1.00  0.00    -0.248 NA
ATOM     58  C   UNL A   1      42.616  30.289  35.126  1.00  0.00     0.031 C 
ATOM     59  C   UNL A   1      37.659  31.845  34.072  1.00  0.00     0.029 A 
ATOM     60  C   UNL A   1      38.805  32.470  33.614  1.00  0.00     0.049 A 
ATOM     61  H   UNL A   1      39.165  33.395  31.759  1.00  0.00     0.167 HD
ATOM     62  C   UNL A   1      40.908  31.716  34.472  1.00  0.00     0.074 A 
ATOM     63  C   UNL A   1      42.136  31.542  35.225  1.00  0.00     0.031 C 
ATOM     64  C   UNL A   1      40.085  32.781  34.236  1.00  0.00     0.031 A 
BRANCH  51  65
ATOM     65  C   UNL A   1      35.650  33.055  29.955  1.00  0.00    -0.014 A 
ATOM     66  C   UNL A   1      35.244  32.755  28.641  1.00  0.00     0.009 A 
ATOM     67  C   UNL A   1      34.837  33.970  30.644  1.00  0.00     0.009 A 
ATOM     68  C   UNL A   1      34.163  33.405  28.025  1.00  0.00     0.001 A 
ATOM     69  C   UNL A   1      33.773  34.647  30.030  1.00  0.00     0.001 A 
ATOM     70  C   UNL A   1      33.444  34.373  28.712  1.00  0.00     0.000 A 
ENDBRANCH  51  65
BRANCH  52  71
ATOM     71  C   UNL A   1      42.910  27.580  33.243  1.00  0.00    -0.014 A 
ATOM     72  C   UNL A   1      43.355  26.364  33.796  1.00  0.00     0.009 A 
ATOM     73  C   UNL A   1      43.411  27.969  31.992  1.00  0.00     0.009 A 
ATOM     74  C   UNL A   1      44.186  25.508  33.069  1.00  0.00     0.001 A 
ATOM     75  C   UNL A   1      44.251  27.112  31.270  1.00  0.00     0.001 A 
ATOM     76  C   UNL A   1      44.609  25.869  31.792  1.00  0.00     0.000 A 
ENDBRANCH  52  71
BRANCH  64  77
ATOM     77  C   UNL A   1      40.366  34.215  34.610  1.00  0.00    -0.014 A 
ATOM     78  C   UNL A   1      39.638  34.938  35.564  1.00  0.00     0.009 A 
ATOM     79  C   UNL A   1      41.515  34.842  34.078  1.00  0.00     0.009 A 
ATOM     80  C   UNL A   1      40.017  36.237  35.936  1.00  0.00     0.001 A 
ATOM     81  C   UNL A   1      41.920  36.118  34.478  1.00  0.00     0.001 A 
ATOM     82  C   UNL A   1      41.161  36.822  35.401  1.00  0.00     0.000 A 
ENDBRANCH  64  77
ENDBRANCH  38  39
ENDBRANCH  30  33
ENDBRANCH  28  29
ENDBRANCH  27  28
ENDBRANCH  26  27
ENDBRANCH   1  26
TORSDOF 16
ENDMDL
