MODEL 1
REMARK VINA RESULT:      -9.7      0.000      0.000
REMARK SMILES Cc1ccc(-c2[nH]c3ccccc3c2[C@@H]2c3ccccc3C(=O)N2[C@H](C)C(=O)NCCCCCCNC(=O)c2ccc(-c3c4nc(c(-c5ccccc5)c5ccc([nH]5)c(-c5ccccc5)c5nc(c(-c6ccccc6)c6ccc3[nH]6)C=C5)C=C4)cc2)cc1
REMARK SMILES IDX 32 1 31 2 30 3 29 4 27 5 28 6 25 8 26 9 24 10 15 11 16 12
REMARK SMILES IDX 17 13 21 14 22 15 18 16 20 17 23 18 19 19 14 20 6 21 7 22
REMARK SMILES IDX 8 23 13 25 9 26 12 27 10 28 11 29 5 30 1 31 2 32 3 33 88 34
REMARK SMILES IDX 4 35 87 36 33 37 34 38 35 39 36 40 37 41 38 43 39 44 40 45
REMARK SMILES IDX 86 46 41 47 85 48 42 49 43 50 44 51 79 52 45 53 84 54 78 55
REMARK SMILES IDX 80 56 46 57 83 58 77 59 76 60 47 62 69 63 54 64 68 65 55 66
REMARK SMILES IDX 58 67 67 68 81 69 56 70 57 71 66 73 82 74 59 75 48 76 49 77
REMARK SMILES IDX 53 78 50 79 52 80 51 81 70 82 71 83 75 84 72 85 74 86 73 87
REMARK SMILES IDX 60 88 61 89 65 90 62 91 64 92 63 93
REMARK H PARENT 29 7 7 24 36 42 80 61 58 72
REMARK Flexibility Score: inf
ROOT
ATOM      1  C   UNL A   1      49.007  31.126  30.116  1.00  0.00     0.002 C 
ENDROOT
BRANCH   1   2
ATOM      2  C   UNL A   1      48.846  29.645  29.770  1.00  0.00     0.021 C 
BRANCH   2   3
ATOM      3  C   UNL A   1      49.880  29.005  28.851  1.00  0.00     0.116 C 
BRANCH   3   4
ATOM      4  N   UNL A   1      50.672  27.941  29.390  1.00  0.00    -0.354 N 
ATOM      5  C   UNL A   1      50.745  26.659  28.917  1.00  0.00     0.242 C 
ATOM      6  O   UNL A   1      51.802  26.057  29.144  1.00  0.00    -0.273 OA
ATOM      7  H   UNL A   1      51.220  28.152  30.180  1.00  0.00     0.163 HD
BRANCH   5   8
ATOM      8  C   UNL A   1      49.517  25.893  28.325  1.00  0.00     0.172 C 
ATOM      9  C   UNL A   1      48.585  25.618  29.522  1.00  0.00     0.042 C 
BRANCH   8  10
ATOM     10  N   UNL A   1      48.739  26.127  27.082  1.00  0.00    -0.316 N 
ATOM     11  C   UNL A   1      47.420  26.770  26.889  1.00  0.00     0.151 C 
ATOM     12  C   UNL A   1      47.487  27.202  25.439  1.00  0.00    -0.008 A 
ATOM     13  C   UNL A   1      46.728  28.090  24.694  1.00  0.00     0.007 A 
ATOM     14  C   UNL A   1      48.585  26.611  24.824  1.00  0.00     0.045 A 
ATOM     15  C   UNL A   1      49.412  25.998  25.856  1.00  0.00     0.255 C 
ATOM     16  C   UNL A   1      47.016  28.260  23.329  1.00  0.00     0.000 A 
ATOM     17  C   UNL A   1      48.888  26.738  23.479  1.00  0.00     0.014 A 
ATOM     18  O   UNL A   1      50.510  25.547  25.637  1.00  0.00    -0.269 OA
ATOM     19  C   UNL A   1      48.069  27.563  22.717  1.00  0.00     0.001 A 
BRANCH  11  20
ATOM     20  C   UNL A   1      46.258  25.768  26.951  1.00  0.00     0.013 A 
ATOM     21  C   UNL A   1      45.287  25.660  27.961  1.00  0.00     0.052 A 
ATOM     22  N   UNL A   1      44.577  24.501  27.739  1.00  0.00    -0.354 N 
ATOM     23  C   UNL A   1      45.052  23.822  26.654  1.00  0.00     0.046 A 
ATOM     24  H   UNL A   1      43.823  24.199  28.294  1.00  0.00     0.167 HD
ATOM     25  C   UNL A   1      46.019  24.634  26.061  1.00  0.00     0.006 A 
ATOM     26  C   UNL A   1      44.708  22.551  26.171  1.00  0.00     0.027 A 
ATOM     27  C   UNL A   1      46.592  24.162  24.859  1.00  0.00     0.011 A 
ATOM     28  C   UNL A   1      45.356  22.090  25.025  1.00  0.00     0.002 A 
ATOM     29  C   UNL A   1      46.269  22.895  24.361  1.00  0.00     0.001 A 
BRANCH  21  30
ATOM     30  C   UNL A   1      44.938  26.468  29.130  1.00  0.00    -0.002 A 
ATOM     31  C   UNL A   1      44.098  28.688  32.747  1.00  0.00     0.044 C 
ATOM     32  C   UNL A   1      44.408  27.918  31.497  1.00  0.00    -0.051 A 
ATOM     33  C   UNL A   1      43.729  26.726  31.224  1.00  0.00     0.004 A 
ATOM     34  C   UNL A   1      45.371  28.368  30.589  1.00  0.00     0.004 A 
ATOM     35  C   UNL A   1      44.013  25.997  30.064  1.00  0.00     0.010 A 
ATOM     36  C   UNL A   1      45.630  27.651  29.415  1.00  0.00     0.010 A 
ENDBRANCH  21  30
ENDBRANCH  11  20
ENDBRANCH   8  10
ENDBRANCH   5   8
ENDBRANCH   3   4
ENDBRANCH   2   3
ENDBRANCH   1   2
BRANCH   1  37
ATOM     37  C   UNL A   1      47.761  31.888  30.589  1.00  0.00     0.002 C 
BRANCH  37  38
ATOM     38  C   UNL A   1      47.739  33.398  30.352  1.00  0.00     0.021 C 
BRANCH  38  39
ATOM     39  C   UNL A   1      46.848  33.867  29.212  1.00  0.00     0.116 C 
BRANCH  39  40
ATOM     40  N   UNL A   1      47.589  34.174  27.991  1.00  0.00    -0.352 N 
ATOM     41  C   UNL A   1      47.465  33.584  26.747  1.00  0.00     0.251 C 
ATOM     42  H   UNL A   1      48.261  34.891  28.064  1.00  0.00     0.163 HD
ATOM     43  O   UNL A   1      48.088  33.999  25.777  1.00  0.00    -0.269 OA
BRANCH  41  44
ATOM     44  C   UNL A   1      46.468  32.507  26.591  1.00  0.00     0.039 A 
ATOM     45  C   UNL A   1      45.196  32.865  26.142  1.00  0.00     0.014 A 
ATOM     46  C   UNL A   1      46.709  31.253  27.152  1.00  0.00     0.014 A 
ATOM     47  C   UNL A   1      44.113  32.069  26.492  1.00  0.00     0.010 A 
ATOM     48  C   UNL A   1      45.628  30.502  27.569  1.00  0.00     0.010 A 
ATOM     49  C   UNL A   1      44.330  30.957  27.309  1.00  0.00    -0.014 A 
BRANCH  49  50
ATOM     50  C   UNL A   1      43.249  30.319  28.048  1.00  0.00     0.031 A 
ATOM     51  C   UNL A   1      42.525  29.175  27.474  1.00  0.00     0.074 A 
ATOM     52  C   UNL A   1      42.897  30.801  29.260  1.00  0.00     0.049 A 
ATOM     53  N   UNL A   1      41.297  28.877  27.745  1.00  0.00    -0.248 NA
ATOM     54  C   UNL A   1      43.128  28.306  26.471  1.00  0.00     0.031 C 
ATOM     55  C   UNL A   1      41.987  30.203  30.230  1.00  0.00     0.029 A 
ATOM     56  N   UNL A   1      43.127  32.085  29.745  1.00  0.00    -0.354 N 
ATOM     57  C   UNL A   1      41.056  27.631  27.213  1.00  0.00     0.074 A 
ATOM     58  C   UNL A   1      42.176  27.380  26.334  1.00  0.00     0.031 C 
ATOM     59  C   UNL A   1      41.540  31.165  31.055  1.00  0.00     0.029 A 
ATOM     60  C   UNL A   1      42.030  32.437  30.546  1.00  0.00     0.049 A 
ATOM     61  H   UNL A   1      43.917  32.645  29.561  1.00  0.00     0.167 HD
ATOM     62  C   UNL A   1      40.029  26.881  27.706  1.00  0.00     0.031 A 
ATOM     63  C   UNL A   1      41.238  33.499  30.218  1.00  0.00     0.031 A 
ATOM     64  C   UNL A   1      39.198  27.642  28.642  1.00  0.00     0.049 A 
ATOM     65  C   UNL A   1      39.801  33.123  29.931  1.00  0.00     0.074 A 
ATOM     66  C   UNL A   1      39.113  27.664  30.025  1.00  0.00     0.029 A 
ATOM     67  N   UNL A   1      38.499  28.758  28.189  1.00  0.00    -0.354 N 
ATOM     68  N   UNL A   1      39.401  31.910  29.667  1.00  0.00    -0.248 NA
ATOM     69  C   UNL A   1      38.712  34.096  29.867  1.00  0.00     0.031 C 
ATOM     70  C   UNL A   1      38.436  28.852  30.405  1.00  0.00     0.029 A 
ATOM     71  C   UNL A   1      38.083  29.535  29.255  1.00  0.00     0.049 A 
ATOM     72  H   UNL A   1      38.325  28.964  27.243  1.00  0.00     0.167 HD
ATOM     73  C   UNL A   1      38.061  31.923  29.384  1.00  0.00     0.074 A 
ATOM     74  C   UNL A   1      37.670  33.312  29.539  1.00  0.00     0.031 C 
ATOM     75  C   UNL A   1      37.384  30.793  29.028  1.00  0.00     0.031 A 
BRANCH  62  76
ATOM     76  C   UNL A   1      39.995  25.369  27.594  1.00  0.00    -0.014 A 
ATOM     77  C   UNL A   1      41.048  24.609  28.136  1.00  0.00     0.009 A 
ATOM     78  C   UNL A   1      39.020  24.637  26.895  1.00  0.00     0.009 A 
ATOM     79  C   UNL A   1      41.177  23.232  27.898  1.00  0.00     0.001 A 
ATOM     80  C   UNL A   1      39.157  23.269  26.620  1.00  0.00     0.001 A 
ATOM     81  C   UNL A   1      40.247  22.568  27.110  1.00  0.00     0.000 A 
ENDBRANCH  62  76
BRANCH  63  82
ATOM     82  C   UNL A   1      41.965  34.604  29.530  1.00  0.00    -0.014 A 
ATOM     83  C   UNL A   1      42.925  35.335  30.258  1.00  0.00     0.009 A 
ATOM     84  C   UNL A   1      41.967  34.706  28.131  1.00  0.00     0.009 A 
ATOM     85  C   UNL A   1      43.928  36.055  29.603  1.00  0.00     0.001 A 
ATOM     86  C   UNL A   1      42.964  35.443  27.480  1.00  0.00     0.001 A 
ATOM     87  C   UNL A   1      43.963  36.085  28.213  1.00  0.00     0.000 A 
ENDBRANCH  63  82
BRANCH  75  88
ATOM     88  C   UNL A   1      35.972  30.756  28.506  1.00  0.00    -0.014 A 
ATOM     89  C   UNL A   1      35.156  31.888  28.368  1.00  0.00     0.009 A 
ATOM     90  C   UNL A   1      35.462  29.541  27.999  1.00  0.00     0.009 A 
ATOM     91  C   UNL A   1      33.874  31.800  27.807  1.00  0.00     0.001 A 
ATOM     92  C   UNL A   1      34.203  29.456  27.399  1.00  0.00     0.001 A 
ATOM     93  C   UNL A   1      33.402  30.586  27.317  1.00  0.00     0.000 A 
ENDBRANCH  75  88
ENDBRANCH  49  50
ENDBRANCH  41  44
ENDBRANCH  39  40
ENDBRANCH  38  39
ENDBRANCH  37  38
ENDBRANCH   1  37
TORSDOF 16
ENDMDL
MODEL 2
REMARK VINA RESULT:      -9.6      5.676     12.448
REMARK SMILES Cc1ccc(-c2[nH]c3ccccc3c2[C@@H]2c3ccccc3C(=O)N2[C@H](C)C(=O)NCCCCCCNC(=O)c2ccc(-c3c4nc(c(-c5ccccc5)c5ccc([nH]5)c(-c5ccccc5)c5nc(c(-c6ccccc6)c6ccc3[nH]6)C=C5)C=C4)cc2)cc1
REMARK SMILES IDX 32 1 31 2 30 3 29 4 27 5 28 6 25 8 26 9 24 10 15 11 16 12
REMARK SMILES IDX 17 13 21 14 22 15 18 16 20 17 23 18 19 19 14 20 6 21 7 22
REMARK SMILES IDX 8 23 13 25 9 26 12 27 10 28 11 29 5 30 1 31 2 32 3 33 88 34
REMARK SMILES IDX 4 35 87 36 33 37 34 38 35 39 36 40 37 41 38 43 39 44 40 45
REMARK SMILES IDX 86 46 41 47 85 48 42 49 43 50 44 51 79 52 45 53 84 54 78 55
REMARK SMILES IDX 80 56 46 57 83 58 77 59 76 60 47 62 69 63 54 64 68 65 55 66
REMARK SMILES IDX 58 67 67 68 81 69 56 70 57 71 66 73 82 74 59 75 48 76 49 77
REMARK SMILES IDX 53 78 50 79 52 80 51 81 70 82 71 83 75 84 72 85 74 86 73 87
REMARK SMILES IDX 60 88 61 89 65 90 62 91 64 92 63 93
REMARK H PARENT 29 7 7 24 36 42 80 61 58 72
REMARK Flexibility Score: inf
ROOT
ATOM      1  C   UNL A   1      35.625  33.450  28.399  1.00  0.00     0.002 C 
ENDROOT
BRANCH   1   2
ATOM      2  C   UNL A   1      34.937  32.243  29.038  1.00  0.00     0.021 C 
BRANCH   2   3
ATOM      3  C   UNL A   1      34.487  31.106  28.127  1.00  0.00     0.116 C 
BRANCH   3   4
ATOM      4  N   UNL A   1      33.474  31.398  27.160  1.00  0.00    -0.354 N 
ATOM      5  C   UNL A   1      32.427  30.592  26.807  1.00  0.00     0.242 C 
ATOM      6  O   UNL A   1      31.416  31.169  26.387  1.00  0.00    -0.273 OA
ATOM      7  H   UNL A   1      33.537  32.267  26.702  1.00  0.00     0.163 HD
BRANCH   5   8
ATOM      8  C   UNL A   1      32.539  29.035  26.712  1.00  0.00     0.172 C 
ATOM      9  C   UNL A   1      31.741  28.489  27.912  1.00  0.00     0.042 C 
BRANCH   8  10
ATOM     10  N   UNL A   1      32.435  28.127  25.540  1.00  0.00    -0.316 N 
ATOM     11  C   UNL A   1      32.017  28.411  24.149  1.00  0.00     0.151 C 
ATOM     12  C   UNL A   1      32.675  27.281  23.385  1.00  0.00    -0.008 A 
ATOM     13  C   UNL A   1      32.931  27.092  22.037  1.00  0.00     0.007 A 
ATOM     14  C   UNL A   1      33.151  26.326  24.276  1.00  0.00     0.045 A 
ATOM     15  C   UNL A   1      33.071  26.879  25.623  1.00  0.00     0.255 C 
ATOM     16  C   UNL A   1      33.541  25.898  21.615  1.00  0.00     0.000 A 
ATOM     17  C   UNL A   1      33.737  25.130  23.899  1.00  0.00     0.014 A 
ATOM     18  O   UNL A   1      33.560  26.338  26.586  1.00  0.00    -0.269 OA
ATOM     19  C   UNL A   1      33.911  24.907  22.538  1.00  0.00     0.001 A 
BRANCH  11  20
ATOM     20  C   UNL A   1      30.510  28.212  23.931  1.00  0.00     0.013 A 
ATOM     21  C   UNL A   1      29.800  27.000  23.981  1.00  0.00     0.052 A 
ATOM     22  N   UNL A   1      28.528  27.239  23.511  1.00  0.00    -0.354 N 
ATOM     23  C   UNL A   1      28.372  28.539  23.122  1.00  0.00     0.046 A 
ATOM     24  H   UNL A   1      27.819  26.558  23.461  1.00  0.00     0.167 HD
ATOM     25  C   UNL A   1      29.543  29.209  23.479  1.00  0.00     0.006 A 
ATOM     26  C   UNL A   1      27.295  29.156  22.471  1.00  0.00     0.027 A 
ATOM     27  C   UNL A   1      29.571  30.603  23.243  1.00  0.00     0.011 A 
ATOM     28  C   UNL A   1      27.397  30.518  22.186  1.00  0.00     0.002 A 
ATOM     29  C   UNL A   1      28.510  31.240  22.590  1.00  0.00     0.001 A 
BRANCH  21  30
ATOM     30  C   UNL A   1      30.142  25.634  24.378  1.00  0.00    -0.002 A 
ATOM     31  C   UNL A   1      31.446  21.667  25.505  1.00  0.00     0.044 C 
ATOM     32  C   UNL A   1      31.008  23.050  25.125  1.00  0.00    -0.051 A 
ATOM     33  C   UNL A   1      30.812  23.375  23.778  1.00  0.00     0.004 A 
ATOM     34  C   UNL A   1      30.792  24.034  26.094  1.00  0.00     0.004 A 
ATOM     35  C   UNL A   1      30.409  24.664  23.411  1.00  0.00     0.010 A 
ATOM     36  C   UNL A   1      30.359  25.312  25.723  1.00  0.00     0.010 A 
ENDBRANCH  21  30
ENDBRANCH  11  20
ENDBRANCH   8  10
ENDBRANCH   5   8
ENDBRANCH   3   4
ENDBRANCH   2   3
ENDBRANCH   1   2
BRANCH   1  37
ATOM     37  C   UNL A   1      34.756  34.668  28.056  1.00  0.00     0.002 C 
BRANCH  37  38
ATOM     38  C   UNL A   1      33.634  35.017  29.034  1.00  0.00     0.021 C 
BRANCH  38  39
ATOM     39  C   UNL A   1      34.073  35.269  30.469  1.00  0.00     0.116 C 
BRANCH  39  40
ATOM     40  N   UNL A   1      33.340  34.466  31.445  1.00  0.00    -0.352 N 
ATOM     41  C   UNL A   1      33.848  33.747  32.511  1.00  0.00     0.251 C 
ATOM     42  H   UNL A   1      32.363  34.433  31.328  1.00  0.00     0.163 HD
ATOM     43  O   UNL A   1      33.111  33.185  33.312  1.00  0.00    -0.269 OA
BRANCH  41  44
ATOM     44  C   UNL A   1      35.308  33.771  32.726  1.00  0.00     0.039 A 
ATOM     45  C   UNL A   1      36.096  34.378  31.746  1.00  0.00     0.014 A 
ATOM     46  C   UNL A   1      35.876  32.963  33.711  1.00  0.00     0.014 A 
ATOM     47  C   UNL A   1      37.414  33.967  31.596  1.00  0.00     0.010 A 
ATOM     48  C   UNL A   1      37.160  32.496  33.516  1.00  0.00     0.010 A 
ATOM     49  C   UNL A   1      37.895  32.938  32.410  1.00  0.00    -0.014 A 
BRANCH  49  50
ATOM     50  C   UNL A   1      39.088  32.177  32.066  1.00  0.00     0.031 A 
ATOM     51  C   UNL A   1      38.987  30.953  31.257  1.00  0.00     0.074 A 
ATOM     52  C   UNL A   1      40.294  32.591  32.515  1.00  0.00     0.049 A 
ATOM     53  N   UNL A   1      39.814  29.963  31.323  1.00  0.00    -0.248 NA
ATOM     54  C   UNL A   1      37.874  30.722  30.345  1.00  0.00     0.031 C 
ATOM     55  C   UNL A   1      41.610  32.091  32.133  1.00  0.00     0.029 A 
ATOM     56  N   UNL A   1      40.537  33.408  33.615  1.00  0.00    -0.354 N 
ATOM     57  C   UNL A   1      39.532  29.128  30.267  1.00  0.00     0.074 A 
ATOM     58  C   UNL A   1      38.251  29.577  29.772  1.00  0.00     0.031 C 
ATOM     59  C   UNL A   1      42.487  32.399  33.103  1.00  0.00     0.029 A 
ATOM     60  C   UNL A   1      41.733  32.973  34.207  1.00  0.00     0.049 A 
ATOM     61  H   UNL A   1      39.974  34.155  33.922  1.00  0.00     0.167 HD
ATOM     62  C   UNL A   1      40.490  28.264  29.824  1.00  0.00     0.031 A 
ATOM     63  C   UNL A   1      41.746  32.497  35.487  1.00  0.00     0.031 A 
ATOM     64  C   UNL A   1      41.656  28.240  30.709  1.00  0.00     0.049 A 
ATOM     65  C   UNL A   1      42.182  31.052  35.596  1.00  0.00     0.074 A 
ATOM     66  C   UNL A   1      42.917  28.810  30.624  1.00  0.00     0.029 A 
ATOM     67  N   UNL A   1      41.512  27.802  32.023  1.00  0.00    -0.354 N 
ATOM     68  N   UNL A   1      42.208  30.218  34.594  1.00  0.00    -0.248 NA
ATOM     69  C   UNL A   1      42.571  30.422  36.857  1.00  0.00     0.031 C 
ATOM     70  C   UNL A   1      43.494  28.794  31.921  1.00  0.00     0.029 A 
ATOM     71  C   UNL A   1      42.600  28.188  32.785  1.00  0.00     0.049 A 
ATOM     72  H   UNL A   1      40.744  27.289  32.361  1.00  0.00     0.167 HD
ATOM     73  C   UNL A   1      42.579  28.978  35.042  1.00  0.00     0.074 A 
ATOM     74  C   UNL A   1      42.813  29.160  36.463  1.00  0.00     0.031 C 
ATOM     75  C   UNL A   1      42.647  27.898  34.212  1.00  0.00     0.031 A 
BRANCH  62  76
ATOM     76  C   UNL A   1      40.499  27.710  28.412  1.00  0.00    -0.014 A 
ATOM     77  C   UNL A   1      40.037  26.401  28.176  1.00  0.00     0.009 A 
ATOM     78  C   UNL A   1      41.029  28.373  27.292  1.00  0.00     0.009 A 
ATOM     79  C   UNL A   1      40.200  25.761  26.938  1.00  0.00     0.001 A 
ATOM     80  C   UNL A   1      41.229  27.732  26.061  1.00  0.00     0.001 A 
ATOM     81  C   UNL A   1      40.828  26.417  25.888  1.00  0.00     0.000 A 
ENDBRANCH  62  76
BRANCH  63  82
ATOM     82  C   UNL A   1      40.733  33.133  36.377  1.00  0.00    -0.014 A 
ATOM     83  C   UNL A   1      39.391  32.713  36.277  1.00  0.00     0.009 A 
ATOM     84  C   UNL A   1      41.123  33.862  37.509  1.00  0.00     0.009 A 
ATOM     85  C   UNL A   1      38.494  32.918  37.330  1.00  0.00     0.001 A 
ATOM     86  C   UNL A   1      40.216  34.080  38.554  1.00  0.00     0.001 A 
ATOM     87  C   UNL A   1      38.917  33.577  38.480  1.00  0.00     0.000 A 
ENDBRANCH  63  82
BRANCH  75  88
ATOM     88  C   UNL A   1      42.843  26.472  34.657  1.00  0.00    -0.014 A 
ATOM     89  C   UNL A   1      41.875  25.724  35.342  1.00  0.00     0.009 A 
ATOM     90  C   UNL A   1      44.012  25.787  34.262  1.00  0.00     0.009 A 
ATOM     91  C   UNL A   1      42.089  24.377  35.667  1.00  0.00     0.001 A 
ATOM     92  C   UNL A   1      44.211  24.433  34.545  1.00  0.00     0.001 A 
ATOM     93  C   UNL A   1      43.253  23.731  35.261  1.00  0.00     0.000 A 
ENDBRANCH  75  88
ENDBRANCH  49  50
ENDBRANCH  41  44
ENDBRANCH  39  40
ENDBRANCH  38  39
ENDBRANCH  37  38
ENDBRANCH   1  37
TORSDOF 16
ENDMDL
MODEL 3
REMARK VINA RESULT:      -9.1      4.934      9.875
REMARK SMILES Cc1ccc(-c2[nH]c3ccccc3c2[C@@H]2c3ccccc3C(=O)N2[C@H](C)C(=O)NCCCCCCNC(=O)c2ccc(-c3c4nc(c(-c5ccccc5)c5ccc([nH]5)c(-c5ccccc5)c5nc(c(-c6ccccc6)c6ccc3[nH]6)C=C5)C=C4)cc2)cc1
REMARK SMILES IDX 32 1 31 2 30 3 29 4 27 5 28 6 25 8 26 9 24 10 15 11 16 12
REMARK SMILES IDX 17 13 21 14 22 15 18 16 20 17 23 18 19 19 14 20 6 21 7 22
REMARK SMILES IDX 8 23 13 25 9 26 12 27 10 28 11 29 5 30 1 31 2 32 3 33 88 34
REMARK SMILES IDX 4 35 87 36 33 37 34 38 35 39 36 40 37 41 38 43 39 44 40 45
REMARK SMILES IDX 86 46 41 47 85 48 42 49 43 50 44 51 79 52 45 53 84 54 78 55
REMARK SMILES IDX 80 56 46 57 83 58 77 59 76 60 47 62 69 63 54 64 68 65 55 66
REMARK SMILES IDX 58 67 67 68 81 69 56 70 57 71 66 73 82 74 59 75 48 76 49 77
REMARK SMILES IDX 53 78 50 79 52 80 51 81 70 82 71 83 75 84 72 85 74 86 73 87
REMARK SMILES IDX 60 88 61 89 65 90 62 91 64 92 63 93
REMARK H PARENT 29 7 7 24 36 42 80 61 58 72
REMARK Flexibility Score: inf
ROOT
ATOM      1  C   UNL A   1      43.231  36.022  30.547  1.00  0.00     0.002 C 
ENDROOT
BRANCH   1   2
ATOM      2  C   UNL A   1      44.330  36.988  30.995  1.00  0.00     0.021 C 
BRANCH   2   3
ATOM      3  C   UNL A   1      43.919  38.228  31.780  1.00  0.00     0.116 C 
BRANCH   3   4
ATOM      4  N   UNL A   1      44.805  39.352  31.746  1.00  0.00    -0.354 N 
ATOM      5  C   UNL A   1      44.631  40.506  31.032  1.00  0.00     0.242 C 
ATOM      6  O   UNL A   1      45.170  41.518  31.497  1.00  0.00    -0.273 OA
ATOM      7  H   UNL A   1      45.622  39.289  32.292  1.00  0.00     0.163 HD
BRANCH   5   8
ATOM      8  C   UNL A   1      43.992  40.543  29.605  1.00  0.00     0.172 C 
ATOM      9  C   UNL A   1      44.268  41.959  29.065  1.00  0.00     0.042 C 
BRANCH   8  10
ATOM     10  N   UNL A   1      44.010  39.538  28.512  1.00  0.00    -0.316 N 
ATOM     11  C   UNL A   1      45.153  38.885  27.835  1.00  0.00     0.151 C 
ATOM     12  C   UNL A   1      44.521  37.620  27.295  1.00  0.00    -0.008 A 
ATOM     13  C   UNL A   1      45.061  36.440  26.811  1.00  0.00     0.007 A 
ATOM     14  C   UNL A   1      43.137  37.704  27.402  1.00  0.00     0.045 A 
ATOM     15  C   UNL A   1      42.812  38.863  28.225  1.00  0.00     0.255 C 
ATOM     16  C   UNL A   1      44.201  35.435  26.336  1.00  0.00     0.000 A 
ATOM     17  C   UNL A   1      42.258  36.747  26.927  1.00  0.00     0.014 A 
ATOM     18  O   UNL A   1      41.696  39.097  28.620  1.00  0.00    -0.269 OA
ATOM     19  C   UNL A   1      42.807  35.601  26.362  1.00  0.00     0.001 A 
BRANCH  11  20
ATOM     20  C   UNL A   1      45.625  39.655  26.594  1.00  0.00     0.013 A 
ATOM     21  C   UNL A   1      46.935  39.726  26.089  1.00  0.00     0.052 A 
ATOM     22  N   UNL A   1      46.955  40.692  25.108  1.00  0.00    -0.354 N 
ATOM     23  C   UNL A   1      45.734  41.286  24.963  1.00  0.00     0.046 A 
ATOM     24  H   UNL A   1      47.751  40.926  24.578  1.00  0.00     0.167 HD
ATOM     25  C   UNL A   1      44.847  40.588  25.783  1.00  0.00     0.006 A 
ATOM     26  C   UNL A   1      45.362  42.390  24.183  1.00  0.00     0.027 A 
ATOM     27  C   UNL A   1      43.490  40.982  25.727  1.00  0.00     0.011 A 
ATOM     28  C   UNL A   1      44.028  42.795  24.219  1.00  0.00     0.002 A 
ATOM     29  C   UNL A   1      43.096  42.085  24.961  1.00  0.00     0.001 A 
BRANCH  21  30
ATOM     30  C   UNL A   1      48.188  39.042  26.408  1.00  0.00    -0.002 A 
ATOM     31  C   UNL A   1      51.751  36.889  27.585  1.00  0.00     0.044 C 
ATOM     32  C   UNL A   1      50.505  37.619  27.179  1.00  0.00    -0.051 A 
ATOM     33  C   UNL A   1      50.183  38.840  27.783  1.00  0.00     0.004 A 
ATOM     34  C   UNL A   1      49.647  37.103  26.204  1.00  0.00     0.004 A 
ATOM     35  C   UNL A   1      49.021  39.528  27.417  1.00  0.00     0.010 A 
ATOM     36  C   UNL A   1      48.502  37.811  25.820  1.00  0.00     0.010 A 
ENDBRANCH  21  30
ENDBRANCH  11  20
ENDBRANCH   8  10
ENDBRANCH   5   8
ENDBRANCH   3   4
ENDBRANCH   2   3
ENDBRANCH   1   2
BRANCH   1  37
ATOM     37  C   UNL A   1      43.661  34.641  30.033  1.00  0.00     0.002 C 
BRANCH  37  38
ATOM     38  C   UNL A   1      45.158  34.329  30.053  1.00  0.00     0.021 C 
BRANCH  38  39
ATOM     39  C   UNL A   1      45.638  33.509  31.241  1.00  0.00     0.116 C 
BRANCH  39  40
ATOM     40  N   UNL A   1      46.317  34.311  32.256  1.00  0.00    -0.352 N 
ATOM     41  C   UNL A   1      45.911  34.567  33.553  1.00  0.00     0.251 C 
ATOM     42  H   UNL A   1      47.170  34.720  31.981  1.00  0.00     0.163 HD
ATOM     43  O   UNL A   1      46.623  35.186  34.335  1.00  0.00    -0.269 OA
BRANCH  41  44
ATOM     44  C   UNL A   1      44.641  33.971  34.008  1.00  0.00     0.039 A 
ATOM     45  C   UNL A   1      44.660  32.632  34.403  1.00  0.00     0.014 A 
ATOM     46  C   UNL A   1      43.438  34.635  33.766  1.00  0.00     0.014 A 
ATOM     47  C   UNL A   1      43.492  31.886  34.301  1.00  0.00     0.010 A 
ATOM     48  C   UNL A   1      42.295  33.880  33.589  1.00  0.00     0.010 A 
ATOM     49  C   UNL A   1      42.349  32.494  33.778  1.00  0.00    -0.014 A 
BRANCH  49  50
ATOM     50  C   UNL A   1      41.230  31.716  33.261  1.00  0.00     0.031 A 
ATOM     51  C   UNL A   1      41.162  31.360  31.836  1.00  0.00     0.074 A 
ATOM     52  C   UNL A   1      40.238  31.341  34.098  1.00  0.00     0.049 A 
ATOM     53  N   UNL A   1      40.065  31.163  31.183  1.00  0.00    -0.248 NA
ATOM     54  C   UNL A   1      42.357  31.272  31.006  1.00  0.00     0.031 C 
ATOM     55  C   UNL A   1      39.144  30.414  33.830  1.00  0.00     0.029 A 
ATOM     56  N   UNL A   1      39.898  31.939  35.308  1.00  0.00    -0.354 N 
ATOM     57  C   UNL A   1      40.409  30.626  29.965  1.00  0.00     0.074 A 
ATOM     58  C   UNL A   1      41.836  30.830  29.859  1.00  0.00     0.031 C 
ATOM     59  C   UNL A   1      38.145  30.662  34.693  1.00  0.00     0.029 A 
ATOM     60  C   UNL A   1      38.503  31.857  35.443  1.00  0.00     0.049 A 
ATOM     61  H   UNL A   1      40.522  32.345  35.953  1.00  0.00     0.167 HD
ATOM     62  C   UNL A   1      39.481  29.917  29.260  1.00  0.00     0.031 A 
ATOM     63  C   UNL A   1      37.741  32.986  35.515  1.00  0.00     0.031 A 
ATOM     64  C   UNL A   1      38.150  30.006  29.867  1.00  0.00     0.049 A 
ATOM     65  C   UNL A   1      36.752  33.129  34.379  1.00  0.00     0.074 A 
ATOM     66  C   UNL A   1      37.410  29.135  30.651  1.00  0.00     0.029 A 
ATOM     67  N   UNL A   1      37.514  31.242  29.947  1.00  0.00    -0.354 N 
ATOM     68  N   UNL A   1      36.826  32.468  33.257  1.00  0.00    -0.248 NA
ATOM     69  C   UNL A   1      35.632  34.069  34.400  1.00  0.00     0.031 C 
ATOM     70  C   UNL A   1      36.376  29.878  31.277  1.00  0.00     0.029 A 
ATOM     71  C   UNL A   1      36.468  31.191  30.851  1.00  0.00     0.049 A 
ATOM     72  H   UNL A   1      37.772  32.039  29.432  1.00  0.00     0.167 HD
ATOM     73  C   UNL A   1      35.826  32.879  32.418  1.00  0.00     0.074 A 
ATOM     74  C   UNL A   1      35.093  33.872  33.184  1.00  0.00     0.031 C 
ATOM     75  C   UNL A   1      35.690  32.384  31.154  1.00  0.00     0.031 A 
BRANCH  62  76
ATOM     76  C   UNL A   1      39.862  28.875  28.226  1.00  0.00    -0.014 A 
ATOM     77  C   UNL A   1      39.598  27.515  28.480  1.00  0.00     0.009 A 
ATOM     78  C   UNL A   1      40.560  29.142  27.036  1.00  0.00     0.009 A 
ATOM     79  C   UNL A   1      40.097  26.490  27.662  1.00  0.00     0.001 A 
ATOM     80  C   UNL A   1      41.094  28.125  26.231  1.00  0.00     0.001 A 
ATOM     81  C   UNL A   1      40.876  26.796  26.554  1.00  0.00     0.000 A 
ENDBRANCH  62  76
BRANCH  63  82
ATOM     82  C   UNL A   1      38.425  34.135  36.175  1.00  0.00    -0.014 A 
ATOM     83  C   UNL A   1      38.562  34.121  37.578  1.00  0.00     0.009 A 
ATOM     84  C   UNL A   1      39.212  35.029  35.435  1.00  0.00     0.009 A 
ATOM     85  C   UNL A   1      39.538  34.897  38.211  1.00  0.00     0.001 A 
ATOM     86  C   UNL A   1      40.177  35.816  36.076  1.00  0.00     0.001 A 
ATOM     87  C   UNL A   1      40.364  35.723  37.455  1.00  0.00     0.000 A 
ENDBRANCH  63  82
BRANCH  75  88
ATOM     88  C   UNL A   1      34.755  32.928  30.105  1.00  0.00    -0.014 A 
ATOM     89  C   UNL A   1      34.283  34.248  30.082  1.00  0.00     0.009 A 
ATOM     90  C   UNL A   1      34.422  32.115  28.999  1.00  0.00     0.009 A 
ATOM     91  C   UNL A   1      33.472  34.714  29.038  1.00  0.00     0.001 A 
ATOM     92  C   UNL A   1      33.650  32.589  27.936  1.00  0.00     0.001 A 
ATOM     93  C   UNL A   1      33.162  33.888  27.963  1.00  0.00     0.000 A 
ENDBRANCH  75  88
ENDBRANCH  49  50
ENDBRANCH  41  44
ENDBRANCH  39  40
ENDBRANCH  38  39
ENDBRANCH  37  38
ENDBRANCH   1  37
TORSDOF 16
ENDMDL
