MODEL 1
REMARK VINA RESULT:     -11.3      0.000      0.000
REMARK SMILES COc1ccc2cc([C@H](C)C(=O)NCCCCCCNC(=O)c3ccc(-c4c5nc(c(-c6ccccc6)c6ccc([nH]6)c(-c6ccccc6)c6nc(c(-c7ccccc7)c7ccc4[nH]7)C=C6)C=C5)cc3)ccc2c1
REMARK SMILES IDX 16 1 15 2 14 3 13 4 11 5 12 6 9 8 10 9 8 10 3 11 4 12 74 13
REMARK SMILES IDX 5 14 73 15 6 16 72 17 7 18 71 19 2 20 1 21 17 22 18 23 19 24
REMARK SMILES IDX 20 25 21 26 22 28 23 29 24 30 70 31 25 32 69 33 26 34 27 35
REMARK SMILES IDX 28 36 63 37 29 38 68 39 62 40 64 41 30 42 67 43 61 44 60 45
REMARK SMILES IDX 31 47 53 48 38 49 52 50 39 51 42 52 51 53 65 54 40 55 41 56
REMARK SMILES IDX 50 58 66 59 43 60 32 61 33 62 37 63 34 64 36 65 35 66 54 67
REMARK SMILES IDX 55 68 59 69 56 70 58 71 57 72 44 73 45 74 49 75 46 76 48 77
REMARK SMILES IDX 47 78
REMARK H PARENT 13 7 20 27 64 46 42 57
REMARK Flexibility Score: inf
ROOT
ATOM      1  C   UNL A   1      36.031  22.094  24.390  1.00  0.00     0.002 C 
ENDROOT
BRANCH   1   2
ATOM      2  C   UNL A   1      35.815  23.237  25.380  1.00  0.00     0.021 C 
BRANCH   2   3
ATOM      3  C   UNL A   1      34.722  24.231  25.003  1.00  0.00     0.116 C 
BRANCH   3   4
ATOM      4  N   UNL A   1      34.477  24.298  23.579  1.00  0.00    -0.356 N 
ATOM      5  C   UNL A   1      33.345  23.991  22.878  1.00  0.00     0.227 C 
ATOM      6  O   UNL A   1      33.339  24.245  21.669  1.00  0.00    -0.274 OA
ATOM      7  H   UNL A   1      35.236  24.609  23.035  1.00  0.00     0.163 HD
BRANCH   5   8
ATOM      8  C   UNL A   1      32.117  23.343  23.544  1.00  0.00     0.105 C 
ATOM      9  C   UNL A   1      30.809  24.034  23.139  1.00  0.00     0.023 C 
BRANCH   8  10
ATOM     10  C   UNL A   1      32.161  21.819  23.467  1.00  0.00    -0.035 A 
ATOM     11  C   UNL A   1      33.016  16.923  24.531  1.00  0.00     0.119 A 
ATOM     12  C   UNL A   1      33.092  17.589  25.752  1.00  0.00     0.047 A 
ATOM     13  C   UNL A   1      32.742  17.625  23.359  1.00  0.00     0.055 A 
ATOM     14  C   UNL A   1      32.895  18.971  25.796  1.00  0.00     0.012 A 
ATOM     15  C   UNL A   1      32.509  19.007  23.399  1.00  0.00    -0.015 A 
ATOM     16  C   UNL A   1      32.618  19.697  24.625  1.00  0.00    -0.018 A 
ATOM     17  C   UNL A   1      32.169  19.716  22.242  1.00  0.00     0.009 A 
ATOM     18  C   UNL A   1      32.465  21.095  24.636  1.00  0.00     0.013 A 
ATOM     19  C   UNL A   1      31.963  21.097  22.285  1.00  0.00     0.005 A 
BRANCH  11  20
ATOM     20  O   UNL A   1      33.281  15.586  24.415  1.00  0.00    -0.497 OA
ATOM     21  C   UNL A   1      32.574  14.829  25.395  1.00  0.00     0.278 C 
ENDBRANCH  11  20
ENDBRANCH   8  10
ENDBRANCH   5   8
ENDBRANCH   3   4
ENDBRANCH   2   3
ENDBRANCH   1   2
BRANCH   1  22
ATOM     22  C   UNL A   1      36.106  20.689  24.995  1.00  0.00     0.002 C 
BRANCH  22  23
ATOM     23  C   UNL A   1      37.423  19.936  24.791  1.00  0.00     0.021 C 
BRANCH  23  24
ATOM     24  C   UNL A   1      38.603  20.425  25.626  1.00  0.00     0.116 C 
BRANCH  24  25
ATOM     25  N   UNL A   1      39.676  19.450  25.713  1.00  0.00    -0.352 N 
ATOM     26  C   UNL A   1      40.987  19.614  26.087  1.00  0.00     0.251 C 
ATOM     27  H   UNL A   1      39.426  18.530  25.465  1.00  0.00     0.163 HD
ATOM     28  O   UNL A   1      41.782  18.688  25.961  1.00  0.00    -0.269 OA
BRANCH  26  29
ATOM     29  C   UNL A   1      41.455  20.912  26.619  1.00  0.00     0.039 A 
ATOM     30  C   UNL A   1      42.017  21.835  25.732  1.00  0.00     0.014 A 
ATOM     31  C   UNL A   1      41.360  21.219  27.980  1.00  0.00     0.014 A 
ATOM     32  C   UNL A   1      42.419  23.090  26.196  1.00  0.00     0.010 A 
ATOM     33  C   UNL A   1      41.703  22.492  28.429  1.00  0.00     0.010 A 
ATOM     34  C   UNL A   1      42.230  23.443  27.542  1.00  0.00    -0.014 A 
BRANCH  34  35
ATOM     35  C   UNL A   1      42.554  24.807  28.032  1.00  0.00     0.031 A 
ATOM     36  C   UNL A   1      43.958  25.157  28.441  1.00  0.00     0.074 A 
ATOM     37  C   UNL A   1      41.567  25.714  28.169  1.00  0.00     0.049 A 
ATOM     38  N   UNL A   1      44.412  26.270  28.961  1.00  0.00    -0.248 NA
ATOM     39  C   UNL A   1      44.981  24.116  28.260  1.00  0.00     0.031 C 
ATOM     40  C   UNL A   1      40.158  25.493  27.836  1.00  0.00     0.029 A 
ATOM     41  N   UNL A   1      41.598  27.005  28.637  1.00  0.00    -0.354 N 
ATOM     42  C   UNL A   1      45.767  26.058  29.182  1.00  0.00     0.074 A 
ATOM     43  C   UNL A   1      46.053  24.698  28.780  1.00  0.00     0.031 C 
ATOM     44  C   UNL A   1      39.464  26.614  28.091  1.00  0.00     0.029 A 
ATOM     45  C   UNL A   1      40.367  27.616  28.646  1.00  0.00     0.049 A 
ATOM     46  H   UNL A   1      42.422  27.450  28.938  1.00  0.00     0.167 HD
ATOM     47  C   UNL A   1      46.694  26.923  29.660  1.00  0.00     0.031 A 
ATOM     48  C   UNL A   1      40.002  28.842  29.067  1.00  0.00     0.031 A 
ATOM     49  C   UNL A   1      46.412  28.277  30.057  1.00  0.00     0.049 A 
ATOM     50  C   UNL A   1      41.045  29.770  29.623  1.00  0.00     0.074 A 
ATOM     51  C   UNL A   1      47.295  29.243  30.509  1.00  0.00     0.029 A 
ATOM     52  N   UNL A   1      45.154  28.857  30.050  1.00  0.00    -0.354 N 
ATOM     53  N   UNL A   1      42.333  29.573  29.770  1.00  0.00    -0.248 NA
ATOM     54  C   UNL A   1      40.584  31.095  30.065  1.00  0.00     0.031 C 
ATOM     55  C   UNL A   1      46.562  30.391  30.827  1.00  0.00     0.029 A 
ATOM     56  C   UNL A   1      45.232  30.159  30.516  1.00  0.00     0.049 A 
ATOM     57  H   UNL A   1      44.327  28.410  29.758  1.00  0.00     0.167 HD
ATOM     58  C   UNL A   1      42.838  30.756  30.294  1.00  0.00     0.074 A 
ATOM     59  C   UNL A   1      41.723  31.670  30.422  1.00  0.00     0.031 C 
ATOM     60  C   UNL A   1      44.114  31.057  30.639  1.00  0.00     0.031 A 
BRANCH  47  61
ATOM     61  C   UNL A   1      48.107  26.425  29.789  1.00  0.00    -0.014 A 
ATOM     62  C   UNL A   1      48.558  25.817  30.971  1.00  0.00     0.009 A 
ATOM     63  C   UNL A   1      48.983  26.519  28.697  1.00  0.00     0.009 A 
ATOM     64  C   UNL A   1      49.867  25.343  31.068  1.00  0.00     0.001 A 
ATOM     65  C   UNL A   1      50.284  26.017  28.786  1.00  0.00     0.001 A 
ATOM     66  C   UNL A   1      50.727  25.438  29.974  1.00  0.00     0.000 A 
ENDBRANCH  47  61
BRANCH  48  67
ATOM     67  C   UNL A   1      38.580  29.269  28.982  1.00  0.00    -0.014 A 
ATOM     68  C   UNL A   1      37.747  29.200  30.108  1.00  0.00     0.009 A 
ATOM     69  C   UNL A   1      38.045  29.727  27.769  1.00  0.00     0.009 A 
ATOM     70  C   UNL A   1      36.398  29.551  30.014  1.00  0.00     0.001 A 
ATOM     71  C   UNL A   1      36.703  30.107  27.684  1.00  0.00     0.001 A 
ATOM     72  C   UNL A   1      35.879  30.008  28.803  1.00  0.00     0.000 A 
ENDBRANCH  48  67
BRANCH  60  73
ATOM     73  C   UNL A   1      44.375  32.444  31.157  1.00  0.00    -0.014 A 
ATOM     74  C   UNL A   1      44.672  33.503  30.285  1.00  0.00     0.009 A 
ATOM     75  C   UNL A   1      44.290  32.698  32.534  1.00  0.00     0.009 A 
ATOM     76  C   UNL A   1      44.912  34.784  30.787  1.00  0.00     0.001 A 
ATOM     77  C   UNL A   1      44.501  33.985  33.031  1.00  0.00     0.001 A 
ATOM     78  C   UNL A   1      44.821  35.025  32.159  1.00  0.00     0.000 A 
ENDBRANCH  60  73
ENDBRANCH  34  35
ENDBRANCH  26  29
ENDBRANCH  24  25
ENDBRANCH  23  24
ENDBRANCH  22  23
ENDBRANCH   1  22
TORSDOF 15
ENDMDL
MODEL 2
REMARK VINA RESULT:     -11.2      1.222      6.062
REMARK SMILES COc1ccc2cc([C@H](C)C(=O)NCCCCCCNC(=O)c3ccc(-c4c5nc(c(-c6ccccc6)c6ccc([nH]6)c(-c6ccccc6)c6nc(c(-c7ccccc7)c7ccc4[nH]7)C=C6)C=C5)cc3)ccc2c1
REMARK SMILES IDX 16 1 15 2 14 3 13 4 11 5 12 6 9 8 10 9 8 10 3 11 4 12 74 13
REMARK SMILES IDX 5 14 73 15 6 16 72 17 7 18 71 19 2 20 1 21 17 22 18 23 19 24
REMARK SMILES IDX 20 25 21 26 22 28 23 29 24 30 70 31 25 32 69 33 26 34 27 35
REMARK SMILES IDX 28 36 63 37 29 38 68 39 62 40 64 41 30 42 67 43 61 44 60 45
REMARK SMILES IDX 31 47 53 48 38 49 52 50 39 51 42 52 51 53 65 54 40 55 41 56
REMARK SMILES IDX 50 58 66 59 43 60 32 61 33 62 37 63 34 64 36 65 35 66 54 67
REMARK SMILES IDX 55 68 59 69 56 70 58 71 57 72 44 73 45 74 49 75 46 76 48 77
REMARK SMILES IDX 47 78
REMARK H PARENT 13 7 20 27 64 46 42 57
REMARK Flexibility Score: inf
ROOT
ATOM      1  C   UNL A   1      36.661  22.295  24.259  1.00  0.00     0.002 C 
ENDROOT
BRANCH   1   2
ATOM      2  C   UNL A   1      36.348  23.545  25.079  1.00  0.00     0.021 C 
BRANCH   2   3
ATOM      3  C   UNL A   1      34.968  24.152  24.847  1.00  0.00     0.116 C 
BRANCH   3   4
ATOM      4  N   UNL A   1      34.612  24.244  23.448  1.00  0.00    -0.356 N 
ATOM      5  C   UNL A   1      33.423  23.968  22.835  1.00  0.00     0.227 C 
ATOM      6  O   UNL A   1      33.326  24.240  21.634  1.00  0.00    -0.274 OA
ATOM      7  H   UNL A   1      35.332  24.550  22.850  1.00  0.00     0.163 HD
BRANCH   5   8
ATOM      8  C   UNL A   1      32.240  23.332  23.588  1.00  0.00     0.105 C 
ATOM      9  C   UNL A   1      30.915  24.047  23.290  1.00  0.00     0.023 C 
BRANCH   8  10
ATOM     10  C   UNL A   1      32.253  21.808  23.494  1.00  0.00    -0.035 A 
ATOM     11  C   UNL A   1      32.994  16.885  24.514  1.00  0.00     0.119 A 
ATOM     12  C   UNL A   1      33.069  17.535  25.743  1.00  0.00     0.047 A 
ATOM     13  C   UNL A   1      32.749  17.604  23.347  1.00  0.00     0.055 A 
ATOM     14  C   UNL A   1      32.900  18.921  25.800  1.00  0.00     0.012 A 
ATOM     15  C   UNL A   1      32.544  18.990  23.399  1.00  0.00    -0.015 A 
ATOM     16  C   UNL A   1      32.653  19.665  24.634  1.00  0.00    -0.018 A 
ATOM     17  C   UNL A   1      32.232  19.719  22.247  1.00  0.00     0.009 A 
ATOM     18  C   UNL A   1      32.528  21.065  24.659  1.00  0.00     0.013 A 
ATOM     19  C   UNL A   1      32.054  21.103  22.302  1.00  0.00     0.005 A 
BRANCH  11  20
ATOM     20  O   UNL A   1      33.233  15.544  24.387  1.00  0.00    -0.497 OA
ATOM     21  C   UNL A   1      32.652  14.807  25.461  1.00  0.00     0.278 C 
ENDBRANCH  11  20
ENDBRANCH   8  10
ENDBRANCH   5   8
ENDBRANCH   3   4
ENDBRANCH   2   3
ENDBRANCH   1   2
BRANCH   1  22
ATOM     22  C   UNL A   1      36.344  20.956  24.932  1.00  0.00     0.002 C 
BRANCH  22  23
ATOM     23  C   UNL A   1      37.477  19.926  24.951  1.00  0.00     0.021 C 
BRANCH  23  24
ATOM     24  C   UNL A   1      38.757  20.361  25.659  1.00  0.00     0.116 C 
BRANCH  24  25
ATOM     25  N   UNL A   1      39.737  19.295  25.759  1.00  0.00    -0.352 N 
ATOM     26  C   UNL A   1      41.077  19.355  26.055  1.00  0.00     0.251 C 
ATOM     27  H   UNL A   1      39.389  18.390  25.588  1.00  0.00     0.163 HD
ATOM     28  O   UNL A   1      41.774  18.350  25.952  1.00  0.00    -0.269 OA
BRANCH  26  29
ATOM     29  C   UNL A   1      41.694  20.633  26.472  1.00  0.00     0.039 A 
ATOM     30  C   UNL A   1      42.127  21.521  25.482  1.00  0.00     0.014 A 
ATOM     31  C   UNL A   1      41.862  20.954  27.822  1.00  0.00     0.014 A 
ATOM     32  C   UNL A   1      42.664  22.758  25.845  1.00  0.00     0.010 A 
ATOM     33  C   UNL A   1      42.340  22.212  28.181  1.00  0.00     0.010 A 
ATOM     34  C   UNL A   1      42.740  23.130  27.198  1.00  0.00    -0.014 A 
BRANCH  34  35
ATOM     35  C   UNL A   1      43.210  24.481  27.598  1.00  0.00     0.031 A 
ATOM     36  C   UNL A   1      42.223  25.543  28.000  1.00  0.00     0.074 A 
ATOM     37  C   UNL A   1      44.524  24.771  27.537  1.00  0.00     0.049 A 
ATOM     38  N   UNL A   1      42.442  26.796  28.306  1.00  0.00    -0.248 NA
ATOM     39  C   UNL A   1      40.807  25.150  28.044  1.00  0.00     0.031 C 
ATOM     40  C   UNL A   1      45.581  23.841  27.136  1.00  0.00     0.029 A 
ATOM     41  N   UNL A   1      45.195  25.940  27.803  1.00  0.00    -0.354 N 
ATOM     42  C   UNL A   1      41.192  27.345  28.566  1.00  0.00     0.074 A 
ATOM     43  C   UNL A   1      40.217  26.301  28.340  1.00  0.00     0.031 C 
ATOM     44  C   UNL A   1      46.767  24.467  27.201  1.00  0.00     0.029 A 
ATOM     45  C   UNL A   1      46.551  25.852  27.605  1.00  0.00     0.049 A 
ATOM     46  H   UNL A   1      44.746  26.761  28.108  1.00  0.00     0.167 HD
ATOM     47  C   UNL A   1      40.884  28.600  28.973  1.00  0.00     0.031 A 
ATOM     48  C   UNL A   1      47.514  26.787  27.721  1.00  0.00     0.031 A 
ATOM     49  C   UNL A   1      41.853  29.640  29.203  1.00  0.00     0.049 A 
ATOM     50  C   UNL A   1      47.141  28.179  28.143  1.00  0.00     0.074 A 
ATOM     51  C   UNL A   1      41.641  30.929  29.661  1.00  0.00     0.029 A 
ATOM     52  N   UNL A   1      43.216  29.511  28.990  1.00  0.00    -0.354 N 
ATOM     53  N   UNL A   1      45.961  28.664  28.441  1.00  0.00    -0.248 NA
ATOM     54  C   UNL A   1      48.238  29.153  28.252  1.00  0.00     0.031 C 
ATOM     55  C   UNL A   1      42.870  31.596  29.675  1.00  0.00     0.029 A 
ATOM     56  C   UNL A   1      43.854  30.705  29.282  1.00  0.00     0.049 A 
ATOM     57  H   UNL A   1      43.665  28.691  28.678  1.00  0.00     0.167 HD
ATOM     58  C   UNL A   1      46.176  29.989  28.799  1.00  0.00     0.074 A 
ATOM     59  C   UNL A   1      47.600  30.226  28.699  1.00  0.00     0.031 C 
ATOM     60  C   UNL A   1      45.273  30.926  29.177  1.00  0.00     0.031 A 
BRANCH  47  61
ATOM     61  C   UNL A   1      39.432  28.923  29.190  1.00  0.00    -0.014 A 
ATOM     62  C   UNL A   1      38.633  29.413  28.145  1.00  0.00     0.009 A 
ATOM     63  C   UNL A   1      38.843  28.687  30.442  1.00  0.00     0.009 A 
ATOM     64  C   UNL A   1      37.281  29.690  28.358  1.00  0.00     0.001 A 
ATOM     65  C   UNL A   1      37.484  28.937  30.644  1.00  0.00     0.001 A 
ATOM     66  C   UNL A   1      36.707  29.446  29.605  1.00  0.00     0.000 A 
ENDBRANCH  47  61
BRANCH  48  67
ATOM     67  C   UNL A   1      48.931  26.439  27.432  1.00  0.00    -0.014 A 
ATOM     68  C   UNL A   1      49.436  26.533  26.126  1.00  0.00     0.009 A 
ATOM     69  C   UNL A   1      49.779  25.992  28.457  1.00  0.00     0.009 A 
ATOM     70  C   UNL A   1      50.751  26.156  25.847  1.00  0.00     0.001 A 
ATOM     71  C   UNL A   1      51.103  25.645  28.180  1.00  0.00     0.001 A 
ATOM     72  C   UNL A   1      51.585  25.717  26.875  1.00  0.00     0.000 A 
ENDBRANCH  48  67
BRANCH  60  73
ATOM     73  C   UNL A   1      45.804  32.284  29.541  1.00  0.00    -0.014 A 
ATOM     74  C   UNL A   1      46.237  32.571  30.846  1.00  0.00     0.009 A 
ATOM     75  C   UNL A   1      45.903  33.278  28.556  1.00  0.00     0.009 A 
ATOM     76  C   UNL A   1      46.728  33.839  31.162  1.00  0.00     0.001 A 
ATOM     77  C   UNL A   1      46.420  34.536  28.868  1.00  0.00     0.001 A 
ATOM     78  C   UNL A   1      46.824  34.819  30.173  1.00  0.00     0.000 A 
ENDBRANCH  60  73
ENDBRANCH  34  35
ENDBRANCH  26  29
ENDBRANCH  24  25
ENDBRANCH  23  24
ENDBRANCH  22  23
ENDBRANCH   1  22
TORSDOF 15
ENDMDL
MODEL 3
REMARK VINA RESULT:     -11.0      4.390      9.716
REMARK SMILES COc1ccc2cc([C@H](C)C(=O)NCCCCCCNC(=O)c3ccc(-c4c5nc(c(-c6ccccc6)c6ccc([nH]6)c(-c6ccccc6)c6nc(c(-c7ccccc7)c7ccc4[nH]7)C=C6)C=C5)cc3)ccc2c1
REMARK SMILES IDX 16 1 15 2 14 3 13 4 11 5 12 6 9 8 10 9 8 10 3 11 4 12 74 13
REMARK SMILES IDX 5 14 73 15 6 16 72 17 7 18 71 19 2 20 1 21 17 22 18 23 19 24
REMARK SMILES IDX 20 25 21 26 22 28 23 29 24 30 70 31 25 32 69 33 26 34 27 35
REMARK SMILES IDX 28 36 63 37 29 38 68 39 62 40 64 41 30 42 67 43 61 44 60 45
REMARK SMILES IDX 31 47 53 48 38 49 52 50 39 51 42 52 51 53 65 54 40 55 41 56
REMARK SMILES IDX 50 58 66 59 43 60 32 61 33 62 37 63 34 64 36 65 35 66 54 67
REMARK SMILES IDX 55 68 59 69 56 70 58 71 57 72 44 73 45 74 49 75 46 76 48 77
REMARK SMILES IDX 47 78
REMARK H PARENT 13 7 20 27 64 46 42 57
REMARK Flexibility Score: inf
ROOT
ATOM      1  C   UNL A   1      32.452  29.460  26.578  1.00  0.00     0.002 C 
ENDROOT
BRANCH   1   2
ATOM      2  C   UNL A   1      31.778  28.235  27.196  1.00  0.00     0.021 C 
BRANCH   2   3
ATOM      3  C   UNL A   1      32.307  26.887  26.718  1.00  0.00     0.116 C 
BRANCH   3   4
ATOM      4  N   UNL A   1      31.333  25.822  26.819  1.00  0.00    -0.356 N 
ATOM      5  C   UNL A   1      30.891  24.957  25.858  1.00  0.00     0.227 C 
ATOM      6  O   UNL A   1      30.136  24.048  26.217  1.00  0.00    -0.274 OA
ATOM      7  H   UNL A   1      30.930  25.704  27.708  1.00  0.00     0.163 HD
BRANCH   5   8
ATOM      8  C   UNL A   1      31.295  25.096  24.379  1.00  0.00     0.105 C 
ATOM      9  C   UNL A   1      30.908  23.860  23.556  1.00  0.00     0.023 C 
BRANCH   8  10
ATOM     10  C   UNL A   1      30.926  26.464  23.811  1.00  0.00    -0.035 A 
ATOM     11  C   UNL A   1      28.324  30.390  21.902  1.00  0.00     0.119 A 
ATOM     12  C   UNL A   1      27.380  29.594  22.544  1.00  0.00     0.047 A 
ATOM     13  C   UNL A   1      29.669  30.027  21.896  1.00  0.00     0.055 A 
ATOM     14  C   UNL A   1      27.788  28.421  23.183  1.00  0.00     0.012 A 
ATOM     15  C   UNL A   1      30.092  28.869  22.564  1.00  0.00    -0.015 A 
ATOM     16  C   UNL A   1      29.140  28.037  23.188  1.00  0.00    -0.018 A 
ATOM     17  C   UNL A   1      31.447  28.524  22.625  1.00  0.00     0.009 A 
ATOM     18  C   UNL A   1      29.568  26.836  23.782  1.00  0.00     0.013 A 
ATOM     19  C   UNL A   1      31.859  27.356  23.270  1.00  0.00     0.005 A 
BRANCH  11  20
ATOM     20  O   UNL A   1      27.972  31.504  21.191  1.00  0.00    -0.497 OA
ATOM     21  C   UNL A   1      28.398  32.697  21.846  1.00  0.00     0.278 C 
ENDBRANCH  11  20
ENDBRANCH   8  10
ENDBRANCH   5   8
ENDBRANCH   3   4
ENDBRANCH   2   3
ENDBRANCH   1   2
BRANCH   1  22
ATOM     22  C   UNL A   1      31.520  30.452  25.877  1.00  0.00     0.002 C 
BRANCH  22  23
ATOM     23  C   UNL A   1      31.353  31.815  26.554  1.00  0.00     0.021 C 
BRANCH  23  24
ATOM     24  C   UNL A   1      32.629  32.436  27.116  1.00  0.00     0.116 C 
BRANCH  24  25
ATOM     25  N   UNL A   1      32.434  33.796  27.587  1.00  0.00    -0.352 N 
ATOM     26  C   UNL A   1      33.158  34.524  28.499  1.00  0.00     0.251 C 
ATOM     27  H   UNL A   1      31.666  34.269  27.193  1.00  0.00     0.163 HD
ATOM     28  O   UNL A   1      32.750  35.620  28.873  1.00  0.00    -0.269 OA
BRANCH  26  29
ATOM     29  C   UNL A   1      34.417  33.984  29.057  1.00  0.00     0.039 A 
ATOM     30  C   UNL A   1      34.359  33.231  30.234  1.00  0.00     0.014 A 
ATOM     31  C   UNL A   1      35.649  34.226  28.441  1.00  0.00     0.014 A 
ATOM     32  C   UNL A   1      35.524  32.664  30.754  1.00  0.00     0.010 A 
ATOM     33  C   UNL A   1      36.799  33.607  28.926  1.00  0.00     0.010 A 
ATOM     34  C   UNL A   1      36.749  32.815  30.083  1.00  0.00    -0.014 A 
BRANCH  34  35
ATOM     35  C   UNL A   1      37.977  32.133  30.563  1.00  0.00     0.031 A 
ATOM     36  C   UNL A   1      38.836  32.765  31.624  1.00  0.00     0.074 A 
ATOM     37  C   UNL A   1      38.356  30.971  29.995  1.00  0.00     0.049 A 
ATOM     38  N   UNL A   1      39.979  32.355  32.112  1.00  0.00    -0.248 NA
ATOM     39  C   UNL A   1      38.356  34.032  32.198  1.00  0.00     0.031 C 
ATOM     40  C   UNL A   1      37.629  30.267  28.937  1.00  0.00     0.029 A 
ATOM     41  N   UNL A   1      39.456  30.182  30.223  1.00  0.00    -0.354 N 
ATOM     42  C   UNL A   1      40.363  33.318  33.037  1.00  0.00     0.074 A 
ATOM     43  C   UNL A   1      39.352  34.353  33.013  1.00  0.00     0.031 C 
ATOM     44  C   UNL A   1      38.291  29.142  28.621  1.00  0.00     0.029 A 
ATOM     45  C   UNL A   1      39.509  29.068  29.421  1.00  0.00     0.049 A 
ATOM     46  H   UNL A   1      40.142  30.393  30.896  1.00  0.00     0.167 HD
ATOM     47  C   UNL A   1      41.448  33.331  33.847  1.00  0.00     0.031 A 
ATOM     48  C   UNL A   1      40.440  28.099  29.328  1.00  0.00     0.031 A 
ATOM     49  C   UNL A   1      42.452  32.301  33.877  1.00  0.00     0.049 A 
ATOM     50  C   UNL A   1      41.651  28.156  30.216  1.00  0.00     0.074 A 
ATOM     51  C   UNL A   1      43.563  32.204  34.696  1.00  0.00     0.029 A 
ATOM     52  N   UNL A   1      42.468  31.190  33.049  1.00  0.00    -0.354 N 
ATOM     53  N   UNL A   1      41.967  29.044  31.127  1.00  0.00    -0.248 NA
ATOM     54  C   UNL A   1      42.631  27.069  30.067  1.00  0.00     0.031 C 
ATOM     55  C   UNL A   1      44.281  31.061  34.328  1.00  0.00     0.029 A 
ATOM     56  C   UNL A   1      43.585  30.416  33.320  1.00  0.00     0.049 A 
ATOM     57  H   UNL A   1      41.787  30.981  32.369  1.00  0.00     0.167 HD
ATOM     58  C   UNL A   1      43.166  28.609  31.678  1.00  0.00     0.074 A 
ATOM     59  C   UNL A   1      43.509  27.370  31.013  1.00  0.00     0.031 C 
ATOM     60  C   UNL A   1      43.915  29.186  32.649  1.00  0.00     0.031 A 
BRANCH  47  61
ATOM     61  C   UNL A   1      41.612  34.507  34.769  1.00  0.00    -0.014 A 
ATOM     62  C   UNL A   1      41.086  34.489  36.071  1.00  0.00     0.009 A 
ATOM     63  C   UNL A   1      42.347  35.627  34.350  1.00  0.00     0.009 A 
ATOM     64  C   UNL A   1      41.265  35.581  36.922  1.00  0.00     0.001 A 
ATOM     65  C   UNL A   1      42.550  36.706  35.214  1.00  0.00     0.001 A 
ATOM     66  C   UNL A   1      42.001  36.686  36.495  1.00  0.00     0.000 A 
ENDBRANCH  47  61
BRANCH  48  67
ATOM     67  C   UNL A   1      40.269  26.989  28.354  1.00  0.00    -0.014 A 
ATOM     68  C   UNL A   1      40.780  27.097  27.052  1.00  0.00     0.009 A 
ATOM     69  C   UNL A   1      39.576  25.823  28.716  1.00  0.00     0.009 A 
ATOM     70  C   UNL A   1      40.573  26.075  26.123  1.00  0.00     0.001 A 
ATOM     71  C   UNL A   1      39.397  24.790  27.794  1.00  0.00     0.001 A 
ATOM     72  C   UNL A   1      39.885  24.921  26.495  1.00  0.00     0.000 A 
ENDBRANCH  48  67
BRANCH  60  73
ATOM     73  C   UNL A   1      45.164  28.464  33.072  1.00  0.00    -0.014 A 
ATOM     74  C   UNL A   1      46.413  28.781  32.516  1.00  0.00     0.009 A 
ATOM     75  C   UNL A   1      45.091  27.475  34.065  1.00  0.00     0.009 A 
ATOM     76  C   UNL A   1      47.560  28.098  32.924  1.00  0.00     0.001 A 
ATOM     77  C   UNL A   1      46.243  26.814  34.492  1.00  0.00     0.001 A 
ATOM     78  C   UNL A   1      47.476  27.119  33.915  1.00  0.00     0.000 A 
ENDBRANCH  60  73
ENDBRANCH  34  35
ENDBRANCH  26  29
ENDBRANCH  24  25
ENDBRANCH  23  24
ENDBRANCH  22  23
ENDBRANCH   1  22
TORSDOF 15
ENDMDL
