MODEL 1
REMARK VINA RESULT:     -12.7      0.000      0.000
REMARK SMILES O=C(Cn1cc(/C=C2\SC(N3CCOCC3)=[NH+]C2=O)c2ccccc21)NCCCCCCNC(=O)c1ccc(-c2c3nc(c(-c4ccccc4)c4ccc([nH]4)c(-c4ccccc4)c4nc(c(-c5ccccc5)c5ccc2[nH]5)C=C4)C=C3)cc1
REMARK SMILES IDX 29 1 28 2 27 3 26 4 1 5 2 6 3 8 4 9 5 10 25 11 6 12 20 13
REMARK SMILES IDX 24 14 21 15 23 16 22 17 7 18 8 19 9 20 18 21 10 22 17 23
REMARK SMILES IDX 19 24 11 25 12 27 16 28 13 29 15 30 14 31 30 32 31 33 32 34
REMARK SMILES IDX 33 35 34 36 35 38 36 39 37 40 83 41 38 42 82 43 39 44 40 45
REMARK SMILES IDX 41 46 76 47 42 48 81 49 75 50 77 51 43 52 80 53 74 54 73 55
REMARK SMILES IDX 44 57 66 58 51 59 65 60 52 61 55 62 64 63 78 64 53 65 54 66
REMARK SMILES IDX 63 68 79 69 56 70 45 71 46 72 50 73 47 74 49 75 48 76 67 77
REMARK SMILES IDX 68 78 72 79 69 80 71 81 70 82 57 83 58 84 62 85 59 86 61 87
REMARK SMILES IDX 60 88
REMARK H PARENT 26 7 17 26 33 37 77 56 55 67
REMARK Flexibility Score: inf
ROOT
ATOM      1  C   UNL A   1      41.870  21.144  27.425  1.00  0.00     0.002 C 
ENDROOT
BRANCH   1   2
ATOM      2  C   UNL A   1      40.476  21.776  27.515  1.00  0.00     0.021 C 
BRANCH   2   3
ATOM      3  C   UNL A   1      39.694  21.796  26.204  1.00  0.00     0.116 C 
BRANCH   3   4
ATOM      4  N   UNL A   1      38.300  22.151  26.390  1.00  0.00    -0.355 N 
ATOM      5  O   UNL A   1      37.489  20.675  24.835  1.00  0.00    -0.273 OA
ATOM      6  C   UNL A   1      37.282  21.503  25.722  1.00  0.00     0.239 C 
ATOM      7  H   UNL A   1      38.073  22.878  27.014  1.00  0.00     0.163 HD
BRANCH   6   8
ATOM      8  C   UNL A   1      35.872  21.916  26.086  1.00  0.00     0.222 C 
BRANCH   8   9
ATOM      9  N   UNL A   1      34.906  21.954  24.990  1.00  0.00    -0.337 N 
ATOM     10  C   UNL A   1      34.838  23.007  24.108  1.00  0.00     0.095 A 
ATOM     11  C   UNL A   1      34.008  20.971  24.616  1.00  0.00     0.049 A 
ATOM     12  C   UNL A   1      33.885  22.710  23.162  1.00  0.00     0.001 A 
ATOM     13  C   UNL A   1      33.315  21.453  23.494  1.00  0.00     0.007 A 
ATOM     14  C   UNL A   1      33.736  19.700  25.153  1.00  0.00     0.027 A 
ATOM     15  C   UNL A   1      32.300  20.656  22.924  1.00  0.00     0.011 A 
ATOM     16  C   UNL A   1      32.718  18.936  24.573  1.00  0.00     0.002 A 
ATOM     17  C   UNL A   1      32.003  19.409  23.479  1.00  0.00     0.001 A 
BRANCH  12  18
ATOM     18  C   UNL A   1      33.574  23.554  22.055  1.00  0.00     0.034 C 
ATOM     19  C   UNL A   1      33.344  24.873  22.124  1.00  0.00     0.110 C 
ATOM     20  S   UNL A   1      33.465  25.897  23.498  1.00  0.00     0.006 SA
ATOM     21  C   UNL A   1      32.878  25.677  20.962  1.00  0.00     0.346 C 
ATOM     22  C   UNL A   1      32.740  27.202  22.578  1.00  0.00     0.319 C 
ATOM     23  N   UNL A   1      32.478  26.938  21.338  1.00  0.00    -0.200 N 
ATOM     24  O   UNL A   1      32.836  25.237  19.815  1.00  0.00    -0.240 OA
ATOM     25  N   UNL A   1      32.425  28.360  23.231  1.00  0.00    -0.251 N 
ATOM     26  H   UNL A   1      32.039  27.573  20.728  1.00  0.00     0.316 HD
ATOM     27  C   UNL A   1      33.317  29.063  24.156  1.00  0.00     0.265 C 
ATOM     28  C   UNL A   1      31.165  29.066  22.981  1.00  0.00     0.265 C 
ATOM     29  C   UNL A   1      32.572  29.371  25.460  1.00  0.00     0.206 C 
ATOM     30  C   UNL A   1      30.490  29.353  24.333  1.00  0.00     0.206 C 
ATOM     31  O   UNL A   1      31.357  30.099  25.207  1.00  0.00    -0.373 OA
ENDBRANCH  12  18
ENDBRANCH   8   9
ENDBRANCH   6   8
ENDBRANCH   3   4
ENDBRANCH   2   3
ENDBRANCH   1   2
BRANCH   1  32
ATOM     32  C   UNL A   1      41.905  19.618  27.295  1.00  0.00     0.002 C 
BRANCH  32  33
ATOM     33  C   UNL A   1      42.364  19.061  25.940  1.00  0.00     0.021 C 
BRANCH  33  34
ATOM     34  C   UNL A   1      43.809  18.558  25.892  1.00  0.00     0.116 C 
BRANCH  34  35
ATOM     35  N   UNL A   1      44.569  19.068  24.766  1.00  0.00    -0.352 N 
ATOM     36  C   UNL A   1      45.085  20.281  24.403  1.00  0.00     0.251 C 
ATOM     37  H   UNL A   1      44.761  18.368  24.101  1.00  0.00     0.163 HD
ATOM     38  O   UNL A   1      45.820  20.273  23.411  1.00  0.00    -0.269 OA
BRANCH  36  39
ATOM     39  C   UNL A   1      44.809  21.590  25.064  1.00  0.00     0.039 A 
ATOM     40  C   UNL A   1      45.413  22.060  26.227  1.00  0.00     0.014 A 
ATOM     41  C   UNL A   1      43.803  22.386  24.473  1.00  0.00     0.014 A 
ATOM     42  C   UNL A   1      44.991  23.260  26.804  1.00  0.00     0.010 A 
ATOM     43  C   UNL A   1      43.380  23.588  25.045  1.00  0.00     0.010 A 
ATOM     44  C   UNL A   1      43.957  24.016  26.231  1.00  0.00    -0.014 A 
BRANCH  44  45
ATOM     45  C   UNL A   1      43.610  25.285  26.876  1.00  0.00     0.031 A 
ATOM     46  C   UNL A   1      44.555  26.407  26.627  1.00  0.00     0.074 A 
ATOM     47  C   UNL A   1      42.511  25.538  27.618  1.00  0.00     0.049 A 
ATOM     48  N   UNL A   1      45.351  26.966  27.478  1.00  0.00    -0.248 NA
ATOM     49  C   UNL A   1      44.679  26.920  25.257  1.00  0.00     0.031 C 
ATOM     50  C   UNL A   1      41.303  24.729  27.777  1.00  0.00     0.029 A 
ATOM     51  N   UNL A   1      42.236  26.658  28.355  1.00  0.00    -0.354 N 
ATOM     52  C   UNL A   1      45.984  28.004  26.800  1.00  0.00     0.074 A 
ATOM     53  C   UNL A   1      45.608  27.866  25.414  1.00  0.00     0.031 C 
ATOM     54  C   UNL A   1      40.346  25.472  28.384  1.00  0.00     0.029 A 
ATOM     55  C   UNL A   1      40.925  26.740  28.797  1.00  0.00     0.049 A 
ATOM     56  H   UNL A   1      42.910  27.346  28.554  1.00  0.00     0.167 HD
ATOM     57  C   UNL A   1      46.640  28.998  27.457  1.00  0.00     0.031 A 
ATOM     58  C   UNL A   1      40.350  27.791  29.431  1.00  0.00     0.031 A 
ATOM     59  C   UNL A   1      46.912  28.655  28.828  1.00  0.00     0.049 A 
ATOM     60  C   UNL A   1      41.420  28.595  30.060  1.00  0.00     0.074 A 
ATOM     61  C   UNL A   1      47.626  27.659  29.462  1.00  0.00     0.029 A 
ATOM     62  N   UNL A   1      46.118  29.223  29.793  1.00  0.00    -0.354 N 
ATOM     63  N   UNL A   1      42.120  28.203  31.084  1.00  0.00    -0.248 NA
ATOM     64  C   UNL A   1      41.951  29.740  29.341  1.00  0.00     0.031 C 
ATOM     65  C   UNL A   1      46.886  27.370  30.645  1.00  0.00     0.029 A 
ATOM     66  C   UNL A   1      45.792  28.238  30.687  1.00  0.00     0.049 A 
ATOM     67  H   UNL A   1      45.835  30.165  29.834  1.00  0.00     0.167 HD
ATOM     68  C   UNL A   1      43.375  28.751  30.880  1.00  0.00     0.074 A 
ATOM     69  C   UNL A   1      43.172  29.792  29.877  1.00  0.00     0.031 C 
ATOM     70  C   UNL A   1      44.501  28.122  31.331  1.00  0.00     0.031 A 
BRANCH  57  71
ATOM     71  C   UNL A   1      46.739  30.421  26.964  1.00  0.00    -0.014 A 
ATOM     72  C   UNL A   1      45.614  31.213  26.669  1.00  0.00     0.009 A 
ATOM     73  C   UNL A   1      47.974  31.091  27.057  1.00  0.00     0.009 A 
ATOM     74  C   UNL A   1      45.708  32.598  26.499  1.00  0.00     0.001 A 
ATOM     75  C   UNL A   1      48.065  32.482  26.931  1.00  0.00     0.001 A 
ATOM     76  C   UNL A   1      46.929  33.237  26.658  1.00  0.00     0.000 A 
ENDBRANCH  57  71
BRANCH  58  77
ATOM     77  C   UNL A   1      38.973  28.315  29.303  1.00  0.00    -0.014 A 
ATOM     78  C   UNL A   1      38.571  28.943  28.112  1.00  0.00     0.009 A 
ATOM     79  C   UNL A   1      38.166  28.487  30.442  1.00  0.00     0.009 A 
ATOM     80  C   UNL A   1      37.437  29.761  28.073  1.00  0.00     0.001 A 
ATOM     81  C   UNL A   1      37.033  29.310  30.403  1.00  0.00     0.001 A 
ATOM     82  C   UNL A   1      36.680  29.961  29.223  1.00  0.00     0.000 A 
ENDBRANCH  58  77
BRANCH  70  83
ATOM     83  C   UNL A   1      44.358  27.018  32.354  1.00  0.00    -0.014 A 
ATOM     84  C   UNL A   1      44.454  25.689  31.908  1.00  0.00     0.009 A 
ATOM     85  C   UNL A   1      43.984  27.240  33.690  1.00  0.00     0.009 A 
ATOM     86  C   UNL A   1      44.180  24.619  32.762  1.00  0.00     0.001 A 
ATOM     87  C   UNL A   1      43.741  26.167  34.555  1.00  0.00     0.001 A 
ATOM     88  C   UNL A   1      43.829  24.858  34.088  1.00  0.00     0.000 A 
ENDBRANCH  70  83
ENDBRANCH  44  45
ENDBRANCH  36  39
ENDBRANCH  34  35
ENDBRANCH  33  34
ENDBRANCH  32  33
ENDBRANCH   1  32
TORSDOF 15
ENDMDL
MODEL 2
REMARK VINA RESULT:     -12.4      2.669      3.772
REMARK SMILES O=C(Cn1cc(/C=C2\SC(N3CCOCC3)=[NH+]C2=O)c2ccccc21)NCCCCCCNC(=O)c1ccc(-c2c3nc(c(-c4ccccc4)c4ccc([nH]4)c(-c4ccccc4)c4nc(c(-c5ccccc5)c5ccc2[nH]5)C=C4)C=C3)cc1
REMARK SMILES IDX 29 1 28 2 27 3 26 4 1 5 2 6 3 8 4 9 5 10 25 11 6 12 20 13
REMARK SMILES IDX 24 14 21 15 23 16 22 17 7 18 8 19 9 20 18 21 10 22 17 23
REMARK SMILES IDX 19 24 11 25 12 27 16 28 13 29 15 30 14 31 30 32 31 33 32 34
REMARK SMILES IDX 33 35 34 36 35 38 36 39 37 40 83 41 38 42 82 43 39 44 40 45
REMARK SMILES IDX 41 46 76 47 42 48 81 49 75 50 77 51 43 52 80 53 74 54 73 55
REMARK SMILES IDX 44 57 66 58 51 59 65 60 52 61 55 62 64 63 78 64 53 65 54 66
REMARK SMILES IDX 63 68 79 69 56 70 45 71 46 72 50 73 47 74 49 75 48 76 67 77
REMARK SMILES IDX 68 78 72 79 69 80 71 81 70 82 57 83 58 84 62 85 59 86 61 87
REMARK SMILES IDX 60 88
REMARK H PARENT 26 7 17 26 33 37 77 56 55 67
REMARK Flexibility Score: inf
ROOT
ATOM      1  C   UNL A   1      40.094  24.232  27.788  1.00  0.00     0.002 C 
ENDROOT
BRANCH   1   2
ATOM      2  C   UNL A   1      39.454  24.461  26.415  1.00  0.00     0.021 C 
BRANCH   2   3
ATOM      3  C   UNL A   1      37.932  24.342  26.387  1.00  0.00     0.116 C 
BRANCH   3   4
ATOM      4  N   UNL A   1      37.481  22.972  26.236  1.00  0.00    -0.355 N 
ATOM      5  O   UNL A   1      36.986  23.150  24.005  1.00  0.00    -0.273 OA
ATOM      6  C   UNL A   1      37.096  22.456  25.015  1.00  0.00     0.239 C 
ATOM      7  H   UNL A   1      37.448  22.391  27.030  1.00  0.00     0.163 HD
BRANCH   6   8
ATOM      8  C   UNL A   1      36.738  20.986  24.992  1.00  0.00     0.222 C 
BRANCH   8   9
ATOM      9  N   UNL A   1      35.341  20.656  25.264  1.00  0.00    -0.337 N 
ATOM     10  C   UNL A   1      34.482  21.545  25.867  1.00  0.00     0.095 A 
ATOM     11  C   UNL A   1      34.656  19.507  24.912  1.00  0.00     0.049 A 
ATOM     12  C   UNL A   1      33.235  20.965  25.916  1.00  0.00     0.001 A 
ATOM     13  C   UNL A   1      33.337  19.661  25.364  1.00  0.00     0.007 A 
ATOM     14  C   UNL A   1      35.067  18.344  24.238  1.00  0.00     0.027 A 
ATOM     15  C   UNL A   1      32.420  18.606  25.169  1.00  0.00     0.011 A 
ATOM     16  C   UNL A   1      34.140  17.311  24.066  1.00  0.00     0.002 A 
ATOM     17  C   UNL A   1      32.836  17.435  24.531  1.00  0.00     0.001 A 
BRANCH  12  18
ATOM     18  C   UNL A   1      32.077  21.616  26.435  1.00  0.00     0.034 C 
ATOM     19  C   UNL A   1      31.550  22.756  25.967  1.00  0.00     0.110 C 
ATOM     20  S   UNL A   1      32.041  23.662  24.593  1.00  0.00     0.006 SA
ATOM     21  C   UNL A   1      30.429  23.468  26.639  1.00  0.00     0.346 C 
ATOM     22  C   UNL A   1      30.954  24.953  25.066  1.00  0.00     0.319 C 
ATOM     23  N   UNL A   1      30.235  24.726  26.118  1.00  0.00    -0.200 N 
ATOM     24  O   UNL A   1      29.786  22.982  27.567  1.00  0.00    -0.240 OA
ATOM     25  N   UNL A   1      30.992  26.124  24.364  1.00  0.00    -0.251 N 
ATOM     26  H   UNL A   1      29.614  25.384  26.505  1.00  0.00     0.316 HD
ATOM     27  C   UNL A   1      31.000  26.218  22.901  1.00  0.00     0.265 C 
ATOM     28  C   UNL A   1      30.930  27.425  25.034  1.00  0.00     0.265 C 
ATOM     29  C   UNL A   1      32.137  27.142  22.449  1.00  0.00     0.206 C 
ATOM     30  C   UNL A   1      32.087  28.297  24.515  1.00  0.00     0.206 C 
ATOM     31  O   UNL A   1      32.045  28.430  23.083  1.00  0.00    -0.373 OA
ENDBRANCH  12  18
ENDBRANCH   8   9
ENDBRANCH   6   8
ENDBRANCH   3   4
ENDBRANCH   2   3
ENDBRANCH   1   2
BRANCH   1  32
ATOM     32  C   UNL A   1      40.863  22.918  27.958  1.00  0.00     0.002 C 
BRANCH  32  33
ATOM     33  C   UNL A   1      41.256  22.190  26.664  1.00  0.00     0.021 C 
BRANCH  33  34
ATOM     34  C   UNL A   1      42.719  21.746  26.578  1.00  0.00     0.116 C 
BRANCH  34  35
ATOM     35  N   UNL A   1      43.460  22.381  25.505  1.00  0.00    -0.352 N 
ATOM     36  C   UNL A   1      43.872  23.653  25.218  1.00  0.00     0.251 C 
ATOM     37  H   UNL A   1      43.736  21.737  24.813  1.00  0.00     0.163 HD
ATOM     38  O   UNL A   1      44.633  23.763  24.252  1.00  0.00    -0.269 OA
BRANCH  36  39
ATOM     39  C   UNL A   1      43.456  24.895  25.933  1.00  0.00     0.039 A 
ATOM     40  C   UNL A   1      43.775  25.226  27.248  1.00  0.00     0.014 A 
ATOM     41  C   UNL A   1      42.621  25.778  25.213  1.00  0.00     0.014 A 
ATOM     42  C   UNL A   1      43.237  26.373  27.835  1.00  0.00     0.010 A 
ATOM     43  C   UNL A   1      42.083  26.927  25.796  1.00  0.00     0.010 A 
ATOM     44  C   UNL A   1      42.370  27.215  27.122  1.00  0.00    -0.014 A 
BRANCH  44  45
ATOM     45  C   UNL A   1      41.889  28.422  27.801  1.00  0.00     0.031 A 
ATOM     46  C   UNL A   1      42.817  29.584  27.770  1.00  0.00     0.074 A 
ATOM     47  C   UNL A   1      40.688  28.588  28.394  1.00  0.00     0.049 A 
ATOM     48  N   UNL A   1      43.465  30.098  28.763  1.00  0.00    -0.248 NA
ATOM     49  C   UNL A   1      43.114  30.202  26.471  1.00  0.00     0.031 C 
ATOM     50  C   UNL A   1      39.500  27.738  28.320  1.00  0.00     0.029 A 
ATOM     51  N   UNL A   1      40.271  29.641  29.163  1.00  0.00    -0.354 N 
ATOM     52  C   UNL A   1      44.147  31.200  28.258  1.00  0.00     0.074 A 
ATOM     53  C   UNL A   1      43.975  31.159  26.827  1.00  0.00     0.031 C 
ATOM     54  C   UNL A   1      38.441  28.407  28.836  1.00  0.00     0.029 A 
ATOM     55  C   UNL A   1      38.909  29.655  29.418  1.00  0.00     0.049 A 
ATOM     56  H   UNL A   1      40.885  30.330  29.504  1.00  0.00     0.167 HD
ATOM     57  C   UNL A   1      44.668  32.159  29.072  1.00  0.00     0.031 A 
ATOM     58  C   UNL A   1      38.212  30.639  30.037  1.00  0.00     0.031 A 
ATOM     59  C   UNL A   1      44.757  31.719  30.439  1.00  0.00     0.049 A 
ATOM     60  C   UNL A   1      39.153  31.420  30.868  1.00  0.00     0.074 A 
ATOM     61  C   UNL A   1      45.412  30.697  31.096  1.00  0.00     0.029 A 
ATOM     62  N   UNL A   1      43.815  32.191  31.320  1.00  0.00    -0.354 N 
ATOM     63  N   UNL A   1      39.716  30.970  31.950  1.00  0.00    -0.248 NA
ATOM     64  C   UNL A   1      39.737  32.631  30.316  1.00  0.00     0.031 C 
ATOM     65  C   UNL A   1      44.524  30.299  32.137  1.00  0.00     0.029 A 
ATOM     66  C   UNL A   1      43.404  31.133  32.085  1.00  0.00     0.049 A 
ATOM     67  H   UNL A   1      43.495  33.119  31.387  1.00  0.00     0.167 HD
ATOM     68  C   UNL A   1      40.966  31.565  31.967  1.00  0.00     0.074 A 
ATOM     69  C   UNL A   1      40.868  32.673  31.023  1.00  0.00     0.031 C 
ATOM     70  C   UNL A   1      42.040  30.934  32.529  1.00  0.00     0.031 A 
BRANCH  57  71
ATOM     71  C   UNL A   1      44.782  33.617  28.701  1.00  0.00    -0.014 A 
ATOM     72  C   UNL A   1      46.011  34.253  28.448  1.00  0.00     0.009 A 
ATOM     73  C   UNL A   1      43.620  34.317  28.323  1.00  0.00     0.009 A 
ATOM     74  C   UNL A   1      46.083  35.505  27.830  1.00  0.00     0.001 A 
ATOM     75  C   UNL A   1      43.690  35.551  27.664  1.00  0.00     0.001 A 
ATOM     76  C   UNL A   1      44.923  36.141  27.412  1.00  0.00     0.000 A 
ENDBRANCH  57  71
BRANCH  58  77
ATOM     77  C   UNL A   1      36.849  31.134  29.752  1.00  0.00    -0.014 A 
ATOM     78  C   UNL A   1      36.476  31.437  28.432  1.00  0.00     0.009 A 
ATOM     79  C   UNL A   1      36.030  31.610  30.792  1.00  0.00     0.009 A 
ATOM     80  C   UNL A   1      35.359  32.235  28.160  1.00  0.00     0.001 A 
ATOM     81  C   UNL A   1      34.915  32.413  30.519  1.00  0.00     0.001 A 
ATOM     82  C   UNL A   1      34.591  32.740  29.204  1.00  0.00     0.000 A 
ENDBRANCH  58  77
BRANCH  70  83
ATOM     83  C   UNL A   1      41.797  29.751  33.439  1.00  0.00    -0.014 A 
ATOM     84  C   UNL A   1      41.836  29.967  34.827  1.00  0.00     0.009 A 
ATOM     85  C   UNL A   1      41.687  28.428  32.980  1.00  0.00     0.009 A 
ATOM     86  C   UNL A   1      41.775  28.900  35.725  1.00  0.00     0.001 A 
ATOM     87  C   UNL A   1      41.593  27.361  33.881  1.00  0.00     0.001 A 
ATOM     88  C   UNL A   1      41.647  27.597  35.253  1.00  0.00     0.000 A 
ENDBRANCH  70  83
ENDBRANCH  44  45
ENDBRANCH  36  39
ENDBRANCH  34  35
ENDBRANCH  33  34
ENDBRANCH  32  33
ENDBRANCH   1  32
TORSDOF 15
ENDMDL
MODEL 3
REMARK VINA RESULT:     -12.3      2.740      9.013
REMARK SMILES O=C(Cn1cc(/C=C2\SC(N3CCOCC3)=[NH+]C2=O)c2ccccc21)NCCCCCCNC(=O)c1ccc(-c2c3nc(c(-c4ccccc4)c4ccc([nH]4)c(-c4ccccc4)c4nc(c(-c5ccccc5)c5ccc2[nH]5)C=C4)C=C3)cc1
REMARK SMILES IDX 29 1 28 2 27 3 26 4 1 5 2 6 3 8 4 9 5 10 25 11 6 12 20 13
REMARK SMILES IDX 24 14 21 15 23 16 22 17 7 18 8 19 9 20 18 21 10 22 17 23
REMARK SMILES IDX 19 24 11 25 12 27 16 28 13 29 15 30 14 31 30 32 31 33 32 34
REMARK SMILES IDX 33 35 34 36 35 38 36 39 37 40 83 41 38 42 82 43 39 44 40 45
REMARK SMILES IDX 41 46 76 47 42 48 81 49 75 50 77 51 43 52 80 53 74 54 73 55
REMARK SMILES IDX 44 57 66 58 51 59 65 60 52 61 55 62 64 63 78 64 53 65 54 66
REMARK SMILES IDX 63 68 79 69 56 70 45 71 46 72 50 73 47 74 49 75 48 76 67 77
REMARK SMILES IDX 68 78 72 79 69 80 71 81 70 82 57 83 58 84 62 85 59 86 61 87
REMARK SMILES IDX 60 88
REMARK H PARENT 26 7 17 26 33 37 77 56 55 67
REMARK Flexibility Score: inf
ROOT
ATOM      1  C   UNL A   1      37.002  31.537  28.461  1.00  0.00     0.002 C 
ENDROOT
BRANCH   1   2
ATOM      2  C   UNL A   1      36.725  30.212  27.743  1.00  0.00     0.021 C 
BRANCH   2   3
ATOM      3  C   UNL A   1      35.305  29.677  27.910  1.00  0.00     0.116 C 
BRANCH   3   4
ATOM      4  N   UNL A   1      34.705  29.281  26.649  1.00  0.00    -0.355 N 
ATOM      5  O   UNL A   1      32.840  30.594  26.871  1.00  0.00    -0.273 OA
ATOM      6  C   UNL A   1      33.526  29.832  26.191  1.00  0.00     0.239 C 
ATOM      7  H   UNL A   1      35.154  28.596  26.103  1.00  0.00     0.163 HD
BRANCH   6   8
ATOM      8  C   UNL A   1      33.069  29.390  24.818  1.00  0.00     0.222 C 
BRANCH   8   9
ATOM      9  N   UNL A   1      31.947  28.456  24.779  1.00  0.00    -0.337 N 
ATOM     10  C   UNL A   1      31.875  27.360  25.608  1.00  0.00     0.095 A 
ATOM     11  C   UNL A   1      30.795  28.543  24.018  1.00  0.00     0.049 A 
ATOM     12  C   UNL A   1      30.675  26.728  25.377  1.00  0.00     0.001 A 
ATOM     13  C   UNL A   1      30.003  27.431  24.343  1.00  0.00     0.007 A 
ATOM     14  C   UNL A   1      30.368  29.494  23.075  1.00  0.00     0.027 A 
ATOM     15  C   UNL A   1      28.773  27.250  23.675  1.00  0.00     0.011 A 
ATOM     16  C   UNL A   1      29.149  29.285  22.423  1.00  0.00     0.002 A 
ATOM     17  C   UNL A   1      28.364  28.175  22.711  1.00  0.00     0.001 A 
BRANCH  12  18
ATOM     18  C   UNL A   1      30.234  25.576  26.092  1.00  0.00     0.034 C 
ATOM     19  C   UNL A   1      30.976  24.491  26.354  1.00  0.00     0.110 C 
ATOM     20  S   UNL A   1      32.640  24.242  26.009  1.00  0.00     0.006 SA
ATOM     21  C   UNL A   1      30.421  23.258  26.973  1.00  0.00     0.346 C 
ATOM     22  C   UNL A   1      32.476  22.559  26.476  1.00  0.00     0.319 C 
ATOM     23  N   UNL A   1      31.308  22.209  26.910  1.00  0.00    -0.200 N 
ATOM     24  O   UNL A   1      29.290  23.198  27.451  1.00  0.00    -0.240 OA
ATOM     25  N   UNL A   1      33.537  21.724  26.278  1.00  0.00    -0.251 N 
ATOM     26  H   UNL A   1      31.078  21.287  27.169  1.00  0.00     0.316 HD
ATOM     27  C   UNL A   1      34.922  22.035  26.646  1.00  0.00     0.265 C 
ATOM     28  C   UNL A   1      33.361  20.367  25.753  1.00  0.00     0.265 C 
ATOM     29  C   UNL A   1      35.846  21.765  25.453  1.00  0.00     0.206 C 
ATOM     30  C   UNL A   1      34.332  20.170  24.576  1.00  0.00     0.206 C 
ATOM     31  O   UNL A   1      35.694  20.419  24.968  1.00  0.00    -0.373 OA
ENDBRANCH  12  18
ENDBRANCH   8   9
ENDBRANCH   6   8
ENDBRANCH   3   4
ENDBRANCH   2   3
ENDBRANCH   1   2
BRANCH   1  32
ATOM     32  C   UNL A   1      36.080  32.704  28.091  1.00  0.00     0.002 C 
BRANCH  32  33
ATOM     33  C   UNL A   1      35.100  33.166  29.179  1.00  0.00     0.021 C 
BRANCH  33  34
ATOM     34  C   UNL A   1      35.716  33.994  30.310  1.00  0.00     0.116 C 
BRANCH  34  35
ATOM     35  N   UNL A   1      35.397  33.502  31.637  1.00  0.00    -0.352 N 
ATOM     36  C   UNL A   1      35.952  32.608  32.509  1.00  0.00     0.251 C 
ATOM     37  H   UNL A   1      34.578  33.914  31.998  1.00  0.00     0.163 HD
ATOM     38  O   UNL A   1      35.447  32.577  33.636  1.00  0.00    -0.269 OA
BRANCH  36  39
ATOM     39  C   UNL A   1      37.065  31.660  32.210  1.00  0.00     0.039 A 
ATOM     40  C   UNL A   1      38.399  32.004  32.009  1.00  0.00     0.014 A 
ATOM     41  C   UNL A   1      36.704  30.302  32.068  1.00  0.00     0.014 A 
ATOM     42  C   UNL A   1      39.328  31.032  31.633  1.00  0.00     0.010 A 
ATOM     43  C   UNL A   1      37.630  29.326  31.694  1.00  0.00     0.010 A 
ATOM     44  C   UNL A   1      38.945  29.695  31.448  1.00  0.00    -0.014 A 
BRANCH  44  45
ATOM     45  C   UNL A   1      39.993  28.733  31.098  1.00  0.00     0.031 A 
ATOM     46  C   UNL A   1      40.929  28.380  32.200  1.00  0.00     0.074 A 
ATOM     47  C   UNL A   1      40.155  28.114  29.910  1.00  0.00     0.049 A 
ATOM     48  N   UNL A   1      42.181  28.688  32.295  1.00  0.00    -0.248 NA
ATOM     49  C   UNL A   1      40.394  27.661  33.363  1.00  0.00     0.031 C 
ATOM     50  C   UNL A   1      39.235  28.050  28.774  1.00  0.00     0.029 A 
ATOM     51  N   UNL A   1      41.204  27.334  29.506  1.00  0.00    -0.354 N 
ATOM     52  C   UNL A   1      42.645  28.085  33.460  1.00  0.00     0.074 A 
ATOM     53  C   UNL A   1      41.483  27.551  34.127  1.00  0.00     0.031 C 
ATOM     54  C   UNL A   1      39.670  27.108  27.902  1.00  0.00     0.029 A 
ATOM     55  C   UNL A   1      40.972  26.627  28.337  1.00  0.00     0.049 A 
ATOM     56  H   UNL A   1      42.052  27.279  30.003  1.00  0.00     0.167 HD
ATOM     57  C   UNL A   1      43.974  27.927  33.709  1.00  0.00     0.031 A 
ATOM     58  C   UNL A   1      41.779  25.690  27.784  1.00  0.00     0.031 A 
ATOM     59  C   UNL A   1      44.786  28.755  32.857  1.00  0.00     0.049 A 
ATOM     60  C   UNL A   1      43.154  25.911  28.281  1.00  0.00     0.074 A 
ATOM     61  C   UNL A   1      44.909  30.113  32.642  1.00  0.00     0.029 A 
ATOM     62  N   UNL A   1      45.421  28.148  31.802  1.00  0.00    -0.354 N 
ATOM     63  N   UNL A   1      43.896  26.925  27.946  1.00  0.00    -0.248 NA
ATOM     64  C   UNL A   1      43.613  25.155  29.434  1.00  0.00     0.031 C 
ATOM     65  C   UNL A   1      45.187  30.243  31.251  1.00  0.00     0.029 A 
ATOM     66  C   UNL A   1      45.266  28.958  30.710  1.00  0.00     0.049 A 
ATOM     67  H   UNL A   1      45.900  27.288  31.827  1.00  0.00     0.167 HD
ATOM     68  C   UNL A   1      44.646  27.199  29.077  1.00  0.00     0.074 A 
ATOM     69  C   UNL A   1      44.533  26.001  29.902  1.00  0.00     0.031 C 
ATOM     70  C   UNL A   1      45.054  28.472  29.362  1.00  0.00     0.031 A 
BRANCH  57  71
ATOM     71  C   UNL A   1      44.562  26.774  34.485  1.00  0.00    -0.014 A 
ATOM     72  C   UNL A   1      44.733  26.794  35.881  1.00  0.00     0.009 A 
ATOM     73  C   UNL A   1      44.696  25.524  33.851  1.00  0.00     0.009 A 
ATOM     74  C   UNL A   1      44.999  25.632  36.611  1.00  0.00     0.001 A 
ATOM     75  C   UNL A   1      44.919  24.351  34.583  1.00  0.00     0.001 A 
ATOM     76  C   UNL A   1      45.064  24.405  35.965  1.00  0.00     0.000 A 
ENDBRANCH  57  71
BRANCH  58  77
ATOM     77  C   UNL A   1      41.412  24.444  27.078  1.00  0.00    -0.014 A 
ATOM     78  C   UNL A   1      40.327  23.676  27.533  1.00  0.00     0.009 A 
ATOM     79  C   UNL A   1      42.305  23.846  26.172  1.00  0.00     0.009 A 
ATOM     80  C   UNL A   1      40.171  22.341  27.144  1.00  0.00     0.001 A 
ATOM     81  C   UNL A   1      42.152  22.508  25.786  1.00  0.00     0.001 A 
ATOM     82  C   UNL A   1      41.095  21.752  26.287  1.00  0.00     0.000 A 
ENDBRANCH  58  77
BRANCH  70  83
ATOM     83  C   UNL A   1      44.990  29.519  28.273  1.00  0.00    -0.014 A 
ATOM     84  C   UNL A   1      46.184  29.860  27.616  1.00  0.00     0.009 A 
ATOM     85  C   UNL A   1      43.841  30.275  27.989  1.00  0.00     0.009 A 
ATOM     86  C   UNL A   1      46.232  30.924  26.712  1.00  0.00     0.001 A 
ATOM     87  C   UNL A   1      43.880  31.320  27.059  1.00  0.00     0.001 A 
ATOM     88  C   UNL A   1      45.078  31.650  26.429  1.00  0.00     0.000 A 
ENDBRANCH  70  83
ENDBRANCH  44  45
ENDBRANCH  36  39
ENDBRANCH  34  35
ENDBRANCH  33  34
ENDBRANCH  32  33
ENDBRANCH   1  32
TORSDOF 15
ENDMDL
