MODEL 1
REMARK VINA RESULT:     -11.1      0.000      0.000
REMARK SMILES O=C(NCCCCCCNC(=O)[C@H]1CC(=O)N(CCc2ccc3c(c2)OCO3)C1)c1ccc(-c2c3nc(c(-c4ccccc4)c4ccc([nH]4)c(-c4ccccc4)c4nc(c(-c5ccccc5)c5ccc2[nH]5)C=C4)C=C3)cc1
REMARK SMILES IDX 7 1 6 2 5 3 4 4 3 5 1 6 2 7 30 9 31 10 77 11 32 12 76 13
REMARK SMILES IDX 33 14 34 15 35 16 70 17 36 18 75 19 69 20 71 21 37 22 74 23
REMARK SMILES IDX 68 24 67 25 38 27 60 28 45 29 59 30 46 31 49 32 58 33 72 34
REMARK SMILES IDX 47 35 48 36 57 38 73 39 50 40 39 41 40 42 44 43 41 44 43 45
REMARK SMILES IDX 42 46 61 47 62 48 66 49 63 50 65 51 64 52 51 53 52 54 56 55
REMARK SMILES IDX 53 56 55 57 54 58 8 59 9 60 10 61 11 62 12 64 13 65 14 66
REMARK SMILES IDX 29 67 15 68 17 69 16 70 18 71 19 72 20 73 21 74 25 75 22 76
REMARK SMILES IDX 24 77 23 78 26 79 28 80 27 81
REMARK H PARENT 3 8 71 26 49 37 10 63
REMARK Flexibility Score: inf
ROOT
ATOM      1  C   UNL A   1      34.869  32.604  28.728  1.00  0.00     0.002 C 
ENDROOT
BRANCH   1   2
ATOM      2  C   UNL A   1      34.468  33.993  28.218  1.00  0.00     0.002 C 
BRANCH   2   3
ATOM      3  C   UNL A   1      33.224  34.582  28.879  1.00  0.00     0.021 C 
BRANCH   3   4
ATOM      4  C   UNL A   1      33.460  35.920  29.566  1.00  0.00     0.116 C 
BRANCH   4   5
ATOM      5  N   UNL A   1      32.523  36.154  30.656  1.00  0.00    -0.352 N 
ATOM      6  O   UNL A   1      31.598  35.828  32.692  1.00  0.00    -0.269 OA
ATOM      7  C   UNL A   1      32.568  35.700  31.953  1.00  0.00     0.251 C 
ATOM      8  H   UNL A   1      31.747  36.716  30.432  1.00  0.00     0.163 HD
BRANCH   7   9
ATOM      9  C   UNL A   1      33.789  35.028  32.441  1.00  0.00     0.039 A 
ATOM     10  C   UNL A   1      35.013  35.699  32.426  1.00  0.00     0.014 A 
ATOM     11  C   UNL A   1      33.717  33.707  32.888  1.00  0.00     0.014 A 
ATOM     12  C   UNL A   1      36.184  34.997  32.676  1.00  0.00     0.010 A 
ATOM     13  C   UNL A   1      34.888  33.033  33.246  1.00  0.00     0.010 A 
ATOM     14  C   UNL A   1      36.137  33.657  33.096  1.00  0.00    -0.014 A 
BRANCH  14  15
ATOM     15  C   UNL A   1      37.408  32.949  33.398  1.00  0.00     0.031 A 
ATOM     16  C   UNL A   1      38.143  33.181  34.691  1.00  0.00     0.074 A 
ATOM     17  C   UNL A   1      37.878  32.053  32.507  1.00  0.00     0.049 A 
ATOM     18  N   UNL A   1      39.235  32.606  35.131  1.00  0.00    -0.248 NA
ATOM     19  C   UNL A   1      37.589  34.192  35.606  1.00  0.00     0.031 C 
ATOM     20  C   UNL A   1      37.255  31.736  31.219  1.00  0.00     0.029 A 
ATOM     21  N   UNL A   1      38.968  31.225  32.560  1.00  0.00    -0.354 N 
ATOM     22  C   UNL A   1      39.514  33.202  36.355  1.00  0.00     0.074 A 
ATOM     23  C   UNL A   1      38.492  34.203  36.576  1.00  0.00     0.031 C 
ATOM     24  C   UNL A   1      37.936  30.740  30.634  1.00  0.00     0.029 A 
ATOM     25  C   UNL A   1      39.082  30.401  31.468  1.00  0.00     0.049 A 
ATOM     26  H   UNL A   1      39.608  31.221  33.309  1.00  0.00     0.167 HD
ATOM     27  C   UNL A   1      40.526  32.939  37.217  1.00  0.00     0.031 A 
ATOM     28  C   UNL A   1      40.012  29.478  31.159  1.00  0.00     0.031 A 
ATOM     29  C   UNL A   1      41.544  31.944  36.992  1.00  0.00     0.049 A 
ATOM     30  C   UNL A   1      41.144  29.238  32.114  1.00  0.00     0.074 A 
ATOM     31  C   UNL A   1      42.590  31.577  37.822  1.00  0.00     0.029 A 
ATOM     32  N   UNL A   1      41.652  31.166  35.849  1.00  0.00    -0.354 N 
ATOM     33  N   UNL A   1      41.367  29.780  33.286  1.00  0.00    -0.248 NA
ATOM     34  C   UNL A   1      42.150  28.251  31.702  1.00  0.00     0.031 C 
ATOM     35  C   UNL A   1      43.367  30.626  37.154  1.00  0.00     0.029 A 
ATOM     36  C   UNL A   1      42.762  30.341  35.941  1.00  0.00     0.049 A 
ATOM     37  H   UNL A   1      41.031  31.194  35.086  1.00  0.00     0.167 HD
ATOM     38  C   UNL A   1      42.519  29.173  33.769  1.00  0.00     0.074 A 
ATOM     39  C   UNL A   1      42.936  28.211  32.768  1.00  0.00     0.031 C 
ATOM     40  C   UNL A   1      43.168  29.389  34.940  1.00  0.00     0.031 A 
BRANCH  27  41
ATOM     41  C   UNL A   1      40.611  33.772  38.470  1.00  0.00    -0.014 A 
ATOM     42  C   UNL A   1      41.343  34.970  38.512  1.00  0.00     0.009 A 
ATOM     43  C   UNL A   1      39.913  33.367  39.619  1.00  0.00     0.009 A 
ATOM     44  C   UNL A   1      41.407  35.720  39.690  1.00  0.00     0.001 A 
ATOM     45  C   UNL A   1      39.952  34.135  40.784  1.00  0.00     0.001 A 
ATOM     46  C   UNL A   1      40.708  35.305  40.823  1.00  0.00     0.000 A 
ENDBRANCH  27  41
BRANCH  28  47
ATOM     47  C   UNL A   1      39.909  28.716  29.888  1.00  0.00    -0.014 A 
ATOM     48  C   UNL A   1      40.343  29.281  28.679  1.00  0.00     0.009 A 
ATOM     49  C   UNL A   1      39.371  27.420  29.875  1.00  0.00     0.009 A 
ATOM     50  C   UNL A   1      40.211  28.576  27.482  1.00  0.00     0.001 A 
ATOM     51  C   UNL A   1      39.275  26.702  28.681  1.00  0.00     0.001 A 
ATOM     52  C   UNL A   1      39.683  27.285  27.484  1.00  0.00     0.000 A 
ENDBRANCH  28  47
BRANCH  40  53
ATOM     53  C   UNL A   1      44.365  28.523  35.227  1.00  0.00    -0.014 A 
ATOM     54  C   UNL A   1      44.233  27.237  35.774  1.00  0.00     0.009 A 
ATOM     55  C   UNL A   1      45.649  29.005  34.927  1.00  0.00     0.009 A 
ATOM     56  C   UNL A   1      45.367  26.472  36.060  1.00  0.00     0.001 A 
ATOM     57  C   UNL A   1      46.777  28.224  35.179  1.00  0.00     0.001 A 
ATOM     58  C   UNL A   1      46.637  26.964  35.759  1.00  0.00     0.000 A 
ENDBRANCH  40  53
ENDBRANCH  14  15
ENDBRANCH   7   9
ENDBRANCH   4   5
ENDBRANCH   3   4
ENDBRANCH   2   3
ENDBRANCH   1   2
BRANCH   1  59
ATOM     59  C   UNL A   1      35.754  31.794  27.769  1.00  0.00     0.021 C 
BRANCH  59  60
ATOM     60  C   UNL A   1      35.442  30.297  27.759  1.00  0.00     0.116 C 
BRANCH  60  61
ATOM     61  N   UNL A   1      34.029  30.071  27.987  1.00  0.00    -0.356 N 
ATOM     62  C   UNL A   1      33.060  29.579  27.169  1.00  0.00     0.225 C 
ATOM     63  H   UNL A   1      33.717  30.316  28.888  1.00  0.00     0.163 HD
ATOM     64  O   UNL A   1      31.916  29.537  27.623  1.00  0.00    -0.275 OA
BRANCH  62  65
ATOM     65  C   UNL A   1      33.412  29.038  25.792  1.00  0.00     0.107 C 
ATOM     66  C   UNL A   1      33.486  27.505  25.787  1.00  0.00     0.115 C 
ATOM     67  C   UNL A   1      32.363  29.370  24.744  1.00  0.00     0.133 C 
ATOM     68  C   UNL A   1      32.838  27.088  24.495  1.00  0.00     0.223 C 
ATOM     69  N   UNL A   1      32.191  28.179  23.958  1.00  0.00    -0.342 N 
ATOM     70  O   UNL A   1      32.866  25.960  24.026  1.00  0.00    -0.275 OA
BRANCH  69  71
ATOM     71  C   UNL A   1      31.414  28.156  22.721  1.00  0.00     0.124 C 
BRANCH  71  72
ATOM     72  C   UNL A   1      29.889  28.233  22.911  1.00  0.00     0.057 C 
BRANCH  72  73
ATOM     73  C   UNL A   1      29.308  29.610  22.675  1.00  0.00    -0.042 A 
ATOM     74  C   UNL A   1      29.306  30.560  23.722  1.00  0.00     0.008 A 
ATOM     75  C   UNL A   1      28.814  29.976  21.411  1.00  0.00     0.054 A 
ATOM     76  C   UNL A   1      28.897  31.879  23.501  1.00  0.00     0.051 A 
ATOM     77  C   UNL A   1      28.383  31.275  21.233  1.00  0.00     0.166 A 
ATOM     78  C   UNL A   1      28.444  32.205  22.244  1.00  0.00     0.165 A 
ATOM     79  O   UNL A   1      27.885  31.800  20.081  1.00  0.00    -0.454 OA
ATOM     80  O   UNL A   1      28.024  33.435  21.846  1.00  0.00    -0.454 OA
ATOM     81  C   UNL A   1      27.576  33.143  20.506  1.00  0.00     0.468 C 
ENDBRANCH  72  73
ENDBRANCH  71  72
ENDBRANCH  69  71
ENDBRANCH  62  65
ENDBRANCH  60  61
ENDBRANCH  59  60
ENDBRANCH   1  59
TORSDOF 16
ENDMDL
MODEL 2
REMARK VINA RESULT:     -11.1      1.855      6.621
REMARK SMILES O=C(NCCCCCCNC(=O)[C@H]1CC(=O)N(CCc2ccc3c(c2)OCO3)C1)c1ccc(-c2c3nc(c(-c4ccccc4)c4ccc([nH]4)c(-c4ccccc4)c4nc(c(-c5ccccc5)c5ccc2[nH]5)C=C4)C=C3)cc1
REMARK SMILES IDX 7 1 6 2 5 3 4 4 3 5 1 6 2 7 30 9 31 10 77 11 32 12 76 13
REMARK SMILES IDX 33 14 34 15 35 16 70 17 36 18 75 19 69 20 71 21 37 22 74 23
REMARK SMILES IDX 68 24 67 25 38 27 60 28 45 29 59 30 46 31 49 32 58 33 72 34
REMARK SMILES IDX 47 35 48 36 57 38 73 39 50 40 39 41 40 42 44 43 41 44 43 45
REMARK SMILES IDX 42 46 61 47 62 48 66 49 63 50 65 51 64 52 51 53 52 54 56 55
REMARK SMILES IDX 53 56 55 57 54 58 8 59 9 60 10 61 11 62 12 64 13 65 14 66
REMARK SMILES IDX 29 67 15 68 17 69 16 70 18 71 19 72 20 73 21 74 25 75 22 76
REMARK SMILES IDX 24 77 23 78 26 79 28 80 27 81
REMARK H PARENT 3 8 71 26 49 37 10 63
REMARK Flexibility Score: inf
ROOT
ATOM      1  C   UNL A   1      35.174  32.885  29.342  1.00  0.00     0.002 C 
ENDROOT
BRANCH   1   2
ATOM      2  C   UNL A   1      35.478  34.342  28.977  1.00  0.00     0.002 C 
BRANCH   2   3
ATOM      3  C   UNL A   1      34.264  35.269  28.988  1.00  0.00     0.021 C 
BRANCH   3   4
ATOM      4  C   UNL A   1      33.054  34.698  29.714  1.00  0.00     0.116 C 
BRANCH   4   5
ATOM      5  N   UNL A   1      32.522  35.621  30.707  1.00  0.00    -0.352 N 
ATOM      6  O   UNL A   1      32.174  36.452  32.780  1.00  0.00    -0.269 OA
ATOM      7  C   UNL A   1      32.856  35.759  32.034  1.00  0.00     0.251 C 
ATOM      8  H   UNL A   1      31.821  36.232  30.383  1.00  0.00     0.163 HD
BRANCH   7   9
ATOM      9  C   UNL A   1      34.032  35.038  32.561  1.00  0.00     0.039 A 
ATOM     10  C   UNL A   1      35.292  35.637  32.535  1.00  0.00     0.014 A 
ATOM     11  C   UNL A   1      33.881  33.740  33.055  1.00  0.00     0.014 A 
ATOM     12  C   UNL A   1      36.419  34.879  32.824  1.00  0.00     0.010 A 
ATOM     13  C   UNL A   1      35.008  33.015  33.450  1.00  0.00     0.010 A 
ATOM     14  C   UNL A   1      36.292  33.561  33.292  1.00  0.00    -0.014 A 
BRANCH  14  15
ATOM     15  C   UNL A   1      37.517  32.794  33.634  1.00  0.00     0.031 A 
ATOM     16  C   UNL A   1      38.105  31.793  32.676  1.00  0.00     0.074 A 
ATOM     17  C   UNL A   1      38.127  33.038  34.811  1.00  0.00     0.049 A 
ATOM     18  N   UNL A   1      39.198  31.079  32.798  1.00  0.00    -0.248 NA
ATOM     19  C   UNL A   1      37.375  31.555  31.421  1.00  0.00     0.031 C 
ATOM     20  C   UNL A   1      37.658  33.987  35.825  1.00  0.00     0.029 A 
ATOM     21  N   UNL A   1      39.286  32.535  35.341  1.00  0.00    -0.354 N 
ATOM     22  C   UNL A   1      39.269  30.290  31.657  1.00  0.00     0.074 A 
ATOM     23  C   UNL A   1      38.096  30.593  30.865  1.00  0.00     0.031 C 
ATOM     24  C   UNL A   1      38.551  34.043  36.822  1.00  0.00     0.029 A 
ATOM     25  C   UNL A   1      39.615  33.084  36.556  1.00  0.00     0.049 A 
ATOM     26  H   UNL A   1      39.830  31.846  34.894  1.00  0.00     0.167 HD
ATOM     27  C   UNL A   1      40.225  29.398  31.300  1.00  0.00     0.031 A 
ATOM     28  C   UNL A   1      40.652  32.837  37.377  1.00  0.00     0.031 A 
ATOM     29  C   UNL A   1      41.390  29.097  32.093  1.00  0.00     0.049 A 
ATOM     30  C   UNL A   1      41.673  31.813  36.973  1.00  0.00     0.074 A 
ATOM     31  C   UNL A   1      42.434  28.236  31.799  1.00  0.00     0.029 A 
ATOM     32  N   UNL A   1      41.659  29.638  33.341  1.00  0.00    -0.354 N 
ATOM     33  N   UNL A   1      41.747  31.109  35.870  1.00  0.00    -0.248 NA
ATOM     34  C   UNL A   1      42.757  31.557  37.929  1.00  0.00     0.031 C 
ATOM     35  C   UNL A   1      43.299  28.206  32.897  1.00  0.00     0.029 A 
ATOM     36  C   UNL A   1      42.838  29.108  33.843  1.00  0.00     0.049 A 
ATOM     37  H   UNL A   1      41.097  30.301  33.803  1.00  0.00     0.167 HD
ATOM     38  C   UNL A   1      42.907  30.353  35.984  1.00  0.00     0.074 A 
ATOM     39  C   UNL A   1      43.508  30.698  37.256  1.00  0.00     0.031 C 
ATOM     40  C   UNL A   1      43.428  29.458  35.109  1.00  0.00     0.031 A 
BRANCH  27  41
ATOM     41  C   UNL A   1      40.030  28.645  30.009  1.00  0.00    -0.014 A 
ATOM     42  C   UNL A   1      40.445  29.174  28.776  1.00  0.00     0.009 A 
ATOM     43  C   UNL A   1      39.452  27.365  30.034  1.00  0.00     0.009 A 
ATOM     44  C   UNL A   1      40.247  28.454  27.594  1.00  0.00     0.001 A 
ATOM     45  C   UNL A   1      39.286  26.635  28.856  1.00  0.00     0.001 A 
ATOM     46  C   UNL A   1      39.673  27.184  27.636  1.00  0.00     0.000 A 
ENDBRANCH  27  41
BRANCH  28  47
ATOM     47  C   UNL A   1      40.774  33.573  38.662  1.00  0.00    -0.014 A 
ATOM     48  C   UNL A   1      41.499  34.772  38.732  1.00  0.00     0.009 A 
ATOM     49  C   UNL A   1      40.170  33.077  39.828  1.00  0.00     0.009 A 
ATOM     50  C   UNL A   1      41.641  35.443  39.948  1.00  0.00     0.001 A 
ATOM     51  C   UNL A   1      40.283  33.770  41.035  1.00  0.00     0.001 A 
ATOM     52  C   UNL A   1      41.028  34.944  41.097  1.00  0.00     0.000 A 
ENDBRANCH  28  47
BRANCH  40  53
ATOM     53  C   UNL A   1      44.748  28.836  35.473  1.00  0.00    -0.014 A 
ATOM     54  C   UNL A   1      44.825  27.641  36.206  1.00  0.00     0.009 A 
ATOM     55  C   UNL A   1      45.938  29.455  35.059  1.00  0.00     0.009 A 
ATOM     56  C   UNL A   1      46.068  27.107  36.557  1.00  0.00     0.001 A 
ATOM     57  C   UNL A   1      47.177  28.901  35.379  1.00  0.00     0.001 A 
ATOM     58  C   UNL A   1      47.242  27.735  36.140  1.00  0.00     0.000 A 
ENDBRANCH  40  53
ENDBRANCH  14  15
ENDBRANCH   7   9
ENDBRANCH   4   5
ENDBRANCH   3   4
ENDBRANCH   2   3
ENDBRANCH   1   2
BRANCH   1  59
ATOM     59  C   UNL A   1      35.380  31.877  28.201  1.00  0.00     0.021 C 
BRANCH  59  60
ATOM     60  C   UNL A   1      34.100  31.542  27.436  1.00  0.00     0.116 C 
BRANCH  60  61
ATOM     61  N   UNL A   1      33.604  30.236  27.822  1.00  0.00    -0.356 N 
ATOM     62  C   UNL A   1      33.006  29.256  27.092  1.00  0.00     0.225 C 
ATOM     63  H   UNL A   1      33.719  30.022  28.776  1.00  0.00     0.163 HD
ATOM     64  O   UNL A   1      32.642  28.250  27.702  1.00  0.00    -0.275 OA
BRANCH  62  65
ATOM     65  C   UNL A   1      32.877  29.386  25.583  1.00  0.00     0.107 C 
ATOM     66  C   UNL A   1      33.685  28.308  24.848  1.00  0.00     0.115 C 
ATOM     67  C   UNL A   1      31.451  29.188  25.096  1.00  0.00     0.133 C 
ATOM     68  C   UNL A   1      32.806  27.870  23.709  1.00  0.00     0.223 C 
ATOM     69  N   UNL A   1      31.541  28.374  23.914  1.00  0.00    -0.342 N 
ATOM     70  O   UNL A   1      33.162  27.161  22.779  1.00  0.00    -0.275 OA
BRANCH  69  71
ATOM     71  C   UNL A   1      30.400  28.131  23.035  1.00  0.00     0.124 C 
BRANCH  71  72
ATOM     72  C   UNL A   1      29.357  27.142  23.585  1.00  0.00     0.057 C 
BRANCH  72  73
ATOM     73  C   UNL A   1      29.950  25.859  24.126  1.00  0.00    -0.042 A 
ATOM     74  C   UNL A   1      30.341  24.836  23.233  1.00  0.00     0.008 A 
ATOM     75  C   UNL A   1      30.164  25.690  25.505  1.00  0.00     0.054 A 
ATOM     76  C   UNL A   1      31.010  23.695  23.687  1.00  0.00     0.051 A 
ATOM     77  C   UNL A   1      30.794  24.537  25.927  1.00  0.00     0.166 A 
ATOM     78  C   UNL A   1      31.223  23.577  25.041  1.00  0.00     0.165 A 
ATOM     79  O   UNL A   1      31.086  24.213  27.217  1.00  0.00    -0.454 OA
ATOM     80  O   UNL A   1      31.867  22.550  25.657  1.00  0.00    -0.454 OA
ATOM     81  C   UNL A   1      31.684  22.912  27.041  1.00  0.00     0.468 C 
ENDBRANCH  72  73
ENDBRANCH  71  72
ENDBRANCH  69  71
ENDBRANCH  62  65
ENDBRANCH  60  61
ENDBRANCH  59  60
ENDBRANCH   1  59
TORSDOF 16
ENDMDL
MODEL 3
REMARK VINA RESULT:     -11.0      2.478      4.950
REMARK SMILES O=C(NCCCCCCNC(=O)[C@H]1CC(=O)N(CCc2ccc3c(c2)OCO3)C1)c1ccc(-c2c3nc(c(-c4ccccc4)c4ccc([nH]4)c(-c4ccccc4)c4nc(c(-c5ccccc5)c5ccc2[nH]5)C=C4)C=C3)cc1
REMARK SMILES IDX 7 1 6 2 5 3 4 4 3 5 1 6 2 7 30 9 31 10 77 11 32 12 76 13
REMARK SMILES IDX 33 14 34 15 35 16 70 17 36 18 75 19 69 20 71 21 37 22 74 23
REMARK SMILES IDX 68 24 67 25 38 27 60 28 45 29 59 30 46 31 49 32 58 33 72 34
REMARK SMILES IDX 47 35 48 36 57 38 73 39 50 40 39 41 40 42 44 43 41 44 43 45
REMARK SMILES IDX 42 46 61 47 62 48 66 49 63 50 65 51 64 52 51 53 52 54 56 55
REMARK SMILES IDX 53 56 55 57 54 58 8 59 9 60 10 61 11 62 12 64 13 65 14 66
REMARK SMILES IDX 29 67 15 68 17 69 16 70 18 71 19 72 20 73 21 74 25 75 22 76
REMARK SMILES IDX 24 77 23 78 26 79 28 80 27 81
REMARK H PARENT 3 8 71 26 49 37 10 63
REMARK Flexibility Score: inf
ROOT
ATOM      1  C   UNL A   1      34.387  32.297  29.053  1.00  0.00     0.002 C 
ENDROOT
BRANCH   1   2
ATOM      2  C   UNL A   1      34.583  33.816  28.994  1.00  0.00     0.002 C 
BRANCH   2   3
ATOM      3  C   UNL A   1      33.289  34.627  28.997  1.00  0.00     0.021 C 
BRANCH   3   4
ATOM      4  C   UNL A   1      33.411  35.989  29.665  1.00  0.00     0.116 C 
BRANCH   4   5
ATOM      5  N   UNL A   1      32.467  36.153  30.762  1.00  0.00    -0.352 N 
ATOM      6  O   UNL A   1      31.545  35.714  32.778  1.00  0.00    -0.269 OA
ATOM      7  C   UNL A   1      32.518  35.641  32.037  1.00  0.00     0.251 C 
ATOM      8  H   UNL A   1      31.679  36.708  30.561  1.00  0.00     0.163 HD
BRANCH   7   9
ATOM      9  C   UNL A   1      33.753  34.974  32.498  1.00  0.00     0.039 A 
ATOM     10  C   UNL A   1      34.968  35.661  32.489  1.00  0.00     0.014 A 
ATOM     11  C   UNL A   1      33.702  33.640  32.911  1.00  0.00     0.014 A 
ATOM     12  C   UNL A   1      36.150  34.969  32.711  1.00  0.00     0.010 A 
ATOM     13  C   UNL A   1      34.885  32.974  33.242  1.00  0.00     0.010 A 
ATOM     14  C   UNL A   1      36.124  33.618  33.097  1.00  0.00    -0.014 A 
BRANCH  14  15
ATOM     15  C   UNL A   1      37.407  32.920  33.370  1.00  0.00     0.031 A 
ATOM     16  C   UNL A   1      38.148  33.126  34.664  1.00  0.00     0.074 A 
ATOM     17  C   UNL A   1      37.884  32.056  32.451  1.00  0.00     0.049 A 
ATOM     18  N   UNL A   1      39.251  32.554  35.081  1.00  0.00    -0.248 NA
ATOM     19  C   UNL A   1      37.587  34.102  35.611  1.00  0.00     0.031 C 
ATOM     20  C   UNL A   1      37.256  31.767  31.158  1.00  0.00     0.029 A 
ATOM     21  N   UNL A   1      38.986  31.242  32.473  1.00  0.00    -0.354 N 
ATOM     22  C   UNL A   1      39.531  33.119  36.319  1.00  0.00     0.074 A 
ATOM     23  C   UNL A   1      38.497  34.099  36.575  1.00  0.00     0.031 C 
ATOM     24  C   UNL A   1      37.946  30.798  30.542  1.00  0.00     0.029 A 
ATOM     25  C   UNL A   1      39.103  30.451  31.357  1.00  0.00     0.049 A 
ATOM     26  H   UNL A   1      39.631  31.227  33.217  1.00  0.00     0.167 HD
ATOM     27  C   UNL A   1      40.553  32.846  37.166  1.00  0.00     0.031 A 
ATOM     28  C   UNL A   1      40.043  29.551  31.016  1.00  0.00     0.031 A 
ATOM     29  C   UNL A   1      41.583  31.873  36.906  1.00  0.00     0.049 A 
ATOM     30  C   UNL A   1      41.186  29.300  31.956  1.00  0.00     0.074 A 
ATOM     31  C   UNL A   1      42.640  31.497  37.718  1.00  0.00     0.029 A 
ATOM     32  N   UNL A   1      41.693  31.128  35.740  1.00  0.00    -0.354 N 
ATOM     33  N   UNL A   1      41.409  29.812  33.141  1.00  0.00    -0.248 NA
ATOM     34  C   UNL A   1      42.202  28.339  31.510  1.00  0.00     0.031 C 
ATOM     35  C   UNL A   1      43.425  30.576  37.018  1.00  0.00     0.029 A 
ATOM     36  C   UNL A   1      42.816  30.317  35.801  1.00  0.00     0.049 A 
ATOM     37  H   UNL A   1      41.067  31.169  34.983  1.00  0.00     0.167 HD
ATOM     38  C   UNL A   1      42.573  29.207  33.599  1.00  0.00     0.074 A 
ATOM     39  C   UNL A   1      42.996  28.281  32.568  1.00  0.00     0.031 C 
ATOM     40  C   UNL A   1      43.228  29.399  34.771  1.00  0.00     0.031 A 
BRANCH  27  41
ATOM     41  C   UNL A   1      40.636  33.645  38.441  1.00  0.00    -0.014 A 
ATOM     42  C   UNL A   1      40.030  33.204  39.629  1.00  0.00     0.009 A 
ATOM     43  C   UNL A   1      41.366  34.844  38.461  1.00  0.00     0.009 A 
ATOM     44  C   UNL A   1      40.120  33.968  40.797  1.00  0.00     0.001 A 
ATOM     45  C   UNL A   1      41.482  35.589  39.636  1.00  0.00     0.001 A 
ATOM     46  C   UNL A   1      40.849  35.156  40.800  1.00  0.00     0.000 A 
ENDBRANCH  27  41
BRANCH  28  47
ATOM     47  C   UNL A   1      39.941  28.823  29.724  1.00  0.00    -0.014 A 
ATOM     48  C   UNL A   1      39.409  27.526  29.676  1.00  0.00     0.009 A 
ATOM     49  C   UNL A   1      40.381  29.420  28.533  1.00  0.00     0.009 A 
ATOM     50  C   UNL A   1      39.347  26.832  28.466  1.00  0.00     0.001 A 
ATOM     51  C   UNL A   1      40.283  28.737  27.319  1.00  0.00     0.001 A 
ATOM     52  C   UNL A   1      39.779  27.440  27.288  1.00  0.00     0.000 A 
ENDBRANCH  28  47
BRANCH  40  53
ATOM     53  C   UNL A   1      44.438  28.543  35.025  1.00  0.00    -0.014 A 
ATOM     54  C   UNL A   1      45.739  29.011  34.782  1.00  0.00     0.009 A 
ATOM     55  C   UNL A   1      44.268  27.246  35.533  1.00  0.00     0.009 A 
ATOM     56  C   UNL A   1      46.841  28.179  34.997  1.00  0.00     0.001 A 
ATOM     57  C   UNL A   1      45.372  26.429  35.782  1.00  0.00     0.001 A 
ATOM     58  C   UNL A   1      46.656  26.891  35.501  1.00  0.00     0.000 A 
ENDBRANCH  40  53
ENDBRANCH  14  15
ENDBRANCH   7   9
ENDBRANCH   4   5
ENDBRANCH   3   4
ENDBRANCH   2   3
ENDBRANCH   1   2
BRANCH   1  59
ATOM     59  C   UNL A   1      34.515  31.576  27.704  1.00  0.00     0.021 C 
BRANCH  59  60
ATOM     60  C   UNL A   1      33.331  30.666  27.376  1.00  0.00     0.116 C 
BRANCH  60  61
ATOM     61  N   UNL A   1      33.391  30.231  25.995  1.00  0.00    -0.356 N 
ATOM     62  C   UNL A   1      33.348  28.985  25.449  1.00  0.00     0.225 C 
ATOM     63  H   UNL A   1      33.477  30.961  25.340  1.00  0.00     0.163 HD
ATOM     64  O   UNL A   1      33.466  28.909  24.226  1.00  0.00    -0.275 OA
BRANCH  62  65
ATOM     65  C   UNL A   1      33.086  27.768  26.321  1.00  0.00     0.107 C 
ATOM     66  C   UNL A   1      31.599  27.389  26.337  1.00  0.00     0.115 C 
ATOM     67  C   UNL A   1      33.789  26.519  25.814  1.00  0.00     0.133 C 
ATOM     68  C   UNL A   1      31.578  25.887  26.268  1.00  0.00     0.223 C 
ATOM     69  N   UNL A   1      32.841  25.446  25.941  1.00  0.00    -0.342 N 
ATOM     70  O   UNL A   1      30.591  25.189  26.449  1.00  0.00    -0.275 OA
BRANCH  69  71
ATOM     71  C   UNL A   1      33.205  24.045  25.747  1.00  0.00     0.124 C 
BRANCH  71  72
ATOM     72  C   UNL A   1      34.160  23.780  24.570  1.00  0.00     0.057 C 
BRANCH  72  73
ATOM     73  C   UNL A   1      35.475  23.149  24.974  1.00  0.00    -0.042 A 
ATOM     74  C   UNL A   1      35.782  21.835  24.552  1.00  0.00     0.008 A 
ATOM     75  C   UNL A   1      36.420  23.871  25.722  1.00  0.00     0.054 A 
ATOM     76  C   UNL A   1      37.038  21.272  24.796  1.00  0.00     0.051 A 
ATOM     77  C   UNL A   1      37.639  23.276  25.978  1.00  0.00     0.166 A 
ATOM     78  C   UNL A   1      37.945  22.019  25.510  1.00  0.00     0.165 A 
ATOM     79  O   UNL A   1      38.667  23.829  26.677  1.00  0.00    -0.454 OA
ATOM     80  O   UNL A   1      39.213  21.642  25.825  1.00  0.00    -0.454 OA
ATOM     81  C   UNL A   1      39.624  22.750  26.651  1.00  0.00     0.468 C 
ENDBRANCH  72  73
ENDBRANCH  71  72
ENDBRANCH  69  71
ENDBRANCH  62  65
ENDBRANCH  60  61
ENDBRANCH  59  60
ENDBRANCH   1  59
TORSDOF 16
ENDMDL
