MODEL 1
REMARK VINA RESULT:     -11.0      0.000      0.000
REMARK SMILES O=C(NCCCCCCNC(=O)[C@@H](Cc1ccccc1)NS(=O)(=O)c1ccccc1C(F)(F)F)c1ccc(-c2c3nc(c(-c4ccccc4)c4ccc([nH]4)c(-c4ccccc4)c4nc(c(-c5ccccc5)c5ccc2[nH]5)C=C4)C=C3)cc1
REMARK SMILES IDX 7 1 6 2 5 3 4 4 3 5 1 6 2 7 35 9 36 10 82 11 37 12 81 13
REMARK SMILES IDX 38 14 39 15 40 16 75 17 41 18 80 19 74 20 76 21 42 22 79 23
REMARK SMILES IDX 73 24 72 25 43 27 65 28 50 29 64 30 51 31 54 32 63 33 77 34
REMARK SMILES IDX 52 35 53 36 62 38 78 39 55 40 44 41 45 42 49 43 46 44 48 45
REMARK SMILES IDX 47 46 66 47 67 48 71 49 68 50 70 51 69 52 56 53 57 54 61 55
REMARK SMILES IDX 58 56 60 57 59 58 8 59 9 60 10 61 11 62 12 64 13 65 14 66
REMARK SMILES IDX 15 67 16 68 20 69 17 70 19 71 18 72 21 73 22 75 23 76 24 77
REMARK SMILES IDX 25 78 26 79 30 80 27 81 29 82 28 83 31 84 32 85 33 86 34 87
REMARK H PARENT 3 8 76 26 54 37 10 63 21 74
REMARK Flexibility Score: inf
ROOT
ATOM      1  C   UNL A   1      33.305  28.826  24.380  1.00  0.00     0.002 C 
ENDROOT
BRANCH   1   2
ATOM      2  C   UNL A   1      31.987  28.738  25.163  1.00  0.00     0.002 C 
BRANCH   2   3
ATOM      3  C   UNL A   1      32.124  28.600  26.682  1.00  0.00     0.021 C 
BRANCH   3   4
ATOM      4  C   UNL A   1      33.510  28.924  27.232  1.00  0.00     0.116 C 
BRANCH   4   5
ATOM      5  N   UNL A   1      33.594  30.297  27.708  1.00  0.00    -0.352 N 
ATOM      6  O   UNL A   1      34.363  32.012  28.948  1.00  0.00    -0.269 OA
ATOM      7  C   UNL A   1      34.581  30.921  28.428  1.00  0.00     0.251 C 
ATOM      8  H   UNL A   1      32.825  30.865  27.477  1.00  0.00     0.163 HD
BRANCH   7   9
ATOM      9  C   UNL A   1      35.914  30.296  28.576  1.00  0.00     0.039 A 
ATOM     10  C   UNL A   1      36.844  30.346  27.534  1.00  0.00     0.014 A 
ATOM     11  C   UNL A   1      36.273  29.735  29.805  1.00  0.00     0.014 A 
ATOM     12  C   UNL A   1      38.094  29.757  27.688  1.00  0.00     0.010 A 
ATOM     13  C   UNL A   1      37.557  29.211  29.986  1.00  0.00     0.010 A 
ATOM     14  C   UNL A   1      38.477  29.218  28.928  1.00  0.00    -0.014 A 
BRANCH  14  15
ATOM     15  C   UNL A   1      39.886  28.802  29.128  1.00  0.00     0.031 A 
ATOM     16  C   UNL A   1      40.901  29.723  29.742  1.00  0.00     0.074 A 
ATOM     17  C   UNL A   1      40.240  27.558  28.746  1.00  0.00     0.049 A 
ATOM     18  N   UNL A   1      42.165  29.494  29.997  1.00  0.00    -0.248 NA
ATOM     19  C   UNL A   1      40.446  31.072  30.112  1.00  0.00     0.031 C 
ATOM     20  C   UNL A   1      39.342  26.582  28.119  1.00  0.00     0.029 A 
ATOM     21  N   UNL A   1      41.436  26.895  28.836  1.00  0.00    -0.354 N 
ATOM     22  C   UNL A   1      42.662  30.671  30.542  1.00  0.00     0.074 A 
ATOM     23  C   UNL A   1      41.569  31.619  30.567  1.00  0.00     0.031 C 
ATOM     24  C   UNL A   1      40.009  25.436  27.919  1.00  0.00     0.029 A 
ATOM     25  C   UNL A   1      41.391  25.614  28.341  1.00  0.00     0.049 A 
ATOM     26  H   UNL A   1      42.250  27.298  29.219  1.00  0.00     0.167 HD
ATOM     27  C   UNL A   1      43.916  30.930  30.981  1.00  0.00     0.031 A 
ATOM     28  C   UNL A   1      42.360  24.689  28.217  1.00  0.00     0.031 A 
ATOM     29  C   UNL A   1      45.000  29.980  30.954  1.00  0.00     0.049 A 
ATOM     30  C   UNL A   1      43.747  25.024  28.681  1.00  0.00     0.074 A 
ATOM     31  C   UNL A   1      46.292  30.137  31.427  1.00  0.00     0.029 A 
ATOM     32  N   UNL A   1      44.923  28.705  30.416  1.00  0.00    -0.354 N 
ATOM     33  N   UNL A   1      44.181  26.119  29.255  1.00  0.00    -0.248 NA
ATOM     34  C   UNL A   1      44.776  23.996  28.478  1.00  0.00     0.031 C 
ATOM     35  C   UNL A   1      47.014  28.979  31.121  1.00  0.00     0.029 A 
ATOM     36  C   UNL A   1      46.155  28.079  30.511  1.00  0.00     0.049 A 
ATOM     37  H   UNL A   1      44.113  28.304  30.026  1.00  0.00     0.167 HD
ATOM     38  C   UNL A   1      45.532  25.908  29.491  1.00  0.00     0.074 A 
ATOM     39  C   UNL A   1      45.836  24.570  29.028  1.00  0.00     0.031 C 
ATOM     40  C   UNL A   1      46.442  26.751  30.036  1.00  0.00     0.031 A 
BRANCH  27  41
ATOM     41  C   UNL A   1      44.210  32.306  31.512  1.00  0.00    -0.014 A 
ATOM     42  C   UNL A   1      44.032  32.618  32.867  1.00  0.00     0.009 A 
ATOM     43  C   UNL A   1      44.763  33.274  30.657  1.00  0.00     0.009 A 
ATOM     44  C   UNL A   1      44.389  33.879  33.354  1.00  0.00     0.001 A 
ATOM     45  C   UNL A   1      45.139  34.524  31.151  1.00  0.00     0.001 A 
ATOM     46  C   UNL A   1      44.949  34.827  32.498  1.00  0.00     0.000 A 
ENDBRANCH  27  41
BRANCH  28  47
ATOM     47  C   UNL A   1      42.062  23.375  27.588  1.00  0.00    -0.014 A 
ATOM     48  C   UNL A   1      41.479  22.339  28.331  1.00  0.00     0.009 A 
ATOM     49  C   UNL A   1      42.379  23.149  26.239  1.00  0.00     0.009 A 
ATOM     50  C   UNL A   1      41.249  21.092  27.744  1.00  0.00     0.001 A 
ATOM     51  C   UNL A   1      42.116  21.913  25.645  1.00  0.00     0.001 A 
ATOM     52  C   UNL A   1      41.563  20.882  26.401  1.00  0.00     0.000 A 
ENDBRANCH  28  47
BRANCH  40  53
ATOM     53  C   UNL A   1      47.846  26.237  30.171  1.00  0.00    -0.014 A 
ATOM     54  C   UNL A   1      48.311  25.712  31.386  1.00  0.00     0.009 A 
ATOM     55  C   UNL A   1      48.707  26.259  29.063  1.00  0.00     0.009 A 
ATOM     56  C   UNL A   1      49.625  25.253  31.500  1.00  0.00     0.001 A 
ATOM     57  C   UNL A   1      50.009  25.771  29.171  1.00  0.00     0.001 A 
ATOM     58  C   UNL A   1      50.470  25.279  30.391  1.00  0.00     0.000 A 
ENDBRANCH  40  53
ENDBRANCH  14  15
ENDBRANCH   7   9
ENDBRANCH   4   5
ENDBRANCH   3   4
ENDBRANCH   2   3
ENDBRANCH   1   2
BRANCH   1  59
ATOM     59  C   UNL A   1      33.325  28.091  23.034  1.00  0.00     0.021 C 
BRANCH  59  60
ATOM     60  C   UNL A   1      32.300  26.959  22.919  1.00  0.00     0.116 C 
BRANCH  60  61
ATOM     61  N   UNL A   1      32.823  25.821  22.193  1.00  0.00    -0.355 N 
ATOM     62  C   UNL A   1      33.419  24.673  22.599  1.00  0.00     0.238 C 
ATOM     63  H   UNL A   1      32.728  25.894  21.216  1.00  0.00     0.163 HD
ATOM     64  O   UNL A   1      33.656  23.845  21.708  1.00  0.00    -0.273 OA
BRANCH  62  65
ATOM     65  C   UNL A   1      33.776  24.327  24.053  1.00  0.00     0.163 C 
BRANCH  65  66
ATOM     66  C   UNL A   1      35.225  24.646  24.465  1.00  0.00     0.065 C 
BRANCH  66  67
ATOM     67  C   UNL A   1      36.275  23.617  24.833  1.00  0.00    -0.046 A 
ATOM     68  C   UNL A   1      37.258  23.770  25.816  1.00  0.00     0.004 A 
ATOM     69  C   UNL A   1      36.218  22.382  24.160  1.00  0.00     0.004 A 
ATOM     70  C   UNL A   1      38.205  22.771  26.056  1.00  0.00     0.000 A 
ATOM     71  C   UNL A   1      37.143  21.369  24.421  1.00  0.00     0.000 A 
ATOM     72  C   UNL A   1      38.152  21.572  25.356  1.00  0.00     0.000 A 
ENDBRANCH  66  67
ENDBRANCH  65  66
BRANCH  65  73
ATOM     73  N   UNL A   1      32.729  24.696  25.020  1.00  0.00    -0.198 NA
ATOM     74  H   UNL A   1      32.266  25.528  24.653  1.00  0.00     0.142 HD
BRANCH  73  75
ATOM     75  S   UNL A   1      31.519  23.588  25.396  1.00  0.00     0.241 S 
ATOM     76  O   UNL A   1      31.221  23.717  26.803  1.00  0.00    -0.207 OA
ATOM     77  O   UNL A   1      30.483  23.706  24.395  1.00  0.00    -0.207 OA
BRANCH  75  78
ATOM     78  C   UNL A   1      32.301  22.003  25.152  1.00  0.00     0.094 A 
ATOM     79  C   UNL A   1      32.013  21.317  23.957  1.00  0.00     0.022 A 
ATOM     80  C   UNL A   1      33.196  21.461  26.092  1.00  0.00     0.076 A 
ATOM     81  C   UNL A   1      32.602  20.083  23.692  1.00  0.00     0.001 A 
ATOM     82  C   UNL A   1      33.786  20.215  25.790  1.00  0.00     0.014 A 
ATOM     83  C   UNL A   1      33.489  19.532  24.609  1.00  0.00     0.001 A 
BRANCH  80  84
ATOM     84  C   UNL A   1      33.604  22.123  27.386  1.00  0.00     0.417 C 
ATOM     85  F   UNL A   1      34.625  21.448  27.995  1.00  0.00    -0.166 F 
ATOM     86  F   UNL A   1      34.067  23.388  27.203  1.00  0.00    -0.166 F 
ATOM     87  F   UNL A   1      32.640  22.193  28.343  1.00  0.00    -0.166 F 
ENDBRANCH  80  84
ENDBRANCH  75  78
ENDBRANCH  73  75
ENDBRANCH  65  73
ENDBRANCH  62  65
ENDBRANCH  60  61
ENDBRANCH  59  60
ENDBRANCH   1  59
TORSDOF 19
ENDMDL
MODEL 2
REMARK VINA RESULT:     -10.9      0.690      5.742
REMARK SMILES O=C(NCCCCCCNC(=O)[C@@H](Cc1ccccc1)NS(=O)(=O)c1ccccc1C(F)(F)F)c1ccc(-c2c3nc(c(-c4ccccc4)c4ccc([nH]4)c(-c4ccccc4)c4nc(c(-c5ccccc5)c5ccc2[nH]5)C=C4)C=C3)cc1
REMARK SMILES IDX 7 1 6 2 5 3 4 4 3 5 1 6 2 7 35 9 36 10 82 11 37 12 81 13
REMARK SMILES IDX 38 14 39 15 40 16 75 17 41 18 80 19 74 20 76 21 42 22 79 23
REMARK SMILES IDX 73 24 72 25 43 27 65 28 50 29 64 30 51 31 54 32 63 33 77 34
REMARK SMILES IDX 52 35 53 36 62 38 78 39 55 40 44 41 45 42 49 43 46 44 48 45
REMARK SMILES IDX 47 46 66 47 67 48 71 49 68 50 70 51 69 52 56 53 57 54 61 55
REMARK SMILES IDX 58 56 60 57 59 58 8 59 9 60 10 61 11 62 12 64 13 65 14 66
REMARK SMILES IDX 15 67 16 68 20 69 17 70 19 71 18 72 21 73 22 75 23 76 24 77
REMARK SMILES IDX 25 78 26 79 30 80 27 81 29 82 28 83 31 84 32 85 33 86 34 87
REMARK H PARENT 3 8 76 26 54 37 10 63 21 74
REMARK Flexibility Score: inf
ROOT
ATOM      1  C   UNL A   1      32.779  28.816  24.634  1.00  0.00     0.002 C 
ENDROOT
BRANCH   1   2
ATOM      2  C   UNL A   1      31.719  28.416  25.670  1.00  0.00     0.002 C 
BRANCH   2   3
ATOM      3  C   UNL A   1      32.132  28.571  27.136  1.00  0.00     0.021 C 
BRANCH   3   4
ATOM      4  C   UNL A   1      33.594  28.950  27.354  1.00  0.00     0.116 C 
BRANCH   4   5
ATOM      5  N   UNL A   1      33.730  30.310  27.854  1.00  0.00    -0.352 N 
ATOM      6  O   UNL A   1      34.590  31.980  29.096  1.00  0.00    -0.269 OA
ATOM      7  C   UNL A   1      34.760  30.895  28.546  1.00  0.00     0.251 C 
ATOM      8  H   UNL A   1      32.966  30.901  27.666  1.00  0.00     0.163 HD
BRANCH   7   9
ATOM      9  C   UNL A   1      36.083  30.236  28.625  1.00  0.00     0.039 A 
ATOM     10  C   UNL A   1      36.980  30.308  27.557  1.00  0.00     0.014 A 
ATOM     11  C   UNL A   1      36.467  29.619  29.820  1.00  0.00     0.014 A 
ATOM     12  C   UNL A   1      38.221  29.687  27.647  1.00  0.00     0.010 A 
ATOM     13  C   UNL A   1      37.744  29.061  29.938  1.00  0.00     0.010 A 
ATOM     14  C   UNL A   1      38.630  29.090  28.852  1.00  0.00    -0.014 A 
BRANCH  14  15
ATOM     15  C   UNL A   1      40.036  28.636  28.990  1.00  0.00     0.031 A 
ATOM     16  C   UNL A   1      40.467  27.265  28.555  1.00  0.00     0.074 A 
ATOM     17  C   UNL A   1      40.931  29.495  29.517  1.00  0.00     0.049 A 
ATOM     18  N   UNL A   1      41.663  26.733  28.596  1.00  0.00    -0.248 NA
ATOM     19  C   UNL A   1      39.430  26.375  28.011  1.00  0.00     0.031 C 
ATOM     20  C   UNL A   1      40.620  30.848  29.993  1.00  0.00     0.029 A 
ATOM     21  N   UNL A   1      42.279  29.372  29.731  1.00  0.00    -0.354 N 
ATOM     22  C   UNL A   1      41.522  25.444  28.099  1.00  0.00     0.074 A 
ATOM     23  C   UNL A   1      40.123  25.265  27.778  1.00  0.00     0.031 C 
ATOM     24  C   UNL A   1      41.751  31.440  30.405  1.00  0.00     0.029 A 
ATOM     25  C   UNL A   1      42.851  30.493  30.283  1.00  0.00     0.049 A 
ATOM     26  H   UNL A   1      42.788  28.558  29.510  1.00  0.00     0.167 HD
ATOM     27  C   UNL A   1      42.478  24.499  27.928  1.00  0.00     0.031 A 
ATOM     28  C   UNL A   1      44.117  30.728  30.673  1.00  0.00     0.031 A 
ATOM     29  C   UNL A   1      43.871  24.684  28.250  1.00  0.00     0.049 A 
ATOM     30  C   UNL A   1      45.141  29.646  30.502  1.00  0.00     0.074 A 
ATOM     31  C   UNL A   1      44.921  23.801  28.061  1.00  0.00     0.029 A 
ATOM     32  N   UNL A   1      44.404  25.820  28.837  1.00  0.00    -0.354 N 
ATOM     33  N   UNL A   1      45.002  28.456  29.969  1.00  0.00    -0.248 NA
ATOM     34  C   UNL A   1      46.496  29.938  30.989  1.00  0.00     0.031 C 
ATOM     35  C   UNL A   1      46.080  24.380  28.589  1.00  0.00     0.029 A 
ATOM     36  C   UNL A   1      45.761  25.646  29.053  1.00  0.00     0.049 A 
ATOM     37  H   UNL A   1      43.895  26.631  29.066  1.00  0.00     0.167 HD
ATOM     38  C   UNL A   1      46.253  27.862  30.046  1.00  0.00     0.074 A 
ATOM     39  C   UNL A   1      47.144  28.834  30.648  1.00  0.00     0.031 C 
ATOM     40  C   UNL A   1      46.630  26.619  29.661  1.00  0.00     0.031 A 
BRANCH  27  41
ATOM     41  C   UNL A   1      42.060  23.159  27.389  1.00  0.00    -0.014 A 
ATOM     42  C   UNL A   1      42.477  22.720  26.124  1.00  0.00     0.009 A 
ATOM     43  C   UNL A   1      41.317  22.287  28.202  1.00  0.00     0.009 A 
ATOM     44  C   UNL A   1      42.145  21.438  25.678  1.00  0.00     0.001 A 
ATOM     45  C   UNL A   1      41.006  20.999  27.762  1.00  0.00     0.001 A 
ATOM     46  C   UNL A   1      41.417  20.577  26.499  1.00  0.00     0.000 A 
ENDBRANCH  27  41
BRANCH  28  47
ATOM     47  C   UNL A   1      44.475  32.026  31.303  1.00  0.00    -0.014 A 
ATOM     48  C   UNL A   1      44.933  33.099  30.526  1.00  0.00     0.009 A 
ATOM     49  C   UNL A   1      44.375  32.187  32.695  1.00  0.00     0.009 A 
ATOM     50  C   UNL A   1      45.314  34.298  31.134  1.00  0.00     0.001 A 
ATOM     51  C   UNL A   1      44.724  33.398  33.296  1.00  0.00     0.001 A 
ATOM     52  C   UNL A   1      45.205  34.448  32.516  1.00  0.00     0.000 A 
ENDBRANCH  28  47
BRANCH  40  53
ATOM     53  C   UNL A   1      48.071  26.254  29.868  1.00  0.00    -0.014 A 
ATOM     54  C   UNL A   1      49.026  26.476  28.863  1.00  0.00     0.009 A 
ATOM     55  C   UNL A   1      48.482  25.699  31.089  1.00  0.00     0.009 A 
ATOM     56  C   UNL A   1      50.360  26.115  29.065  1.00  0.00     0.001 A 
ATOM     57  C   UNL A   1      49.821  25.368  31.300  1.00  0.00     0.001 A 
ATOM     58  C   UNL A   1      50.756  25.566  30.284  1.00  0.00     0.000 A 
ENDBRANCH  40  53
ENDBRANCH  14  15
ENDBRANCH   7   9
ENDBRANCH   4   5
ENDBRANCH   3   4
ENDBRANCH   2   3
ENDBRANCH   1   2
BRANCH   1  59
ATOM     59  C   UNL A   1      32.301  28.847  23.176  1.00  0.00     0.021 C 
BRANCH  59  60
ATOM     60  C   UNL A   1      31.514  27.606  22.745  1.00  0.00     0.116 C 
BRANCH  60  61
ATOM     61  N   UNL A   1      32.275  26.763  21.846  1.00  0.00    -0.355 N 
ATOM     62  C   UNL A   1      32.964  25.611  22.037  1.00  0.00     0.238 C 
ATOM     63  H   UNL A   1      32.296  27.089  20.918  1.00  0.00     0.163 HD
ATOM     64  O   UNL A   1      33.421  25.082  21.014  1.00  0.00    -0.273 OA
BRANCH  62  65
ATOM     65  C   UNL A   1      33.175  24.920  23.393  1.00  0.00     0.163 C 
BRANCH  65  66
ATOM     66  C   UNL A   1      34.534  25.195  24.063  1.00  0.00     0.065 C 
BRANCH  66  67
ATOM     67  C   UNL A   1      35.556  24.138  24.431  1.00  0.00    -0.046 A 
ATOM     68  C   UNL A   1      36.187  24.011  25.673  1.00  0.00     0.004 A 
ATOM     69  C   UNL A   1      35.852  23.172  23.452  1.00  0.00     0.004 A 
ATOM     70  C   UNL A   1      37.144  23.019  25.901  1.00  0.00     0.000 A 
ATOM     71  C   UNL A   1      36.784  22.159  23.688  1.00  0.00     0.000 A 
ATOM     72  C   UNL A   1      37.447  22.095  24.908  1.00  0.00     0.000 A 
ENDBRANCH  66  67
ENDBRANCH  65  66
BRANCH  65  73
ATOM     73  N   UNL A   1      31.995  24.973  24.271  1.00  0.00    -0.198 NA
ATOM     74  H   UNL A   1      31.401  25.727  23.926  1.00  0.00     0.142 HD
BRANCH  73  75
ATOM     75  S   UNL A   1      31.015  23.613  24.429  1.00  0.00     0.241 S 
ATOM     76  O   UNL A   1      30.220  23.776  25.624  1.00  0.00    -0.207 OA
ATOM     77  O   UNL A   1      30.401  23.357  23.147  1.00  0.00    -0.207 OA
BRANCH  75  78
ATOM     78  C   UNL A   1      32.172  22.288  24.727  1.00  0.00     0.094 A 
ATOM     79  C   UNL A   1      32.391  21.374  23.679  1.00  0.00     0.022 A 
ATOM     80  C   UNL A   1      32.869  22.164  25.943  1.00  0.00     0.076 A 
ATOM     81  C   UNL A   1      33.293  20.324  23.835  1.00  0.00     0.001 A 
ATOM     82  C   UNL A   1      33.786  21.099  26.067  1.00  0.00     0.014 A 
ATOM     83  C   UNL A   1      33.991  20.187  25.028  1.00  0.00     0.001 A 
BRANCH  80  84
ATOM     84  C   UNL A   1      32.740  23.105  27.118  1.00  0.00     0.417 C 
ATOM     85  F   UNL A   1      33.518  22.704  28.168  1.00  0.00    -0.166 F 
ATOM     86  F   UNL A   1      33.151  24.367  26.824  1.00  0.00    -0.166 F 
ATOM     87  F   UNL A   1      31.495  23.212  27.654  1.00  0.00    -0.166 F 
ENDBRANCH  80  84
ENDBRANCH  75  78
ENDBRANCH  73  75
ENDBRANCH  65  73
ENDBRANCH  62  65
ENDBRANCH  60  61
ENDBRANCH  59  60
ENDBRANCH   1  59
TORSDOF 19
ENDMDL
MODEL 3
REMARK VINA RESULT:     -10.8      2.292      6.532
REMARK SMILES O=C(NCCCCCCNC(=O)[C@@H](Cc1ccccc1)NS(=O)(=O)c1ccccc1C(F)(F)F)c1ccc(-c2c3nc(c(-c4ccccc4)c4ccc([nH]4)c(-c4ccccc4)c4nc(c(-c5ccccc5)c5ccc2[nH]5)C=C4)C=C3)cc1
REMARK SMILES IDX 7 1 6 2 5 3 4 4 3 5 1 6 2 7 35 9 36 10 82 11 37 12 81 13
REMARK SMILES IDX 38 14 39 15 40 16 75 17 41 18 80 19 74 20 76 21 42 22 79 23
REMARK SMILES IDX 73 24 72 25 43 27 65 28 50 29 64 30 51 31 54 32 63 33 77 34
REMARK SMILES IDX 52 35 53 36 62 38 78 39 55 40 44 41 45 42 49 43 46 44 48 45
REMARK SMILES IDX 47 46 66 47 67 48 71 49 68 50 70 51 69 52 56 53 57 54 61 55
REMARK SMILES IDX 58 56 60 57 59 58 8 59 9 60 10 61 11 62 12 64 13 65 14 66
REMARK SMILES IDX 15 67 16 68 20 69 17 70 19 71 18 72 21 73 22 75 23 76 24 77
REMARK SMILES IDX 25 78 26 79 30 80 27 81 29 82 28 83 31 84 32 85 33 86 34 87
REMARK H PARENT 3 8 76 26 54 37 10 63 21 74
REMARK Flexibility Score: inf
ROOT
ATOM      1  C   UNL A   1      33.029  29.270  25.693  1.00  0.00     0.002 C 
ENDROOT
BRANCH   1   2
ATOM      2  C   UNL A   1      31.578  29.765  25.769  1.00  0.00     0.002 C 
BRANCH   2   3
ATOM      3  C   UNL A   1      31.394  31.219  26.214  1.00  0.00     0.021 C 
BRANCH   3   4
ATOM      4  C   UNL A   1      32.532  31.778  27.063  1.00  0.00     0.116 C 
BRANCH   4   5
ATOM      5  N   UNL A   1      32.326  33.182  27.384  1.00  0.00    -0.352 N 
ATOM      6  O   UNL A   1      32.540  35.086  28.568  1.00  0.00    -0.269 OA
ATOM      7  C   UNL A   1      33.013  34.000  28.245  1.00  0.00     0.251 C 
ATOM      8  H   UNL A   1      31.578  33.613  26.910  1.00  0.00     0.163 HD
BRANCH   7   9
ATOM      9  C   UNL A   1      34.330  33.589  28.782  1.00  0.00     0.039 A 
ATOM     10  C   UNL A   1      34.418  32.842  29.959  1.00  0.00     0.014 A 
ATOM     11  C   UNL A   1      35.485  33.874  28.047  1.00  0.00     0.014 A 
ATOM     12  C   UNL A   1      35.663  32.460  30.449  1.00  0.00     0.010 A 
ATOM     13  C   UNL A   1      36.730  33.424  28.500  1.00  0.00     0.010 A 
ATOM     14  C   UNL A   1      36.827  32.714  29.705  1.00  0.00    -0.014 A 
BRANCH  14  15
ATOM     15  C   UNL A   1      38.107  32.103  30.139  1.00  0.00     0.031 A 
ATOM     16  C   UNL A   1      38.589  30.798  29.574  1.00  0.00     0.074 A 
ATOM     17  C   UNL A   1      38.841  32.756  31.062  1.00  0.00     0.049 A 
ATOM     18  N   UNL A   1      39.694  30.149  29.842  1.00  0.00    -0.248 NA
ATOM     19  C   UNL A   1      37.723  30.131  28.589  1.00  0.00     0.031 C 
ATOM     20  C   UNL A   1      38.462  34.023  31.697  1.00  0.00     0.029 A 
ATOM     21  N   UNL A   1      40.058  32.460  31.619  1.00  0.00    -0.354 N 
ATOM     22  C   UNL A   1      39.652  28.993  29.074  1.00  0.00     0.074 A 
ATOM     23  C   UNL A   1      38.405  29.019  28.340  1.00  0.00     0.031 C 
ATOM     24  C   UNL A   1      39.443  34.412  32.524  1.00  0.00     0.029 A 
ATOM     25  C   UNL A   1      40.488  33.397  32.527  1.00  0.00     0.049 A 
ATOM     26  H   UNL A   1      40.574  31.653  31.390  1.00  0.00     0.167 HD
ATOM     27  C   UNL A   1      40.574  28.004  28.991  1.00  0.00     0.031 A 
ATOM     28  C   UNL A   1      41.589  33.428  33.299  1.00  0.00     0.031 A 
ATOM     29  C   UNL A   1      41.814  27.985  29.724  1.00  0.00     0.049 A 
ATOM     30  C   UNL A   1      42.571  32.298  33.207  1.00  0.00     0.074 A 
ATOM     31  C   UNL A   1      42.834  27.050  29.664  1.00  0.00     0.029 A 
ATOM     32  N   UNL A   1      42.198  28.935  30.657  1.00  0.00    -0.354 N 
ATOM     33  N   UNL A   1      42.545  31.246  32.426  1.00  0.00    -0.248 NA
ATOM     34  C   UNL A   1      43.731  32.357  34.106  1.00  0.00     0.031 C 
ATOM     35  C   UNL A   1      43.807  27.402  30.604  1.00  0.00     0.029 A 
ATOM     36  C   UNL A   1      43.421  28.588  31.207  1.00  0.00     0.049 A 
ATOM     37  H   UNL A   1      41.679  29.737  30.893  1.00  0.00     0.167 HD
ATOM     38  C   UNL A   1      43.690  30.524  32.730  1.00  0.00     0.074 A 
ATOM     39  C   UNL A   1      44.403  31.274  33.744  1.00  0.00     0.031 C 
ATOM     40  C   UNL A   1      44.110  29.341  32.222  1.00  0.00     0.031 A 
BRANCH  27  41
ATOM     41  C   UNL A   1      40.278  26.834  28.094  1.00  0.00    -0.014 A 
ATOM     42  C   UNL A   1      40.750  26.789  26.774  1.00  0.00     0.009 A 
ATOM     43  C   UNL A   1      39.597  25.720  28.612  1.00  0.00     0.009 A 
ATOM     44  C   UNL A   1      40.533  25.656  25.985  1.00  0.00     0.001 A 
ATOM     45  C   UNL A   1      39.401  24.581  27.828  1.00  0.00     0.001 A 
ATOM     46  C   UNL A   1      39.866  24.551  26.515  1.00  0.00     0.000 A 
ENDBRANCH  27  41
BRANCH  28  47
ATOM     47  C   UNL A   1      41.800  34.546  34.256  1.00  0.00    -0.014 A 
ATOM     48  C   UNL A   1      41.299  34.477  35.564  1.00  0.00     0.009 A 
ATOM     49  C   UNL A   1      42.492  35.700  33.853  1.00  0.00     0.009 A 
ATOM     50  C   UNL A   1      41.459  35.554  36.439  1.00  0.00     0.001 A 
ATOM     51  C   UNL A   1      42.680  36.761  34.741  1.00  0.00     0.001 A 
ATOM     52  C   UNL A   1      42.153  36.692  36.028  1.00  0.00     0.000 A 
ENDBRANCH  28  47
BRANCH  40  53
ATOM     53  C   UNL A   1      45.408  28.800  32.749  1.00  0.00    -0.014 A 
ATOM     54  C   UNL A   1      45.436  27.930  33.850  1.00  0.00     0.009 A 
ATOM     55  C   UNL A   1      46.614  29.148  32.123  1.00  0.00     0.009 A 
ATOM     56  C   UNL A   1      46.652  27.448  34.338  1.00  0.00     0.001 A 
ATOM     57  C   UNL A   1      47.826  28.641  32.593  1.00  0.00     0.001 A 
ATOM     58  C   UNL A   1      47.845  27.801  33.706  1.00  0.00     0.000 A 
ENDBRANCH  40  53
ENDBRANCH  14  15
ENDBRANCH   7   9
ENDBRANCH   4   5
ENDBRANCH   3   4
ENDBRANCH   2   3
ENDBRANCH   1   2
BRANCH   1  59
ATOM     59  C   UNL A   1      33.501  28.814  24.307  1.00  0.00     0.021 C 
BRANCH  59  60
ATOM     60  C   UNL A   1      32.372  28.370  23.372  1.00  0.00     0.116 C 
BRANCH  60  61
ATOM     61  N   UNL A   1      32.842  27.475  22.335  1.00  0.00    -0.355 N 
ATOM     62  C   UNL A   1      33.170  26.160  22.342  1.00  0.00     0.238 C 
ATOM     63  H   UNL A   1      32.944  27.904  21.455  1.00  0.00     0.163 HD
ATOM     64  O   UNL A   1      33.439  25.666  21.238  1.00  0.00    -0.273 OA
BRANCH  62  65
ATOM     65  C   UNL A   1      33.192  25.260  23.588  1.00  0.00     0.163 C 
BRANCH  65  66
ATOM     66  C   UNL A   1      34.518  25.256  24.370  1.00  0.00     0.065 C 
BRANCH  66  67
ATOM     67  C   UNL A   1      35.458  24.073  24.489  1.00  0.00    -0.046 A 
ATOM     68  C   UNL A   1      35.879  23.256  23.434  1.00  0.00     0.004 A 
ATOM     69  C   UNL A   1      35.991  23.810  25.764  1.00  0.00     0.004 A 
ATOM     70  C   UNL A   1      36.723  22.164  23.655  1.00  0.00     0.000 A 
ATOM     71  C   UNL A   1      36.861  22.740  25.983  1.00  0.00     0.000 A 
ATOM     72  C   UNL A   1      37.211  21.902  24.929  1.00  0.00     0.000 A 
ENDBRANCH  66  67
ENDBRANCH  65  66
BRANCH  65  73
ATOM     73  N   UNL A   1      31.962  25.340  24.394  1.00  0.00    -0.198 NA
ATOM     74  H   UNL A   1      31.441  26.150  24.060  1.00  0.00     0.142 HD
BRANCH  73  75
ATOM     75  S   UNL A   1      30.891  24.041  24.407  1.00  0.00     0.241 S 
ATOM     76  O   UNL A   1      30.088  24.140  25.603  1.00  0.00    -0.207 OA
ATOM     77  O   UNL A   1      30.283  23.954  23.099  1.00  0.00    -0.207 OA
BRANCH  75  78
ATOM     78  C   UNL A   1      31.951  22.617  24.583  1.00  0.00     0.094 A 
ATOM     79  C   UNL A   1      32.154  21.817  23.443  1.00  0.00     0.022 A 
ATOM     80  C   UNL A   1      32.590  22.309  25.798  1.00  0.00     0.076 A 
ATOM     81  C   UNL A   1      32.983  20.699  23.504  1.00  0.00     0.001 A 
ATOM     82  C   UNL A   1      33.434  21.178  25.826  1.00  0.00     0.014 A 
ATOM     83  C   UNL A   1      33.623  20.380  24.695  1.00  0.00     0.001 A 
BRANCH  80  84
ATOM     84  C   UNL A   1      32.473  23.114  27.071  1.00  0.00     0.417 C 
ATOM     85  F   UNL A   1      31.212  23.046  27.593  1.00  0.00    -0.166 F 
ATOM     86  F   UNL A   1      33.296  22.662  28.053  1.00  0.00    -0.166 F 
ATOM     87  F   UNL A   1      32.706  24.449  26.947  1.00  0.00    -0.166 F 
ENDBRANCH  80  84
ENDBRANCH  75  78
ENDBRANCH  73  75
ENDBRANCH  65  73
ENDBRANCH  62  65
ENDBRANCH  60  61
ENDBRANCH  59  60
ENDBRANCH   1  59
TORSDOF 19
ENDMDL
