MODEL 1
REMARK VINA RESULT:     -11.6      0.000      0.000
REMARK SMILES C[C@@H](NC(=O)/C(=C/c1ccc(Cl)cc1)NC(=O)c1ccc(C(C)(C)C)cc1)C(=O)NCCCCCCNC(=O)c1ccc(-c2c3nc(c(-c4ccccc4)c4ccc([nH]4)c(-c4ccccc4)c4nc(c(-c5ccccc5)c5ccc2[nH]5)C=C4)C=C3)cc1
REMARK SMILES IDX 32 1 31 2 30 3 28 4 29 5 2 7 1 8 3 9 4 10 5 12 6 13 7 14
REMARK SMILES IDX 15 15 16 16 17 18 18 19 19 20 27 21 20 22 26 23 21 24 22 25
REMARK SMILES IDX 23 26 24 27 25 28 8 29 9 30 14 31 10 32 13 33 11 34 12 35
REMARK SMILES IDX 33 36 34 37 35 38 36 39 37 40 38 41 39 43 40 44 41 45 87 46
REMARK SMILES IDX 42 47 86 48 43 49 44 50 45 51 80 52 46 53 85 54 79 55 81 56
REMARK SMILES IDX 47 57 84 58 78 59 77 60 48 62 70 63 55 64 69 65 56 66 59 67
REMARK SMILES IDX 68 68 82 69 57 70 58 71 67 73 83 74 60 75 49 76 50 77 54 78
REMARK SMILES IDX 51 79 53 80 52 81 71 82 72 83 76 84 73 85 75 86 74 87 61 88
REMARK SMILES IDX 62 89 66 90 63 91 65 92 64 93
REMARK H PARENT 30 6 3 11 15 17 37 42 81 61 59 72
REMARK Flexibility Score: inf
ROOT
ATOM      1  C   UNL A   1      33.780  29.185  27.224  1.00  0.00     0.021 C 
ENDROOT
BRANCH   1   2
ATOM      2  C   UNL A   1      33.699  28.148  26.112  1.00  0.00     0.116 C 
BRANCH   2   3
ATOM      3  N   UNL A   1      33.944  28.771  24.831  1.00  0.00    -0.354 N 
ATOM      4  C   UNL A   1      33.181  28.754  23.708  1.00  0.00     0.242 C 
ATOM      5  O   UNL A   1      33.647  29.273  22.689  1.00  0.00    -0.273 OA
ATOM      6  H   UNL A   1      34.783  29.281  24.763  1.00  0.00     0.163 HD
BRANCH   4   7
ATOM      7  C   UNL A   1      31.838  28.008  23.656  1.00  0.00     0.168 C 
ATOM      8  C   UNL A   1      30.794  28.982  23.096  1.00  0.00     0.041 C 
BRANCH   7   9
ATOM      9  N   UNL A   1      31.777  26.710  22.955  1.00  0.00    -0.339 N 
ATOM     10  C   UNL A   1      31.544  25.496  23.569  1.00  0.00     0.268 C 
ATOM     11  H   UNL A   1      31.912  26.711  21.980  1.00  0.00     0.164 HD
ATOM     12  O   UNL A   1      30.528  24.862  23.296  1.00  0.00    -0.268 OA
BRANCH  10  13
ATOM     13  C   UNL A   1      32.640  24.893  24.406  1.00  0.00     0.107 C 
ATOM     14  C   UNL A   1      33.857  24.815  23.832  1.00  0.00     0.040 C 
BRANCH  13  15
ATOM     15  N   UNL A   1      32.441  24.524  25.723  1.00  0.00    -0.317 N 
ATOM     16  C   UNL A   1      32.402  23.337  26.412  1.00  0.00     0.255 C 
ATOM     17  H   UNL A   1      32.289  25.301  26.308  1.00  0.00     0.170 HD
ATOM     18  O   UNL A   1      32.119  23.353  27.611  1.00  0.00    -0.269 OA
BRANCH  16  19
ATOM     19  C   UNL A   1      32.673  22.043  25.784  1.00  0.00     0.040 A 
ATOM     20  C   UNL A   1      33.711  21.270  26.299  1.00  0.00     0.014 A 
ATOM     21  C   UNL A   1      31.957  21.615  24.669  1.00  0.00     0.014 A 
ATOM     22  C   UNL A   1      33.956  20.007  25.764  1.00  0.00     0.005 A 
ATOM     23  C   UNL A   1      32.204  20.342  24.144  1.00  0.00     0.005 A 
ATOM     24  C   UNL A   1      33.175  19.494  24.709  1.00  0.00    -0.043 A 
BRANCH  24  25
ATOM     25  C   UNL A   1      33.390  18.046  24.238  1.00  0.00    -0.013 C 
ATOM     26  C   UNL A   1      34.894  17.709  24.275  1.00  0.00     0.016 C 
ATOM     27  C   UNL A   1      32.627  17.072  25.167  1.00  0.00     0.016 C 
ATOM     28  C   UNL A   1      32.877  17.783  22.804  1.00  0.00     0.016 C 
ENDBRANCH  24  25
ENDBRANCH  16  19
ENDBRANCH  13  15
BRANCH  14  29
ATOM     29  C   UNL A   1      35.079  24.097  24.264  1.00  0.00    -0.023 A 
ATOM     30  C   UNL A   1      35.759  24.366  25.462  1.00  0.00     0.010 A 
ATOM     31  C   UNL A   1      35.481  22.974  23.526  1.00  0.00     0.010 A 
ATOM     32  C   UNL A   1      36.836  23.581  25.883  1.00  0.00     0.021 A 
ATOM     33  C   UNL A   1      36.546  22.172  23.951  1.00  0.00     0.021 A 
ATOM     34  C   UNL A   1      37.225  22.484  25.124  1.00  0.00     0.041 A 
ATOM     35  Cl  UNL A   1      38.525  21.494  25.657  1.00  0.00    -0.084 Cl
ENDBRANCH  14  29
ENDBRANCH  10  13
ENDBRANCH   7   9
ENDBRANCH   4   7
ENDBRANCH   2   3
ENDBRANCH   1   2
BRANCH   1  36
ATOM     36  C   UNL A   1      35.200  29.714  27.447  1.00  0.00     0.002 C 
BRANCH  36  37
ATOM     37  C   UNL A   1      35.268  31.048  28.199  1.00  0.00     0.002 C 
BRANCH  37  38
ATOM     38  C   UNL A   1      34.031  31.935  28.066  1.00  0.00     0.021 C 
BRANCH  38  39
ATOM     39  C   UNL A   1      34.323  33.427  28.023  1.00  0.00     0.116 C 
BRANCH  39  40
ATOM     40  N   UNL A   1      33.722  34.145  29.132  1.00  0.00    -0.352 N 
ATOM     41  C   UNL A   1      34.081  34.128  30.458  1.00  0.00     0.251 C 
ATOM     42  H   UNL A   1      32.954  34.719  28.904  1.00  0.00     0.163 HD
ATOM     43  O   UNL A   1      33.389  34.666  31.304  1.00  0.00    -0.269 OA
BRANCH  41  44
ATOM     44  C   UNL A   1      35.317  33.415  30.845  1.00  0.00     0.039 A 
ATOM     45  C   UNL A   1      35.214  32.270  31.636  1.00  0.00     0.014 A 
ATOM     46  C   UNL A   1      36.562  33.858  30.388  1.00  0.00     0.014 A 
ATOM     47  C   UNL A   1      36.363  31.533  31.925  1.00  0.00     0.010 A 
ATOM     48  C   UNL A   1      37.690  33.079  30.609  1.00  0.00     0.010 A 
ATOM     49  C   UNL A   1      37.604  31.915  31.387  1.00  0.00    -0.014 A 
BRANCH  49  50
ATOM     50  C   UNL A   1      38.829  31.117  31.640  1.00  0.00     0.031 A 
ATOM     51  C   UNL A   1      39.712  31.450  32.810  1.00  0.00     0.074 A 
ATOM     52  C   UNL A   1      39.177  30.136  30.785  1.00  0.00     0.049 A 
ATOM     53  N   UNL A   1      40.851  30.910  33.164  1.00  0.00    -0.248 NA
ATOM     54  C   UNL A   1      39.273  32.553  33.681  1.00  0.00     0.031 C 
ATOM     55  C   UNL A   1      38.425  29.742  29.592  1.00  0.00     0.029 A 
ATOM     56  N   UNL A   1      40.259  29.293  30.788  1.00  0.00    -0.354 N 
ATOM     57  C   UNL A   1      41.269  31.619  34.284  1.00  0.00     0.074 A 
ATOM     58  C   UNL A   1      40.295  32.660  34.517  1.00  0.00     0.031 C 
ATOM     59  C   UNL A   1      39.052  28.714  28.997  1.00  0.00     0.029 A 
ATOM     60  C   UNL A   1      40.269  28.405  29.740  1.00  0.00     0.049 A 
ATOM     61  H   UNL A   1      40.962  29.320  31.477  1.00  0.00     0.167 HD
ATOM     62  C   UNL A   1      42.357  31.408  35.062  1.00  0.00     0.031 A 
ATOM     63  C   UNL A   1      41.162  27.453  29.411  1.00  0.00     0.031 A 
ATOM     64  C   UNL A   1      43.319  30.364  34.837  1.00  0.00     0.049 A 
ATOM     65  C   UNL A   1      42.370  27.249  30.283  1.00  0.00     0.074 A 
ATOM     66  C   UNL A   1      44.425  30.031  35.600  1.00  0.00     0.029 A 
ATOM     67  N   UNL A   1      43.290  29.483  33.767  1.00  0.00    -0.354 N 
ATOM     68  N   UNL A   1      42.716  27.883  31.376  1.00  0.00    -0.248 NA
ATOM     69  C   UNL A   1      43.304  26.188  29.879  1.00  0.00     0.031 C 
ATOM     70  C   UNL A   1      45.095  28.983  34.962  1.00  0.00     0.029 A 
ATOM     71  C   UNL A   1      44.374  28.623  33.835  1.00  0.00     0.049 A 
ATOM     72  H   UNL A   1      42.602  29.470  33.063  1.00  0.00     0.167 HD
ATOM     73  C   UNL A   1      43.890  27.279  31.809  1.00  0.00     0.074 A 
ATOM     74  C   UNL A   1      44.187  26.219  30.868  1.00  0.00     0.031 C 
ATOM     75  C   UNL A   1      44.653  27.573  32.890  1.00  0.00     0.031 A 
BRANCH  62  76
ATOM     76  C   UNL A   1      42.562  32.334  36.229  1.00  0.00    -0.014 A 
ATOM     77  C   UNL A   1      43.275  33.536  36.090  1.00  0.00     0.009 A 
ATOM     78  C   UNL A   1      42.010  32.015  37.479  1.00  0.00     0.009 A 
ATOM     79  C   UNL A   1      43.463  34.379  37.187  1.00  0.00     0.001 A 
ATOM     80  C   UNL A   1      42.174  32.875  38.567  1.00  0.00     0.001 A 
ATOM     81  C   UNL A   1      42.909  34.050  38.422  1.00  0.00     0.000 A 
ENDBRANCH  62  76
BRANCH  63  82
ATOM     82  C   UNL A   1      40.943  26.608  28.208  1.00  0.00    -0.014 A 
ATOM     83  C   UNL A   1      41.385  27.035  26.946  1.00  0.00     0.009 A 
ATOM     84  C   UNL A   1      40.280  25.374  28.310  1.00  0.00     0.009 A 
ATOM     85  C   UNL A   1      41.144  26.260  25.810  1.00  0.00     0.001 A 
ATOM     86  C   UNL A   1      40.067  24.587  27.177  1.00  0.00     0.001 A 
ATOM     87  C   UNL A   1      40.489  25.034  25.926  1.00  0.00     0.000 A 
ENDBRANCH  63  82
BRANCH  75  88
ATOM     88  C   UNL A   1      45.861  26.713  33.135  1.00  0.00    -0.014 A 
ATOM     89  C   UNL A   1      45.777  25.534  33.890  1.00  0.00     0.009 A 
ATOM     90  C   UNL A   1      47.092  27.070  32.562  1.00  0.00     0.009 A 
ATOM     91  C   UNL A   1      46.912  24.747  34.095  1.00  0.00     0.001 A 
ATOM     92  C   UNL A   1      48.217  26.265  32.743  1.00  0.00     0.001 A 
ATOM     93  C   UNL A   1      48.128  25.109  33.518  1.00  0.00     0.000 A 
ENDBRANCH  75  88
ENDBRANCH  49  50
ENDBRANCH  41  44
ENDBRANCH  39  40
ENDBRANCH  38  39
ENDBRANCH  37  38
ENDBRANCH  36  37
ENDBRANCH   1  36
TORSDOF 19
ENDMDL
MODEL 2
REMARK VINA RESULT:     -11.1      2.550      3.620
REMARK SMILES C[C@@H](NC(=O)/C(=C/c1ccc(Cl)cc1)NC(=O)c1ccc(C(C)(C)C)cc1)C(=O)NCCCCCCNC(=O)c1ccc(-c2c3nc(c(-c4ccccc4)c4ccc([nH]4)c(-c4ccccc4)c4nc(c(-c5ccccc5)c5ccc2[nH]5)C=C4)C=C3)cc1
REMARK SMILES IDX 32 1 31 2 30 3 28 4 29 5 2 7 1 8 3 9 4 10 5 12 6 13 7 14
REMARK SMILES IDX 15 15 16 16 17 18 18 19 19 20 27 21 20 22 26 23 21 24 22 25
REMARK SMILES IDX 23 26 24 27 25 28 8 29 9 30 14 31 10 32 13 33 11 34 12 35
REMARK SMILES IDX 33 36 34 37 35 38 36 39 37 40 38 41 39 43 40 44 41 45 87 46
REMARK SMILES IDX 42 47 86 48 43 49 44 50 45 51 80 52 46 53 85 54 79 55 81 56
REMARK SMILES IDX 47 57 84 58 78 59 77 60 48 62 70 63 55 64 69 65 56 66 59 67
REMARK SMILES IDX 68 68 82 69 57 70 58 71 67 73 83 74 60 75 49 76 50 77 54 78
REMARK SMILES IDX 51 79 53 80 52 81 71 82 72 83 76 84 73 85 75 86 74 87 61 88
REMARK SMILES IDX 62 89 66 90 63 91 65 92 64 93
REMARK H PARENT 30 6 3 11 15 17 37 42 81 61 59 72
REMARK Flexibility Score: inf
ROOT
ATOM      1  C   UNL A   1      30.290  29.207  23.697  1.00  0.00     0.021 C 
ENDROOT
BRANCH   1   2
ATOM      2  C   UNL A   1      30.685  28.578  22.367  1.00  0.00     0.116 C 
BRANCH   2   3
ATOM      3  N   UNL A   1      32.092  28.246  22.371  1.00  0.00    -0.354 N 
ATOM      4  C   UNL A   1      32.708  27.113  21.947  1.00  0.00     0.242 C 
ATOM      5  O   UNL A   1      33.921  27.009  22.150  1.00  0.00    -0.273 OA
ATOM      6  H   UNL A   1      32.689  28.941  22.733  1.00  0.00     0.163 HD
BRANCH   4   7
ATOM      7  C   UNL A   1      31.915  25.939  21.350  1.00  0.00     0.168 C 
ATOM      8  C   UNL A   1      32.911  25.055  20.587  1.00  0.00     0.041 C 
BRANCH   7   9
ATOM      9  N   UNL A   1      31.072  25.126  22.249  1.00  0.00    -0.339 N 
ATOM     10  C   UNL A   1      31.037  25.256  23.623  1.00  0.00     0.268 C 
ATOM     11  H   UNL A   1      30.494  24.443  21.839  1.00  0.00     0.164 HD
ATOM     12  O   UNL A   1      29.999  25.617  24.172  1.00  0.00    -0.268 OA
BRANCH  10  13
ATOM     13  C   UNL A   1      32.212  24.761  24.421  1.00  0.00     0.107 C 
ATOM     14  C   UNL A   1      33.404  24.756  23.792  1.00  0.00     0.040 C 
BRANCH  13  15
ATOM     15  N   UNL A   1      32.102  24.418  25.755  1.00  0.00    -0.317 N 
ATOM     16  C   UNL A   1      32.199  23.254  26.478  1.00  0.00     0.255 C 
ATOM     17  H   UNL A   1      31.907  25.196  26.325  1.00  0.00     0.170 HD
ATOM     18  O   UNL A   1      31.966  23.283  27.687  1.00  0.00    -0.269 OA
BRANCH  16  19
ATOM     19  C   UNL A   1      32.555  21.969  25.874  1.00  0.00     0.040 A 
ATOM     20  C   UNL A   1      33.653  21.286  26.391  1.00  0.00     0.014 A 
ATOM     21  C   UNL A   1      31.860  21.465  24.779  1.00  0.00     0.014 A 
ATOM     22  C   UNL A   1      33.984  20.032  25.881  1.00  0.00     0.005 A 
ATOM     23  C   UNL A   1      32.192  20.203  24.278  1.00  0.00     0.005 A 
ATOM     24  C   UNL A   1      33.230  19.440  24.848  1.00  0.00    -0.043 A 
BRANCH  24  25
ATOM     25  C   UNL A   1      33.545  18.001  24.405  1.00  0.00    -0.013 C 
ATOM     26  C   UNL A   1      35.072  17.799  24.358  1.00  0.00     0.016 C 
ATOM     27  C   UNL A   1      32.929  16.996  25.407  1.00  0.00     0.016 C 
ATOM     28  C   UNL A   1      32.973  17.647  23.014  1.00  0.00     0.016 C 
ENDBRANCH  24  25
ENDBRANCH  16  19
ENDBRANCH  13  15
BRANCH  14  29
ATOM     29  C   UNL A   1      34.694  24.143  24.182  1.00  0.00    -0.023 A 
ATOM     30  C   UNL A   1      35.414  24.506  25.331  1.00  0.00     0.010 A 
ATOM     31  C   UNL A   1      35.138  23.022  23.464  1.00  0.00     0.010 A 
ATOM     32  C   UNL A   1      36.565  23.815  25.721  1.00  0.00     0.021 A 
ATOM     33  C   UNL A   1      36.279  22.314  23.859  1.00  0.00     0.021 A 
ATOM     34  C   UNL A   1      36.992  22.719  24.983  1.00  0.00     0.041 A 
ATOM     35  Cl  UNL A   1      38.386  21.845  25.479  1.00  0.00    -0.084 Cl
ENDBRANCH  14  29
ENDBRANCH  10  13
ENDBRANCH   7   9
ENDBRANCH   4   7
ENDBRANCH   2   3
ENDBRANCH   1   2
BRANCH   1  36
ATOM     36  C   UNL A   1      31.094  28.657  24.880  1.00  0.00     0.002 C 
BRANCH  36  37
ATOM     37  C   UNL A   1      32.143  29.625  25.437  1.00  0.00     0.002 C 
BRANCH  37  38
ATOM     38  C   UNL A   1      33.485  28.993  25.801  1.00  0.00     0.021 C 
BRANCH  38  39
ATOM     39  C   UNL A   1      33.794  28.978  27.291  1.00  0.00     0.116 C 
BRANCH  39  40
ATOM     40  N   UNL A   1      33.748  30.302  27.883  1.00  0.00    -0.352 N 
ATOM     41  C   UNL A   1      34.718  30.949  28.611  1.00  0.00     0.251 C 
ATOM     42  H   UNL A   1      32.912  30.804  27.744  1.00  0.00     0.163 HD
ATOM     43  O   UNL A   1      34.483  32.003  29.176  1.00  0.00    -0.269 OA
BRANCH  41  44
ATOM     44  C   UNL A   1      36.052  30.321  28.723  1.00  0.00     0.039 A 
ATOM     45  C   UNL A   1      36.926  30.399  27.637  1.00  0.00     0.014 A 
ATOM     46  C   UNL A   1      36.444  29.698  29.911  1.00  0.00     0.014 A 
ATOM     47  C   UNL A   1      38.222  29.897  27.765  1.00  0.00     0.010 A 
ATOM     48  C   UNL A   1      37.757  29.273  30.062  1.00  0.00     0.010 A 
ATOM     49  C   UNL A   1      38.656  29.360  28.988  1.00  0.00    -0.014 A 
BRANCH  49  50
ATOM     50  C   UNL A   1      40.045  28.868  29.161  1.00  0.00     0.031 A 
ATOM     51  C   UNL A   1      41.099  29.780  29.725  1.00  0.00     0.074 A 
ATOM     52  C   UNL A   1      40.370  27.625  28.755  1.00  0.00     0.049 A 
ATOM     53  N   UNL A   1      42.377  29.556  29.898  1.00  0.00    -0.248 NA
ATOM     54  C   UNL A   1      40.666  31.131  30.120  1.00  0.00     0.031 C 
ATOM     55  C   UNL A   1      39.447  26.658  28.157  1.00  0.00     0.029 A 
ATOM     56  N   UNL A   1      41.571  26.964  28.782  1.00  0.00    -0.354 N 
ATOM     57  C   UNL A   1      42.900  30.740  30.403  1.00  0.00     0.074 A 
ATOM     58  C   UNL A   1      41.816  31.695  30.456  1.00  0.00     0.031 C 
ATOM     59  C   UNL A   1      40.110  25.518  27.903  1.00  0.00     0.029 A 
ATOM     60  C   UNL A   1      41.509  25.687  28.279  1.00  0.00     0.049 A 
ATOM     61  H   UNL A   1      42.400  27.366  29.130  1.00  0.00     0.167 HD
ATOM     62  C   UNL A   1      44.165  31.003  30.809  1.00  0.00     0.031 A 
ATOM     63  C   UNL A   1      42.473  24.759  28.133  1.00  0.00     0.031 A 
ATOM     64  C   UNL A   1      45.238  30.048  30.768  1.00  0.00     0.049 A 
ATOM     65  C   UNL A   1      43.874  25.081  28.576  1.00  0.00     0.074 A 
ATOM     66  C   UNL A   1      46.542  30.199  31.207  1.00  0.00     0.029 A 
ATOM     67  N   UNL A   1      45.133  28.764  30.257  1.00  0.00    -0.354 N 
ATOM     68  N   UNL A   1      44.337  26.182  29.114  1.00  0.00    -0.248 NA
ATOM     69  C   UNL A   1      44.881  24.024  28.400  1.00  0.00     0.031 C 
ATOM     70  C   UNL A   1      47.240  29.023  30.912  1.00  0.00     0.029 A 
ATOM     71  C   UNL A   1      46.355  28.120  30.345  1.00  0.00     0.049 A 
ATOM     72  H   UNL A   1      44.311  28.369  29.886  1.00  0.00     0.167 HD
ATOM     73  C   UNL A   1      45.681  25.942  29.372  1.00  0.00     0.074 A 
ATOM     74  C   UNL A   1      45.953  24.585  28.943  1.00  0.00     0.031 C 
ATOM     75  C   UNL A   1      46.608  26.769  29.914  1.00  0.00     0.031 A 
BRANCH  62  76
ATOM     76  C   UNL A   1      44.452  32.385  31.326  1.00  0.00    -0.014 A 
ATOM     77  C   UNL A   1      44.387  32.679  32.698  1.00  0.00     0.009 A 
ATOM     78  C   UNL A   1      44.821  33.402  30.432  1.00  0.00     0.009 A 
ATOM     79  C   UNL A   1      44.648  33.971  33.159  1.00  0.00     0.001 A 
ATOM     80  C   UNL A   1      45.111  34.686  30.900  1.00  0.00     0.001 A 
ATOM     81  C   UNL A   1      45.014  34.971  32.260  1.00  0.00     0.000 A 
ENDBRANCH  62  76
BRANCH  63  82
ATOM     82  C   UNL A   1      42.147  23.429  27.554  1.00  0.00    -0.014 A 
ATOM     83  C   UNL A   1      41.567  22.428  28.349  1.00  0.00     0.009 A 
ATOM     84  C   UNL A   1      42.424  23.148  26.207  1.00  0.00     0.009 A 
ATOM     85  C   UNL A   1      41.297  21.167  27.816  1.00  0.00     0.001 A 
ATOM     86  C   UNL A   1      42.125  21.894  25.668  1.00  0.00     0.001 A 
ATOM     87  C   UNL A   1      41.572  20.901  26.475  1.00  0.00     0.000 A 
ENDBRANCH  63  82
BRANCH  75  88
ATOM     88  C   UNL A   1      47.992  26.217  30.113  1.00  0.00    -0.014 A 
ATOM     89  C   UNL A   1      48.932  26.212  29.073  1.00  0.00     0.009 A 
ATOM     90  C   UNL A   1      48.369  25.735  31.376  1.00  0.00     0.009 A 
ATOM     91  C   UNL A   1      50.215  25.704  29.287  1.00  0.00     0.001 A 
ATOM     92  C   UNL A   1      49.661  25.256  31.595  1.00  0.00     0.001 A 
ATOM     93  C   UNL A   1      50.580  25.231  30.547  1.00  0.00     0.000 A 
ENDBRANCH  75  88
ENDBRANCH  49  50
ENDBRANCH  41  44
ENDBRANCH  39  40
ENDBRANCH  38  39
ENDBRANCH  37  38
ENDBRANCH  36  37
ENDBRANCH   1  36
TORSDOF 19
ENDMDL
MODEL 3
REMARK VINA RESULT:     -10.8      1.251      5.782
REMARK SMILES C[C@@H](NC(=O)/C(=C/c1ccc(Cl)cc1)NC(=O)c1ccc(C(C)(C)C)cc1)C(=O)NCCCCCCNC(=O)c1ccc(-c2c3nc(c(-c4ccccc4)c4ccc([nH]4)c(-c4ccccc4)c4nc(c(-c5ccccc5)c5ccc2[nH]5)C=C4)C=C3)cc1
REMARK SMILES IDX 32 1 31 2 30 3 28 4 29 5 2 7 1 8 3 9 4 10 5 12 6 13 7 14
REMARK SMILES IDX 15 15 16 16 17 18 18 19 19 20 27 21 20 22 26 23 21 24 22 25
REMARK SMILES IDX 23 26 24 27 25 28 8 29 9 30 14 31 10 32 13 33 11 34 12 35
REMARK SMILES IDX 33 36 34 37 35 38 36 39 37 40 38 41 39 43 40 44 41 45 87 46
REMARK SMILES IDX 42 47 86 48 43 49 44 50 45 51 80 52 46 53 85 54 79 55 81 56
REMARK SMILES IDX 47 57 84 58 78 59 77 60 48 62 70 63 55 64 69 65 56 66 59 67
REMARK SMILES IDX 68 68 82 69 57 70 58 71 67 73 83 74 60 75 49 76 50 77 54 78
REMARK SMILES IDX 51 79 53 80 52 81 71 82 72 83 76 84 73 85 75 86 74 87 61 88
REMARK SMILES IDX 62 89 66 90 63 91 65 92 64 93
REMARK H PARENT 30 6 3 11 15 17 37 42 81 61 59 72
REMARK Flexibility Score: inf
ROOT
ATOM      1  C   UNL A   1      31.966  29.711  25.922  1.00  0.00     0.021 C 
ENDROOT
BRANCH   1   2
ATOM      2  C   UNL A   1      32.562  29.497  24.537  1.00  0.00     0.116 C 
BRANCH   2   3
ATOM      3  N   UNL A   1      31.508  29.385  23.553  1.00  0.00    -0.354 N 
ATOM      4  C   UNL A   1      30.997  28.274  22.963  1.00  0.00     0.242 C 
ATOM      5  O   UNL A   1      30.167  28.430  22.064  1.00  0.00    -0.273 OA
ATOM      6  H   UNL A   1      31.102  30.236  23.271  1.00  0.00     0.163 HD
BRANCH   4   7
ATOM      7  C   UNL A   1      31.520  26.868  23.304  1.00  0.00     0.168 C 
ATOM      8  C   UNL A   1      30.302  25.944  23.425  1.00  0.00     0.041 C 
BRANCH   7   9
ATOM      9  N   UNL A   1      32.551  26.268  22.435  1.00  0.00    -0.339 N 
ATOM     10  C   UNL A   1      32.912  24.935  22.448  1.00  0.00     0.268 C 
ATOM     11  H   UNL A   1      33.015  26.861  21.800  1.00  0.00     0.164 HD
ATOM     12  O   UNL A   1      32.713  24.243  21.453  1.00  0.00    -0.268 OA
BRANCH  10  13
ATOM     13  C   UNL A   1      33.717  24.421  23.610  1.00  0.00     0.107 C 
ATOM     14  C   UNL A   1      34.989  24.064  23.346  1.00  0.00     0.040 C 
BRANCH  13  15
ATOM     15  N   UNL A   1      33.217  24.402  24.899  1.00  0.00    -0.317 N 
ATOM     16  C   UNL A   1      32.816  23.428  25.779  1.00  0.00     0.255 C 
ATOM     17  H   UNL A   1      33.127  25.307  25.276  1.00  0.00     0.170 HD
ATOM     18  O   UNL A   1      32.335  23.765  26.862  1.00  0.00    -0.269 OA
BRANCH  16  19
ATOM     19  C   UNL A   1      32.922  21.998  25.486  1.00  0.00     0.040 A 
ATOM     20  C   UNL A   1      32.188  21.494  24.414  1.00  0.00     0.014 A 
ATOM     21  C   UNL A   1      33.684  21.148  26.282  1.00  0.00     0.014 A 
ATOM     22  C   UNL A   1      32.312  20.149  24.069  1.00  0.00     0.005 A 
ATOM     23  C   UNL A   1      33.811  19.803  25.925  1.00  0.00     0.005 A 
ATOM     24  C   UNL A   1      33.166  19.286  24.784  1.00  0.00    -0.043 A 
BRANCH  24  25
ATOM     25  C   UNL A   1      33.377  17.845  24.291  1.00  0.00    -0.013 C 
ATOM     26  C   UNL A   1      32.859  17.714  22.845  1.00  0.00     0.016 C 
ATOM     27  C   UNL A   1      34.883  17.493  24.326  1.00  0.00     0.016 C 
ATOM     28  C   UNL A   1      32.655  16.786  25.154  1.00  0.00     0.016 C 
ENDBRANCH  24  25
ENDBRANCH  16  19
ENDBRANCH  13  15
BRANCH  14  29
ATOM     29  C   UNL A   1      35.972  23.328  24.174  1.00  0.00    -0.023 A 
ATOM     30  C   UNL A   1      36.407  22.023  23.892  1.00  0.00     0.010 A 
ATOM     31  C   UNL A   1      36.633  24.028  25.194  1.00  0.00     0.010 A 
ATOM     32  C   UNL A   1      37.425  21.417  24.634  1.00  0.00     0.021 A 
ATOM     33  C   UNL A   1      37.666  23.434  25.929  1.00  0.00     0.021 A 
ATOM     34  C   UNL A   1      38.053  22.127  25.650  1.00  0.00     0.041 A 
ATOM     35  Cl  UNL A   1      39.329  21.398  26.540  1.00  0.00    -0.084 Cl
ENDBRANCH  14  29
ENDBRANCH  10  13
ENDBRANCH   7   9
ENDBRANCH   4   7
ENDBRANCH   2   3
ENDBRANCH   1   2
BRANCH   1  36
ATOM     36  C   UNL A   1      32.994  29.547  27.047  1.00  0.00     0.002 C 
BRANCH  36  37
ATOM     37  C   UNL A   1      33.575  30.865  27.569  1.00  0.00     0.002 C 
BRANCH  37  38
ATOM     38  C   UNL A   1      32.658  32.080  27.438  1.00  0.00     0.021 C 
BRANCH  38  39
ATOM     39  C   UNL A   1      33.384  33.414  27.350  1.00  0.00     0.116 C 
BRANCH  39  40
ATOM     40  N   UNL A   1      32.967  34.344  28.384  1.00  0.00    -0.352 N 
ATOM     41  C   UNL A   1      33.489  34.512  29.644  1.00  0.00     0.251 C 
ATOM     42  H   UNL A   1      32.210  34.930  28.153  1.00  0.00     0.163 HD
ATOM     43  O   UNL A   1      32.939  35.229  30.462  1.00  0.00    -0.269 OA
BRANCH  41  44
ATOM     44  C   UNL A   1      34.723  33.779  30.000  1.00  0.00     0.039 A 
ATOM     45  C   UNL A   1      35.952  34.277  29.564  1.00  0.00     0.014 A 
ATOM     46  C   UNL A   1      34.659  32.632  30.796  1.00  0.00     0.014 A 
ATOM     47  C   UNL A   1      37.128  33.649  29.976  1.00  0.00     0.010 A 
ATOM     48  C   UNL A   1      35.832  32.060  31.270  1.00  0.00     0.010 A 
ATOM     49  C   UNL A   1      37.077  32.557  30.857  1.00  0.00    -0.014 A 
BRANCH  49  50
ATOM     50  C   UNL A   1      38.318  31.907  31.348  1.00  0.00     0.031 A 
ATOM     51  C   UNL A   1      38.926  30.771  30.573  1.00  0.00     0.074 A 
ATOM     52  C   UNL A   1      38.861  32.299  32.517  1.00  0.00     0.049 A 
ATOM     53  N   UNL A   1      39.970  30.038  30.866  1.00  0.00    -0.248 NA
ATOM     54  C   UNL A   1      38.256  30.388  29.319  1.00  0.00     0.031 C 
ATOM     55  C   UNL A   1      38.344  33.363  33.380  1.00  0.00     0.029 A 
ATOM     56  N   UNL A   1      39.969  31.841  33.182  1.00  0.00    -0.354 N 
ATOM     57  C   UNL A   1      40.069  29.101  29.845  1.00  0.00     0.074 A 
ATOM     58  C   UNL A   1      38.950  29.320  28.957  1.00  0.00     0.031 C 
ATOM     59  C   UNL A   1      39.152  33.496  34.444  1.00  0.00     0.029 A 
ATOM     60  C   UNL A   1      40.216  32.502  34.361  1.00  0.00     0.049 A 
ATOM     61  H   UNL A   1      40.535  31.108  32.847  1.00  0.00     0.167 HD
ATOM     62  C   UNL A   1      41.020  28.157  29.651  1.00  0.00     0.031 A 
ATOM     63  C   UNL A   1      41.188  32.322  35.275  1.00  0.00     0.031 A 
ATOM     64  C   UNL A   1      42.139  27.948  30.528  1.00  0.00     0.049 A 
ATOM     65  C   UNL A   1      42.223  31.255  35.045  1.00  0.00     0.074 A 
ATOM     66  C   UNL A   1      43.187  27.054  30.391  1.00  0.00     0.029 A 
ATOM     67  N   UNL A   1      42.356  28.642  31.709  1.00  0.00    -0.354 N 
ATOM     68  N   UNL A   1      42.341  30.423  34.040  1.00  0.00    -0.248 NA
ATOM     69  C   UNL A   1      43.265  31.114  36.072  1.00  0.00     0.031 C 
ATOM     70  C   UNL A   1      44.009  27.171  31.516  1.00  0.00     0.029 A 
ATOM     71  C   UNL A   1      43.507  28.179  32.324  1.00  0.00     0.049 A 
ATOM     72  H   UNL A   1      41.777  29.358  32.058  1.00  0.00     0.167 HD
ATOM     73  C   UNL A   1      43.486  29.680  34.296  1.00  0.00     0.074 A 
ATOM     74  C   UNL A   1      44.034  30.172  35.544  1.00  0.00     0.031 C 
ATOM     75  C   UNL A   1      44.037  28.680  33.565  1.00  0.00     0.031 A 
BRANCH  62  76
ATOM     76  C   UNL A   1      40.880  27.274  28.442  1.00  0.00    -0.014 A 
ATOM     77  C   UNL A   1      40.204  26.045  28.510  1.00  0.00     0.009 A 
ATOM     78  C   UNL A   1      41.408  27.690  27.209  1.00  0.00     0.009 A 
ATOM     79  C   UNL A   1      40.093  25.234  27.378  1.00  0.00     0.001 A 
ATOM     80  C   UNL A   1      41.267  26.891  26.073  1.00  0.00     0.001 A 
ATOM     81  C   UNL A   1      40.620  25.660  26.161  1.00  0.00     0.000 A 
ENDBRANCH  62  76
BRANCH  63  82
ATOM     82  C   UNL A   1      41.241  33.182  36.487  1.00  0.00    -0.014 A 
ATOM     83  C   UNL A   1      40.537  32.822  37.647  1.00  0.00     0.009 A 
ATOM     84  C   UNL A   1      41.985  34.372  36.489  1.00  0.00     0.009 A 
ATOM     85  C   UNL A   1      40.554  33.649  38.771  1.00  0.00     0.001 A 
ATOM     86  C   UNL A   1      42.025  35.182  37.626  1.00  0.00     0.001 A 
ATOM     87  C   UNL A   1      41.301  34.826  38.762  1.00  0.00     0.000 A 
ENDBRANCH  63  82
BRANCH  75  88
ATOM     88  C   UNL A   1      45.318  28.079  34.073  1.00  0.00    -0.014 A 
ATOM     89  C   UNL A   1      46.565  28.617  33.726  1.00  0.00     0.009 A 
ATOM     90  C   UNL A   1      45.267  26.984  34.950  1.00  0.00     0.009 A 
ATOM     91  C   UNL A   1      47.740  28.047  34.220  1.00  0.00     0.001 A 
ATOM     92  C   UNL A   1      46.441  26.435  35.466  1.00  0.00     0.001 A 
ATOM     93  C   UNL A   1      47.678  26.961  35.093  1.00  0.00     0.000 A 
ENDBRANCH  75  88
ENDBRANCH  49  50
ENDBRANCH  41  44
ENDBRANCH  39  40
ENDBRANCH  38  39
ENDBRANCH  37  38
ENDBRANCH  36  37
ENDBRANCH   1  36
TORSDOF 19
ENDMDL
