MODEL 1
REMARK VINA RESULT:     -12.2      0.000      0.000
REMARK SMILES O=C(NCCCCCCNC(=O)[C@@H](Cc1c[nH]c2ccccc12)NC(=O)c1ccc(F)cc1F)c1ccc(-c2c3nc(c(-c4ccccc4)c4ccc([nH]4)c(-c4ccccc4)c4nc(c(-c5ccccc5)c5ccc2[nH]5)C=C4)C=C3)cc1
REMARK SMILES IDX 6 1 5 2 4 3 3 4 1 5 2 6 35 8 36 9 82 10 37 11 81 12 38 13
REMARK SMILES IDX 39 14 40 15 75 16 41 17 80 18 74 19 76 20 42 21 79 22 73 23
REMARK SMILES IDX 72 24 43 26 65 27 50 28 64 29 51 30 54 31 63 32 77 33 52 34
REMARK SMILES IDX 53 35 62 37 78 38 55 39 44 40 45 41 49 42 46 43 48 44 47 45
REMARK SMILES IDX 66 46 67 47 71 48 68 49 70 50 69 51 56 52 57 53 61 54 58 55
REMARK SMILES IDX 60 56 59 57 7 58 8 59 9 60 10 61 11 62 12 64 13 65 14 66
REMARK SMILES IDX 15 67 16 68 23 69 17 70 18 71 22 72 19 74 21 75 20 76 24 77
REMARK SMILES IDX 25 78 26 80 27 81 28 82 33 83 29 84 32 85 34 86 30 87 31 88
REMARK H PARENT 3 7 76 25 54 36 10 63 17 73 24 79
REMARK Flexibility Score: inf
ROOT
ATOM      1  C   UNL A   1      32.330  28.066  25.176  1.00  0.00     0.002 C 
ENDROOT
BRANCH   1   2
ATOM      2  C   UNL A   1      32.430  28.096  26.702  1.00  0.00     0.021 C 
BRANCH   2   3
ATOM      3  C   UNL A   1      33.764  28.593  27.249  1.00  0.00     0.116 C 
BRANCH   3   4
ATOM      4  N   UNL A   1      33.700  29.975  27.696  1.00  0.00    -0.352 N 
ATOM      5  O   UNL A   1      34.322  31.820  28.833  1.00  0.00    -0.269 OA
ATOM      6  C   UNL A   1      34.628  30.727  28.377  1.00  0.00     0.251 C 
ATOM      7  H   UNL A   1      32.863  30.446  27.476  1.00  0.00     0.163 HD
BRANCH   6   8
ATOM      8  C   UNL A   1      35.999  30.206  28.576  1.00  0.00     0.039 A 
ATOM      9  C   UNL A   1      36.949  30.297  27.559  1.00  0.00     0.014 A 
ATOM     10  C   UNL A   1      36.350  29.650  29.812  1.00  0.00     0.014 A 
ATOM     11  C   UNL A   1      38.193  29.699  27.719  1.00  0.00     0.010 A 
ATOM     12  C   UNL A   1      37.638  29.138  30.006  1.00  0.00     0.010 A 
ATOM     13  C   UNL A   1      38.563  29.135  28.952  1.00  0.00    -0.014 A 
BRANCH  13  14
ATOM     14  C   UNL A   1      39.953  28.638  29.120  1.00  0.00     0.031 A 
ATOM     15  C   UNL A   1      40.355  27.250  28.705  1.00  0.00     0.074 A 
ATOM     16  C   UNL A   1      40.879  29.489  29.606  1.00  0.00     0.049 A 
ATOM     17  N   UNL A   1      41.547  26.706  28.708  1.00  0.00    -0.248 NA
ATOM     18  C   UNL A   1      39.290  26.352  28.231  1.00  0.00     0.031 C 
ATOM     19  C   UNL A   1      40.606  30.856  30.066  1.00  0.00     0.029 A 
ATOM     20  N   UNL A   1      42.234  29.353  29.762  1.00  0.00    -0.354 N 
ATOM     21  C   UNL A   1      41.377  25.406  28.247  1.00  0.00     0.074 A 
ATOM     22  C   UNL A   1      39.961  25.232  28.002  1.00  0.00     0.031 C 
ATOM     23  C   UNL A   1      41.764  31.450  30.388  1.00  0.00     0.029 A 
ATOM     24  C   UNL A   1      42.848  30.492  30.225  1.00  0.00     0.049 A 
ATOM     25  H   UNL A   1      42.720  28.520  29.563  1.00  0.00     0.167 HD
ATOM     26  C   UNL A   1      42.316  24.451  28.040  1.00  0.00     0.031 A 
ATOM     27  C   UNL A   1      44.141  30.740  30.500  1.00  0.00     0.031 A 
ATOM     28  C   UNL A   1      43.723  24.622  28.299  1.00  0.00     0.049 A 
ATOM     29  C   UNL A   1      45.153  29.656  30.278  1.00  0.00     0.074 A 
ATOM     30  C   UNL A   1      44.752  23.714  28.111  1.00  0.00     0.029 A 
ATOM     31  N   UNL A   1      44.301  25.778  28.803  1.00  0.00    -0.354 N 
ATOM     32  N   UNL A   1      44.974  28.445  29.808  1.00  0.00    -0.248 NA
ATOM     33  C   UNL A   1      46.544  29.975  30.621  1.00  0.00     0.031 C 
ATOM     34  C   UNL A   1      45.944  24.303  28.546  1.00  0.00     0.029 A 
ATOM     35  C   UNL A   1      45.667  25.599  28.949  1.00  0.00     0.049 A 
ATOM     36  H   UNL A   1      43.812  26.602  29.025  1.00  0.00     0.167 HD
ATOM     37  C   UNL A   1      46.232  27.860  29.793  1.00  0.00     0.074 A 
ATOM     38  C   UNL A   1      47.167  28.862  30.263  1.00  0.00     0.031 C 
ATOM     39  C   UNL A   1      46.581  26.600  29.433  1.00  0.00     0.031 A 
BRANCH  26  40
ATOM     40  C   UNL A   1      41.852  23.120  27.515  1.00  0.00    -0.014 A 
ATOM     41  C   UNL A   1      41.835  22.847  26.139  1.00  0.00     0.009 A 
ATOM     42  C   UNL A   1      41.490  22.101  28.411  1.00  0.00     0.009 A 
ATOM     43  C   UNL A   1      41.443  21.591  25.669  1.00  0.00     0.001 A 
ATOM     44  C   UNL A   1      41.123  20.838  27.940  1.00  0.00     0.001 A 
ATOM     45  C   UNL A   1      41.094  20.586  26.570  1.00  0.00     0.000 A 
ENDBRANCH  26  40
BRANCH  27  46
ATOM     46  C   UNL A   1      44.543  32.065  31.040  1.00  0.00    -0.014 A 
ATOM     47  C   UNL A   1      45.076  33.055  30.202  1.00  0.00     0.009 A 
ATOM     48  C   UNL A   1      44.394  32.343  32.409  1.00  0.00     0.009 A 
ATOM     49  C   UNL A   1      45.476  34.285  30.729  1.00  0.00     0.001 A 
ATOM     50  C   UNL A   1      44.762  33.585  32.926  1.00  0.00     0.001 A 
ATOM     51  C   UNL A   1      45.315  34.551  32.088  1.00  0.00     0.000 A 
ENDBRANCH  27  46
BRANCH  39  52
ATOM     52  C   UNL A   1      48.040  26.255  29.523  1.00  0.00    -0.014 A 
ATOM     53  C   UNL A   1      48.886  26.377  28.408  1.00  0.00     0.009 A 
ATOM     54  C   UNL A   1      48.576  25.799  30.737  1.00  0.00     0.009 A 
ATOM     55  C   UNL A   1      50.228  26.003  28.496  1.00  0.00     0.001 A 
ATOM     56  C   UNL A   1      49.926  25.455  30.830  1.00  0.00     0.001 A 
ATOM     57  C   UNL A   1      50.747  25.545  29.707  1.00  0.00     0.000 A 
ENDBRANCH  39  52
ENDBRANCH  13  14
ENDBRANCH   6   8
ENDBRANCH   3   4
ENDBRANCH   2   3
ENDBRANCH   1   2
BRANCH   1  58
ATOM     58  C   UNL A   1      30.910  28.005  24.606  1.00  0.00     0.002 C 
BRANCH  58  59
ATOM     59  C   UNL A   1      30.686  26.937  23.535  1.00  0.00     0.021 C 
BRANCH  59  60
ATOM     60  C   UNL A   1      29.778  25.776  23.936  1.00  0.00     0.116 C 
BRANCH  60  61
ATOM     61  N   UNL A   1      30.127  25.316  25.264  1.00  0.00    -0.354 N 
ATOM     62  C   UNL A   1      30.910  24.284  25.672  1.00  0.00     0.242 C 
ATOM     63  H   UNL A   1      29.727  25.841  25.996  1.00  0.00     0.163 HD
ATOM     64  O   UNL A   1      30.686  23.845  26.808  1.00  0.00    -0.273 OA
BRANCH  62  65
ATOM     65  C   UNL A   1      31.980  23.594  24.794  1.00  0.00     0.176 C 
BRANCH  65  66
ATOM     66  C   UNL A   1      31.678  22.130  24.419  1.00  0.00     0.072 C 
BRANCH  66  67
ATOM     67  C   UNL A   1      32.706  21.085  24.745  1.00  0.00    -0.020 A 
ATOM     68  C   UNL A   1      33.657  21.130  25.750  1.00  0.00     0.087 A 
ATOM     69  C   UNL A   1      32.843  19.801  24.118  1.00  0.00     0.003 A 
ATOM     70  N   UNL A   1      34.398  19.978  25.703  1.00  0.00    -0.361 N 
ATOM     71  C   UNL A   1      33.940  19.160  24.698  1.00  0.00     0.046 A 
ATOM     72  C   UNL A   1      32.156  19.139  23.078  1.00  0.00     0.010 A 
ATOM     73  H   UNL A   1      35.152  19.768  26.301  1.00  0.00     0.166 HD
ATOM     74  C   UNL A   1      34.417  17.920  24.255  1.00  0.00     0.026 A 
ATOM     75  C   UNL A   1      32.620  17.900  22.622  1.00  0.00     0.001 A 
ATOM     76  C   UNL A   1      33.743  17.308  23.194  1.00  0.00     0.002 A 
ENDBRANCH  66  67
ENDBRANCH  65  66
BRANCH  65  77
ATOM     77  N   UNL A   1      32.501  24.395  23.679  1.00  0.00    -0.340 N 
ATOM     78  C   UNL A   1      33.792  24.660  23.294  1.00  0.00     0.254 C 
ATOM     79  H   UNL A   1      31.811  24.811  23.115  1.00  0.00     0.164 HD
ATOM     80  O   UNL A   1      33.986  25.455  22.379  1.00  0.00    -0.269 OA
BRANCH  78  81
ATOM     81  C   UNL A   1      34.944  23.986  23.929  1.00  0.00     0.075 A 
ATOM     82  C   UNL A   1      35.652  22.969  23.274  1.00  0.00     0.020 A 
ATOM     83  C   UNL A   1      35.387  24.432  25.179  1.00  0.00     0.138 A 
ATOM     84  C   UNL A   1      36.742  22.362  23.902  1.00  0.00     0.040 A 
ATOM     85  C   UNL A   1      36.489  23.845  25.797  1.00  0.00     0.079 A 
ATOM     86  F   UNL A   1      34.753  25.421  25.823  1.00  0.00    -0.206 F 
ATOM     87  C   UNL A   1      37.149  22.805  25.157  1.00  0.00     0.126 A 
ATOM     88  F   UNL A   1      38.200  22.225  25.750  1.00  0.00    -0.207 F 
ENDBRANCH  78  81
ENDBRANCH  65  77
ENDBRANCH  62  65
ENDBRANCH  60  61
ENDBRANCH  59  60
ENDBRANCH  58  59
ENDBRANCH   1  58
TORSDOF 17
ENDMDL
MODEL 2
REMARK VINA RESULT:     -12.0      2.279      7.949
REMARK SMILES O=C(NCCCCCCNC(=O)[C@@H](Cc1c[nH]c2ccccc12)NC(=O)c1ccc(F)cc1F)c1ccc(-c2c3nc(c(-c4ccccc4)c4ccc([nH]4)c(-c4ccccc4)c4nc(c(-c5ccccc5)c5ccc2[nH]5)C=C4)C=C3)cc1
REMARK SMILES IDX 6 1 5 2 4 3 3 4 1 5 2 6 35 8 36 9 82 10 37 11 81 12 38 13
REMARK SMILES IDX 39 14 40 15 75 16 41 17 80 18 74 19 76 20 42 21 79 22 73 23
REMARK SMILES IDX 72 24 43 26 65 27 50 28 64 29 51 30 54 31 63 32 77 33 52 34
REMARK SMILES IDX 53 35 62 37 78 38 55 39 44 40 45 41 49 42 46 43 48 44 47 45
REMARK SMILES IDX 66 46 67 47 71 48 68 49 70 50 69 51 56 52 57 53 61 54 58 55
REMARK SMILES IDX 60 56 59 57 7 58 8 59 9 60 10 61 11 62 12 64 13 65 14 66
REMARK SMILES IDX 15 67 16 68 23 69 17 70 18 71 22 72 19 74 21 75 20 76 24 77
REMARK SMILES IDX 25 78 26 80 27 81 28 82 33 83 29 84 32 85 34 86 30 87 31 88
REMARK H PARENT 3 7 76 25 54 36 10 63 17 73 24 79
REMARK Flexibility Score: inf
ROOT
ATOM      1  C   UNL A   1      38.913  22.372  26.138  1.00  0.00     0.002 C 
ENDROOT
BRANCH   1   2
ATOM      2  C   UNL A   1      39.072  21.049  25.386  1.00  0.00     0.021 C 
BRANCH   2   3
ATOM      3  C   UNL A   1      39.416  19.850  26.263  1.00  0.00     0.116 C 
BRANCH   3   4
ATOM      4  N   UNL A   1      40.656  19.206  25.863  1.00  0.00    -0.352 N 
ATOM      5  O   UNL A   1      42.828  19.071  25.271  1.00  0.00    -0.269 OA
ATOM      6  C   UNL A   1      41.936  19.708  25.815  1.00  0.00     0.251 C 
ATOM      7  H   UNL A   1      40.567  18.266  25.583  1.00  0.00     0.163 HD
BRANCH   6   8
ATOM      8  C   UNL A   1      42.234  21.031  26.408  1.00  0.00     0.039 A 
ATOM      9  C   UNL A   1      42.250  21.202  27.792  1.00  0.00     0.014 A 
ATOM     10  C   UNL A   1      42.538  22.107  25.567  1.00  0.00     0.014 A 
ATOM     11  C   UNL A   1      42.414  22.473  28.328  1.00  0.00     0.010 A 
ATOM     12  C   UNL A   1      42.804  23.367  26.115  1.00  0.00     0.010 A 
ATOM     13  C   UNL A   1      42.720  23.567  27.500  1.00  0.00    -0.014 A 
BRANCH  13  14
ATOM     14  C   UNL A   1      43.030  24.876  28.133  1.00  0.00     0.031 A 
ATOM     15  C   UNL A   1      44.438  25.285  28.458  1.00  0.00     0.074 A 
ATOM     16  C   UNL A   1      42.010  25.729  28.358  1.00  0.00     0.049 A 
ATOM     17  N   UNL A   1      44.871  26.430  28.929  1.00  0.00    -0.248 NA
ATOM     18  C   UNL A   1      45.500  24.291  28.237  1.00  0.00     0.031 C 
ATOM     19  C   UNL A   1      40.595  25.436  28.105  1.00  0.00     0.029 A 
ATOM     20  N   UNL A   1      42.003  27.022  28.814  1.00  0.00    -0.354 N 
ATOM     21  C   UNL A   1      46.247  26.293  29.067  1.00  0.00     0.074 A 
ATOM     22  C   UNL A   1      46.575  24.942  28.660  1.00  0.00     0.031 C 
ATOM     23  C   UNL A   1      39.868  26.536  28.345  1.00  0.00     0.029 A 
ATOM     24  C   UNL A   1      40.750  27.588  28.833  1.00  0.00     0.049 A 
ATOM     25  H   UNL A   1      42.816  27.499  29.100  1.00  0.00     0.167 HD
ATOM     26  C   UNL A   1      47.152  27.209  29.487  1.00  0.00     0.031 A 
ATOM     27  C   UNL A   1      40.349  28.814  29.211  1.00  0.00     0.031 A 
ATOM     28  C   UNL A   1      46.821  28.548  29.906  1.00  0.00     0.049 A 
ATOM     29  C   UNL A   1      41.373  29.800  29.688  1.00  0.00     0.074 A 
ATOM     30  C   UNL A   1      47.672  29.551  30.340  1.00  0.00     0.029 A 
ATOM     31  N   UNL A   1      45.537  29.070  29.947  1.00  0.00    -0.354 N 
ATOM     32  N   UNL A   1      42.673  29.660  29.777  1.00  0.00    -0.248 NA
ATOM     33  C   UNL A   1      40.873  31.113  30.113  1.00  0.00     0.031 C 
ATOM     34  C   UNL A   1      46.899  30.664  30.687  1.00  0.00     0.029 A 
ATOM     35  C   UNL A   1      45.572  30.374  30.415  1.00  0.00     0.049 A 
ATOM     36  H   UNL A   1      44.722  28.586  29.684  1.00  0.00     0.167 HD
ATOM     37  C   UNL A   1      43.148  30.869  30.263  1.00  0.00     0.074 A 
ATOM     38  C   UNL A   1      42.000  31.742  30.410  1.00  0.00     0.031 C 
ATOM     39  C   UNL A   1      44.420  31.223  30.571  1.00  0.00     0.031 A 
BRANCH  26  40
ATOM     40  C   UNL A   1      48.597  26.794  29.528  1.00  0.00    -0.014 A 
ATOM     41  C   UNL A   1      49.144  26.173  30.661  1.00  0.00     0.009 A 
ATOM     42  C   UNL A   1      49.407  26.965  28.394  1.00  0.00     0.009 A 
ATOM     43  C   UNL A   1      50.477  25.754  30.668  1.00  0.00     0.001 A 
ATOM     44  C   UNL A   1      50.732  26.523  28.393  1.00  0.00     0.001 A 
ATOM     45  C   UNL A   1      51.268  25.924  29.532  1.00  0.00     0.000 A 
ENDBRANCH  26  40
BRANCH  27  46
ATOM     46  C   UNL A   1      38.906  29.165  29.175  1.00  0.00    -0.014 A 
ATOM     47  C   UNL A   1      38.316  29.682  28.012  1.00  0.00     0.009 A 
ATOM     48  C   UNL A   1      38.107  28.983  30.316  1.00  0.00     0.009 A 
ATOM     49  C   UNL A   1      36.965  30.034  28.001  1.00  0.00     0.001 A 
ATOM     50  C   UNL A   1      36.750  29.304  30.293  1.00  0.00     0.001 A 
ATOM     51  C   UNL A   1      36.182  29.841  29.139  1.00  0.00     0.000 A 
ENDBRANCH  27  46
BRANCH  39  52
ATOM     52  C   UNL A   1      44.624  32.622  31.080  1.00  0.00    -0.014 A 
ATOM     53  C   UNL A   1      44.567  32.911  32.453  1.00  0.00     0.009 A 
ATOM     54  C   UNL A   1      44.874  33.665  30.174  1.00  0.00     0.009 A 
ATOM     55  C   UNL A   1      44.708  34.225  32.905  1.00  0.00     0.001 A 
ATOM     56  C   UNL A   1      45.046  34.972  30.631  1.00  0.00     0.001 A 
ATOM     57  C   UNL A   1      44.949  35.253  31.994  1.00  0.00     0.000 A 
ENDBRANCH  39  52
ENDBRANCH  13  14
ENDBRANCH   6   8
ENDBRANCH   3   4
ENDBRANCH   2   3
ENDBRANCH   1   2
BRANCH   1  58
ATOM     58  C   UNL A   1      37.699  23.217  25.741  1.00  0.00     0.002 C 
BRANCH  58  59
ATOM     59  C   UNL A   1      36.410  22.430  25.503  1.00  0.00     0.021 C 
BRANCH  59  60
ATOM     60  C   UNL A   1      35.866  22.466  24.076  1.00  0.00     0.116 C 
BRANCH  60  61
ATOM     61  N   UNL A   1      34.513  21.953  24.052  1.00  0.00    -0.354 N 
ATOM     62  C   UNL A   1      33.316  22.593  24.105  1.00  0.00     0.242 C 
ATOM     63  H   UNL A   1      34.450  20.972  23.987  1.00  0.00     0.163 HD
ATOM     64  O   UNL A   1      32.357  21.924  24.512  1.00  0.00    -0.273 OA
BRANCH  62  65
ATOM     65  C   UNL A   1      33.106  24.089  23.772  1.00  0.00     0.176 C 
BRANCH  65  66
ATOM     66  C   UNL A   1      33.698  25.079  24.794  1.00  0.00     0.072 C 
BRANCH  66  67
ATOM     67  C   UNL A   1      32.750  25.854  25.664  1.00  0.00    -0.020 A 
ATOM     68  C   UNL A   1      31.560  25.409  26.212  1.00  0.00     0.087 A 
ATOM     69  C   UNL A   1      32.946  27.189  26.157  1.00  0.00     0.003 A 
ATOM     70  N   UNL A   1      31.003  26.430  26.937  1.00  0.00    -0.361 N 
ATOM     71  C   UNL A   1      31.815  27.538  26.899  1.00  0.00     0.046 A 
ATOM     72  C   UNL A   1      33.968  28.150  26.005  1.00  0.00     0.010 A 
ATOM     73  H   UNL A   1      30.143  26.378  27.415  1.00  0.00     0.166 HD
ATOM     74  C   UNL A   1      31.631  28.813  27.448  1.00  0.00     0.026 A 
ATOM     75  C   UNL A   1      33.799  29.430  26.546  1.00  0.00     0.001 A 
ATOM     76  C   UNL A   1      32.640  29.758  27.244  1.00  0.00     0.002 A 
ENDBRANCH  66  67
ENDBRANCH  65  66
BRANCH  65  77
ATOM     77  N   UNL A   1      33.343  24.469  22.374  1.00  0.00    -0.340 N 
ATOM     78  C   UNL A   1      32.879  25.535  21.645  1.00  0.00     0.254 C 
ATOM     79  H   UNL A   1      33.932  23.857  21.877  1.00  0.00     0.164 HD
ATOM     80  O   UNL A   1      33.131  25.586  20.444  1.00  0.00    -0.269 OA
BRANCH  78  81
ATOM     81  C   UNL A   1      32.117  26.633  22.276  1.00  0.00     0.075 A 
ATOM     82  C   UNL A   1      30.800  26.450  22.721  1.00  0.00     0.020 A 
ATOM     83  C   UNL A   1      32.754  27.855  22.509  1.00  0.00     0.138 A 
ATOM     84  C   UNL A   1      30.114  27.508  23.321  1.00  0.00     0.040 A 
ATOM     85  C   UNL A   1      32.081  28.905  23.131  1.00  0.00     0.079 A 
ATOM     86  F   UNL A   1      34.022  28.058  22.124  1.00  0.00    -0.206 F 
ATOM     87  C   UNL A   1      30.761  28.725  23.520  1.00  0.00     0.126 A 
ATOM     88  F   UNL A   1      30.101  29.733  24.104  1.00  0.00    -0.207 F 
ENDBRANCH  78  81
ENDBRANCH  65  77
ENDBRANCH  62  65
ENDBRANCH  60  61
ENDBRANCH  59  60
ENDBRANCH  58  59
ENDBRANCH   1  58
TORSDOF 17
ENDMDL
MODEL 3
REMARK VINA RESULT:     -12.0      1.465      2.581
REMARK SMILES O=C(NCCCCCCNC(=O)[C@@H](Cc1c[nH]c2ccccc12)NC(=O)c1ccc(F)cc1F)c1ccc(-c2c3nc(c(-c4ccccc4)c4ccc([nH]4)c(-c4ccccc4)c4nc(c(-c5ccccc5)c5ccc2[nH]5)C=C4)C=C3)cc1
REMARK SMILES IDX 6 1 5 2 4 3 3 4 1 5 2 6 35 8 36 9 82 10 37 11 81 12 38 13
REMARK SMILES IDX 39 14 40 15 75 16 41 17 80 18 74 19 76 20 42 21 79 22 73 23
REMARK SMILES IDX 72 24 43 26 65 27 50 28 64 29 51 30 54 31 63 32 77 33 52 34
REMARK SMILES IDX 53 35 62 37 78 38 55 39 44 40 45 41 49 42 46 43 48 44 47 45
REMARK SMILES IDX 66 46 67 47 71 48 68 49 70 50 69 51 56 52 57 53 61 54 58 55
REMARK SMILES IDX 60 56 59 57 7 58 8 59 9 60 10 61 11 62 12 64 13 65 14 66
REMARK SMILES IDX 15 67 16 68 23 69 17 70 18 71 22 72 19 74 21 75 20 76 24 77
REMARK SMILES IDX 25 78 26 80 27 81 28 82 33 83 29 84 32 85 34 86 30 87 31 88
REMARK H PARENT 3 7 76 25 54 36 10 63 17 73 24 79
REMARK Flexibility Score: inf
ROOT
ATOM      1  C   UNL A   1      33.568  27.236  25.482  1.00  0.00     0.002 C 
ENDROOT
BRANCH   1   2
ATOM      2  C   UNL A   1      34.262  28.388  26.214  1.00  0.00     0.021 C 
BRANCH   2   3
ATOM      3  C   UNL A   1      33.717  28.682  27.608  1.00  0.00     0.116 C 
BRANCH   3   4
ATOM      4  N   UNL A   1      33.708  30.104  27.912  1.00  0.00    -0.352 N 
ATOM      5  O   UNL A   1      34.430  32.037  28.822  1.00  0.00    -0.269 OA
ATOM      6  C   UNL A   1      34.687  30.894  28.468  1.00  0.00     0.251 C 
ATOM      7  H   UNL A   1      32.874  30.573  27.684  1.00  0.00     0.163 HD
BRANCH   6   8
ATOM      8  C   UNL A   1      36.053  30.356  28.656  1.00  0.00     0.039 A 
ATOM      9  C   UNL A   1      37.003  30.459  27.640  1.00  0.00     0.014 A 
ATOM     10  C   UNL A   1      36.399  29.773  29.880  1.00  0.00     0.014 A 
ATOM     11  C   UNL A   1      38.241  29.846  27.788  1.00  0.00     0.010 A 
ATOM     12  C   UNL A   1      37.682  29.245  30.063  1.00  0.00     0.010 A 
ATOM     13  C   UNL A   1      38.607  29.255  29.009  1.00  0.00    -0.014 A 
BRANCH  13  14
ATOM     14  C   UNL A   1      39.993  28.741  29.166  1.00  0.00     0.031 A 
ATOM     15  C   UNL A   1      40.376  27.351  28.742  1.00  0.00     0.074 A 
ATOM     16  C   UNL A   1      40.930  29.580  29.650  1.00  0.00     0.049 A 
ATOM     17  N   UNL A   1      41.563  26.794  28.736  1.00  0.00    -0.248 NA
ATOM     18  C   UNL A   1      39.298  26.467  28.271  1.00  0.00     0.031 C 
ATOM     19  C   UNL A   1      40.676  30.947  30.118  1.00  0.00     0.029 A 
ATOM     20  N   UNL A   1      42.285  29.428  29.798  1.00  0.00    -0.354 N 
ATOM     21  C   UNL A   1      41.375  25.498  28.270  1.00  0.00     0.074 A 
ATOM     22  C   UNL A   1      39.955  25.340  28.033  1.00  0.00     0.031 C 
ATOM     23  C   UNL A   1      41.842  31.527  30.436  1.00  0.00     0.029 A 
ATOM     24  C   UNL A   1      42.915  30.558  30.262  1.00  0.00     0.049 A 
ATOM     25  H   UNL A   1      42.760  28.590  29.592  1.00  0.00     0.167 HD
ATOM     26  C   UNL A   1      42.302  24.533  28.053  1.00  0.00     0.031 A 
ATOM     27  C   UNL A   1      44.212  30.790  30.530  1.00  0.00     0.031 A 
ATOM     28  C   UNL A   1      43.713  24.688  28.304  1.00  0.00     0.049 A 
ATOM     29  C   UNL A   1      45.210  29.696  30.297  1.00  0.00     0.074 A 
ATOM     30  C   UNL A   1      44.730  23.768  28.106  1.00  0.00     0.029 A 
ATOM     31  N   UNL A   1      44.306  25.834  28.810  1.00  0.00    -0.354 N 
ATOM     32  N   UNL A   1      45.015  28.490  29.823  1.00  0.00    -0.248 NA
ATOM     33  C   UNL A   1      46.607  29.998  30.633  1.00  0.00     0.031 C 
ATOM     34  C   UNL A   1      45.931  24.343  28.536  1.00  0.00     0.029 A 
ATOM     35  C   UNL A   1      45.671  25.640  28.947  1.00  0.00     0.049 A 
ATOM     36  H   UNL A   1      43.828  26.663  29.038  1.00  0.00     0.167 HD
ATOM     37  C   UNL A   1      46.266  27.890  29.798  1.00  0.00     0.074 A 
ATOM     38  C   UNL A   1      47.215  28.880  30.266  1.00  0.00     0.031 C 
ATOM     39  C   UNL A   1      46.599  26.628  29.430  1.00  0.00     0.031 A 
BRANCH  26  40
ATOM     40  C   UNL A   1      41.820  23.209  27.525  1.00  0.00    -0.014 A 
ATOM     41  C   UNL A   1      41.823  22.931  26.150  1.00  0.00     0.009 A 
ATOM     42  C   UNL A   1      41.421  22.202  28.418  1.00  0.00     0.009 A 
ATOM     43  C   UNL A   1      41.414  21.681  25.678  1.00  0.00     0.001 A 
ATOM     44  C   UNL A   1      41.036  20.945  27.945  1.00  0.00     0.001 A 
ATOM     45  C   UNL A   1      41.027  20.688  26.576  1.00  0.00     0.000 A 
ENDBRANCH  26  40
BRANCH  27  46
ATOM     46  C   UNL A   1      44.632  32.108  31.073  1.00  0.00    -0.014 A 
ATOM     47  C   UNL A   1      44.636  32.352  32.454  1.00  0.00     0.009 A 
ATOM     48  C   UNL A   1      45.032  33.134  30.201  1.00  0.00     0.009 A 
ATOM     49  C   UNL A   1      45.006  33.605  32.948  1.00  0.00     0.001 A 
ATOM     50  C   UNL A   1      45.434  34.373  30.700  1.00  0.00     0.001 A 
ATOM     51  C   UNL A   1      45.409  34.613  32.072  1.00  0.00     0.000 A 
ENDBRANCH  27  46
BRANCH  39  52
ATOM     52  C   UNL A   1      48.055  26.267  29.509  1.00  0.00    -0.014 A 
ATOM     53  C   UNL A   1      48.905  26.430  28.404  1.00  0.00     0.009 A 
ATOM     54  C   UNL A   1      48.582  25.752  30.704  1.00  0.00     0.009 A 
ATOM     55  C   UNL A   1      50.245  26.041  28.479  1.00  0.00     0.001 A 
ATOM     56  C   UNL A   1      49.928  25.393  30.786  1.00  0.00     0.001 A 
ATOM     57  C   UNL A   1      50.754  25.525  29.670  1.00  0.00     0.000 A 
ENDBRANCH  39  52
ENDBRANCH  13  14
ENDBRANCH   6   8
ENDBRANCH   3   4
ENDBRANCH   2   3
ENDBRANCH   1   2
BRANCH   1  58
ATOM     58  C   UNL A   1      32.040  27.217  25.577  1.00  0.00     0.002 C 
BRANCH  58  59
ATOM     59  C   UNL A   1      31.453  26.054  26.377  1.00  0.00     0.021 C 
BRANCH  59  60
ATOM     60  C   UNL A   1      30.087  25.553  25.914  1.00  0.00     0.116 C 
BRANCH  60  61
ATOM     61  N   UNL A   1      29.776  24.298  26.564  1.00  0.00    -0.354 N 
ATOM     62  C   UNL A   1      30.310  23.058  26.408  1.00  0.00     0.242 C 
ATOM     63  H   UNL A   1      29.055  24.351  27.232  1.00  0.00     0.163 HD
ATOM     64  O   UNL A   1      29.588  22.108  26.738  1.00  0.00    -0.273 OA
BRANCH  62  65
ATOM     65  C   UNL A   1      31.697  22.772  25.785  1.00  0.00     0.176 C 
BRANCH  65  66
ATOM     66  C   UNL A   1      32.804  22.397  26.790  1.00  0.00     0.072 C 
BRANCH  66  67
ATOM     67  C   UNL A   1      34.050  21.744  26.265  1.00  0.00    -0.020 A 
ATOM     68  C   UNL A   1      34.196  20.435  25.841  1.00  0.00     0.087 A 
ATOM     69  C   UNL A   1      35.313  22.386  26.031  1.00  0.00     0.003 A 
ATOM     70  N   UNL A   1      35.493  20.246  25.443  1.00  0.00    -0.361 N 
ATOM     71  C   UNL A   1      36.205  21.414  25.573  1.00  0.00     0.046 A 
ATOM     72  C   UNL A   1      35.791  23.703  26.206  1.00  0.00     0.010 A 
ATOM     73  H   UNL A   1      35.863  19.395  25.112  1.00  0.00     0.166 HD
ATOM     74  C   UNL A   1      37.560  21.679  25.335  1.00  0.00     0.026 A 
ATOM     75  C   UNL A   1      37.142  23.983  25.975  1.00  0.00     0.001 A 
ATOM     76  C   UNL A   1      38.015  22.981  25.559  1.00  0.00     0.002 A 
ENDBRANCH  66  67
ENDBRANCH  65  66
BRANCH  65  77
ATOM     77  N   UNL A   1      31.691  21.942  24.574  1.00  0.00    -0.340 N 
ATOM     78  C   UNL A   1      31.862  22.282  23.255  1.00  0.00     0.254 C 
ATOM     79  H   UNL A   1      31.539  20.984  24.734  1.00  0.00     0.164 HD
ATOM     80  O   UNL A   1      31.708  21.418  22.396  1.00  0.00    -0.269 OA
BRANCH  78  81
ATOM     81  C   UNL A   1      32.259  23.647  22.852  1.00  0.00     0.075 A 
ATOM     82  C   UNL A   1      31.306  24.649  22.616  1.00  0.00     0.020 A 
ATOM     83  C   UNL A   1      33.619  23.967  22.785  1.00  0.00     0.138 A 
ATOM     84  C   UNL A   1      31.719  25.931  22.245  1.00  0.00     0.040 A 
ATOM     85  C   UNL A   1      34.034  25.252  22.440  1.00  0.00     0.079 A 
ATOM     86  F   UNL A   1      34.558  23.044  23.031  1.00  0.00    -0.206 F 
ATOM     87  C   UNL A   1      33.078  26.219  22.160  1.00  0.00     0.126 A 
ATOM     88  F   UNL A   1      33.468  27.452  21.813  1.00  0.00    -0.207 F 
ENDBRANCH  78  81
ENDBRANCH  65  77
ENDBRANCH  62  65
ENDBRANCH  60  61
ENDBRANCH  59  60
ENDBRANCH  58  59
ENDBRANCH   1  58
TORSDOF 17
ENDMDL
