MODEL 1
REMARK VINA RESULT:      -8.9      0.000      0.000
REMARK SMILES C[C@H](C(=O)NCCCCCCNC(=O)c1ccc(-c2c3nc(c(-c4ccccc4)c4ccc([nH]4)c(-c4ccccc4)c4nc(c(-c5ccccc5)c5ccc2[nH]5)C=C4)C=C3)cc1)[C@H](C)[N@@H+]1CC[C@H]([NH+]2CCCCC2)C1
REMARK SMILES IDX 8 1 7 2 6 3 5 4 3 5 4 6 2 8 1 9 63 10 64 11 65 12 66 13
REMARK SMILES IDX 75 14 67 16 68 17 69 18 70 19 74 20 71 22 73 23 72 24 9 25
REMARK SMILES IDX 10 26 11 27 12 28 13 29 14 31 15 32 16 33 62 34 17 35 61 36
REMARK SMILES IDX 18 37 19 38 20 39 55 40 21 41 60 42 54 43 56 44 22 45 59 46
REMARK SMILES IDX 53 47 52 48 23 50 45 51 30 52 44 53 31 54 34 55 43 56 57 57
REMARK SMILES IDX 32 58 33 59 42 61 58 62 35 63 24 64 25 65 29 66 26 67 28 68
REMARK SMILES IDX 27 69 46 70 47 71 51 72 48 73 50 74 49 75 36 76 37 77 41 78
REMARK SMILES IDX 38 79 40 80 39 81
REMARK H PARENT 5 7 65 15 69 21 12 30 56 49 34 60
REMARK Flexibility Score: inf
ROOT
ATOM      1  C   UNL A   1      34.949  35.545  32.748  1.00  0.00     0.002 C 
ENDROOT
BRANCH   1   2
ATOM      2  C   UNL A   1      34.461  34.243  33.395  1.00  0.00     0.021 C 
BRANCH   2   3
ATOM      3  C   UNL A   1      35.486  33.509  34.254  1.00  0.00     0.116 C 
BRANCH   3   4
ATOM      4  N   UNL A   1      36.724  34.239  34.328  1.00  0.00    -0.356 N 
ATOM      5  C   UNL A   1      37.800  34.195  35.140  1.00  0.00     0.228 C 
ATOM      6  O   UNL A   1      38.537  35.179  35.000  1.00  0.00    -0.275 OA
ATOM      7  H   UNL A   1      36.804  34.927  33.628  1.00  0.00     0.163 HD
BRANCH   5   8
ATOM      8  C   UNL A   1      38.050  33.148  36.239  1.00  0.00     0.133 C 
ATOM      9  C   UNL A   1      37.253  33.163  37.549  1.00  0.00     0.024 C 
BRANCH   8  10
ATOM     10  C   UNL A   1      38.067  31.692  35.625  1.00  0.00     0.193 C 
ATOM     11  C   UNL A   1      38.099  30.655  36.780  1.00  0.00     0.076 C 
BRANCH  10  12
ATOM     12  N   UNL A   1      38.943  31.334  34.494  1.00  0.00    -0.327 N 
ATOM     13  C   UNL A   1      38.426  30.585  33.356  1.00  0.00     0.269 C 
ATOM     14  C   UNL A   1      40.326  30.915  34.700  1.00  0.00     0.328 C 
ATOM     15  H   UNL A   1      38.943  32.328  34.268  1.00  0.00     0.348 HD
ATOM     16  C   UNL A   1      39.155  29.251  33.362  1.00  0.00     0.132 C 
ATOM     17  C   UNL A   1      40.519  29.541  33.996  1.00  0.00     0.245 C 
BRANCH  17  18
ATOM     18  N   UNL A   1      41.162  28.425  34.747  1.00  0.00    -0.328 N 
ATOM     19  C   UNL A   1      41.852  27.447  33.899  1.00  0.00     0.262 C 
ATOM     20  C   UNL A   1      42.111  28.946  35.750  1.00  0.00     0.262 C 
ATOM     21  H   UNL A   1      40.391  27.934  35.200  1.00  0.00     0.348 HD
ATOM     22  C   UNL A   1      42.386  26.261  34.703  1.00  0.00     0.062 C 
ATOM     23  C   UNL A   1      42.748  27.834  36.595  1.00  0.00     0.062 C 
ATOM     24  C   UNL A   1      43.386  26.747  35.738  1.00  0.00     0.012 C 
ENDBRANCH  17  18
ENDBRANCH  10  12
ENDBRANCH   8  10
ENDBRANCH   5   8
ENDBRANCH   3   4
ENDBRANCH   2   3
ENDBRANCH   1   2
BRANCH   1  25
ATOM     25  C   UNL A   1      33.928  36.684  32.678  1.00  0.00     0.002 C 
BRANCH  25  26
ATOM     26  C   UNL A   1      32.933  36.608  31.520  1.00  0.00     0.021 C 
BRANCH  26  27
ATOM     27  C   UNL A   1      33.556  36.435  30.140  1.00  0.00     0.116 C 
BRANCH  27  28
ATOM     28  N   UNL A   1      32.745  35.619  29.255  1.00  0.00    -0.352 N 
ATOM     29  C   UNL A   1      33.070  34.441  28.627  1.00  0.00     0.251 C 
ATOM     30  H   UNL A   1      31.836  35.955  29.082  1.00  0.00     0.163 HD
ATOM     31  O   UNL A   1      32.313  33.954  27.798  1.00  0.00    -0.269 OA
BRANCH  29  32
ATOM     32  C   UNL A   1      34.355  33.776  28.935  1.00  0.00     0.039 A 
ATOM     33  C   UNL A   1      35.453  34.022  28.107  1.00  0.00     0.014 A 
ATOM     34  C   UNL A   1      34.481  32.912  30.027  1.00  0.00     0.014 A 
ATOM     35  C   UNL A   1      36.687  33.441  28.402  1.00  0.00     0.010 A 
ATOM     36  C   UNL A   1      35.730  32.400  30.367  1.00  0.00     0.010 A 
ATOM     37  C   UNL A   1      36.843  32.647  29.550  1.00  0.00    -0.014 A 
BRANCH  37  38
ATOM     38  C   UNL A   1      38.160  32.056  29.898  1.00  0.00     0.031 A 
ATOM     39  C   UNL A   1      39.117  32.805  30.787  1.00  0.00     0.074 A 
ATOM     40  C   UNL A   1      38.513  30.862  29.384  1.00  0.00     0.049 A 
ATOM     41  N   UNL A   1      40.313  32.459  31.191  1.00  0.00    -0.248 NA
ATOM     42  C   UNL A   1      38.682  34.128  31.265  1.00  0.00     0.031 C 
ATOM     43  C   UNL A   1      37.692  30.049  28.483  1.00  0.00     0.029 A 
ATOM     44  N   UNL A   1      39.657  30.122  29.549  1.00  0.00    -0.354 N 
ATOM     45  C   UNL A   1      40.777  33.525  31.952  1.00  0.00     0.074 A 
ATOM     46  C   UNL A   1      39.759  34.551  31.907  1.00  0.00     0.031 C 
ATOM     47  C   UNL A   1      38.340  28.906  28.211  1.00  0.00     0.029 A 
ATOM     48  C   UNL A   1      39.638  28.923  28.878  1.00  0.00     0.049 A 
ATOM     49  H   UNL A   1      40.419  30.422  30.095  1.00  0.00     0.167 HD
ATOM     50  C   UNL A   1      41.935  33.633  32.646  1.00  0.00     0.031 A 
ATOM     51  C   UNL A   1      40.561  27.945  28.810  1.00  0.00     0.031 A 
ATOM     52  C   UNL A   1      42.946  32.609  32.694  1.00  0.00     0.049 A 
ATOM     53  C   UNL A   1      41.852  28.102  29.565  1.00  0.00     0.074 A 
ATOM     54  C   UNL A   1      44.129  32.598  33.413  1.00  0.00     0.029 A 
ATOM     55  N   UNL A   1      42.894  31.416  31.989  1.00  0.00    -0.354 N 
ATOM     56  N   UNL A   1      42.244  29.083  30.342  1.00  0.00    -0.248 NA
ATOM     57  C   UNL A   1      42.823  27.006  29.442  1.00  0.00     0.031 C 
ATOM     58  C   UNL A   1      44.823  31.427  33.092  1.00  0.00     0.029 A 
ATOM     59  C   UNL A   1      44.040  30.676  32.230  1.00  0.00     0.049 A 
ATOM     60  H   UNL A   1      42.153  31.136  31.404  1.00  0.00     0.167 HD
ATOM     61  C   UNL A   1      43.489  28.706  30.829  1.00  0.00     0.074 A 
ATOM     62  C   UNL A   1      43.779  27.402  30.272  1.00  0.00     0.031 C 
ATOM     63  C   UNL A   1      44.317  29.379  31.666  1.00  0.00     0.031 A 
BRANCH  50  64
ATOM     64  C   UNL A   1      42.175  34.916  33.395  1.00  0.00    -0.014 A 
ATOM     65  C   UNL A   1      41.677  35.111  34.694  1.00  0.00     0.009 A 
ATOM     66  C   UNL A   1      42.929  35.940  32.800  1.00  0.00     0.009 A 
ATOM     67  C   UNL A   1      41.887  36.320  35.360  1.00  0.00     0.001 A 
ATOM     68  C   UNL A   1      43.167  37.134  33.482  1.00  0.00     0.001 A 
ATOM     69  C   UNL A   1      42.636  37.328  34.756  1.00  0.00     0.000 A 
ENDBRANCH  50  64
BRANCH  51  70
ATOM     70  C   UNL A   1      40.292  26.715  28.018  1.00  0.00    -0.014 A 
ATOM     71  C   UNL A   1      39.556  25.659  28.576  1.00  0.00     0.009 A 
ATOM     72  C   UNL A   1      40.779  26.585  26.708  1.00  0.00     0.009 A 
ATOM     73  C   UNL A   1      39.340  24.485  27.850  1.00  0.00     0.001 A 
ATOM     74  C   UNL A   1      40.533  25.423  25.973  1.00  0.00     0.001 A 
ATOM     75  C   UNL A   1      39.823  24.370  26.549  1.00  0.00     0.000 A 
ENDBRANCH  51  70
BRANCH  63  76
ATOM     76  C   UNL A   1      45.595  28.695  32.065  1.00  0.00    -0.014 A 
ATOM     77  C   UNL A   1      46.779  28.862  31.331  1.00  0.00     0.009 A 
ATOM     78  C   UNL A   1      45.619  27.891  33.216  1.00  0.00     0.009 A 
ATOM     79  C   UNL A   1      47.950  28.205  31.717  1.00  0.00     0.001 A 
ATOM     80  C   UNL A   1      46.798  27.264  33.620  1.00  0.00     0.001 A 
ATOM     81  C   UNL A   1      47.959  27.412  32.865  1.00  0.00     0.000 A 
ENDBRANCH  63  76
ENDBRANCH  37  38
ENDBRANCH  29  32
ENDBRANCH  27  28
ENDBRANCH  26  27
ENDBRANCH  25  26
ENDBRANCH   1  25
TORSDOF 16
ENDMDL
MODEL 2
REMARK VINA RESULT:      -8.9      4.285      7.535
REMARK SMILES C[C@H](C(=O)NCCCCCCNC(=O)c1ccc(-c2c3nc(c(-c4ccccc4)c4ccc([nH]4)c(-c4ccccc4)c4nc(c(-c5ccccc5)c5ccc2[nH]5)C=C4)C=C3)cc1)[C@H](C)[N@@H+]1CC[C@H]([NH+]2CCCCC2)C1
REMARK SMILES IDX 8 1 7 2 6 3 5 4 3 5 4 6 2 8 1 9 63 10 64 11 65 12 66 13
REMARK SMILES IDX 75 14 67 16 68 17 69 18 70 19 74 20 71 22 73 23 72 24 9 25
REMARK SMILES IDX 10 26 11 27 12 28 13 29 14 31 15 32 16 33 62 34 17 35 61 36
REMARK SMILES IDX 18 37 19 38 20 39 55 40 21 41 60 42 54 43 56 44 22 45 59 46
REMARK SMILES IDX 53 47 52 48 23 50 45 51 30 52 44 53 31 54 34 55 43 56 57 57
REMARK SMILES IDX 32 58 33 59 42 61 58 62 35 63 24 64 25 65 29 66 26 67 28 68
REMARK SMILES IDX 27 69 46 70 47 71 51 72 48 73 50 74 49 75 36 76 37 77 41 78
REMARK SMILES IDX 38 79 40 80 39 81
REMARK H PARENT 5 7 65 15 69 21 12 30 56 49 34 60
REMARK Flexibility Score: inf
ROOT
ATOM      1  C   UNL A   1      30.472  29.795  24.237  1.00  0.00     0.002 C 
ENDROOT
BRANCH   1   2
ATOM      2  C   UNL A   1      31.088  29.245  22.945  1.00  0.00     0.021 C 
BRANCH   2   3
ATOM      3  C   UNL A   1      30.649  27.838  22.551  1.00  0.00     0.116 C 
BRANCH   3   4
ATOM      4  N   UNL A   1      31.742  27.087  21.993  1.00  0.00    -0.356 N 
ATOM      5  C   UNL A   1      32.778  26.396  22.513  1.00  0.00     0.228 C 
ATOM      6  O   UNL A   1      33.629  26.111  21.662  1.00  0.00    -0.275 OA
ATOM      7  H   UNL A   1      31.733  27.074  21.008  1.00  0.00     0.163 HD
BRANCH   5   8
ATOM      8  C   UNL A   1      32.999  26.106  24.007  1.00  0.00     0.133 C 
ATOM      9  C   UNL A   1      33.624  27.153  24.937  1.00  0.00     0.024 C 
BRANCH   8  10
ATOM     10  C   UNL A   1      31.688  25.510  24.658  1.00  0.00     0.193 C 
ATOM     11  C   UNL A   1      31.204  26.461  25.785  1.00  0.00     0.076 C 
BRANCH  10  12
ATOM     12  N   UNL A   1      31.572  24.083  25.009  1.00  0.00    -0.327 N 
ATOM     13  C   UNL A   1      31.231  23.671  26.364  1.00  0.00     0.269 C 
ATOM     14  C   UNL A   1      32.490  23.084  24.467  1.00  0.00     0.328 C 
ATOM     15  H   UNL A   1      30.728  24.080  24.436  1.00  0.00     0.348 HD
ATOM     16  C   UNL A   1      32.445  22.927  26.897  1.00  0.00     0.132 C 
ATOM     17  C   UNL A   1      33.111  22.308  25.664  1.00  0.00     0.245 C 
BRANCH  17  18
ATOM     18  N   UNL A   1      34.589  22.123  25.721  1.00  0.00    -0.328 N 
ATOM     19  C   UNL A   1      35.094  21.040  24.869  1.00  0.00     0.262 C 
ATOM     20  C   UNL A   1      35.289  23.374  25.373  1.00  0.00     0.262 C 
ATOM     21  H   UNL A   1      34.784  21.856  26.686  1.00  0.00     0.348 HD
ATOM     22  C   UNL A   1      36.593  20.810  25.056  1.00  0.00     0.062 C 
ATOM     23  C   UNL A   1      36.814  23.250  25.483  1.00  0.00     0.062 C 
ATOM     24  C   UNL A   1      37.359  22.069  24.688  1.00  0.00     0.012 C 
ENDBRANCH  17  18
ENDBRANCH  10  12
ENDBRANCH   8  10
ENDBRANCH   5   8
ENDBRANCH   3   4
ENDBRANCH   2   3
ENDBRANCH   1   2
BRANCH   1  25
ATOM     25  C   UNL A   1      31.454  30.100  25.372  1.00  0.00     0.002 C 
BRANCH  25  26
ATOM     26  C   UNL A   1      31.179  31.384  26.154  1.00  0.00     0.021 C 
BRANCH  26  27
ATOM     27  C   UNL A   1      32.377  31.958  26.901  1.00  0.00     0.116 C 
BRANCH  27  28
ATOM     28  N   UNL A   1      32.179  33.337  27.306  1.00  0.00    -0.352 N 
ATOM     29  C   UNL A   1      32.948  34.111  28.142  1.00  0.00     0.251 C 
ATOM     30  H   UNL A   1      31.385  33.781  26.930  1.00  0.00     0.163 HD
ATOM     31  O   UNL A   1      32.560  35.217  28.491  1.00  0.00    -0.269 OA
BRANCH  29  32
ATOM     32  C   UNL A   1      34.239  33.589  28.644  1.00  0.00     0.039 A 
ATOM     33  C   UNL A   1      34.255  32.886  29.850  1.00  0.00     0.014 A 
ATOM     34  C   UNL A   1      35.428  33.792  27.935  1.00  0.00     0.014 A 
ATOM     35  C   UNL A   1      35.452  32.347  30.322  1.00  0.00     0.010 A 
ATOM     36  C   UNL A   1      36.604  33.183  28.365  1.00  0.00     0.010 A 
ATOM     37  C   UNL A   1      36.632  32.466  29.569  1.00  0.00    -0.014 A 
BRANCH  37  38
ATOM     38  C   UNL A   1      37.904  31.862  30.039  1.00  0.00     0.031 A 
ATOM     39  C   UNL A   1      38.728  32.553  31.093  1.00  0.00     0.074 A 
ATOM     40  C   UNL A   1      38.341  30.712  29.490  1.00  0.00     0.049 A 
ATOM     41  N   UNL A   1      39.870  32.189  31.620  1.00  0.00    -0.248 NA
ATOM     42  C   UNL A   1      38.213  33.834  31.604  1.00  0.00     0.031 C 
ATOM     43  C   UNL A   1      37.655  29.960  28.437  1.00  0.00     0.029 A 
ATOM     44  N   UNL A   1      39.468  29.972  29.746  1.00  0.00    -0.354 N 
ATOM     45  C   UNL A   1      40.215  33.201  32.508  1.00  0.00     0.074 A 
ATOM     46  C   UNL A   1      39.192  34.219  32.407  1.00  0.00     0.031 C 
ATOM     47  C   UNL A   1      38.352  28.844  28.169  1.00  0.00     0.029 A 
ATOM     48  C   UNL A   1      39.555  28.825  28.995  1.00  0.00     0.049 A 
ATOM     49  H   UNL A   1      40.150  30.238  30.405  1.00  0.00     0.167 HD
ATOM     50  C   UNL A   1      41.274  33.268  33.349  1.00  0.00     0.031 A 
ATOM     51  C   UNL A   1      40.497  27.862  28.976  1.00  0.00     0.031 A 
ATOM     52  C   UNL A   1      42.289  32.253  33.453  1.00  0.00     0.049 A 
ATOM     53  C   UNL A   1      41.679  27.975  29.899  1.00  0.00     0.074 A 
ATOM     54  C   UNL A   1      43.371  32.200  34.313  1.00  0.00     0.029 A 
ATOM     55  N   UNL A   1      42.348  31.114  32.664  1.00  0.00    -0.354 N 
ATOM     56  N   UNL A   1      41.952  28.901  30.787  1.00  0.00    -0.248 NA
ATOM     57  C   UNL A   1      42.677  26.899  29.823  1.00  0.00     0.031 C 
ATOM     58  C   UNL A   1      44.121  31.061  34.002  1.00  0.00     0.029 A 
ATOM     59  C   UNL A   1      43.467  30.368  32.995  1.00  0.00     0.049 A 
ATOM     60  H   UNL A   1      41.692  30.871  31.971  1.00  0.00     0.167 HD
ATOM     61  C   UNL A   1      43.133  28.501  31.400  1.00  0.00     0.074 A 
ATOM     62  C   UNL A   1      43.514  27.242  30.793  1.00  0.00     0.031 C 
ATOM     63  C   UNL A   1      43.836  29.118  32.381  1.00  0.00     0.031 A 
BRANCH  50  64
ATOM     64  C   UNL A   1      41.394  34.496  34.212  1.00  0.00    -0.014 A 
ATOM     65  C   UNL A   1      42.129  35.617  33.792  1.00  0.00     0.009 A 
ATOM     66  C   UNL A   1      40.746  34.540  35.455  1.00  0.00     0.009 A 
ATOM     67  C   UNL A   1      42.250  36.736  34.619  1.00  0.00     0.001 A 
ATOM     68  C   UNL A   1      40.840  35.673  36.266  1.00  0.00     0.001 A 
ATOM     69  C   UNL A   1      41.603  36.765  35.853  1.00  0.00     0.000 A 
ENDBRANCH  50  64
BRANCH  51  70
ATOM     70  C   UNL A   1      40.352  26.691  28.072  1.00  0.00    -0.014 A 
ATOM     71  C   UNL A   1      39.662  25.546  28.497  1.00  0.00     0.009 A 
ATOM     72  C   UNL A   1      40.912  26.705  26.784  1.00  0.00     0.009 A 
ATOM     73  C   UNL A   1      39.562  24.428  27.666  1.00  0.00     0.001 A 
ATOM     74  C   UNL A   1      40.783  25.598  25.943  1.00  0.00     0.001 A 
ATOM     75  C   UNL A   1      40.117  24.456  26.389  1.00  0.00     0.000 A 
ENDBRANCH  51  70
BRANCH  63  76
ATOM     76  C   UNL A   1      45.066  28.417  32.890  1.00  0.00    -0.014 A 
ATOM     77  C   UNL A   1      44.999  27.483  33.934  1.00  0.00     0.009 A 
ATOM     78  C   UNL A   1      46.308  28.677  32.291  1.00  0.00     0.009 A 
ATOM     79  C   UNL A   1      46.159  26.854  34.395  1.00  0.00     0.001 A 
ATOM     80  C   UNL A   1      47.459  28.023  32.729  1.00  0.00     0.001 A 
ATOM     81  C   UNL A   1      47.386  27.122  33.788  1.00  0.00     0.000 A 
ENDBRANCH  63  76
ENDBRANCH  37  38
ENDBRANCH  29  32
ENDBRANCH  27  28
ENDBRANCH  26  27
ENDBRANCH  25  26
ENDBRANCH   1  25
TORSDOF 16
ENDMDL
MODEL 3
REMARK VINA RESULT:      -8.9      4.544      8.179
REMARK SMILES C[C@H](C(=O)NCCCCCCNC(=O)c1ccc(-c2c3nc(c(-c4ccccc4)c4ccc([nH]4)c(-c4ccccc4)c4nc(c(-c5ccccc5)c5ccc2[nH]5)C=C4)C=C3)cc1)[C@H](C)[N@@H+]1CC[C@H]([NH+]2CCCCC2)C1
REMARK SMILES IDX 8 1 7 2 6 3 5 4 3 5 4 6 2 8 1 9 63 10 64 11 65 12 66 13
REMARK SMILES IDX 75 14 67 16 68 17 69 18 70 19 74 20 71 22 73 23 72 24 9 25
REMARK SMILES IDX 10 26 11 27 12 28 13 29 14 31 15 32 16 33 62 34 17 35 61 36
REMARK SMILES IDX 18 37 19 38 20 39 55 40 21 41 60 42 54 43 56 44 22 45 59 46
REMARK SMILES IDX 53 47 52 48 23 50 45 51 30 52 44 53 31 54 34 55 43 56 57 57
REMARK SMILES IDX 32 58 33 59 42 61 58 62 35 63 24 64 25 65 29 66 26 67 28 68
REMARK SMILES IDX 27 69 46 70 47 71 51 72 48 73 50 74 49 75 36 76 37 77 41 78
REMARK SMILES IDX 38 79 40 80 39 81
REMARK H PARENT 5 7 65 15 69 21 12 30 56 49 34 60
REMARK Flexibility Score: inf
ROOT
ATOM      1  C   UNL A   1      32.392  29.616  26.740  1.00  0.00     0.002 C 
ENDROOT
BRANCH   1   2
ATOM      2  C   UNL A   1      31.711  28.387  27.355  1.00  0.00     0.021 C 
BRANCH   2   3
ATOM      3  C   UNL A   1      31.119  27.393  26.360  1.00  0.00     0.116 C 
BRANCH   3   4
ATOM      4  N   UNL A   1      31.097  26.061  26.904  1.00  0.00    -0.356 N 
ATOM      5  C   UNL A   1      31.799  24.933  26.669  1.00  0.00     0.228 C 
ATOM      6  O   UNL A   1      31.281  23.939  27.191  1.00  0.00    -0.275 OA
ATOM      7  H   UNL A   1      30.416  25.946  27.605  1.00  0.00     0.163 HD
BRANCH   5   8
ATOM      8  C   UNL A   1      33.020  24.814  25.741  1.00  0.00     0.133 C 
ATOM      9  C   UNL A   1      34.227  23.947  26.118  1.00  0.00     0.024 C 
BRANCH   8  10
ATOM     10  C   UNL A   1      32.563  24.501  24.260  1.00  0.00     0.193 C 
ATOM     11  C   UNL A   1      33.057  23.083  23.867  1.00  0.00     0.076 C 
BRANCH  10  12
ATOM     12  N   UNL A   1      32.705  25.491  23.176  1.00  0.00    -0.327 N 
ATOM     13  C   UNL A   1      33.701  26.551  23.257  1.00  0.00     0.269 C 
ATOM     14  C   UNL A   1      31.543  26.036  22.480  1.00  0.00     0.328 C 
ATOM     15  H   UNL A   1      33.078  24.723  22.617  1.00  0.00     0.348 HD
ATOM     16  C   UNL A   1      32.924  27.856  23.323  1.00  0.00     0.132 C 
ATOM     17  C   UNL A   1      31.622  27.588  22.563  1.00  0.00     0.245 C 
BRANCH  17  18
ATOM     18  N   UNL A   1      30.419  28.353  22.999  1.00  0.00    -0.328 N 
ATOM     19  C   UNL A   1      30.208  29.610  22.273  1.00  0.00     0.262 C 
ATOM     20  C   UNL A   1      29.202  27.525  22.890  1.00  0.00     0.262 C 
ATOM     21  H   UNL A   1      30.603  28.599  23.972  1.00  0.00     0.348 HD
ATOM     22  C   UNL A   1      29.039  30.415  22.839  1.00  0.00     0.062 C 
ATOM     23  C   UNL A   1      27.946  28.250  23.392  1.00  0.00     0.062 C 
ATOM     24  C   UNL A   1      27.756  29.609  22.728  1.00  0.00     0.012 C 
ENDBRANCH  17  18
ENDBRANCH  10  12
ENDBRANCH   8  10
ENDBRANCH   5   8
ENDBRANCH   3   4
ENDBRANCH   2   3
ENDBRANCH   1   2
BRANCH   1  25
ATOM     25  C   UNL A   1      31.479  30.576  25.973  1.00  0.00     0.002 C 
BRANCH  25  26
ATOM     26  C   UNL A   1      31.326  31.970  26.582  1.00  0.00     0.021 C 
BRANCH  26  27
ATOM     27  C   UNL A   1      32.597  32.561  27.178  1.00  0.00     0.116 C 
BRANCH  27  28
ATOM     28  N   UNL A   1      32.405  33.903  27.695  1.00  0.00    -0.352 N 
ATOM     29  C   UNL A   1      33.156  34.589  28.619  1.00  0.00     0.251 C 
ATOM     30  H   UNL A   1      31.631  34.391  27.332  1.00  0.00     0.163 HD
ATOM     31  O   UNL A   1      32.772  35.667  29.050  1.00  0.00    -0.269 OA
BRANCH  29  32
ATOM     32  C   UNL A   1      34.422  34.004  29.116  1.00  0.00     0.039 A 
ATOM     33  C   UNL A   1      34.378  33.153  30.222  1.00  0.00     0.014 A 
ATOM     34  C   UNL A   1      35.644  34.291  28.500  1.00  0.00     0.014 A 
ATOM     35  C   UNL A   1      35.552  32.555  30.682  1.00  0.00     0.010 A 
ATOM     36  C   UNL A   1      36.799  33.630  28.908  1.00  0.00     0.010 A 
ATOM     37  C   UNL A   1      36.768  32.765  30.012  1.00  0.00    -0.014 A 
BRANCH  37  38
ATOM     38  C   UNL A   1      38.017  32.103  30.466  1.00  0.00     0.031 A 
ATOM     39  C   UNL A   1      38.841  32.712  31.569  1.00  0.00     0.074 A 
ATOM     40  C   UNL A   1      38.434  30.975  29.859  1.00  0.00     0.049 A 
ATOM     41  N   UNL A   1      39.964  32.290  32.091  1.00  0.00    -0.248 NA
ATOM     42  C   UNL A   1      38.350  33.975  32.144  1.00  0.00     0.031 C 
ATOM     43  C   UNL A   1      37.746  30.301  28.755  1.00  0.00     0.029 A 
ATOM     44  N   UNL A   1      39.538  30.193  30.089  1.00  0.00    -0.354 N 
ATOM     45  C   UNL A   1      40.320  33.241  33.040  1.00  0.00     0.074 A 
ATOM     46  C   UNL A   1      39.326  34.289  32.982  1.00  0.00     0.031 C 
ATOM     47  C   UNL A   1      38.420  29.185  28.434  1.00  0.00     0.029 A 
ATOM     48  C   UNL A   1      39.608  29.088  29.276  1.00  0.00     0.049 A 
ATOM     49  H   UNL A   1      40.215  30.404  30.772  1.00  0.00     0.167 HD
ATOM     50  C   UNL A   1      41.367  33.233  33.900  1.00  0.00     0.031 A 
ATOM     51  C   UNL A   1      40.526  28.104  29.216  1.00  0.00     0.031 A 
ATOM     52  C   UNL A   1      42.354  32.187  33.961  1.00  0.00     0.049 A 
ATOM     53  C   UNL A   1      41.696  28.134  30.161  1.00  0.00     0.074 A 
ATOM     54  C   UNL A   1      43.421  32.058  34.832  1.00  0.00     0.029 A 
ATOM     55  N   UNL A   1      42.397  31.093  33.109  1.00  0.00    -0.354 N 
ATOM     56  N   UNL A   1      41.977  29.001  31.104  1.00  0.00    -0.248 NA
ATOM     57  C   UNL A   1      42.668  27.039  30.039  1.00  0.00     0.031 C 
ATOM     58  C   UNL A   1      44.147  30.920  34.468  1.00  0.00     0.029 A 
ATOM     59  C   UNL A   1      43.492  30.302  33.414  1.00  0.00     0.049 A 
ATOM     60  H   UNL A   1      41.747  30.907  32.394  1.00  0.00     0.167 HD
ATOM     61  C   UNL A   1      43.137  28.536  31.711  1.00  0.00     0.074 A 
ATOM     62  C   UNL A   1      43.497  27.305  31.039  1.00  0.00     0.031 C 
ATOM     63  C   UNL A   1      43.840  29.079  32.736  1.00  0.00     0.031 A 
BRANCH  50  64
ATOM     64  C   UNL A   1      41.504  34.407  34.832  1.00  0.00    -0.014 A 
ATOM     65  C   UNL A   1      42.250  35.543  34.475  1.00  0.00     0.009 A 
ATOM     66  C   UNL A   1      40.860  34.385  36.079  1.00  0.00     0.009 A 
ATOM     67  C   UNL A   1      42.387  36.610  35.367  1.00  0.00     0.001 A 
ATOM     68  C   UNL A   1      40.970  35.467  36.954  1.00  0.00     0.001 A 
ATOM     69  C   UNL A   1      41.744  36.573  36.602  1.00  0.00     0.000 A 
ENDBRANCH  50  64
BRANCH  51  70
ATOM     70  C   UNL A   1      40.367  26.990  28.244  1.00  0.00    -0.014 A 
ATOM     71  C   UNL A   1      40.890  27.099  26.947  1.00  0.00     0.009 A 
ATOM     72  C   UNL A   1      39.682  25.818  28.603  1.00  0.00     0.009 A 
ATOM     73  C   UNL A   1      40.703  26.072  26.019  1.00  0.00     0.001 A 
ATOM     74  C   UNL A   1      39.525  24.779  27.682  1.00  0.00     0.001 A 
ATOM     75  C   UNL A   1      40.027  24.912  26.388  1.00  0.00     0.000 A 
ENDBRANCH  51  70
BRANCH  63  76
ATOM     76  C   UNL A   1      45.043  28.319  33.222  1.00  0.00    -0.014 A 
ATOM     77  C   UNL A   1      46.325  28.566  32.708  1.00  0.00     0.009 A 
ATOM     78  C   UNL A   1      44.892  27.360  34.236  1.00  0.00     0.009 A 
ATOM     79  C   UNL A   1      47.424  27.838  33.170  1.00  0.00     0.001 A 
ATOM     80  C   UNL A   1      45.996  26.659  34.721  1.00  0.00     0.001 A 
ATOM     81  C   UNL A   1      47.259  26.889  34.180  1.00  0.00     0.000 A 
ENDBRANCH  63  76
ENDBRANCH  37  38
ENDBRANCH  29  32
ENDBRANCH  27  28
ENDBRANCH  26  27
ENDBRANCH  25  26
ENDBRANCH   1  25
TORSDOF 16
ENDMDL
