MODEL 1
REMARK VINA RESULT:      -7.5      0.000      0.000
REMARK SMILES CCOc1cc(OCC)cc(-c2ccc([C@@H](C)C(=O)NCCCCCCNC(=O)c3ccc(-c4c5nc(c(-c6ccccc6)c6ccc([nH]6)c(-c6ccccc6)c6nc(c(-c7ccccc7)c7ccc4[nH]7)C=C6)C=C5)cc3)cc2)c1
REMARK SMILES IDX 22 1 21 2 20 3 18 4 19 5 16 7 17 8 15 9 12 10 13 11 79 12
REMARK SMILES IDX 14 13 78 14 11 15 4 16 5 17 80 18 6 19 10 20 3 21 2 22 1 23
REMARK SMILES IDX 7 24 8 25 9 26 23 27 24 28 25 29 26 30 27 31 28 32 29 34
REMARK SMILES IDX 30 35 31 36 77 37 32 38 76 39 33 40 34 41 35 42 70 43 36 44
REMARK SMILES IDX 75 45 69 46 71 47 37 48 74 49 68 50 67 51 38 53 60 54 45 55
REMARK SMILES IDX 59 56 46 57 49 58 58 59 72 60 47 61 48 62 57 64 73 65 50 66
REMARK SMILES IDX 39 67 40 68 44 69 41 70 43 71 42 72 61 73 62 74 66 75 63 76
REMARK SMILES IDX 65 77 64 78 51 79 52 80 56 81 53 82 55 83 54 84
REMARK H PARENT 20 6 27 33 71 52 49 63
REMARK Flexibility Score: inf
ROOT
ATOM      1  C   UNL A   1      44.435  23.204  28.683  1.00  0.00     0.021 C 
ENDROOT
BRANCH   1   2
ATOM      2  C   UNL A   1      43.118  23.310  29.455  1.00  0.00     0.116 C 
BRANCH   2   3
ATOM      3  N   UNL A   1      42.136  22.355  28.985  1.00  0.00    -0.356 N 
ATOM      4  C   UNL A   1      41.200  22.428  28.000  1.00  0.00     0.227 C 
ATOM      5  O   UNL A   1      40.447  21.453  27.885  1.00  0.00    -0.274 OA
ATOM      6  H   UNL A   1      42.148  21.496  29.467  1.00  0.00     0.163 HD
BRANCH   4   7
ATOM      7  C   UNL A   1      41.048  23.627  27.052  1.00  0.00     0.105 C 
ATOM      8  C   UNL A   1      42.083  23.683  25.928  1.00  0.00     0.023 C 
BRANCH   7   9
ATOM      9  C   UNL A   1      40.787  24.936  27.780  1.00  0.00    -0.036 A 
ATOM     10  C   UNL A   1      40.264  27.291  29.306  1.00  0.00    -0.018 A 
ATOM     11  C   UNL A   1      41.496  27.084  28.665  1.00  0.00     0.009 A 
ATOM     12  C   UNL A   1      39.286  26.301  29.135  1.00  0.00     0.009 A 
ATOM     13  C   UNL A   1      41.741  25.947  27.891  1.00  0.00     0.005 A 
ATOM     14  C   UNL A   1      39.548  25.136  28.405  1.00  0.00     0.005 A 
BRANCH  10  15
ATOM     15  C   UNL A   1      40.036  28.489  30.144  1.00  0.00    -0.011 A 
ATOM     16  C   UNL A   1      39.772  30.899  30.379  1.00  0.00     0.123 A 
ATOM     17  C   UNL A   1      39.480  30.754  31.733  1.00  0.00     0.092 A 
ATOM     18  C   UNL A   1      40.063  29.781  29.599  1.00  0.00     0.055 A 
ATOM     19  C   UNL A   1      39.469  29.485  32.313  1.00  0.00     0.123 A 
ATOM     20  C   UNL A   1      39.756  28.372  31.519  1.00  0.00     0.055 A 
BRANCH  16  21
ATOM     21  O   UNL A   1      39.888  32.163  29.871  1.00  0.00    -0.494 OA
BRANCH  21  22
ATOM     22  C   UNL A   1      38.662  32.905  29.877  1.00  0.00     0.226 C 
ATOM     23  C   UNL A   1      38.842  34.303  30.450  1.00  0.00     0.049 C 
ENDBRANCH  21  22
ENDBRANCH  16  21
BRANCH  19  24
ATOM     24  O   UNL A   1      39.144  29.447  33.642  1.00  0.00    -0.494 OA
BRANCH  24  25
ATOM     25  C   UNL A   1      37.964  30.131  34.069  1.00  0.00     0.226 C 
ATOM     26  C   UNL A   1      38.190  30.872  35.378  1.00  0.00     0.049 C 
ENDBRANCH  24  25
ENDBRANCH  19  24
ENDBRANCH  10  15
ENDBRANCH   7   9
ENDBRANCH   4   7
ENDBRANCH   2   3
ENDBRANCH   1   2
BRANCH   1  27
ATOM     27  C   UNL A   1      44.998  24.551  28.219  1.00  0.00     0.002 C 
BRANCH  27  28
ATOM     28  C   UNL A   1      46.504  24.744  28.443  1.00  0.00     0.002 C 
BRANCH  28  29
ATOM     29  C   UNL A   1      47.396  24.500  27.220  1.00  0.00     0.021 C 
BRANCH  29  30
ATOM     30  C   UNL A   1      46.663  24.421  25.883  1.00  0.00     0.116 C 
BRANCH  30  31
ATOM     31  N   UNL A   1      47.133  25.424  24.943  1.00  0.00    -0.352 N 
ATOM     32  C   UNL A   1      46.860  26.765  24.858  1.00  0.00     0.251 C 
ATOM     33  H   UNL A   1      47.748  25.085  24.253  1.00  0.00     0.163 HD
ATOM     34  O   UNL A   1      47.197  27.385  23.854  1.00  0.00    -0.269 OA
BRANCH  32  35
ATOM     35  C   UNL A   1      46.161  27.477  25.952  1.00  0.00     0.039 A 
ATOM     36  C   UNL A   1      46.930  28.007  26.994  1.00  0.00     0.014 A 
ATOM     37  C   UNL A   1      44.767  27.561  26.008  1.00  0.00     0.014 A 
ATOM     38  C   UNL A   1      46.308  28.647  28.066  1.00  0.00     0.010 A 
ATOM     39  C   UNL A   1      44.147  28.256  27.049  1.00  0.00     0.010 A 
ATOM     40  C   UNL A   1      44.911  28.793  28.095  1.00  0.00    -0.014 A 
BRANCH  40  41
ATOM     41  C   UNL A   1      44.258  29.507  29.221  1.00  0.00     0.031 A 
ATOM     42  C   UNL A   1      43.938  28.793  30.506  1.00  0.00     0.074 A 
ATOM     43  C   UNL A   1      43.943  30.810  29.083  1.00  0.00     0.049 A 
ATOM     44  N   UNL A   1      43.431  29.276  31.613  1.00  0.00    -0.248 NA
ATOM     45  C   UNL A   1      44.200  27.346  30.548  1.00  0.00     0.031 C 
ATOM     46  C   UNL A   1      44.153  31.607  27.872  1.00  0.00     0.029 A 
ATOM     47  N   UNL A   1      43.392  31.696  29.973  1.00  0.00    -0.354 N 
ATOM     48  C   UNL A   1      43.309  28.196  32.478  1.00  0.00     0.074 A 
ATOM     49  C   UNL A   1      43.747  27.024  31.751  1.00  0.00     0.031 C 
ATOM     50  C   UNL A   1      43.775  32.873  28.110  1.00  0.00     0.029 A 
ATOM     51  C   UNL A   1      43.277  32.971  29.478  1.00  0.00     0.049 A 
ATOM     52  H   UNL A   1      43.105  31.441  30.880  1.00  0.00     0.167 HD
ATOM     53  C   UNL A   1      42.889  28.181  33.766  1.00  0.00     0.031 A 
ATOM     54  C   UNL A   1      42.839  34.100  30.065  1.00  0.00     0.031 A 
ATOM     55  C   UNL A   1      42.459  29.344  34.495  1.00  0.00     0.049 A 
ATOM     56  C   UNL A   1      42.401  34.063  31.501  1.00  0.00     0.074 A 
ATOM     57  C   UNL A   1      42.067  29.439  35.820  1.00  0.00     0.029 A 
ATOM     58  N   UNL A   1      42.363  30.619  33.959  1.00  0.00    -0.354 N 
ATOM     59  N   UNL A   1      42.365  33.046  32.327  1.00  0.00    -0.248 NA
ATOM     60  C   UNL A   1      41.963  35.336  32.089  1.00  0.00     0.031 C 
ATOM     61  C   UNL A   1      41.696  30.765  36.073  1.00  0.00     0.029 A 
ATOM     62  C   UNL A   1      41.900  31.503  34.920  1.00  0.00     0.049 A 
ATOM     63  H   UNL A   1      42.590  30.860  33.032  1.00  0.00     0.167 HD
ATOM     64  C   UNL A   1      41.920  33.559  33.537  1.00  0.00     0.074 A 
ATOM     65  C   UNL A   1      41.721  34.981  33.342  1.00  0.00     0.031 C 
ATOM     66  C   UNL A   1      41.693  32.911  34.706  1.00  0.00     0.031 A 
BRANCH  53  67
ATOM     67  C   UNL A   1      42.874  26.853  34.470  1.00  0.00    -0.014 A 
ATOM     68  C   UNL A   1      41.665  26.192  34.747  1.00  0.00     0.009 A 
ATOM     69  C   UNL A   1      44.081  26.239  34.835  1.00  0.00     0.009 A 
ATOM     70  C   UNL A   1      41.666  24.962  35.408  1.00  0.00     0.001 A 
ATOM     71  C   UNL A   1      44.079  24.996  35.472  1.00  0.00     0.001 A 
ATOM     72  C   UNL A   1      42.872  24.364  35.767  1.00  0.00     0.000 A 
ENDBRANCH  53  67
BRANCH  54  73
ATOM     73  C   UNL A   1      42.834  35.377  29.306  1.00  0.00    -0.014 A 
ATOM     74  C   UNL A   1      41.758  35.696  28.463  1.00  0.00     0.009 A 
ATOM     75  C   UNL A   1      43.900  36.280  29.421  1.00  0.00     0.009 A 
ATOM     76  C   UNL A   1      41.764  36.884  27.730  1.00  0.00     0.001 A 
ATOM     77  C   UNL A   1      43.892  37.479  28.706  1.00  0.00     0.001 A 
ATOM     78  C   UNL A   1      42.828  37.777  27.855  1.00  0.00     0.000 A 
ENDBRANCH  54  73
BRANCH  66  79
ATOM     79  C   UNL A   1      41.220  33.746  35.863  1.00  0.00    -0.014 A 
ATOM     80  C   UNL A   1      42.129  34.289  36.784  1.00  0.00     0.009 A 
ATOM     81  C   UNL A   1      39.850  33.995  36.028  1.00  0.00     0.009 A 
ATOM     82  C   UNL A   1      41.669  35.031  37.874  1.00  0.00     0.001 A 
ATOM     83  C   UNL A   1      39.395  34.761  37.103  1.00  0.00     0.001 A 
ATOM     84  C   UNL A   1      40.303  35.268  38.031  1.00  0.00     0.000 A 
ENDBRANCH  66  79
ENDBRANCH  40  41
ENDBRANCH  32  35
ENDBRANCH  30  31
ENDBRANCH  29  30
ENDBRANCH  28  29
ENDBRANCH  27  28
ENDBRANCH   1  27
TORSDOF 19
ENDMDL
MODEL 2
REMARK VINA RESULT:      -7.4      4.169      9.227
REMARK SMILES CCOc1cc(OCC)cc(-c2ccc([C@@H](C)C(=O)NCCCCCCNC(=O)c3ccc(-c4c5nc(c(-c6ccccc6)c6ccc([nH]6)c(-c6ccccc6)c6nc(c(-c7ccccc7)c7ccc4[nH]7)C=C6)C=C5)cc3)cc2)c1
REMARK SMILES IDX 22 1 21 2 20 3 18 4 19 5 16 7 17 8 15 9 12 10 13 11 79 12
REMARK SMILES IDX 14 13 78 14 11 15 4 16 5 17 80 18 6 19 10 20 3 21 2 22 1 23
REMARK SMILES IDX 7 24 8 25 9 26 23 27 24 28 25 29 26 30 27 31 28 32 29 34
REMARK SMILES IDX 30 35 31 36 77 37 32 38 76 39 33 40 34 41 35 42 70 43 36 44
REMARK SMILES IDX 75 45 69 46 71 47 37 48 74 49 68 50 67 51 38 53 60 54 45 55
REMARK SMILES IDX 59 56 46 57 49 58 58 59 72 60 47 61 48 62 57 64 73 65 50 66
REMARK SMILES IDX 39 67 40 68 44 69 41 70 43 71 42 72 61 73 62 74 66 75 63 76
REMARK SMILES IDX 65 77 64 78 51 79 52 80 56 81 53 82 55 83 54 84
REMARK H PARENT 20 6 27 33 71 52 49 63
REMARK Flexibility Score: inf
ROOT
ATOM      1  C   UNL A   1      32.273  24.514  26.303  1.00  0.00     0.021 C 
ENDROOT
BRANCH   1   2
ATOM      2  C   UNL A   1      32.940  23.373  27.073  1.00  0.00     0.116 C 
BRANCH   2   3
ATOM      3  N   UNL A   1      33.063  22.175  26.270  1.00  0.00    -0.356 N 
ATOM      4  C   UNL A   1      33.774  21.911  25.140  1.00  0.00     0.227 C 
ATOM      5  O   UNL A   1      33.613  20.790  24.640  1.00  0.00    -0.274 OA
ATOM      6  H   UNL A   1      32.536  21.412  26.602  1.00  0.00     0.163 HD
BRANCH   4   7
ATOM      7  C   UNL A   1      34.740  22.908  24.484  1.00  0.00     0.105 C 
ATOM      8  C   UNL A   1      34.525  23.106  22.983  1.00  0.00     0.023 C 
BRANCH   7   9
ATOM      9  C   UNL A   1      36.182  22.727  24.929  1.00  0.00    -0.036 A 
ATOM     10  C   UNL A   1      38.831  22.416  25.947  1.00  0.00    -0.018 A 
ATOM     11  C   UNL A   1      38.188  21.391  25.235  1.00  0.00     0.009 A 
ATOM     12  C   UNL A   1      38.124  23.616  26.109  1.00  0.00     0.009 A 
ATOM     13  C   UNL A   1      36.904  21.554  24.708  1.00  0.00     0.005 A 
ATOM     14  C   UNL A   1      36.817  23.762  25.629  1.00  0.00     0.005 A 
BRANCH  10  15
ATOM     15  C   UNL A   1      40.179  22.211  26.520  1.00  0.00    -0.011 A 
ATOM     16  C   UNL A   1      41.772  22.458  28.347  1.00  0.00     0.123 A 
ATOM     17  C   UNL A   1      42.716  21.707  27.652  1.00  0.00     0.092 A 
ATOM     18  C   UNL A   1      40.525  22.720  27.780  1.00  0.00     0.055 A 
ATOM     19  C   UNL A   1      42.413  21.207  26.384  1.00  0.00     0.123 A 
ATOM     20  C   UNL A   1      41.159  21.470  25.830  1.00  0.00     0.055 A 
BRANCH  16  21
ATOM     21  O   UNL A   1      42.142  23.030  29.533  1.00  0.00    -0.494 OA
BRANCH  21  22
ATOM     22  C   UNL A   1      43.257  23.923  29.422  1.00  0.00     0.226 C 
ATOM     23  C   UNL A   1      44.342  23.613  30.443  1.00  0.00     0.049 C 
ENDBRANCH  21  22
ENDBRANCH  16  21
BRANCH  19  24
ATOM     24  O   UNL A   1      43.398  20.459  25.795  1.00  0.00    -0.494 OA
BRANCH  24  25
ATOM     25  C   UNL A   1      43.102  19.104  25.449  1.00  0.00     0.226 C 
ATOM     26  C   UNL A   1      43.057  18.210  26.679  1.00  0.00     0.049 C 
ENDBRANCH  24  25
ENDBRANCH  19  24
ENDBRANCH  10  15
ENDBRANCH   7   9
ENDBRANCH   4   7
ENDBRANCH   2   3
ENDBRANCH   1   2
BRANCH   1  27
ATOM     27  C   UNL A   1      33.147  25.764  26.156  1.00  0.00     0.002 C 
BRANCH  27  28
ATOM     28  C   UNL A   1      33.120  26.421  24.769  1.00  0.00     0.002 C 
BRANCH  28  29
ATOM     29  C   UNL A   1      32.419  27.782  24.689  1.00  0.00     0.021 C 
BRANCH  29  30
ATOM     30  C   UNL A   1      33.330  28.996  24.862  1.00  0.00     0.116 C 
BRANCH  30  31
ATOM     31  N   UNL A   1      32.632  30.121  25.460  1.00  0.00    -0.352 N 
ATOM     32  C   UNL A   1      32.909  30.845  26.590  1.00  0.00     0.251 C 
ATOM     33  H   UNL A   1      31.826  30.411  24.973  1.00  0.00     0.163 HD
ATOM     34  O   UNL A   1      32.065  31.621  27.030  1.00  0.00    -0.269 OA
BRANCH  32  35
ATOM     35  C   UNL A   1      34.205  30.706  27.293  1.00  0.00     0.039 A 
ATOM     36  C   UNL A   1      34.618  29.423  27.669  1.00  0.00     0.014 A 
ATOM     37  C   UNL A   1      34.974  31.815  27.653  1.00  0.00     0.014 A 
ATOM     38  C   UNL A   1      35.812  29.252  28.372  1.00  0.00     0.010 A 
ATOM     39  C   UNL A   1      36.198  31.640  28.302  1.00  0.00     0.010 A 
ATOM     40  C   UNL A   1      36.623  30.357  28.679  1.00  0.00    -0.014 A 
BRANCH  40  41
ATOM     41  C   UNL A   1      37.909  30.165  29.395  1.00  0.00     0.031 A 
ATOM     42  C   UNL A   1      38.094  30.671  30.800  1.00  0.00     0.074 A 
ATOM     43  C   UNL A   1      38.923  29.535  28.771  1.00  0.00     0.049 A 
ATOM     44  N   UNL A   1      39.124  30.532  31.597  1.00  0.00    -0.248 NA
ATOM     45  C   UNL A   1      36.989  31.452  31.378  1.00  0.00     0.031 C 
ATOM     46  C   UNL A   1      38.892  29.040  27.393  1.00  0.00     0.029 A 
ATOM     47  N   UNL A   1      40.173  29.191  29.221  1.00  0.00    -0.354 N 
ATOM     48  C   UNL A   1      38.795  31.209  32.764  1.00  0.00     0.074 A 
ATOM     49  C   UNL A   1      37.492  31.802  32.553  1.00  0.00     0.031 C 
ATOM     50  C   UNL A   1      40.052  28.420  27.124  1.00  0.00     0.029 A 
ATOM     51  C   UNL A   1      40.914  28.492  28.300  1.00  0.00     0.049 A 
ATOM     52  H   UNL A   1      40.507  29.423  30.117  1.00  0.00     0.167 HD
ATOM     53  C   UNL A   1      39.503  31.315  33.914  1.00  0.00     0.031 A 
ATOM     54  C   UNL A   1      42.142  27.952  28.396  1.00  0.00     0.031 A 
ATOM     55  C   UNL A   1      40.796  30.722  34.131  1.00  0.00     0.049 A 
ATOM     56  C   UNL A   1      42.897  28.061  29.689  1.00  0.00     0.074 A 
ATOM     57  C   UNL A   1      41.568  30.727  35.280  1.00  0.00     0.029 A 
ATOM     58  N   UNL A   1      41.510  30.018  33.175  1.00  0.00    -0.354 N 
ATOM     59  N   UNL A   1      42.538  28.640  30.808  1.00  0.00    -0.248 NA
ATOM     60  C   UNL A   1      44.220  27.423  29.735  1.00  0.00     0.031 C 
ATOM     61  C   UNL A   1      42.768  30.059  35.006  1.00  0.00     0.029 A 
ATOM     62  C   UNL A   1      42.721  29.599  33.701  1.00  0.00     0.049 A 
ATOM     63  H   UNL A   1      41.201  29.840  32.257  1.00  0.00     0.167 HD
ATOM     64  C   UNL A   1      43.580  28.420  31.698  1.00  0.00     0.074 A 
ATOM     65  C   UNL A   1      44.574  27.634  30.994  1.00  0.00     0.031 C 
ATOM     66  C   UNL A   1      43.706  28.832  32.983  1.00  0.00     0.031 A 
BRANCH  53  67
ATOM     67  C   UNL A   1      38.886  32.109  35.032  1.00  0.00    -0.014 A 
ATOM     68  C   UNL A   1      38.208  31.473  36.085  1.00  0.00     0.009 A 
ATOM     69  C   UNL A   1      39.010  33.507  35.051  1.00  0.00     0.009 A 
ATOM     70  C   UNL A   1      37.635  32.224  37.113  1.00  0.00     0.001 A 
ATOM     71  C   UNL A   1      38.458  34.252  36.094  1.00  0.00     0.001 A 
ATOM     72  C   UNL A   1      37.763  33.611  37.119  1.00  0.00     0.000 A 
ENDBRANCH  53  67
BRANCH  54  73
ATOM     73  C   UNL A   1      42.721  27.216  27.242  1.00  0.00    -0.014 A 
ATOM     74  C   UNL A   1      43.708  27.812  26.443  1.00  0.00     0.009 A 
ATOM     75  C   UNL A   1      42.290  25.917  26.935  1.00  0.00     0.009 A 
ATOM     76  C   UNL A   1      44.234  27.131  25.345  1.00  0.00     0.001 A 
ATOM     77  C   UNL A   1      42.836  25.228  25.851  1.00  0.00     0.001 A 
ATOM     78  C   UNL A   1      43.802  25.839  25.052  1.00  0.00     0.000 A 
ENDBRANCH  54  73
BRANCH  66  79
ATOM     79  C   UNL A   1      44.957  28.424  33.707  1.00  0.00    -0.014 A 
ATOM     80  C   UNL A   1      45.020  27.217  34.421  1.00  0.00     0.009 A 
ATOM     81  C   UNL A   1      46.087  29.254  33.668  1.00  0.00     0.009 A 
ATOM     82  C   UNL A   1      46.179  26.870  35.118  1.00  0.00     0.001 A 
ATOM     83  C   UNL A   1      47.254  28.891  34.344  1.00  0.00     0.001 A 
ATOM     84  C   UNL A   1      47.295  27.707  35.078  1.00  0.00     0.000 A 
ENDBRANCH  66  79
ENDBRANCH  40  41
ENDBRANCH  32  35
ENDBRANCH  30  31
ENDBRANCH  29  30
ENDBRANCH  28  29
ENDBRANCH  27  28
ENDBRANCH   1  27
TORSDOF 19
ENDMDL
MODEL 3
REMARK VINA RESULT:      -7.4      5.948      8.558
REMARK SMILES CCOc1cc(OCC)cc(-c2ccc([C@@H](C)C(=O)NCCCCCCNC(=O)c3ccc(-c4c5nc(c(-c6ccccc6)c6ccc([nH]6)c(-c6ccccc6)c6nc(c(-c7ccccc7)c7ccc4[nH]7)C=C6)C=C5)cc3)cc2)c1
REMARK SMILES IDX 22 1 21 2 20 3 18 4 19 5 16 7 17 8 15 9 12 10 13 11 79 12
REMARK SMILES IDX 14 13 78 14 11 15 4 16 5 17 80 18 6 19 10 20 3 21 2 22 1 23
REMARK SMILES IDX 7 24 8 25 9 26 23 27 24 28 25 29 26 30 27 31 28 32 29 34
REMARK SMILES IDX 30 35 31 36 77 37 32 38 76 39 33 40 34 41 35 42 70 43 36 44
REMARK SMILES IDX 75 45 69 46 71 47 37 48 74 49 68 50 67 51 38 53 60 54 45 55
REMARK SMILES IDX 59 56 46 57 49 58 58 59 72 60 47 61 48 62 57 64 73 65 50 66
REMARK SMILES IDX 39 67 40 68 44 69 41 70 43 71 42 72 61 73 62 74 66 75 63 76
REMARK SMILES IDX 65 77 64 78 51 79 52 80 56 81 53 82 55 83 54 84
REMARK H PARENT 20 6 27 33 71 52 49 63
REMARK Flexibility Score: inf
ROOT
ATOM      1  C   UNL A   1      36.458  22.223  23.877  1.00  0.00     0.021 C 
ENDROOT
BRANCH   1   2
ATOM      2  C   UNL A   1      35.066  22.619  24.370  1.00  0.00     0.116 C 
BRANCH   2   3
ATOM      3  N   UNL A   1      34.616  21.776  25.458  1.00  0.00    -0.356 N 
ATOM      4  C   UNL A   1      33.407  21.211  25.726  1.00  0.00     0.227 C 
ATOM      5  O   UNL A   1      33.316  20.590  26.793  1.00  0.00    -0.274 OA
ATOM      6  H   UNL A   1      35.311  21.575  26.126  1.00  0.00     0.163 HD
BRANCH   4   7
ATOM      7  C   UNL A   1      32.193  21.303  24.791  1.00  0.00     0.105 C 
ATOM      8  C   UNL A   1      32.280  20.416  23.549  1.00  0.00     0.023 C 
BRANCH   7   9
ATOM      9  C   UNL A   1      31.726  22.731  24.555  1.00  0.00    -0.036 A 
ATOM     10  C   UNL A   1      30.991  25.470  24.230  1.00  0.00    -0.018 A 
ATOM     11  C   UNL A   1      31.377  24.675  23.140  1.00  0.00     0.009 A 
ATOM     12  C   UNL A   1      30.950  24.849  25.486  1.00  0.00     0.009 A 
ATOM     13  C   UNL A   1      31.706  23.325  23.292  1.00  0.00     0.005 A 
ATOM     14  C   UNL A   1      31.331  23.512  25.650  1.00  0.00     0.005 A 
BRANCH  10  15
ATOM     15  C   UNL A   1      30.675  26.904  24.049  1.00  0.00    -0.011 A 
ATOM     16  C   UNL A   1      31.107  29.253  24.530  1.00  0.00     0.123 A 
ATOM     17  C   UNL A   1      30.143  29.640  23.602  1.00  0.00     0.092 A 
ATOM     18  C   UNL A   1      31.357  27.901  24.762  1.00  0.00     0.055 A 
ATOM     19  C   UNL A   1      29.428  28.674  22.894  1.00  0.00     0.123 A 
ATOM     20  C   UNL A   1      29.692  27.323  23.130  1.00  0.00     0.055 A 
BRANCH  16  21
ATOM     21  O   UNL A   1      31.705  30.221  25.289  1.00  0.00    -0.494 OA
BRANCH  21  22
ATOM     22  C   UNL A   1      31.923  29.836  26.652  1.00  0.00     0.226 C 
ATOM     23  C   UNL A   1      33.043  30.637  27.300  1.00  0.00     0.049 C 
ENDBRANCH  21  22
ENDBRANCH  16  21
BRANCH  19  24
ATOM     24  O   UNL A   1      28.523  29.157  21.987  1.00  0.00    -0.494 OA
BRANCH  24  25
ATOM     25  C   UNL A   1      27.974  30.458  22.207  1.00  0.00     0.226 C 
ATOM     26  C   UNL A   1      27.947  31.277  20.926  1.00  0.00     0.049 C 
ENDBRANCH  24  25
ENDBRANCH  19  24
ENDBRANCH  10  15
ENDBRANCH   7   9
ENDBRANCH   4   7
ENDBRANCH   2   3
ENDBRANCH   1   2
BRANCH   1  27
ATOM     27  C   UNL A   1      37.169  21.198  24.766  1.00  0.00     0.002 C 
BRANCH  27  28
ATOM     28  C   UNL A   1      38.211  21.780  25.731  1.00  0.00     0.002 C 
BRANCH  28  29
ATOM     29  C   UNL A   1      39.620  21.184  25.631  1.00  0.00     0.021 C 
BRANCH  29  30
ATOM     30  C   UNL A   1      39.791  19.805  26.264  1.00  0.00     0.116 C 
BRANCH  30  31
ATOM     31  N   UNL A   1      41.088  19.223  25.963  1.00  0.00    -0.352 N 
ATOM     32  C   UNL A   1      42.336  19.787  25.943  1.00  0.00     0.251 C 
ATOM     33  H   UNL A   1      41.065  18.265  25.734  1.00  0.00     0.163 HD
ATOM     34  O   UNL A   1      43.272  19.162  25.453  1.00  0.00    -0.269 OA
BRANCH  32  35
ATOM     35  C   UNL A   1      42.577  21.138  26.500  1.00  0.00     0.039 A 
ATOM     36  C   UNL A   1      42.417  21.325  27.877  1.00  0.00     0.014 A 
ATOM     37  C   UNL A   1      42.877  22.231  25.682  1.00  0.00     0.014 A 
ATOM     38  C   UNL A   1      42.592  22.593  28.435  1.00  0.00     0.010 A 
ATOM     39  C   UNL A   1      43.113  23.487  26.248  1.00  0.00     0.010 A 
ATOM     40  C   UNL A   1      42.959  23.682  27.628  1.00  0.00    -0.014 A 
BRANCH  40  41
ATOM     41  C   UNL A   1      43.178  25.020  28.233  1.00  0.00     0.031 A 
ATOM     42  C   UNL A   1      44.557  25.473  28.627  1.00  0.00     0.074 A 
ATOM     43  C   UNL A   1      42.122  25.832  28.438  1.00  0.00     0.049 A 
ATOM     44  N   UNL A   1      44.939  26.630  29.105  1.00  0.00    -0.248 NA
ATOM     45  C   UNL A   1      45.646  24.493  28.486  1.00  0.00     0.031 C 
ATOM     46  C   UNL A   1      40.726  25.495  28.148  1.00  0.00     0.029 A 
ATOM     47  N   UNL A   1      42.062  27.113  28.925  1.00  0.00    -0.354 N 
ATOM     48  C   UNL A   1      46.306  26.517  29.326  1.00  0.00     0.074 A 
ATOM     49  C   UNL A   1      46.678  25.163  28.978  1.00  0.00     0.031 C 
ATOM     50  C   UNL A   1      39.954  26.557  28.424  1.00  0.00     0.029 A 
ATOM     51  C   UNL A   1      40.794  27.639  28.928  1.00  0.00     0.049 A 
ATOM     52  H   UNL A   1      42.851  27.607  29.242  1.00  0.00     0.167 HD
ATOM     53  C   UNL A   1      47.177  27.459  29.762  1.00  0.00     0.031 A 
ATOM     54  C   UNL A   1      40.356  28.862  29.278  1.00  0.00     0.031 A 
ATOM     55  C   UNL A   1      46.814  28.809  30.103  1.00  0.00     0.049 A 
ATOM     56  C   UNL A   1      41.344  29.896  29.735  1.00  0.00     0.074 A 
ATOM     57  C   UNL A   1      47.633  29.851  30.501  1.00  0.00     0.029 A 
ATOM     58  N   UNL A   1      45.519  29.304  30.087  1.00  0.00    -0.354 N 
ATOM     59  N   UNL A   1      42.645  29.795  29.864  1.00  0.00    -0.248 NA
ATOM     60  C   UNL A   1      40.803  31.220  30.074  1.00  0.00     0.031 C 
ATOM     61  C   UNL A   1      46.829  30.966  30.765  1.00  0.00     0.029 A 
ATOM     62  C   UNL A   1      45.514  30.630  30.487  1.00  0.00     0.049 A 
ATOM     63  H   UNL A   1      44.720  28.789  29.830  1.00  0.00     0.167 HD
ATOM     64  C   UNL A   1      43.080  31.045  30.280  1.00  0.00     0.074 A 
ATOM     65  C   UNL A   1      41.908  31.894  30.359  1.00  0.00     0.031 C 
ATOM     66  C   UNL A   1      44.339  31.456  30.574  1.00  0.00     0.031 A 
BRANCH  53  67
ATOM     67  C   UNL A   1      48.619  27.054  29.895  1.00  0.00    -0.014 A 
ATOM     68  C   UNL A   1      49.517  27.206  28.825  1.00  0.00     0.009 A 
ATOM     69  C   UNL A   1      49.094  26.543  31.112  1.00  0.00     0.009 A 
ATOM     70  C   UNL A   1      50.852  26.820  28.961  1.00  0.00     0.001 A 
ATOM     71  C   UNL A   1      50.436  26.181  31.253  1.00  0.00     0.001 A 
ATOM     72  C   UNL A   1      51.311  26.311  30.175  1.00  0.00     0.000 A 
ENDBRANCH  53  67
BRANCH  54  73
ATOM     73  C   UNL A   1      38.912  29.193  29.169  1.00  0.00    -0.014 A 
ATOM     74  C   UNL A   1      38.387  29.691  27.967  1.00  0.00     0.009 A 
ATOM     75  C   UNL A   1      38.053  29.011  30.263  1.00  0.00     0.009 A 
ATOM     76  C   UNL A   1      37.036  30.026  27.871  1.00  0.00     0.001 A 
ATOM     77  C   UNL A   1      36.697  29.323  30.157  1.00  0.00     0.001 A 
ATOM     78  C   UNL A   1      36.191  29.838  28.964  1.00  0.00     0.000 A 
ENDBRANCH  54  73
BRANCH  66  79
ATOM     79  C   UNL A   1      44.504  32.890  30.990  1.00  0.00    -0.014 A 
ATOM     80  C   UNL A   1      44.459  33.262  32.343  1.00  0.00     0.009 A 
ATOM     81  C   UNL A   1      44.714  33.878  30.018  1.00  0.00     0.009 A 
ATOM     82  C   UNL A   1      44.578  34.603  32.710  1.00  0.00     0.001 A 
ATOM     83  C   UNL A   1      44.860  35.217  30.389  1.00  0.00     0.001 A 
ATOM     84  C   UNL A   1      44.779  35.579  31.733  1.00  0.00     0.000 A 
ENDBRANCH  66  79
ENDBRANCH  40  41
ENDBRANCH  32  35
ENDBRANCH  30  31
ENDBRANCH  29  30
ENDBRANCH  28  29
ENDBRANCH  27  28
ENDBRANCH   1  27
TORSDOF 19
ENDMDL
