MODEL 1
REMARK VINA RESULT:     -10.7      0.000      0.000
REMARK SMILES Cn1cc2cc(C(=O)NCCCCCCNC(=O)c3ccc(-c4c5nc(c(-c6ccccc6)c6ccc([nH]6)c(-c6ccccc6)c6nc(c(-c7ccccc7)c7ccc4[nH]7)C=C6)C=C5)cc3)ccc2n1
REMARK SMILES IDX 13 1 12 2 11 3 10 4 9 5 7 6 8 7 6 9 1 10 2 11 3 12 70 13
REMARK SMILES IDX 4 14 69 15 5 16 68 17 67 18 14 19 15 20 16 21 17 22 18 24
REMARK SMILES IDX 19 25 20 26 66 27 21 28 65 29 22 30 23 31 24 32 59 33 25 34
REMARK SMILES IDX 64 35 58 36 60 37 26 38 63 39 57 40 56 41 27 43 49 44 34 45
REMARK SMILES IDX 48 46 35 47 38 48 47 49 61 50 36 51 37 52 46 54 62 55 39 56
REMARK SMILES IDX 28 57 29 58 33 59 30 60 32 61 31 62 50 63 51 64 55 65 52 66
REMARK SMILES IDX 54 67 53 68 40 69 41 70 45 71 42 72 44 73 43 74
REMARK H PARENT 9 8 16 23 60 42 38 53
REMARK Flexibility Score: inf
ROOT
ATOM      1  C   UNL A   1      36.320  20.590  24.921  1.00  0.00     0.002 C 
ENDROOT
BRANCH   1   2
ATOM      2  C   UNL A   1      36.467  21.902  25.704  1.00  0.00     0.002 C 
BRANCH   2   3
ATOM      3  C   UNL A   1      35.937  23.148  24.977  1.00  0.00     0.021 C 
BRANCH   3   4
ATOM      4  C   UNL A   1      34.944  22.813  23.860  1.00  0.00     0.116 C 
BRANCH   4   5
ATOM      5  N   UNL A   1      33.590  22.974  24.342  1.00  0.00    -0.352 N 
ATOM      6  C   UNL A   1      32.518  22.132  24.464  1.00  0.00     0.251 C 
ATOM      7  O   UNL A   1      31.476  22.633  24.893  1.00  0.00    -0.269 OA
ATOM      8  H   UNL A   1      33.396  23.889  24.651  1.00  0.00     0.163 HD
BRANCH   6   9
ATOM      9  C   UNL A   1      32.541  20.664  24.164  1.00  0.00     0.040 A 
ATOM     10  C   UNL A   1      32.756  14.970  25.586  1.00  0.00     0.173 C 
ATOM     11  N   UNL A   1      32.762  16.333  25.112  1.00  0.00    -0.275 N 
ATOM     12  C   UNL A   1      32.831  17.459  25.881  1.00  0.00     0.117 A 
ATOM     13  N   UNL A   1      32.658  16.567  23.786  1.00  0.00    -0.173 NA
ATOM     14  C   UNL A   1      32.735  18.488  24.986  1.00  0.00     0.021 A 
ATOM     15  C   UNL A   1      32.600  17.904  23.681  1.00  0.00     0.092 A 
ATOM     16  C   UNL A   1      32.728  19.840  25.306  1.00  0.00     0.025 A 
ATOM     17  C   UNL A   1      32.416  18.718  22.556  1.00  0.00     0.032 A 
ATOM     18  C   UNL A   1      32.348  20.106  22.856  1.00  0.00     0.016 A 
ENDBRANCH   6   9
ENDBRANCH   4   5
ENDBRANCH   3   4
ENDBRANCH   2   3
ENDBRANCH   1   2
BRANCH   1  19
ATOM     19  C   UNL A   1      37.562  19.696  24.925  1.00  0.00     0.021 C 
BRANCH  19  20
ATOM     20  C   UNL A   1      38.773  20.318  25.610  1.00  0.00     0.116 C 
BRANCH  20  21
ATOM     21  N   UNL A   1      39.864  19.364  25.738  1.00  0.00    -0.352 N 
ATOM     22  C   UNL A   1      41.182  19.592  26.042  1.00  0.00     0.251 C 
ATOM     23  H   UNL A   1      39.622  18.423  25.586  1.00  0.00     0.163 HD
ATOM     24  O   UNL A   1      42.019  18.711  25.875  1.00  0.00    -0.269 OA
BRANCH  22  25
ATOM     25  C   UNL A   1      41.593  20.911  26.564  1.00  0.00     0.039 A 
ATOM     26  C   UNL A   1      42.082  21.871  25.674  1.00  0.00     0.014 A 
ATOM     27  C   UNL A   1      41.508  21.193  27.930  1.00  0.00     0.014 A 
ATOM     28  C   UNL A   1      42.436  23.134  26.150  1.00  0.00     0.010 A 
ATOM     29  C   UNL A   1      41.790  22.474  28.390  1.00  0.00     0.010 A 
ATOM     30  C   UNL A   1      42.265  23.455  27.507  1.00  0.00    -0.014 A 
BRANCH  30  31
ATOM     31  C   UNL A   1      42.579  24.810  28.023  1.00  0.00     0.031 A 
ATOM     32  C   UNL A   1      43.986  25.155  28.429  1.00  0.00     0.074 A 
ATOM     33  C   UNL A   1      41.589  25.707  28.186  1.00  0.00     0.049 A 
ATOM     34  N   UNL A   1      44.445  26.262  28.956  1.00  0.00    -0.248 NA
ATOM     35  C   UNL A   1      45.006  24.110  28.243  1.00  0.00     0.031 C 
ATOM     36  C   UNL A   1      40.178  25.481  27.866  1.00  0.00     0.029 A 
ATOM     37  N   UNL A   1      41.618  26.990  28.671  1.00  0.00    -0.354 N 
ATOM     38  C   UNL A   1      45.798  26.041  29.179  1.00  0.00     0.074 A 
ATOM     39  C   UNL A   1      46.075  24.678  28.781  1.00  0.00     0.031 C 
ATOM     40  C   UNL A   1      39.482  26.597  28.137  1.00  0.00     0.029 A 
ATOM     41  C   UNL A   1      40.387  27.600  28.688  1.00  0.00     0.049 A 
ATOM     42  H   UNL A   1      42.442  27.433  28.979  1.00  0.00     0.167 HD
ATOM     43  C   UNL A   1      46.730  26.899  29.655  1.00  0.00     0.031 A 
ATOM     44  C   UNL A   1      40.026  28.828  29.107  1.00  0.00     0.031 A 
ATOM     45  C   UNL A   1      46.454  28.257  30.045  1.00  0.00     0.049 A 
ATOM     46  C   UNL A   1      41.076  29.756  29.649  1.00  0.00     0.074 A 
ATOM     47  C   UNL A   1      47.340  29.224  30.487  1.00  0.00     0.029 A 
ATOM     48  N   UNL A   1      45.196  28.836  30.040  1.00  0.00    -0.354 N 
ATOM     49  N   UNL A   1      42.364  29.555  29.790  1.00  0.00    -0.248 NA
ATOM     50  C   UNL A   1      40.624  31.087  30.077  1.00  0.00     0.031 C 
ATOM     51  C   UNL A   1      46.608  30.372  30.803  1.00  0.00     0.029 A 
ATOM     52  C   UNL A   1      45.277  30.141  30.498  1.00  0.00     0.049 A 
ATOM     53  H   UNL A   1      44.367  28.388  29.756  1.00  0.00     0.167 HD
ATOM     54  C   UNL A   1      42.880  30.742  30.292  1.00  0.00     0.074 A 
ATOM     55  C   UNL A   1      41.768  31.662  30.419  1.00  0.00     0.031 C 
ATOM     56  C   UNL A   1      44.160  31.044  30.617  1.00  0.00     0.031 A 
BRANCH  43  57
ATOM     57  C   UNL A   1      48.138  26.387  29.790  1.00  0.00    -0.014 A 
ATOM     58  C   UNL A   1      48.588  25.793  30.980  1.00  0.00     0.009 A 
ATOM     59  C   UNL A   1      49.020  26.471  28.701  1.00  0.00     0.009 A 
ATOM     60  C   UNL A   1      49.902  25.332  31.090  1.00  0.00     0.001 A 
ATOM     61  C   UNL A   1      50.323  25.981  28.803  1.00  0.00     0.001 A 
ATOM     62  C   UNL A   1      50.766  25.422  30.001  1.00  0.00     0.000 A 
ENDBRANCH  43  57
BRANCH  44  63
ATOM     63  C   UNL A   1      38.606  29.257  29.014  1.00  0.00    -0.014 A 
ATOM     64  C   UNL A   1      37.759  29.161  30.128  1.00  0.00     0.009 A 
ATOM     65  C   UNL A   1      38.088  29.763  27.811  1.00  0.00     0.009 A 
ATOM     66  C   UNL A   1      36.417  29.537  30.034  1.00  0.00     0.001 A 
ATOM     67  C   UNL A   1      36.754  30.167  27.727  1.00  0.00     0.001 A 
ATOM     68  C   UNL A   1      35.918  30.045  28.835  1.00  0.00     0.000 A 
ENDBRANCH  44  63
BRANCH  56  69
ATOM     69  C   UNL A   1      44.437  32.440  31.101  1.00  0.00    -0.014 A 
ATOM     70  C   UNL A   1      44.731  33.480  30.205  1.00  0.00     0.009 A 
ATOM     71  C   UNL A   1      44.357  32.726  32.473  1.00  0.00     0.009 A 
ATOM     72  C   UNL A   1      44.969  34.771  30.679  1.00  0.00     0.001 A 
ATOM     73  C   UNL A   1      44.565  34.024  32.940  1.00  0.00     0.001 A 
ATOM     74  C   UNL A   1      44.881  35.043  32.044  1.00  0.00     0.000 A 
ENDBRANCH  56  69
ENDBRANCH  30  31
ENDBRANCH  22  25
ENDBRANCH  20  21
ENDBRANCH  19  20
ENDBRANCH   1  19
TORSDOF 13
ENDMDL
MODEL 2
REMARK VINA RESULT:     -10.6      5.262     10.619
REMARK SMILES Cn1cc2cc(C(=O)NCCCCCCNC(=O)c3ccc(-c4c5nc(c(-c6ccccc6)c6ccc([nH]6)c(-c6ccccc6)c6nc(c(-c7ccccc7)c7ccc4[nH]7)C=C6)C=C5)cc3)ccc2n1
REMARK SMILES IDX 13 1 12 2 11 3 10 4 9 5 7 6 8 7 6 9 1 10 2 11 3 12 70 13
REMARK SMILES IDX 4 14 69 15 5 16 68 17 67 18 14 19 15 20 16 21 17 22 18 24
REMARK SMILES IDX 19 25 20 26 66 27 21 28 65 29 22 30 23 31 24 32 59 33 25 34
REMARK SMILES IDX 64 35 58 36 60 37 26 38 63 39 57 40 56 41 27 43 49 44 34 45
REMARK SMILES IDX 48 46 35 47 38 48 47 49 61 50 36 51 37 52 46 54 62 55 39 56
REMARK SMILES IDX 28 57 29 58 33 59 30 60 32 61 31 62 50 63 51 64 55 65 52 66
REMARK SMILES IDX 54 67 53 68 40 69 41 70 45 71 42 72 44 73 43 74
REMARK H PARENT 9 8 16 23 60 42 38 53
REMARK Flexibility Score: inf
ROOT
ATOM      1  C   UNL A   1      37.167  33.471  29.110  1.00  0.00     0.002 C 
ENDROOT
BRANCH   1   2
ATOM      2  C   UNL A   1      37.437  33.208  30.598  1.00  0.00     0.002 C 
BRANCH   2   3
ATOM      3  C   UNL A   1      37.347  34.450  31.498  1.00  0.00     0.021 C 
BRANCH   3   4
ATOM      4  C   UNL A   1      38.360  34.432  32.647  1.00  0.00     0.116 C 
BRANCH   4   5
ATOM      5  N   UNL A   1      37.700  34.055  33.878  1.00  0.00    -0.352 N 
ATOM      6  C   UNL A   1      37.519  32.867  34.533  1.00  0.00     0.251 C 
ATOM      7  O   UNL A   1      36.854  32.912  35.571  1.00  0.00    -0.269 OA
ATOM      8  H   UNL A   1      37.291  34.818  34.347  1.00  0.00     0.163 HD
BRANCH   6   9
ATOM      9  C   UNL A   1      38.106  31.555  34.110  1.00  0.00     0.040 A 
ATOM     10  C   UNL A   1      42.273  27.419  33.958  1.00  0.00     0.173 C 
ATOM     11  N   UNL A   1      41.207  28.388  33.867  1.00  0.00    -0.275 N 
ATOM     12  C   UNL A   1      41.178  29.620  34.455  1.00  0.00     0.117 A 
ATOM     13  N   UNL A   1      40.093  28.075  33.171  1.00  0.00    -0.173 NA
ATOM     14  C   UNL A   1      39.947  30.120  34.137  1.00  0.00     0.021 A 
ATOM     15  C   UNL A   1      39.274  29.123  33.353  1.00  0.00     0.092 A 
ATOM     16  C   UNL A   1      39.445  31.350  34.541  1.00  0.00     0.025 A 
ATOM     17  C   UNL A   1      37.954  29.326  32.929  1.00  0.00     0.032 A 
ATOM     18  C   UNL A   1      37.390  30.552  33.374  1.00  0.00     0.016 A 
ENDBRANCH   6   9
ENDBRANCH   4   5
ENDBRANCH   3   4
ENDBRANCH   2   3
ENDBRANCH   1   2
BRANCH   1  19
ATOM     19  C   UNL A   1      35.692  33.665  28.749  1.00  0.00     0.021 C 
BRANCH  19  20
ATOM     20  C   UNL A   1      34.745  32.720  29.479  1.00  0.00     0.116 C 
BRANCH  20  21
ATOM     21  N   UNL A   1      34.044  31.844  28.552  1.00  0.00    -0.352 N 
ATOM     22  C   UNL A   1      34.523  30.772  27.843  1.00  0.00     0.251 C 
ATOM     23  H   UNL A   1      33.092  32.049  28.416  1.00  0.00     0.163 HD
ATOM     24  O   UNL A   1      33.866  30.290  26.927  1.00  0.00    -0.269 OA
BRANCH  22  25
ATOM     25  C   UNL A   1      35.845  30.205  28.182  1.00  0.00     0.039 A 
ATOM     26  C   UNL A   1      36.875  30.273  27.240  1.00  0.00     0.014 A 
ATOM     27  C   UNL A   1      36.060  29.597  29.421  1.00  0.00     0.014 A 
ATOM     28  C   UNL A   1      38.138  29.777  27.564  1.00  0.00     0.010 A 
ATOM     29  C   UNL A   1      37.337  29.171  29.769  1.00  0.00     0.010 A 
ATOM     30  C   UNL A   1      38.387  29.248  28.842  1.00  0.00    -0.014 A 
BRANCH  30  31
ATOM     31  C   UNL A   1      39.736  28.768  29.227  1.00  0.00     0.031 A 
ATOM     32  C   UNL A   1      40.655  29.657  30.020  1.00  0.00     0.074 A 
ATOM     33  C   UNL A   1      40.158  27.560  28.809  1.00  0.00     0.049 A 
ATOM     34  N   UNL A   1      41.889  29.439  30.400  1.00  0.00    -0.248 NA
ATOM     35  C   UNL A   1      40.127  30.973  30.416  1.00  0.00     0.031 C 
ATOM     36  C   UNL A   1      39.376  26.621  28.003  1.00  0.00     0.029 A 
ATOM     37  N   UNL A   1      41.355  26.917  29.000  1.00  0.00    -0.354 N 
ATOM     38  C   UNL A   1      42.289  30.593  31.062  1.00  0.00     0.074 A 
ATOM     39  C   UNL A   1      41.187  31.527  30.986  1.00  0.00     0.031 C 
ATOM     40  C   UNL A   1      40.103  25.512  27.792  1.00  0.00     0.029 A 
ATOM     41  C   UNL A   1      41.415  25.678  28.411  1.00  0.00     0.049 A 
ATOM     42  H   UNL A   1      42.102  27.307  29.511  1.00  0.00     0.167 HD
ATOM     43  C   UNL A   1      43.460  30.846  31.692  1.00  0.00     0.031 A 
ATOM     44  C   UNL A   1      42.415  24.779  28.366  1.00  0.00     0.031 A 
ATOM     45  C   UNL A   1      44.552  29.913  31.773  1.00  0.00     0.049 A 
ATOM     46  C   UNL A   1      43.713  25.091  29.058  1.00  0.00     0.074 A 
ATOM     47  C   UNL A   1      45.759  30.053  32.435  1.00  0.00     0.029 A 
ATOM     48  N   UNL A   1      44.569  28.667  31.167  1.00  0.00    -0.354 N 
ATOM     49  N   UNL A   1      44.050  26.160  29.738  1.00  0.00    -0.248 NA
ATOM     50  C   UNL A   1      44.762  24.065  28.987  1.00  0.00     0.031 C 
ATOM     51  C   UNL A   1      46.528  28.914  32.184  1.00  0.00     0.029 A 
ATOM     52  C   UNL A   1      45.777  28.038  31.418  1.00  0.00     0.049 A 
ATOM     53  H   UNL A   1      43.833  28.286  30.636  1.00  0.00     0.167 HD
ATOM     54  C   UNL A   1      45.338  25.922  30.202  1.00  0.00     0.074 A 
ATOM     55  C   UNL A   1      45.714  24.603  29.737  1.00  0.00     0.031 C 
ATOM     56  C   UNL A   1      46.136  26.724  30.948  1.00  0.00     0.031 A 
BRANCH  43  57
ATOM     57  C   UNL A   1      43.621  32.196  32.337  1.00  0.00    -0.014 A 
ATOM     58  C   UNL A   1      44.092  33.300  31.610  1.00  0.00     0.009 A 
ATOM     59  C   UNL A   1      43.267  32.373  33.684  1.00  0.00     0.009 A 
ATOM     60  C   UNL A   1      44.245  34.544  32.229  1.00  0.00     0.001 A 
ATOM     61  C   UNL A   1      43.391  33.624  34.291  1.00  0.00     0.001 A 
ATOM     62  C   UNL A   1      43.890  34.705  33.567  1.00  0.00     0.000 A 
ENDBRANCH  43  57
BRANCH  44  63
ATOM     63  C   UNL A   1      42.224  23.488  27.654  1.00  0.00    -0.014 A 
ATOM     64  C   UNL A   1      42.652  23.337  26.327  1.00  0.00     0.009 A 
ATOM     65  C   UNL A   1      41.611  22.401  28.297  1.00  0.00     0.009 A 
ATOM     66  C   UNL A   1      42.447  22.133  25.649  1.00  0.00     0.001 A 
ATOM     67  C   UNL A   1      41.434  21.188  27.627  1.00  0.00     0.001 A 
ATOM     68  C   UNL A   1      41.843  21.059  26.301  1.00  0.00     0.000 A 
ENDBRANCH  44  63
BRANCH  56  69
ATOM     69  C   UNL A   1      47.479  26.180  31.346  1.00  0.00    -0.014 A 
ATOM     70  C   UNL A   1      48.587  26.268  30.489  1.00  0.00     0.009 A 
ATOM     71  C   UNL A   1      47.647  25.613  32.620  1.00  0.00     0.009 A 
ATOM     72  C   UNL A   1      49.828  25.769  30.888  1.00  0.00     0.001 A 
ATOM     73  C   UNL A   1      48.896  25.144  33.028  1.00  0.00     0.001 A 
ATOM     74  C   UNL A   1      49.983  25.213  32.158  1.00  0.00     0.000 A 
ENDBRANCH  56  69
ENDBRANCH  30  31
ENDBRANCH  22  25
ENDBRANCH  20  21
ENDBRANCH  19  20
ENDBRANCH   1  19
TORSDOF 13
ENDMDL
MODEL 3
REMARK VINA RESULT:     -10.5      0.922      6.185
REMARK SMILES Cn1cc2cc(C(=O)NCCCCCCNC(=O)c3ccc(-c4c5nc(c(-c6ccccc6)c6ccc([nH]6)c(-c6ccccc6)c6nc(c(-c7ccccc7)c7ccc4[nH]7)C=C6)C=C5)cc3)ccc2n1
REMARK SMILES IDX 13 1 12 2 11 3 10 4 9 5 7 6 8 7 6 9 1 10 2 11 3 12 70 13
REMARK SMILES IDX 4 14 69 15 5 16 68 17 67 18 14 19 15 20 16 21 17 22 18 24
REMARK SMILES IDX 19 25 20 26 66 27 21 28 65 29 22 30 23 31 24 32 59 33 25 34
REMARK SMILES IDX 64 35 58 36 60 37 26 38 63 39 57 40 56 41 27 43 49 44 34 45
REMARK SMILES IDX 48 46 35 47 38 48 47 49 61 50 36 51 37 52 46 54 62 55 39 56
REMARK SMILES IDX 28 57 29 58 33 59 30 60 32 61 31 62 50 63 51 64 55 65 52 66
REMARK SMILES IDX 54 67 53 68 40 69 41 70 45 71 42 72 44 73 43 74
REMARK H PARENT 9 8 16 23 60 42 38 53
REMARK Flexibility Score: inf
ROOT
ATOM      1  C   UNL A   1      36.492  20.722  24.975  1.00  0.00     0.002 C 
ENDROOT
BRANCH   1   2
ATOM      2  C   UNL A   1      36.695  22.081  25.658  1.00  0.00     0.002 C 
BRANCH   2   3
ATOM      3  C   UNL A   1      36.022  23.266  24.948  1.00  0.00     0.021 C 
BRANCH   3   4
ATOM      4  C   UNL A   1      34.964  22.831  23.928  1.00  0.00     0.116 C 
BRANCH   4   5
ATOM      5  N   UNL A   1      33.643  22.973  24.501  1.00  0.00    -0.352 N 
ATOM      6  C   UNL A   1      32.575  22.130  24.647  1.00  0.00     0.251 C 
ATOM      7  O   UNL A   1      31.565  22.614  25.164  1.00  0.00    -0.269 OA
ATOM      8  H   UNL A   1      33.475  23.873  24.865  1.00  0.00     0.163 HD
BRANCH   6   9
ATOM      9  C   UNL A   1      32.570  20.679  24.276  1.00  0.00     0.040 A 
ATOM     10  C   UNL A   1      32.744  14.920  25.415  1.00  0.00     0.173 C 
ATOM     11  N   UNL A   1      32.757  16.305  25.007  1.00  0.00    -0.275 N 
ATOM     12  C   UNL A   1      32.862  17.391  25.827  1.00  0.00     0.117 A 
ATOM     13  N   UNL A   1      32.619  16.604  23.698  1.00  0.00    -0.173 NA
ATOM     14  C   UNL A   1      32.755  18.463  24.987  1.00  0.00     0.021 A 
ATOM     15  C   UNL A   1      32.577  17.946  23.659  1.00  0.00     0.092 A 
ATOM     16  C   UNL A   1      32.776  19.798  25.372  1.00  0.00     0.025 A 
ATOM     17  C   UNL A   1      32.373  18.816  22.580  1.00  0.00     0.032 A 
ATOM     18  C   UNL A   1      32.334  20.187  22.949  1.00  0.00     0.016 A 
ENDBRANCH   6   9
ENDBRANCH   4   5
ENDBRANCH   3   4
ENDBRANCH   2   3
ENDBRANCH   1   2
BRANCH   1  19
ATOM     19  C   UNL A   1      37.756  19.869  24.852  1.00  0.00     0.021 C 
BRANCH  19  20
ATOM     20  C   UNL A   1      38.909  20.336  25.733  1.00  0.00     0.116 C 
BRANCH  20  21
ATOM     21  N   UNL A   1      39.936  19.313  25.858  1.00  0.00    -0.352 N 
ATOM     22  C   UNL A   1      41.281  19.458  26.084  1.00  0.00     0.251 C 
ATOM     23  H   UNL A   1      39.620  18.385  25.769  1.00  0.00     0.163 HD
ATOM     24  O   UNL A   1      42.043  18.511  25.924  1.00  0.00    -0.269 OA
BRANCH  22  25
ATOM     25  C   UNL A   1      41.811  20.769  26.513  1.00  0.00     0.039 A 
ATOM     26  C   UNL A   1      42.220  21.686  25.542  1.00  0.00     0.014 A 
ATOM     27  C   UNL A   1      41.915  21.083  27.870  1.00  0.00     0.014 A 
ATOM     28  C   UNL A   1      42.685  22.942  25.934  1.00  0.00     0.010 A 
ATOM     29  C   UNL A   1      42.308  22.360  28.256  1.00  0.00     0.010 A 
ATOM     30  C   UNL A   1      42.705  23.300  27.292  1.00  0.00    -0.014 A 
BRANCH  30  31
ATOM     31  C   UNL A   1      43.140  24.649  27.727  1.00  0.00     0.031 A 
ATOM     32  C   UNL A   1      42.118  25.709  28.035  1.00  0.00     0.074 A 
ATOM     33  C   UNL A   1      44.454  24.940  27.783  1.00  0.00     0.049 A 
ATOM     34  N   UNL A   1      42.303  26.961  28.372  1.00  0.00    -0.248 NA
ATOM     35  C   UNL A   1      40.703  25.319  27.925  1.00  0.00     0.031 C 
ATOM     36  C   UNL A   1      45.542  24.011  27.472  1.00  0.00     0.029 A 
ATOM     37  N   UNL A   1      45.097  26.105  28.115  1.00  0.00    -0.354 N 
ATOM     38  C   UNL A   1      41.033  27.509  28.496  1.00  0.00     0.074 A 
ATOM     39  C   UNL A   1      40.088  26.470  28.148  1.00  0.00     0.031 C 
ATOM     40  C   UNL A   1      46.717  24.634  27.656  1.00  0.00     0.029 A 
ATOM     41  C   UNL A   1      46.466  26.015  28.055  1.00  0.00     0.049 A 
ATOM     42  H   UNL A   1      44.622  26.929  28.373  1.00  0.00     0.167 HD
ATOM     43  C   UNL A   1      40.682  28.758  28.883  1.00  0.00     0.031 A 
ATOM     44  C   UNL A   1      47.414  26.942  28.287  1.00  0.00     0.031 A 
ATOM     45  C   UNL A   1      41.624  29.788  29.235  1.00  0.00     0.049 A 
ATOM     46  C   UNL A   1      47.000  28.328  28.697  1.00  0.00     0.074 A 
ATOM     47  C   UNL A   1      41.368  31.069  29.694  1.00  0.00     0.029 A 
ATOM     48  N   UNL A   1      43.000  29.653  29.166  1.00  0.00    -0.354 N 
ATOM     49  N   UNL A   1      45.794  28.810  28.876  1.00  0.00    -0.248 NA
ATOM     50  C   UNL A   1      48.079  29.292  28.950  1.00  0.00     0.031 C 
ATOM     51  C   UNL A   1      42.592  31.727  29.848  1.00  0.00     0.029 A 
ATOM     52  C   UNL A   1      43.610  30.837  29.547  1.00  0.00     0.049 A 
ATOM     53  H   UNL A   1      43.476  28.838  28.886  1.00  0.00     0.167 HD
ATOM     54  C   UNL A   1      45.970  30.124  29.293  1.00  0.00     0.074 A 
ATOM     55  C   UNL A   1      47.399  30.356  29.353  1.00  0.00     0.031 C 
ATOM     56  C   UNL A   1      45.033  31.052  29.602  1.00  0.00     0.031 A 
BRANCH  43  57
ATOM     57  C   UNL A   1      39.214  29.081  28.934  1.00  0.00    -0.014 A 
ATOM     58  C   UNL A   1      38.540  29.594  27.815  1.00  0.00     0.009 A 
ATOM     59  C   UNL A   1      38.486  28.839  30.110  1.00  0.00     0.009 A 
ATOM     60  C   UNL A   1      37.178  29.898  27.884  1.00  0.00     0.001 A 
ATOM     61  C   UNL A   1      37.118  29.112  30.167  1.00  0.00     0.001 A 
ATOM     62  C   UNL A   1      36.468  29.652  29.058  1.00  0.00     0.000 A 
ENDBRANCH  43  57
BRANCH  44  63
ATOM     63  C   UNL A   1      48.851  26.586  28.153  1.00  0.00    -0.014 A 
ATOM     64  C   UNL A   1      49.516  26.754  26.930  1.00  0.00     0.009 A 
ATOM     65  C   UNL A   1      49.565  26.074  29.248  1.00  0.00     0.009 A 
ATOM     66  C   UNL A   1      50.859  26.393  26.797  1.00  0.00     0.001 A 
ATOM     67  C   UNL A   1      50.916  25.742  29.121  1.00  0.00     0.001 A 
ATOM     68  C   UNL A   1      51.558  25.892  27.894  1.00  0.00     0.000 A 
ENDBRANCH  44  63
BRANCH  56  69
ATOM     69  C   UNL A   1      45.521  32.393  30.073  1.00  0.00    -0.014 A 
ATOM     70  C   UNL A   1      45.728  33.454  29.177  1.00  0.00     0.009 A 
ATOM     71  C   UNL A   1      45.733  32.609  31.444  1.00  0.00     0.009 A 
ATOM     72  C   UNL A   1      46.167  34.694  29.643  1.00  0.00     0.001 A 
ATOM     73  C   UNL A   1      46.142  33.859  31.910  1.00  0.00     0.001 A 
ATOM     74  C   UNL A   1      46.369  34.898  31.008  1.00  0.00     0.000 A 
ENDBRANCH  56  69
ENDBRANCH  30  31
ENDBRANCH  22  25
ENDBRANCH  20  21
ENDBRANCH  19  20
ENDBRANCH   1  19
TORSDOF 13
ENDMDL
