MODEL 1
REMARK VINA RESULT:     -11.1      0.000      0.000
REMARK SMILES NS(=O)(=O)c1ccc(NS(=O)(=O)c2cccc(C(=O)NCCCCCCNC(=O)c3ccc(-c4c5nc(c(-c6ccccc6)c6ccc([nH]6)c(-c6ccccc6)c6nc(c(-c7ccccc7)c7ccc4[nH]7)C=C6)C=C5)cc3)c2)cc1
REMARK SMILES IDX 22 1 21 2 20 3 18 4 19 5 17 7 13 8 14 9 78 10 15 11 16 12
REMARK SMILES IDX 10 13 11 14 12 15 9 16 8 18 5 19 6 20 80 21 7 22 79 23 2 24
REMARK SMILES IDX 3 25 4 26 1 27 23 30 24 31 25 32 26 33 27 34 28 35 29 37
REMARK SMILES IDX 30 38 31 39 77 40 32 41 76 42 33 43 34 44 35 45 70 46 36 47
REMARK SMILES IDX 75 48 69 49 71 50 37 51 74 52 68 53 67 54 38 56 60 57 45 58
REMARK SMILES IDX 59 59 46 60 49 61 58 62 72 63 47 64 48 65 57 67 73 68 50 69
REMARK SMILES IDX 39 70 40 71 44 72 41 73 43 74 42 75 61 76 62 77 66 78 63 79
REMARK SMILES IDX 65 80 64 81 51 82 52 83 56 84 53 85 55 86 54 87
REMARK H PARENT 20 6 9 17 1 28 1 29 27 36 71 55 49 66
REMARK Flexibility Score: inf
ROOT
ATOM      1  C   UNL A   1      32.655  22.750  27.920  1.00  0.00     0.021 C 
ENDROOT
BRANCH   1   2
ATOM      2  C   UNL A   1      31.461  22.732  26.976  1.00  0.00     0.116 C 
BRANCH   2   3
ATOM      3  N   UNL A   1      30.677  23.949  26.986  1.00  0.00    -0.352 N 
ATOM      4  C   UNL A   1      30.730  25.103  26.238  1.00  0.00     0.251 C 
ATOM      5  O   UNL A   1      29.900  25.978  26.489  1.00  0.00    -0.269 OA
ATOM      6  H   UNL A   1      29.962  23.952  27.662  1.00  0.00     0.163 HD
BRANCH   4   7
ATOM      7  C   UNL A   1      31.770  25.385  25.201  1.00  0.00     0.041 A 
ATOM      8  C   UNL A   1      32.989  24.899  23.176  1.00  0.00     0.088 A 
ATOM      9  C   UNL A   1      33.990  25.812  23.516  1.00  0.00     0.022 A 
ATOM     10  C   UNL A   1      31.827  24.774  23.949  1.00  0.00     0.036 A 
ATOM     11  C   UNL A   1      33.871  26.536  24.696  1.00  0.00     0.002 A 
ATOM     12  C   UNL A   1      32.790  26.292  25.550  1.00  0.00     0.014 A 
BRANCH   8  13
ATOM     13  S   UNL A   1      33.369  23.631  21.982  1.00  0.00     0.261 S 
ATOM     14  O   UNL A   1      34.590  22.971  22.390  1.00  0.00    -0.201 OA
ATOM     15  O   UNL A   1      33.226  24.232  20.674  1.00  0.00    -0.201 OA
BRANCH  13  16
ATOM     16  N   UNL A   1      32.116  22.521  22.122  1.00  0.00    -0.280 N 
ATOM     17  H   UNL A   1      31.253  22.782  21.726  1.00  0.00     0.180 HD
BRANCH  16  18
ATOM     18  C   UNL A   1      32.166  21.241  22.755  1.00  0.00     0.049 A 
ATOM     19  C   UNL A   1      32.961  18.823  23.943  1.00  0.00     0.082 A 
ATOM     20  C   UNL A   1      32.439  18.826  22.651  1.00  0.00     0.024 A 
ATOM     21  C   UNL A   1      33.008  20.004  24.683  1.00  0.00     0.024 A 
ATOM     22  C   UNL A   1      32.015  20.030  22.077  1.00  0.00     0.028 A 
ATOM     23  C   UNL A   1      32.624  21.210  24.080  1.00  0.00     0.028 A 
BRANCH  19  24
ATOM     24  S   UNL A   1      33.689  17.342  24.585  1.00  0.00     0.238 S 
ATOM     25  O   UNL A   1      32.973  16.948  25.779  1.00  0.00    -0.207 OA
ATOM     26  O   UNL A   1      35.121  17.467  24.528  1.00  0.00    -0.207 OA
BRANCH  24  27
ATOM     27  N   UNL A   1      33.266  16.183  23.435  1.00  0.00    -0.225 NA
ATOM     28  H   UNL A   1      32.275  16.273  23.211  1.00  0.00     0.137 HD
ATOM     29  H   UNL A   1      33.447  15.251  23.809  1.00  0.00     0.137 HD
ENDBRANCH  24  27
ENDBRANCH  19  24
ENDBRANCH  16  18
ENDBRANCH  13  16
ENDBRANCH   8  13
ENDBRANCH   4   7
ENDBRANCH   2   3
ENDBRANCH   1   2
BRANCH   1  30
ATOM     30  C   UNL A   1      34.005  22.310  27.363  1.00  0.00     0.002 C 
BRANCH  30  31
ATOM     31  C   UNL A   1      34.744  23.311  26.472  1.00  0.00     0.002 C 
BRANCH  31  32
ATOM     32  C   UNL A   1      35.776  22.746  25.490  1.00  0.00     0.021 C 
BRANCH  32  33
ATOM     33  C   UNL A   1      37.092  23.511  25.363  1.00  0.00     0.116 C 
BRANCH  33  34
ATOM     34  N   UNL A   1      38.261  22.678  25.568  1.00  0.00    -0.352 N 
ATOM     35  C   UNL A   1      39.467  22.967  26.157  1.00  0.00     0.251 C 
ATOM     36  H   UNL A   1      38.176  21.757  25.232  1.00  0.00     0.163 HD
ATOM     37  O   UNL A   1      40.376  22.142  26.119  1.00  0.00    -0.269 OA
BRANCH  35  38
ATOM     38  C   UNL A   1      39.699  24.273  26.813  1.00  0.00     0.039 A 
ATOM     39  C   UNL A   1      39.191  24.471  28.101  1.00  0.00     0.014 A 
ATOM     40  C   UNL A   1      40.377  25.309  26.164  1.00  0.00     0.014 A 
ATOM     41  C   UNL A   1      39.422  25.679  28.765  1.00  0.00     0.010 A 
ATOM     42  C   UNL A   1      40.657  26.493  26.849  1.00  0.00     0.010 A 
ATOM     43  C   UNL A   1      40.187  26.687  28.158  1.00  0.00    -0.014 A 
BRANCH  43  44
ATOM     44  C   UNL A   1      40.517  27.940  28.883  1.00  0.00     0.031 A 
ATOM     45  C   UNL A   1      41.840  28.095  29.580  1.00  0.00     0.074 A 
ATOM     46  C   UNL A   1      39.597  28.921  28.969  1.00  0.00     0.049 A 
ATOM     47  N   UNL A   1      42.273  29.089  30.315  1.00  0.00    -0.248 NA
ATOM     48  C   UNL A   1      42.792  26.981  29.451  1.00  0.00     0.031 C 
ATOM     49  C   UNL A   1      38.263  28.887  28.365  1.00  0.00     0.029 A 
ATOM     50  N   UNL A   1      39.643  30.135  29.607  1.00  0.00    -0.354 N 
ATOM     51  C   UNL A   1      43.538  28.714  30.749  1.00  0.00     0.074 A 
ATOM     52  C   UNL A   1      43.787  27.387  30.226  1.00  0.00     0.031 C 
ATOM     53  C   UNL A   1      37.625  30.035  28.645  1.00  0.00     0.029 A 
ATOM     54  C   UNL A   1      38.489  30.869  29.475  1.00  0.00     0.049 A 
ATOM     55  H   UNL A   1      40.428  30.450  30.109  1.00  0.00     0.167 HD
ATOM     56  C   UNL A   1      44.419  29.413  31.504  1.00  0.00     0.031 A 
ATOM     57  C   UNL A   1      38.158  32.075  29.972  1.00  0.00     0.031 A 
ATOM     58  C   UNL A   1      44.184  30.737  32.015  1.00  0.00     0.049 A 
ATOM     59  C   UNL A   1      39.147  32.826  30.816  1.00  0.00     0.074 A 
ATOM     60  C   UNL A   1      45.042  31.547  32.740  1.00  0.00     0.029 A 
ATOM     61  N   UNL A   1      43.004  31.446  31.857  1.00  0.00    -0.354 N 
ATOM     62  N   UNL A   1      40.360  32.479  31.170  1.00  0.00    -0.248 NA
ATOM     63  C   UNL A   1      38.724  34.140  31.322  1.00  0.00     0.031 C 
ATOM     64  C   UNL A   1      44.365  32.730  33.055  1.00  0.00     0.029 A 
ATOM     65  C   UNL A   1      43.102  32.674  32.489  1.00  0.00     0.049 A 
ATOM     66  H   UNL A   1      42.213  31.124  31.366  1.00  0.00     0.167 HD
ATOM     67  C   UNL A   1      40.852  33.537  31.922  1.00  0.00     0.074 A 
ATOM     68  C   UNL A   1      39.812  34.544  31.961  1.00  0.00     0.031 C 
ATOM     69  C   UNL A   1      42.058  33.663  32.526  1.00  0.00     0.031 A 
BRANCH  56  70
ATOM     70  C   UNL A   1      45.727  28.748  31.830  1.00  0.00    -0.014 A 
ATOM     71  C   UNL A   1      45.876  27.971  32.989  1.00  0.00     0.009 A 
ATOM     72  C   UNL A   1      46.812  28.874  30.951  1.00  0.00     0.009 A 
ATOM     73  C   UNL A   1      47.098  27.362  33.279  1.00  0.00     0.001 A 
ATOM     74  C   UNL A   1      48.026  28.244  31.230  1.00  0.00     0.001 A 
ATOM     75  C   UNL A   1      48.171  27.496  32.398  1.00  0.00     0.000 A 
ENDBRANCH  56  70
BRANCH  57  76
ATOM     76  C   UNL A   1      36.826  32.659  29.674  1.00  0.00    -0.014 A 
ATOM     77  C   UNL A   1      35.762  32.490  30.574  1.00  0.00     0.009 A 
ATOM     78  C   UNL A   1      36.610  33.382  28.492  1.00  0.00     0.009 A 
ATOM     79  C   UNL A   1      34.503  33.019  30.285  1.00  0.00     0.001 A 
ATOM     80  C   UNL A   1      35.355  33.930  28.217  1.00  0.00     0.001 A 
ATOM     81  C   UNL A   1      34.300  33.742  29.110  1.00  0.00     0.000 A 
ENDBRANCH  57  76
BRANCH  69  82
ATOM     82  C   UNL A   1      42.325  34.945  33.260  1.00  0.00    -0.014 A 
ATOM     83  C   UNL A   1      43.054  35.984  32.660  1.00  0.00     0.009 A 
ATOM     84  C   UNL A   1      41.812  35.128  34.553  1.00  0.00     0.009 A 
ATOM     85  C   UNL A   1      43.288  37.173  33.355  1.00  0.00     0.001 A 
ATOM     86  C   UNL A   1      42.028  36.325  35.236  1.00  0.00     0.001 A 
ATOM     87  C   UNL A   1      42.772  37.343  34.640  1.00  0.00     0.000 A 
ENDBRANCH  69  82
ENDBRANCH  43  44
ENDBRANCH  35  38
ENDBRANCH  33  34
ENDBRANCH  32  33
ENDBRANCH  31  32
ENDBRANCH  30  31
ENDBRANCH   1  30
TORSDOF 18
ENDMDL
MODEL 2
REMARK VINA RESULT:     -10.7      2.241      7.015
REMARK SMILES NS(=O)(=O)c1ccc(NS(=O)(=O)c2cccc(C(=O)NCCCCCCNC(=O)c3ccc(-c4c5nc(c(-c6ccccc6)c6ccc([nH]6)c(-c6ccccc6)c6nc(c(-c7ccccc7)c7ccc4[nH]7)C=C6)C=C5)cc3)c2)cc1
REMARK SMILES IDX 22 1 21 2 20 3 18 4 19 5 17 7 13 8 14 9 78 10 15 11 16 12
REMARK SMILES IDX 10 13 11 14 12 15 9 16 8 18 5 19 6 20 80 21 7 22 79 23 2 24
REMARK SMILES IDX 3 25 4 26 1 27 23 30 24 31 25 32 26 33 27 34 28 35 29 37
REMARK SMILES IDX 30 38 31 39 77 40 32 41 76 42 33 43 34 44 35 45 70 46 36 47
REMARK SMILES IDX 75 48 69 49 71 50 37 51 74 52 68 53 67 54 38 56 60 57 45 58
REMARK SMILES IDX 59 59 46 60 49 61 58 62 72 63 47 64 48 65 57 67 73 68 50 69
REMARK SMILES IDX 39 70 40 71 44 72 41 73 43 74 42 75 61 76 62 77 66 78 63 79
REMARK SMILES IDX 65 80 64 81 51 82 52 83 56 84 53 85 55 86 54 87
REMARK H PARENT 20 6 9 17 1 28 1 29 27 36 71 55 49 66
REMARK Flexibility Score: inf
ROOT
ATOM      1  C   UNL A   1      32.363  28.804  27.404  1.00  0.00     0.021 C 
ENDROOT
BRANCH   1   2
ATOM      2  C   UNL A   1      32.346  27.404  26.807  1.00  0.00     0.116 C 
BRANCH   2   3
ATOM      3  N   UNL A   1      31.071  26.726  26.919  1.00  0.00    -0.352 N 
ATOM      4  C   UNL A   1      30.370  25.905  26.067  1.00  0.00     0.251 C 
ATOM      5  O   UNL A   1      29.288  25.469  26.464  1.00  0.00    -0.269 OA
ATOM      6  H   UNL A   1      30.615  26.883  27.778  1.00  0.00     0.163 HD
BRANCH   4   7
ATOM      7  C   UNL A   1      30.803  25.573  24.675  1.00  0.00     0.041 A 
ATOM      8  C   UNL A   1      31.930  24.215  23.029  1.00  0.00     0.088 A 
ATOM      9  C   UNL A   1      31.868  25.244  22.085  1.00  0.00     0.022 A 
ATOM     10  C   UNL A   1      31.295  24.332  24.272  1.00  0.00     0.036 A 
ATOM     11  C   UNL A   1      31.249  26.439  22.428  1.00  0.00     0.002 A 
ATOM     12  C   UNL A   1      30.758  26.615  23.727  1.00  0.00     0.014 A 
BRANCH   8  13
ATOM     13  S   UNL A   1      33.135  22.923  22.795  1.00  0.00     0.261 S 
ATOM     14  O   UNL A   1      34.372  23.527  22.350  1.00  0.00    -0.201 OA
ATOM     15  O   UNL A   1      32.483  21.874  22.042  1.00  0.00    -0.201 OA
BRANCH  13  16
ATOM     16  N   UNL A   1      33.395  22.297  24.332  1.00  0.00    -0.280 N 
ATOM     17  H   UNL A   1      33.506  22.951  25.060  1.00  0.00     0.180 HD
BRANCH  16  18
ATOM     18  C   UNL A   1      33.473  20.918  24.698  1.00  0.00     0.049 A 
ATOM     19  C   UNL A   1      33.808  18.129  24.740  1.00  0.00     0.082 A 
ATOM     20  C   UNL A   1      32.527  18.678  24.766  1.00  0.00     0.024 A 
ATOM     21  C   UNL A   1      34.927  18.960  24.784  1.00  0.00     0.024 A 
ATOM     22  C   UNL A   1      32.368  20.068  24.776  1.00  0.00     0.028 A 
ATOM     23  C   UNL A   1      34.755  20.351  24.748  1.00  0.00     0.028 A 
BRANCH  19  24
ATOM     24  S   UNL A   1      34.003  16.384  24.513  1.00  0.00     0.238 S 
ATOM     25  O   UNL A   1      32.746  15.731  24.806  1.00  0.00    -0.207 OA
ATOM     26  O   UNL A   1      35.257  15.978  25.089  1.00  0.00    -0.207 OA
BRANCH  24  27
ATOM     27  N   UNL A   1      34.176  16.236  22.842  1.00  0.00    -0.225 NA
ATOM     28  H   UNL A   1      33.259  16.108  22.415  1.00  0.00     0.137 HD
ATOM     29  H   UNL A   1      34.765  15.431  22.631  1.00  0.00     0.137 HD
ENDBRANCH  24  27
ENDBRANCH  19  24
ENDBRANCH  16  18
ENDBRANCH  13  16
ENDBRANCH   8  13
ENDBRANCH   4   7
ENDBRANCH   2   3
ENDBRANCH   1   2
BRANCH   1  30
ATOM     30  C   UNL A   1      32.582  29.977  26.453  1.00  0.00     0.002 C 
BRANCH  30  31
ATOM     31  C   UNL A   1      31.351  30.808  26.087  1.00  0.00     0.002 C 
BRANCH  31  32
ATOM     32  C   UNL A   1      31.386  32.301  26.432  1.00  0.00     0.021 C 
BRANCH  32  33
ATOM     33  C   UNL A   1      32.640  32.812  27.137  1.00  0.00     0.116 C 
BRANCH  33  34
ATOM     34  N   UNL A   1      32.479  34.139  27.700  1.00  0.00    -0.352 N 
ATOM     35  C   UNL A   1      33.215  34.794  28.657  1.00  0.00     0.251 C 
ATOM     36  H   UNL A   1      31.722  34.652  27.339  1.00  0.00     0.163 HD
ATOM     37  O   UNL A   1      32.831  35.881  29.082  1.00  0.00    -0.269 OA
BRANCH  35  38
ATOM     38  C   UNL A   1      34.452  34.196  29.206  1.00  0.00     0.039 A 
ATOM     39  C   UNL A   1      34.367  33.466  30.397  1.00  0.00     0.014 A 
ATOM     40  C   UNL A   1      35.692  34.375  28.585  1.00  0.00     0.014 A 
ATOM     41  C   UNL A   1      35.509  32.856  30.925  1.00  0.00     0.010 A 
ATOM     42  C   UNL A   1      36.819  33.718  29.082  1.00  0.00     0.010 A 
ATOM     43  C   UNL A   1      36.737  32.948  30.253  1.00  0.00    -0.014 A 
BRANCH  43  44
ATOM     44  C   UNL A   1      37.939  32.233  30.753  1.00  0.00     0.031 A 
ATOM     45  C   UNL A   1      38.749  32.798  31.886  1.00  0.00     0.074 A 
ATOM     46  C   UNL A   1      38.340  31.100  30.143  1.00  0.00     0.049 A 
ATOM     47  N   UNL A   1      39.862  32.346  32.409  1.00  0.00    -0.248 NA
ATOM     48  C   UNL A   1      38.257  34.042  32.498  1.00  0.00     0.031 C 
ATOM     49  C   UNL A   1      37.663  30.460  29.013  1.00  0.00     0.029 A 
ATOM     50  N   UNL A   1      39.422  30.291  30.385  1.00  0.00    -0.354 N 
ATOM     51  C   UNL A   1      40.211  33.258  33.397  1.00  0.00     0.074 A 
ATOM     52  C   UNL A   1      39.213  34.305  33.376  1.00  0.00     0.031 C 
ATOM     53  C   UNL A   1      38.334  29.348  28.673  1.00  0.00     0.029 A 
ATOM     54  C   UNL A   1      39.504  29.215  29.535  1.00  0.00     0.049 A 
ATOM     55  H   UNL A   1      40.075  30.464  31.100  1.00  0.00     0.167 HD
ATOM     56  C   UNL A   1      41.260  33.220  34.254  1.00  0.00     0.031 A 
ATOM     57  C   UNL A   1      40.422  28.234  29.452  1.00  0.00     0.031 A 
ATOM     58  C   UNL A   1      42.247  32.175  34.291  1.00  0.00     0.049 A 
ATOM     59  C   UNL A   1      41.582  28.221  30.406  1.00  0.00     0.074 A 
ATOM     60  C   UNL A   1      43.311  32.024  35.163  1.00  0.00     0.029 A 
ATOM     61  N   UNL A   1      42.293  31.102  33.415  1.00  0.00    -0.354 N 
ATOM     62  N   UNL A   1      41.866  29.061  31.370  1.00  0.00    -0.248 NA
ATOM     63  C   UNL A   1      42.544  27.119  30.263  1.00  0.00     0.031 C 
ATOM     64  C   UNL A   1      44.025  30.880  34.789  1.00  0.00     0.029 A 
ATOM     65  C   UNL A   1      43.379  30.297  33.711  1.00  0.00     0.049 A 
ATOM     66  H   UNL A   1      41.647  30.937  32.690  1.00  0.00     0.167 HD
ATOM     67  C   UNL A   1      43.025  28.580  31.962  1.00  0.00     0.074 A 
ATOM     68  C   UNL A   1      43.385  27.367  31.257  1.00  0.00     0.031 C 
ATOM     69  C   UNL A   1      43.729  29.097  32.998  1.00  0.00     0.031 A 
BRANCH  56  70
ATOM     70  C   UNL A   1      41.395  34.359  35.226  1.00  0.00    -0.014 A 
ATOM     71  C   UNL A   1      42.133  35.507  34.899  1.00  0.00     0.009 A 
ATOM     72  C   UNL A   1      40.751  34.295  36.470  1.00  0.00     0.009 A 
ATOM     73  C   UNL A   1      42.251  36.556  35.814  1.00  0.00     0.001 A 
ATOM     74  C   UNL A   1      40.850  35.355  37.374  1.00  0.00     0.001 A 
ATOM     75  C   UNL A   1      41.608  36.479  37.049  1.00  0.00     0.000 A 
ENDBRANCH  56  70
BRANCH  57  76
ATOM     76  C   UNL A   1      40.276  27.169  28.428  1.00  0.00    -0.014 A 
ATOM     77  C   UNL A   1      40.840  27.329  27.154  1.00  0.00     0.009 A 
ATOM     78  C   UNL A   1      39.573  25.990  28.718  1.00  0.00     0.009 A 
ATOM     79  C   UNL A   1      40.685  26.338  26.183  1.00  0.00     0.001 A 
ATOM     80  C   UNL A   1      39.440  24.990  27.753  1.00  0.00     0.001 A 
ATOM     81  C   UNL A   1      39.989  25.168  26.483  1.00  0.00     0.000 A 
ENDBRANCH  57  76
BRANCH  69  82
ATOM     82  C   UNL A   1      44.945  28.338  33.445  1.00  0.00    -0.014 A 
ATOM     83  C   UNL A   1      44.848  27.313  34.399  1.00  0.00     0.009 A 
ATOM     84  C   UNL A   1      46.195  28.629  32.880  1.00  0.00     0.009 A 
ATOM     85  C   UNL A   1      45.988  26.614  34.799  1.00  0.00     0.001 A 
ATOM     86  C   UNL A   1      47.329  27.914  33.265  1.00  0.00     0.001 A 
ATOM     87  C   UNL A   1      47.226  26.912  34.230  1.00  0.00     0.000 A 
ENDBRANCH  69  82
ENDBRANCH  43  44
ENDBRANCH  35  38
ENDBRANCH  33  34
ENDBRANCH  32  33
ENDBRANCH  31  32
ENDBRANCH  30  31
ENDBRANCH   1  30
TORSDOF 18
ENDMDL
MODEL 3
REMARK VINA RESULT:     -10.4      2.399      7.222
REMARK SMILES NS(=O)(=O)c1ccc(NS(=O)(=O)c2cccc(C(=O)NCCCCCCNC(=O)c3ccc(-c4c5nc(c(-c6ccccc6)c6ccc([nH]6)c(-c6ccccc6)c6nc(c(-c7ccccc7)c7ccc4[nH]7)C=C6)C=C5)cc3)c2)cc1
REMARK SMILES IDX 22 1 21 2 20 3 18 4 19 5 17 7 13 8 14 9 78 10 15 11 16 12
REMARK SMILES IDX 10 13 11 14 12 15 9 16 8 18 5 19 6 20 80 21 7 22 79 23 2 24
REMARK SMILES IDX 3 25 4 26 1 27 23 30 24 31 25 32 26 33 27 34 28 35 29 37
REMARK SMILES IDX 30 38 31 39 77 40 32 41 76 42 33 43 34 44 35 45 70 46 36 47
REMARK SMILES IDX 75 48 69 49 71 50 37 51 74 52 68 53 67 54 38 56 60 57 45 58
REMARK SMILES IDX 59 59 46 60 49 61 58 62 72 63 47 64 48 65 57 67 73 68 50 69
REMARK SMILES IDX 39 70 40 71 44 72 41 73 43 74 42 75 61 76 62 77 66 78 63 79
REMARK SMILES IDX 65 80 64 81 51 82 52 83 56 84 53 85 55 86 54 87
REMARK H PARENT 20 6 9 17 1 28 1 29 27 36 71 55 49 66
REMARK Flexibility Score: inf
ROOT
ATOM      1  C   UNL A   1      30.904  30.237  24.085  1.00  0.00     0.021 C 
ENDROOT
BRANCH   1   2
ATOM      2  C   UNL A   1      30.831  29.440  22.791  1.00  0.00     0.116 C 
BRANCH   2   3
ATOM      3  N   UNL A   1      32.120  29.162  22.191  1.00  0.00    -0.352 N 
ATOM      4  C   UNL A   1      33.123  28.271  22.497  1.00  0.00     0.251 C 
ATOM      5  O   UNL A   1      34.120  28.272  21.774  1.00  0.00    -0.269 OA
ATOM      6  H   UNL A   1      32.318  29.722  21.406  1.00  0.00     0.163 HD
BRANCH   4   7
ATOM      7  C   UNL A   1      33.105  27.363  23.685  1.00  0.00     0.041 A 
ATOM      8  C   UNL A   1      32.115  25.683  25.106  1.00  0.00     0.088 A 
ATOM      9  C   UNL A   1      33.014  25.972  26.136  1.00  0.00     0.022 A 
ATOM     10  C   UNL A   1      32.236  26.284  23.847  1.00  0.00     0.036 A 
ATOM     11  C   UNL A   1      33.982  26.948  25.934  1.00  0.00     0.002 A 
ATOM     12  C   UNL A   1      33.998  27.665  24.733  1.00  0.00     0.014 A 
BRANCH   8  13
ATOM     13  S   UNL A   1      30.597  24.843  25.516  1.00  0.00     0.261 S 
ATOM     14  O   UNL A   1      29.515  25.480  24.799  1.00  0.00    -0.201 OA
ATOM     15  O   UNL A   1      30.577  24.697  26.956  1.00  0.00    -0.201 OA
BRANCH  13  16
ATOM     16  N   UNL A   1      30.783  23.294  24.895  1.00  0.00    -0.280 N 
ATOM     17  H   UNL A   1      29.957  22.811  24.666  1.00  0.00     0.180 HD
BRANCH  16  18
ATOM     18  C   UNL A   1      32.011  22.601  24.664  1.00  0.00     0.049 A 
ATOM     19  C   UNL A   1      34.672  21.699  24.683  1.00  0.00     0.082 A 
ATOM     20  C   UNL A   1      34.193  22.435  23.600  1.00  0.00     0.024 A 
ATOM     21  C   UNL A   1      33.810  21.332  25.716  1.00  0.00     0.024 A 
ATOM     22  C   UNL A   1      32.858  22.854  23.583  1.00  0.00     0.028 A 
ATOM     23  C   UNL A   1      32.488  21.797  25.709  1.00  0.00     0.028 A 
BRANCH  19  24
ATOM     24  S   UNL A   1      36.404  21.354  24.803  1.00  0.00     0.238 S 
ATOM     25  O   UNL A   1      37.096  22.059  23.745  1.00  0.00    -0.207 OA
ATOM     26  O   UNL A   1      36.581  19.951  25.064  1.00  0.00    -0.207 OA
BRANCH  24  27
ATOM     27  N   UNL A   1      36.854  22.162  26.214  1.00  0.00    -0.225 NA
ATOM     28  H   UNL A   1      37.831  21.958  26.425  1.00  0.00     0.137 HD
ATOM     29  H   UNL A   1      36.267  21.849  26.987  1.00  0.00     0.137 HD
ENDBRANCH  24  27
ENDBRANCH  19  24
ENDBRANCH  16  18
ENDBRANCH  13  16
ENDBRANCH   8  13
ENDBRANCH   4   7
ENDBRANCH   2   3
ENDBRANCH   1   2
BRANCH   1  30
ATOM     30  C   UNL A   1      31.012  29.458  25.392  1.00  0.00     0.002 C 
BRANCH  30  31
ATOM     31  C   UNL A   1      31.753  30.140  26.544  1.00  0.00     0.002 C 
BRANCH  31  32
ATOM     32  C   UNL A   1      31.498  31.637  26.753  1.00  0.00     0.021 C 
BRANCH  32  33
ATOM     33  C   UNL A   1      32.729  32.528  26.899  1.00  0.00     0.116 C 
BRANCH  33  34
ATOM     34  N   UNL A   1      32.461  33.761  27.613  1.00  0.00    -0.352 N 
ATOM     35  C   UNL A   1      33.163  34.376  28.621  1.00  0.00     0.251 C 
ATOM     36  H   UNL A   1      31.646  34.234  27.330  1.00  0.00     0.163 HD
ATOM     37  O   UNL A   1      32.691  35.365  29.176  1.00  0.00    -0.269 OA
BRANCH  35  38
ATOM     38  C   UNL A   1      34.469  33.846  29.070  1.00  0.00     0.039 A 
ATOM     39  C   UNL A   1      34.504  33.038  30.212  1.00  0.00     0.014 A 
ATOM     40  C   UNL A   1      35.657  34.162  28.404  1.00  0.00     0.014 A 
ATOM     41  C   UNL A   1      35.715  32.490  30.644  1.00  0.00     0.010 A 
ATOM     42  C   UNL A   1      36.857  33.569  28.802  1.00  0.00     0.010 A 
ATOM     43  C   UNL A   1      36.896  32.723  29.922  1.00  0.00    -0.014 A 
BRANCH  43  44
ATOM     44  C   UNL A   1      38.174  32.077  30.316  1.00  0.00     0.031 A 
ATOM     45  C   UNL A   1      39.119  32.764  31.261  1.00  0.00     0.074 A 
ATOM     46  C   UNL A   1      38.515  30.892  29.771  1.00  0.00     0.049 A 
ATOM     47  N   UNL A   1      40.305  32.381  31.663  1.00  0.00    -0.248 NA
ATOM     48  C   UNL A   1      38.684  34.058  31.809  1.00  0.00     0.031 C 
ATOM     49  C   UNL A   1      37.704  30.132  28.817  1.00  0.00     0.029 A 
ATOM     50  N   UNL A   1      39.641  30.124  29.937  1.00  0.00    -0.354 N 
ATOM     51  C   UNL A   1      40.765  33.392  32.497  1.00  0.00     0.074 A 
ATOM     52  C   UNL A   1      39.747  34.421  32.513  1.00  0.00     0.031 C 
ATOM     53  C   UNL A   1      38.349  28.999  28.498  1.00  0.00     0.029 A 
ATOM     54  C   UNL A   1      39.631  28.968  29.195  1.00  0.00     0.049 A 
ATOM     55  H   UNL A   1      40.383  30.378  30.532  1.00  0.00     0.167 HD
ATOM     56  C   UNL A   1      41.923  33.455  33.197  1.00  0.00     0.031 A 
ATOM     57  C   UNL A   1      40.554  27.995  29.081  1.00  0.00     0.031 A 
ATOM     58  C   UNL A   1      42.933  32.431  33.197  1.00  0.00     0.049 A 
ATOM     59  C   UNL A   1      41.835  28.093  29.858  1.00  0.00     0.074 A 
ATOM     60  C   UNL A   1      44.112  32.382  33.921  1.00  0.00     0.029 A 
ATOM     61  N   UNL A   1      42.884  31.275  32.434  1.00  0.00    -0.354 N 
ATOM     62  N   UNL A   1      42.229  29.031  30.684  1.00  0.00    -0.248 NA
ATOM     63  C   UNL A   1      42.797  26.993  29.691  1.00  0.00     0.031 C 
ATOM     64  C   UNL A   1      44.796  31.214  33.565  1.00  0.00     0.029 A 
ATOM     65  C   UNL A   1      44.022  30.517  32.652  1.00  0.00     0.049 A 
ATOM     66  H   UNL A   1      42.148  31.029  31.828  1.00  0.00     0.167 HD
ATOM     67  C   UNL A   1      43.472  28.626  31.151  1.00  0.00     0.074 A 
ATOM     68  C   UNL A   1      43.761  27.351  30.527  1.00  0.00     0.031 C 
ATOM     69  C   UNL A   1      44.299  29.255  32.020  1.00  0.00     0.031 A 
BRANCH  56  70
ATOM     70  C   UNL A   1      42.163  34.689  34.021  1.00  0.00    -0.014 A 
ATOM     71  C   UNL A   1      41.796  34.738  35.375  1.00  0.00     0.009 A 
ATOM     72  C   UNL A   1      42.793  35.802  33.446  1.00  0.00     0.009 A 
ATOM     73  C   UNL A   1      42.024  35.893  36.127  1.00  0.00     0.001 A 
ATOM     74  C   UNL A   1      43.041  36.946  34.206  1.00  0.00     0.001 A 
ATOM     75  C   UNL A   1      42.648  36.994  35.543  1.00  0.00     0.000 A 
ENDBRANCH  56  70
BRANCH  57  76
ATOM     76  C   UNL A   1      40.295  26.829  28.199  1.00  0.00    -0.014 A 
ATOM     77  C   UNL A   1      40.784  26.812  26.885  1.00  0.00     0.009 A 
ATOM     78  C   UNL A   1      39.557  25.731  28.665  1.00  0.00     0.009 A 
ATOM     79  C   UNL A   1      40.523  25.726  26.047  1.00  0.00     0.001 A 
ATOM     80  C   UNL A   1      39.316  24.636  27.833  1.00  0.00     0.001 A 
ATOM     81  C   UNL A   1      39.793  24.637  26.522  1.00  0.00     0.000 A 
ENDBRANCH  57  76
BRANCH  69  82
ATOM     82  C   UNL A   1      45.585  28.560  32.364  1.00  0.00    -0.014 A 
ATOM     83  C   UNL A   1      46.763  28.819  31.646  1.00  0.00     0.009 A 
ATOM     84  C   UNL A   1      45.626  27.661  33.440  1.00  0.00     0.009 A 
ATOM     85  C   UNL A   1      47.951  28.167  31.982  1.00  0.00     0.001 A 
ATOM     86  C   UNL A   1      46.819  27.028  33.789  1.00  0.00     0.001 A 
ATOM     87  C   UNL A   1      47.979  27.276  33.055  1.00  0.00     0.000 A 
ENDBRANCH  69  82
ENDBRANCH  43  44
ENDBRANCH  35  38
ENDBRANCH  33  34
ENDBRANCH  32  33
ENDBRANCH  31  32
ENDBRANCH  30  31
ENDBRANCH   1  30
TORSDOF 18
ENDMDL
