MODEL 1
REMARK VINA RESULT:     -11.7      0.000      0.000
REMARK SMILES Cc1cccc(C[C@H](C(=O)NCCCCCCNC(=O)c2ccc(-c3c4nc(c(-c5ccccc5)c5ccc([nH]5)c(-c5ccccc5)c5nc(c(-c6ccccc6)c6ccc3[nH]6)C=C5)C=C4)cc2)[C@@H]2CCCC[C@@H]2O)c1
REMARK SMILES IDX 14 1 13 2 12 3 11 4 9 5 10 6 8 8 7 9 6 10 1 11 2 12 3 13
REMARK SMILES IDX 76 14 4 15 5 16 69 17 70 18 74 19 71 20 73 21 72 22 75 23
REMARK SMILES IDX 15 25 16 26 17 27 18 28 19 29 20 31 21 32 22 33 68 34 23 35
REMARK SMILES IDX 67 36 24 37 25 38 26 39 61 40 27 41 66 42 60 43 62 44 28 45
REMARK SMILES IDX 65 46 59 47 58 48 29 50 51 51 36 52 50 53 37 54 40 55 49 56
REMARK SMILES IDX 63 57 38 58 39 59 48 61 64 62 41 63 30 64 31 65 35 66 32 67
REMARK SMILES IDX 34 68 33 69 52 70 53 71 57 72 54 73 56 74 55 75 42 76 43 77
REMARK SMILES IDX 47 78 44 79 46 80 45 81
REMARK H PARENT 11 7 75 24 18 30 62 49 40 60
REMARK Flexibility Score: inf
ROOT
ATOM      1  C   UNL A   1      31.231  28.814  24.711  1.00  0.00     0.002 C 
ENDROOT
BRANCH   1   2
ATOM      2  C   UNL A   1      30.899  28.882  23.215  1.00  0.00     0.021 C 
BRANCH   2   3
ATOM      3  C   UNL A   1      30.573  27.532  22.559  1.00  0.00     0.116 C 
BRANCH   3   4
ATOM      4  N   UNL A   1      31.639  27.102  21.679  1.00  0.00    -0.356 N 
ATOM      5  C   UNL A   1      32.439  25.998  21.719  1.00  0.00     0.223 C 
ATOM      6  O   UNL A   1      33.357  25.967  20.894  1.00  0.00    -0.275 OA
ATOM      7  H   UNL A   1      31.815  27.707  20.922  1.00  0.00     0.163 HD
BRANCH   5   8
ATOM      8  C   UNL A   1      32.196  24.837  22.730  1.00  0.00     0.088 C 
BRANCH   8   9
ATOM      9  C   UNL A   1      33.195  23.708  22.308  1.00  0.00     0.049 C 
BRANCH   9  10
ATOM     10  C   UNL A   1      33.312  22.414  23.080  1.00  0.00    -0.047 A 
ATOM     11  C   UNL A   1      36.002  20.622  25.138  1.00  0.00     0.044 C 
ATOM     12  C   UNL A   1      34.689  20.962  24.498  1.00  0.00    -0.051 A 
ATOM     13  C   UNL A   1      33.601  20.102  24.660  1.00  0.00     0.003 A 
ATOM     14  C   UNL A   1      34.527  22.127  23.735  1.00  0.00     0.007 A 
ATOM     15  C   UNL A   1      32.414  20.348  23.979  1.00  0.00     0.001 A 
ATOM     16  C   UNL A   1      32.297  21.466  23.151  1.00  0.00     0.004 A 
ENDBRANCH   9  10
ENDBRANCH   8   9
BRANCH   8  17
ATOM     17  C   UNL A   1      32.286  25.389  24.200  1.00  0.00     0.030 C 
ATOM     18  C   UNL A   1      33.652  25.875  24.699  1.00  0.00     0.007 C 
ATOM     19  C   UNL A   1      31.509  24.646  25.321  1.00  0.00     0.118 C 
ATOM     20  C   UNL A   1      34.458  24.824  25.444  1.00  0.00     0.001 C 
ATOM     21  C   UNL A   1      32.309  23.682  26.195  1.00  0.00     0.032 C 
ATOM     22  C   UNL A   1      33.680  24.206  26.598  1.00  0.00     0.003 C 
BRANCH  19  23
ATOM     23  O   UNL A   1      30.324  24.018  24.843  1.00  0.00    -0.393 OA
ATOM     24  H   UNL A   1      29.960  24.532  24.104  1.00  0.00     0.210 HD
ENDBRANCH  19  23
ENDBRANCH   8  17
ENDBRANCH   5   8
ENDBRANCH   3   4
ENDBRANCH   2   3
ENDBRANCH   1   2
BRANCH   1  25
ATOM     25  C   UNL A   1      32.620  29.325  25.121  1.00  0.00     0.002 C 
BRANCH  25  26
ATOM     26  C   UNL A   1      33.042  29.021  26.560  1.00  0.00     0.021 C 
BRANCH  26  27
ATOM     27  C   UNL A   1      33.848  30.134  27.214  1.00  0.00     0.116 C 
BRANCH  27  28
ATOM     28  N   UNL A   1      33.175  31.423  27.205  1.00  0.00    -0.352 N 
ATOM     29  C   UNL A   1      33.432  32.585  27.916  1.00  0.00     0.251 C 
ATOM     30  H   UNL A   1      32.407  31.481  26.592  1.00  0.00     0.163 HD
ATOM     31  O   UNL A   1      32.662  33.519  27.830  1.00  0.00    -0.269 OA
BRANCH  29  32
ATOM     32  C   UNL A   1      34.716  32.746  28.654  1.00  0.00     0.039 A 
ATOM     33  C   UNL A   1      35.810  33.243  27.930  1.00  0.00     0.014 A 
ATOM     34  C   UNL A   1      34.909  32.235  29.931  1.00  0.00     0.014 A 
ATOM     35  C   UNL A   1      37.103  32.978  28.371  1.00  0.00     0.010 A 
ATOM     36  C   UNL A   1      36.179  31.874  30.319  1.00  0.00     0.010 A 
ATOM     37  C   UNL A   1      37.266  32.185  29.499  1.00  0.00    -0.014 A 
BRANCH  37  38
ATOM     38  C   UNL A   1      38.518  31.559  29.881  1.00  0.00     0.031 A 
ATOM     39  C   UNL A   1      38.882  30.254  29.309  1.00  0.00     0.074 A 
ATOM     40  C   UNL A   1      39.391  32.269  30.628  1.00  0.00     0.049 A 
ATOM     41  N   UNL A   1      39.833  29.509  29.757  1.00  0.00    -0.248 NA
ATOM     42  C   UNL A   1      38.136  29.639  28.212  1.00  0.00     0.031 C 
ATOM     43  C   UNL A   1      40.819  32.032  30.814  1.00  0.00     0.029 A 
ATOM     44  N   UNL A   1      39.076  33.248  31.570  1.00  0.00    -0.354 N 
ATOM     45  C   UNL A   1      40.038  28.521  28.826  1.00  0.00     0.074 A 
ATOM     46  C   UNL A   1      38.871  28.548  27.980  1.00  0.00     0.031 C 
ATOM     47  C   UNL A   1      41.214  32.636  31.948  1.00  0.00     0.029 A 
ATOM     48  C   UNL A   1      40.013  33.119  32.613  1.00  0.00     0.049 A 
ATOM     49  H   UNL A   1      38.341  33.901  31.518  1.00  0.00     0.167 HD
ATOM     50  C   UNL A   1      41.256  27.920  28.771  1.00  0.00     0.031 A 
ATOM     51  C   UNL A   1      39.615  32.722  33.858  1.00  0.00     0.031 A 
ATOM     52  C   UNL A   1      42.053  28.228  29.959  1.00  0.00     0.049 A 
ATOM     53  C   UNL A   1      40.241  31.416  34.304  1.00  0.00     0.074 A 
ATOM     54  C   UNL A   1      43.139  29.056  30.187  1.00  0.00     0.029 A 
ATOM     55  N   UNL A   1      41.557  27.873  31.210  1.00  0.00    -0.354 N 
ATOM     56  N   UNL A   1      40.740  30.530  33.486  1.00  0.00    -0.248 NA
ATOM     57  C   UNL A   1      40.335  31.002  35.701  1.00  0.00     0.031 C 
ATOM     58  C   UNL A   1      43.211  29.296  31.588  1.00  0.00     0.029 A 
ATOM     59  C   UNL A   1      42.208  28.571  32.207  1.00  0.00     0.049 A 
ATOM     60  H   UNL A   1      40.840  27.216  31.363  1.00  0.00     0.167 HD
ATOM     61  C   UNL A   1      41.226  29.469  34.202  1.00  0.00     0.074 A 
ATOM     62  C   UNL A   1      40.948  29.810  35.586  1.00  0.00     0.031 C 
ATOM     63  C   UNL A   1      41.818  28.396  33.601  1.00  0.00     0.031 A 
BRANCH  50  64
ATOM     64  C   UNL A   1      41.821  27.271  27.526  1.00  0.00    -0.014 A 
ATOM     65  C   UNL A   1      42.818  27.937  26.792  1.00  0.00     0.009 A 
ATOM     66  C   UNL A   1      41.334  26.081  26.950  1.00  0.00     0.009 A 
ATOM     67  C   UNL A   1      43.279  27.457  25.557  1.00  0.00     0.001 A 
ATOM     68  C   UNL A   1      41.808  25.580  25.730  1.00  0.00     0.001 A 
ATOM     69  C   UNL A   1      42.775  26.276  25.026  1.00  0.00     0.000 A 
ENDBRANCH  50  64
BRANCH  51  70
ATOM     70  C   UNL A   1      38.229  33.157  34.200  1.00  0.00    -0.014 A 
ATOM     71  C   UNL A   1      37.932  34.535  34.142  1.00  0.00     0.009 A 
ATOM     72  C   UNL A   1      37.166  32.243  34.179  1.00  0.00     0.009 A 
ATOM     73  C   UNL A   1      36.623  34.977  33.929  1.00  0.00     0.001 A 
ATOM     74  C   UNL A   1      35.852  32.694  33.988  1.00  0.00     0.001 A 
ATOM     75  C   UNL A   1      35.588  34.053  33.820  1.00  0.00     0.000 A 
ENDBRANCH  51  70
BRANCH  63  76
ATOM     76  C   UNL A   1      42.152  27.089  34.276  1.00  0.00    -0.014 A 
ATOM     77  C   UNL A   1      41.241  26.338  35.031  1.00  0.00     0.009 A 
ATOM     78  C   UNL A   1      43.410  26.496  34.027  1.00  0.00     0.009 A 
ATOM     79  C   UNL A   1      41.586  25.083  35.553  1.00  0.00     0.001 A 
ATOM     80  C   UNL A   1      43.741  25.226  34.505  1.00  0.00     0.001 A 
ATOM     81  C   UNL A   1      42.831  24.525  35.282  1.00  0.00     0.000 A 
ENDBRANCH  63  76
ENDBRANCH  37  38
ENDBRANCH  29  32
ENDBRANCH  27  28
ENDBRANCH  26  27
ENDBRANCH  25  26
ENDBRANCH   1  25
TORSDOF 17
ENDMDL
MODEL 2
REMARK VINA RESULT:     -11.6      1.905      3.180
REMARK SMILES Cc1cccc(C[C@H](C(=O)NCCCCCCNC(=O)c2ccc(-c3c4nc(c(-c5ccccc5)c5ccc([nH]5)c(-c5ccccc5)c5nc(c(-c6ccccc6)c6ccc3[nH]6)C=C5)C=C4)cc2)[C@@H]2CCCC[C@@H]2O)c1
REMARK SMILES IDX 14 1 13 2 12 3 11 4 9 5 10 6 8 8 7 9 6 10 1 11 2 12 3 13
REMARK SMILES IDX 76 14 4 15 5 16 69 17 70 18 74 19 71 20 73 21 72 22 75 23
REMARK SMILES IDX 15 25 16 26 17 27 18 28 19 29 20 31 21 32 22 33 68 34 23 35
REMARK SMILES IDX 67 36 24 37 25 38 26 39 61 40 27 41 66 42 60 43 62 44 28 45
REMARK SMILES IDX 65 46 59 47 58 48 29 50 51 51 36 52 50 53 37 54 40 55 49 56
REMARK SMILES IDX 63 57 38 58 39 59 48 61 64 62 41 63 30 64 31 65 35 66 32 67
REMARK SMILES IDX 34 68 33 69 52 70 53 71 57 72 54 73 56 74 55 75 42 76 43 77
REMARK SMILES IDX 47 78 44 79 46 80 45 81
REMARK H PARENT 11 7 75 24 18 30 62 49 40 60
REMARK Flexibility Score: inf
ROOT
ATOM      1  C   UNL A   1      31.946  29.147  24.501  1.00  0.00     0.002 C 
ENDROOT
BRANCH   1   2
ATOM      2  C   UNL A   1      30.765  29.084  23.524  1.00  0.00     0.021 C 
BRANCH   2   3
ATOM      3  C   UNL A   1      30.643  27.772  22.735  1.00  0.00     0.116 C 
BRANCH   3   4
ATOM      4  N   UNL A   1      31.866  27.469  22.021  1.00  0.00    -0.356 N 
ATOM      5  C   UNL A   1      32.706  26.397  22.103  1.00  0.00     0.223 C 
ATOM      6  O   UNL A   1      33.752  26.481  21.453  1.00  0.00    -0.275 OA
ATOM      7  H   UNL A   1      32.137  28.151  21.365  1.00  0.00     0.163 HD
BRANCH   5   8
ATOM      8  C   UNL A   1      32.356  25.135  22.947  1.00  0.00     0.088 C 
BRANCH   8   9
ATOM      9  C   UNL A   1      33.460  24.084  22.594  1.00  0.00     0.049 C 
BRANCH   9  10
ATOM     10  C   UNL A   1      33.504  22.720  23.244  1.00  0.00    -0.047 A 
ATOM     11  C   UNL A   1      36.066  20.629  25.180  1.00  0.00     0.044 C 
ATOM     12  C   UNL A   1      34.785  21.084  24.548  1.00  0.00    -0.051 A 
ATOM     13  C   UNL A   1      33.657  20.262  24.608  1.00  0.00     0.003 A 
ATOM     14  C   UNL A   1      34.690  22.321  23.893  1.00  0.00     0.007 A 
ATOM     15  C   UNL A   1      32.498  20.622  23.929  1.00  0.00     0.001 A 
ATOM     16  C   UNL A   1      32.449  21.816  23.206  1.00  0.00     0.004 A 
ENDBRANCH   9  10
ENDBRANCH   8   9
BRANCH   8  17
ATOM     17  C   UNL A   1      32.181  25.542  24.457  1.00  0.00     0.030 C 
ATOM     18  C   UNL A   1      33.450  25.774  25.287  1.00  0.00     0.007 C 
ATOM     19  C   UNL A   1      31.084  24.831  25.295  1.00  0.00     0.118 C 
ATOM     20  C   UNL A   1      33.927  24.554  26.058  1.00  0.00     0.001 C 
ATOM     21  C   UNL A   1      31.536  23.688  26.201  1.00  0.00     0.032 C 
ATOM     22  C   UNL A   1      32.836  23.964  26.942  1.00  0.00     0.003 C 
BRANCH  19  23
ATOM     23  O   UNL A   1      29.966  24.431  24.508  1.00  0.00    -0.393 OA
ATOM     24  H   UNL A   1      29.149  24.564  25.013  1.00  0.00     0.210 HD
ENDBRANCH  19  23
ENDBRANCH   8  17
ENDBRANCH   5   8
ENDBRANCH   3   4
ENDBRANCH   2   3
ENDBRANCH   1   2
BRANCH   1  25
ATOM     25  C   UNL A   1      31.605  28.973  25.988  1.00  0.00     0.002 C 
BRANCH  25  26
ATOM     26  C   UNL A   1      32.332  29.916  26.950  1.00  0.00     0.021 C 
BRANCH  26  27
ATOM     27  C   UNL A   1      33.823  30.047  26.675  1.00  0.00     0.116 C 
BRANCH  27  28
ATOM     28  N   UNL A   1      34.448  31.160  27.371  1.00  0.00    -0.352 N 
ATOM     29  C   UNL A   1      35.602  31.218  28.137  1.00  0.00     0.251 C 
ATOM     30  H   UNL A   1      33.972  32.017  27.285  1.00  0.00     0.163 HD
ATOM     31  O   UNL A   1      35.879  32.245  28.722  1.00  0.00    -0.269 OA
BRANCH  29  32
ATOM     32  C   UNL A   1      36.573  30.089  28.118  1.00  0.00     0.039 A 
ATOM     33  C   UNL A   1      36.643  29.288  29.270  1.00  0.00     0.014 A 
ATOM     34  C   UNL A   1      37.526  29.943  27.119  1.00  0.00     0.014 A 
ATOM     35  C   UNL A   1      37.798  28.558  29.529  1.00  0.00     0.010 A 
ATOM     36  C   UNL A   1      38.712  29.312  27.416  1.00  0.00     0.010 A 
ATOM     37  C   UNL A   1      38.869  28.684  28.653  1.00  0.00    -0.014 A 
BRANCH  37  38
ATOM     38  C   UNL A   1      40.223  28.259  28.956  1.00  0.00     0.031 A 
ATOM     39  C   UNL A   1      40.722  26.985  28.418  1.00  0.00     0.074 A 
ATOM     40  C   UNL A   1      41.043  29.125  29.590  1.00  0.00     0.049 A 
ATOM     41  N   UNL A   1      41.801  26.405  28.818  1.00  0.00    -0.248 NA
ATOM     42  C   UNL A   1      39.987  26.209  27.420  1.00  0.00     0.031 C 
ATOM     43  C   UNL A   1      42.500  29.097  29.664  1.00  0.00     0.029 A 
ATOM     44  N   UNL A   1      40.668  30.106  30.508  1.00  0.00    -0.354 N 
ATOM     45  C   UNL A   1      42.070  25.401  27.921  1.00  0.00     0.074 A 
ATOM     46  C   UNL A   1      40.848  25.218  27.179  1.00  0.00     0.031 C 
ATOM     47  C   UNL A   1      42.893  29.817  30.729  1.00  0.00     0.029 A 
ATOM     48  C   UNL A   1      41.693  30.170  31.471  1.00  0.00     0.049 A 
ATOM     49  H   UNL A   1      39.846  30.649  30.487  1.00  0.00     0.167 HD
ATOM     50  C   UNL A   1      43.353  24.970  27.791  1.00  0.00     0.031 A 
ATOM     51  C   UNL A   1      41.454  29.796  32.764  1.00  0.00     0.031 A 
ATOM     52  C   UNL A   1      44.189  25.454  28.889  1.00  0.00     0.049 A 
ATOM     53  C   UNL A   1      42.291  28.618  33.216  1.00  0.00     0.074 A 
ATOM     54  C   UNL A   1      45.161  26.435  28.983  1.00  0.00     0.029 A 
ATOM     55  N   UNL A   1      43.847  25.110  30.195  1.00  0.00    -0.354 N 
ATOM     56  N   UNL A   1      42.844  27.761  32.401  1.00  0.00    -0.248 NA
ATOM     57  C   UNL A   1      42.552  28.304  34.618  1.00  0.00     0.031 C 
ATOM     58  C   UNL A   1      45.309  26.766  30.359  1.00  0.00     0.029 A 
ATOM     59  C   UNL A   1      44.469  25.949  31.097  1.00  0.00     0.049 A 
ATOM     60  H   UNL A   1      43.245  24.371  30.440  1.00  0.00     0.167 HD
ATOM     61  C   UNL A   1      43.530  26.821  33.123  1.00  0.00     0.074 A 
ATOM     62  C   UNL A   1      43.316  27.202  34.508  1.00  0.00     0.031 C 
ATOM     63  C   UNL A   1      44.219  25.805  32.526  1.00  0.00     0.031 A 
BRANCH  50  64
ATOM     64  C   UNL A   1      43.904  24.331  26.535  1.00  0.00    -0.014 A 
ATOM     65  C   UNL A   1      43.312  23.154  26.043  1.00  0.00     0.009 A 
ATOM     66  C   UNL A   1      45.070  24.751  25.865  1.00  0.00     0.009 A 
ATOM     67  C   UNL A   1      43.863  22.436  24.970  1.00  0.00     0.001 A 
ATOM     68  C   UNL A   1      45.611  24.056  24.775  1.00  0.00     0.001 A 
ATOM     69  C   UNL A   1      45.012  22.890  24.333  1.00  0.00     0.000 A 
ENDBRANCH  50  64
BRANCH  51  70
ATOM     70  C   UNL A   1      40.051  30.057  33.202  1.00  0.00    -0.014 A 
ATOM     71  C   UNL A   1      39.644  31.398  33.364  1.00  0.00     0.009 A 
ATOM     72  C   UNL A   1      39.064  29.071  33.067  1.00  0.00     0.009 A 
ATOM     73  C   UNL A   1      38.297  31.756  33.254  1.00  0.00     0.001 A 
ATOM     74  C   UNL A   1      37.712  29.433  32.980  1.00  0.00     0.001 A 
ATOM     75  C   UNL A   1      37.335  30.775  33.029  1.00  0.00     0.000 A 
ENDBRANCH  51  70
BRANCH  63  76
ATOM     76  C   UNL A   1      44.786  24.599  33.232  1.00  0.00    -0.014 A 
ATOM     77  C   UNL A   1      46.076  24.540  33.776  1.00  0.00     0.009 A 
ATOM     78  C   UNL A   1      43.934  23.504  33.500  1.00  0.00     0.009 A 
ATOM     79  C   UNL A   1      46.510  23.423  34.504  1.00  0.00     0.001 A 
ATOM     80  C   UNL A   1      44.346  22.411  34.265  1.00  0.00     0.001 A 
ATOM     81  C   UNL A   1      45.642  22.365  34.756  1.00  0.00     0.000 A 
ENDBRANCH  63  76
ENDBRANCH  37  38
ENDBRANCH  29  32
ENDBRANCH  27  28
ENDBRANCH  26  27
ENDBRANCH  25  26
ENDBRANCH   1  25
TORSDOF 17
ENDMDL
MODEL 3
REMARK VINA RESULT:     -11.5      2.851      8.268
REMARK SMILES Cc1cccc(C[C@H](C(=O)NCCCCCCNC(=O)c2ccc(-c3c4nc(c(-c5ccccc5)c5ccc([nH]5)c(-c5ccccc5)c5nc(c(-c6ccccc6)c6ccc3[nH]6)C=C5)C=C4)cc2)[C@@H]2CCCC[C@@H]2O)c1
REMARK SMILES IDX 14 1 13 2 12 3 11 4 9 5 10 6 8 8 7 9 6 10 1 11 2 12 3 13
REMARK SMILES IDX 76 14 4 15 5 16 69 17 70 18 74 19 71 20 73 21 72 22 75 23
REMARK SMILES IDX 15 25 16 26 17 27 18 28 19 29 20 31 21 32 22 33 68 34 23 35
REMARK SMILES IDX 67 36 24 37 25 38 26 39 61 40 27 41 66 42 60 43 62 44 28 45
REMARK SMILES IDX 65 46 59 47 58 48 29 50 51 51 36 52 50 53 37 54 40 55 49 56
REMARK SMILES IDX 63 57 38 58 39 59 48 61 64 62 41 63 30 64 31 65 35 66 32 67
REMARK SMILES IDX 34 68 33 69 52 70 53 71 57 72 54 73 56 74 55 75 42 76 43 77
REMARK SMILES IDX 47 78 44 79 46 80 45 81
REMARK H PARENT 11 7 75 24 18 30 62 49 40 60
REMARK Flexibility Score: inf
ROOT
ATOM      1  C   UNL A   1      34.365  21.112  25.976  1.00  0.00     0.002 C 
ENDROOT
BRANCH   1   2
ATOM      2  C   UNL A   1      33.325  20.248  25.252  1.00  0.00     0.021 C 
BRANCH   2   3
ATOM      3  C   UNL A   1      32.006  20.961  24.919  1.00  0.00     0.116 C 
BRANCH   3   4
ATOM      4  N   UNL A   1      31.442  21.602  26.089  1.00  0.00    -0.356 N 
ATOM      5  C   UNL A   1      31.100  22.903  26.317  1.00  0.00     0.223 C 
ATOM      6  O   UNL A   1      30.760  23.177  27.472  1.00  0.00    -0.275 OA
ATOM      7  H   UNL A   1      31.277  20.997  26.848  1.00  0.00     0.163 HD
BRANCH   5   8
ATOM      8  C   UNL A   1      31.117  23.973  25.184  1.00  0.00     0.088 C 
BRANCH   8   9
ATOM      9  C   UNL A   1      30.430  25.236  25.801  1.00  0.00     0.049 C 
BRANCH   9  10
ATOM     10  C   UNL A   1      30.359  26.551  25.059  1.00  0.00    -0.047 A 
ATOM     11  C   UNL A   1      31.726  30.100  25.524  1.00  0.00     0.044 C 
ATOM     12  C   UNL A   1      31.052  28.900  24.929  1.00  0.00    -0.051 A 
ATOM     13  C   UNL A   1      30.412  29.012  23.693  1.00  0.00     0.003 A 
ATOM     14  C   UNL A   1      31.047  27.661  25.587  1.00  0.00     0.007 A 
ATOM     15  C   UNL A   1      29.688  27.939  23.186  1.00  0.00     0.001 A 
ATOM     16  C   UNL A   1      29.618  26.739  23.897  1.00  0.00     0.004 A 
ENDBRANCH   9  10
ENDBRANCH   8   9
BRANCH   8  17
ATOM     17  C   UNL A   1      32.580  24.127  24.626  1.00  0.00     0.030 C 
ATOM     18  C   UNL A   1      33.649  24.691  25.570  1.00  0.00     0.007 C 
ATOM     19  C   UNL A   1      32.770  24.659  23.179  1.00  0.00     0.118 C 
ATOM     20  C   UNL A   1      33.850  26.194  25.464  1.00  0.00     0.001 C 
ATOM     21  C   UNL A   1      33.118  26.138  23.025  1.00  0.00     0.032 C 
ATOM     22  C   UNL A   1      34.137  26.642  24.036  1.00  0.00     0.003 C 
BRANCH  19  23
ATOM     23  O   UNL A   1      31.689  24.309  22.320  1.00  0.00    -0.393 OA
ATOM     24  H   UNL A   1      30.861  24.308  22.825  1.00  0.00     0.210 HD
ENDBRANCH  19  23
ENDBRANCH   8  17
ENDBRANCH   5   8
ENDBRANCH   3   4
ENDBRANCH   2   3
ENDBRANCH   1   2
BRANCH   1  25
ATOM     25  C   UNL A   1      35.735  21.237  25.294  1.00  0.00     0.002 C 
BRANCH  25  26
ATOM     26  C   UNL A   1      36.678  22.287  25.886  1.00  0.00     0.021 C 
BRANCH  26  27
ATOM     27  C   UNL A   1      37.978  22.454  25.111  1.00  0.00     0.116 C 
BRANCH  27  28
ATOM     28  N   UNL A   1      39.161  22.087  25.872  1.00  0.00    -0.352 N 
ATOM     29  C   UNL A   1      40.043  22.862  26.607  1.00  0.00     0.251 C 
ATOM     30  H   UNL A   1      39.372  21.125  25.863  1.00  0.00     0.163 HD
ATOM     31  O   UNL A   1      41.039  22.351  27.077  1.00  0.00    -0.269 OA
BRANCH  29  32
ATOM     32  C   UNL A   1      39.699  24.270  26.952  1.00  0.00     0.039 A 
ATOM     33  C   UNL A   1      40.308  25.281  26.192  1.00  0.00     0.014 A 
ATOM     34  C   UNL A   1      38.988  24.602  28.098  1.00  0.00     0.014 A 
ATOM     35  C   UNL A   1      40.431  26.560  26.724  1.00  0.00     0.010 A 
ATOM     36  C   UNL A   1      39.198  25.832  28.678  1.00  0.00     0.010 A 
ATOM     37  C   UNL A   1      39.982  26.782  28.019  1.00  0.00    -0.014 A 
BRANCH  37  38
ATOM     38  C   UNL A   1      40.333  27.944  28.815  1.00  0.00     0.031 A 
ATOM     39  C   UNL A   1      39.386  29.065  28.919  1.00  0.00     0.074 A 
ATOM     40  C   UNL A   1      41.450  27.893  29.572  1.00  0.00     0.049 A 
ATOM     41  N   UNL A   1      39.691  30.226  29.387  1.00  0.00    -0.248 NA
ATOM     42  C   UNL A   1      38.014  28.987  28.420  1.00  0.00     0.031 C 
ATOM     43  C   UNL A   1      41.808  28.734  30.709  1.00  0.00     0.029 A 
ATOM     44  N   UNL A   1      42.615  27.179  29.289  1.00  0.00    -0.354 N 
ATOM     45  C   UNL A   1      38.512  30.906  29.565  1.00  0.00     0.074 A 
ATOM     46  C   UNL A   1      37.531  30.169  28.810  1.00  0.00     0.031 C 
ATOM     47  C   UNL A   1      43.140  28.688  30.880  1.00  0.00     0.029 A 
ATOM     48  C   UNL A   1      43.690  27.966  29.743  1.00  0.00     0.049 A 
ATOM     49  H   UNL A   1      42.674  26.297  28.855  1.00  0.00     0.167 HD
ATOM     50  C   UNL A   1      38.471  31.909  30.482  1.00  0.00     0.031 A 
ATOM     51  C   UNL A   1      44.583  28.499  28.856  1.00  0.00     0.031 A 
ATOM     52  C   UNL A   1      39.817  32.301  30.900  1.00  0.00     0.049 A 
ATOM     53  C   UNL A   1      44.606  30.014  28.860  1.00  0.00     0.074 A 
ATOM     54  C   UNL A   1      40.554  32.089  32.053  1.00  0.00     0.029 A 
ATOM     55  N   UNL A   1      40.712  32.759  29.937  1.00  0.00    -0.354 N 
ATOM     56  N   UNL A   1      43.625  30.757  29.295  1.00  0.00    -0.248 NA
ATOM     57  C   UNL A   1      45.726  30.805  28.358  1.00  0.00     0.031 C 
ATOM     58  C   UNL A   1      41.924  32.304  31.734  1.00  0.00     0.029 A 
ATOM     59  C   UNL A   1      42.008  32.698  30.410  1.00  0.00     0.049 A 
ATOM     60  H   UNL A   1      40.457  33.081  29.042  1.00  0.00     0.167 HD
ATOM     61  C   UNL A   1      43.960  32.078  29.163  1.00  0.00     0.074 A 
ATOM     62  C   UNL A   1      45.285  32.058  28.568  1.00  0.00     0.031 C 
ATOM     63  C   UNL A   1      43.121  33.084  29.552  1.00  0.00     0.031 A 
BRANCH  50  64
ATOM     64  C   UNL A   1      37.209  32.354  31.189  1.00  0.00    -0.014 A 
ATOM     65  C   UNL A   1      36.422  33.372  30.621  1.00  0.00     0.009 A 
ATOM     66  C   UNL A   1      36.807  31.916  32.466  1.00  0.00     0.009 A 
ATOM     67  C   UNL A   1      35.323  33.926  31.295  1.00  0.00     0.001 A 
ATOM     68  C   UNL A   1      35.695  32.444  33.134  1.00  0.00     0.001 A 
ATOM     69  C   UNL A   1      34.957  33.460  32.552  1.00  0.00     0.000 A 
ENDBRANCH  50  64
BRANCH  51  70
ATOM     70  C   UNL A   1      44.786  27.652  27.645  1.00  0.00    -0.014 A 
ATOM     71  C   UNL A   1      45.167  26.307  27.831  1.00  0.00     0.009 A 
ATOM     72  C   UNL A   1      44.239  28.026  26.409  1.00  0.00     0.009 A 
ATOM     73  C   UNL A   1      44.881  25.340  26.862  1.00  0.00     0.001 A 
ATOM     74  C   UNL A   1      43.974  27.056  25.432  1.00  0.00     0.001 A 
ATOM     75  C   UNL A   1      44.254  25.711  25.676  1.00  0.00     0.000 A 
ENDBRANCH  51  70
BRANCH  63  76
ATOM     76  C   UNL A   1      43.294  34.545  29.220  1.00  0.00    -0.014 A 
ATOM     77  C   UNL A   1      43.027  35.103  27.963  1.00  0.00     0.009 A 
ATOM     78  C   UNL A   1      43.604  35.447  30.262  1.00  0.00     0.009 A 
ATOM     79  C   UNL A   1      43.116  36.485  27.745  1.00  0.00     0.001 A 
ATOM     80  C   UNL A   1      43.647  36.828  30.061  1.00  0.00     0.001 A 
ATOM     81  C   UNL A   1      43.416  37.347  28.795  1.00  0.00     0.000 A 
ENDBRANCH  63  76
ENDBRANCH  37  38
ENDBRANCH  29  32
ENDBRANCH  27  28
ENDBRANCH  26  27
ENDBRANCH  25  26
ENDBRANCH   1  25
TORSDOF 17
ENDMDL
