MODEL 1
REMARK VINA RESULT:     -10.9      0.000      0.000
REMARK SMILES COC(=O)c1ccc(Cl)c(-c2ccc(C(=O)NCCCCCCNC(=O)c3ccc(-c4c5nc(c(-c6ccccc6)c6ccc([nH]6)c(-c6ccccc6)c6nc(c(-c7ccccc7)c7ccc4[nH]7)C=C6)C=C5)cc3)nc2)c1
REMARK SMILES IDX 20 1 19 2 18 3 17 4 15 5 16 6 14 8 11 9 12 10 76 11 13 12
REMARK SMILES IDX 75 13 10 14 5 15 6 16 77 17 7 18 8 19 9 20 3 21 4 22 2 23
REMARK SMILES IDX 1 24 21 25 22 26 23 27 24 28 25 29 26 31 27 32 28 33 74 34
REMARK SMILES IDX 29 35 73 36 30 37 31 38 32 39 67 40 33 41 72 42 66 43 68 44
REMARK SMILES IDX 34 45 71 46 65 47 64 48 35 50 57 51 42 52 56 53 43 54 46 55
REMARK SMILES IDX 55 56 69 57 44 58 45 59 54 61 70 62 47 63 36 64 37 65 41 66
REMARK SMILES IDX 38 67 40 68 39 69 58 70 59 71 63 72 60 73 62 74 61 75 48 76
REMARK SMILES IDX 49 77 53 78 50 79 52 80 51 81
REMARK H PARENT 17 7 24 30 68 49 46 60
REMARK Flexibility Score: inf
ROOT
ATOM      1  C   UNL A   1      31.132  29.129  24.423  1.00  0.00     0.002 C 
ENDROOT
BRANCH   1   2
ATOM      2  C   UNL A   1      30.463  27.803  24.029  1.00  0.00     0.021 C 
BRANCH   2   3
ATOM      3  C   UNL A   1      30.698  27.435  22.562  1.00  0.00     0.116 C 
BRANCH   3   4
ATOM      4  N   UNL A   1      31.982  27.933  22.123  1.00  0.00    -0.351 N 
ATOM      5  C   UNL A   1      33.276  27.479  22.224  1.00  0.00     0.269 C 
ATOM      6  O   UNL A   1      34.133  28.212  21.721  1.00  0.00    -0.268 OA
ATOM      7  H   UNL A   1      31.916  28.791  21.645  1.00  0.00     0.163 HD
BRANCH   5   8
ATOM      8  C   UNL A   1      33.686  26.172  22.857  1.00  0.00     0.128 A 
ATOM      9  C   UNL A   1      34.308  23.634  23.807  1.00  0.00     0.002 A 
ATOM     10  C   UNL A   1      34.338  24.735  24.664  1.00  0.00     0.013 A 
ATOM     11  C   UNL A   1      33.998  23.892  22.478  1.00  0.00     0.120 A 
ATOM     12  C   UNL A   1      34.065  26.014  24.181  1.00  0.00     0.035 A 
ATOM     13  N   UNL A   1      33.674  25.115  21.998  1.00  0.00    -0.250 NA
BRANCH   9  14
ATOM     14  C   UNL A   1      34.655  22.300  24.303  1.00  0.00     0.003 A 
ATOM     15  C   UNL A   1      34.000  19.967  24.606  1.00  0.00     0.060 A 
ATOM     16  C   UNL A   1      35.290  19.649  25.036  1.00  0.00     0.017 A 
ATOM     17  C   UNL A   1      33.688  21.282  24.236  1.00  0.00     0.026 A 
ATOM     18  C   UNL A   1      36.258  20.650  25.123  1.00  0.00     0.022 A 
ATOM     19  C   UNL A   1      35.942  21.966  24.768  1.00  0.00     0.048 A 
ATOM     20  Cl  UNL A   1      37.196  23.151  24.918  1.00  0.00    -0.084 Cl
BRANCH  15  21
ATOM     21  C   UNL A   1      32.934  18.946  24.494  1.00  0.00     0.337 C 
ATOM     22  O   UNL A   1      32.759  18.063  25.313  1.00  0.00    -0.246 OA
BRANCH  21  23
ATOM     23  O   UNL A   1      32.269  19.113  23.324  1.00  0.00    -0.465 OA
ATOM     24  C   UNL A   1      32.283  17.958  22.487  1.00  0.00     0.282 C 
ENDBRANCH  21  23
ENDBRANCH  15  21
ENDBRANCH   9  14
ENDBRANCH   5   8
ENDBRANCH   3   4
ENDBRANCH   2   3
ENDBRANCH   1   2
BRANCH   1  25
ATOM     25  C   UNL A   1      31.774  29.128  25.818  1.00  0.00     0.002 C 
BRANCH  25  26
ATOM     26  C   UNL A   1      33.197  28.566  25.862  1.00  0.00     0.021 C 
BRANCH  26  27
ATOM     27  C   UNL A   1      33.908  28.801  27.189  1.00  0.00     0.116 C 
BRANCH  27  28
ATOM     28  N   UNL A   1      33.740  30.173  27.642  1.00  0.00    -0.352 N 
ATOM     29  C   UNL A   1      34.567  30.933  28.429  1.00  0.00     0.251 C 
ATOM     30  H   UNL A   1      32.917  30.620  27.341  1.00  0.00     0.163 HD
ATOM     31  O   UNL A   1      34.156  31.969  28.941  1.00  0.00    -0.269 OA
BRANCH  29  32
ATOM     32  C   UNL A   1      35.956  30.493  28.659  1.00  0.00     0.039 A 
ATOM     33  C   UNL A   1      36.275  29.849  29.855  1.00  0.00     0.014 A 
ATOM     34  C   UNL A   1      36.943  30.734  27.699  1.00  0.00     0.014 A 
ATOM     35  C   UNL A   1      37.580  29.405  30.070  1.00  0.00     0.010 A 
ATOM     36  C   UNL A   1      38.221  30.217  27.877  1.00  0.00     0.010 A 
ATOM     37  C   UNL A   1      38.555  29.561  29.070  1.00  0.00    -0.014 A 
BRANCH  37  38
ATOM     38  C   UNL A   1      39.935  29.052  29.260  1.00  0.00     0.031 A 
ATOM     39  C   UNL A   1      40.989  29.934  29.868  1.00  0.00     0.074 A 
ATOM     40  C   UNL A   1      40.250  27.813  28.836  1.00  0.00     0.049 A 
ATOM     41  N   UNL A   1      42.254  29.680  30.085  1.00  0.00    -0.248 NA
ATOM     42  C   UNL A   1      40.573  31.292  30.258  1.00  0.00     0.031 C 
ATOM     43  C   UNL A   1      39.323  26.874  28.200  1.00  0.00     0.029 A 
ATOM     44  N   UNL A   1      41.438  27.132  28.879  1.00  0.00    -0.354 N 
ATOM     45  C   UNL A   1      42.786  30.844  30.624  1.00  0.00     0.074 A 
ATOM     46  C   UNL A   1      41.723  31.825  30.642  1.00  0.00     0.031 C 
ATOM     47  C   UNL A   1      39.969  25.724  27.951  1.00  0.00     0.029 A 
ATOM     48  C   UNL A   1      41.362  25.861  28.364  1.00  0.00     0.049 A 
ATOM     49  H   UNL A   1      42.268  27.517  29.244  1.00  0.00     0.167 HD
ATOM     50  C   UNL A   1      44.038  31.072  31.084  1.00  0.00     0.031 A 
ATOM     51  C   UNL A   1      42.308  24.913  28.235  1.00  0.00     0.031 A 
ATOM     52  C   UNL A   1      45.095  30.095  31.059  1.00  0.00     0.049 A 
ATOM     53  C   UNL A   1      43.702  25.202  28.717  1.00  0.00     0.074 A 
ATOM     54  C   UNL A   1      46.387  30.208  31.541  1.00  0.00     0.029 A 
ATOM     55  N   UNL A   1      44.982  28.825  30.510  1.00  0.00    -0.354 N 
ATOM     56  N   UNL A   1      44.174  26.284  29.286  1.00  0.00    -0.248 NA
ATOM     57  C   UNL A   1      44.692  24.129  28.547  1.00  0.00     0.031 C 
ATOM     58  C   UNL A   1      47.075  29.032  31.225  1.00  0.00     0.029 A 
ATOM     59  C   UNL A   1      46.191  28.157  30.613  1.00  0.00     0.049 A 
ATOM     60  H   UNL A   1      44.164  28.454  30.108  1.00  0.00     0.167 HD
ATOM     61  C   UNL A   1      45.505  26.013  29.572  1.00  0.00     0.074 A 
ATOM     62  C   UNL A   1      45.760  24.658  29.125  1.00  0.00     0.031 C 
ATOM     63  C   UNL A   1      46.432  26.813  30.156  1.00  0.00     0.031 A 
BRANCH  50  64
ATOM     64  C   UNL A   1      44.331  32.442  31.635  1.00  0.00    -0.014 A 
ATOM     65  C   UNL A   1      44.130  32.745  32.992  1.00  0.00     0.009 A 
ATOM     66  C   UNL A   1      44.822  33.446  30.786  1.00  0.00     0.009 A 
ATOM     67  C   UNL A   1      44.363  34.034  33.475  1.00  0.00     0.001 A 
ATOM     68  C   UNL A   1      45.089  34.726  31.278  1.00  0.00     0.001 A 
ATOM     69  C   UNL A   1      44.846  35.022  32.618  1.00  0.00     0.000 A 
ENDBRANCH  50  64
BRANCH  51  70
ATOM     70  C   UNL A   1      41.960  23.592  27.649  1.00  0.00    -0.014 A 
ATOM     71  C   UNL A   1      42.138  23.354  26.277  1.00  0.00     0.009 A 
ATOM     72  C   UNL A   1      41.459  22.559  28.457  1.00  0.00     0.009 A 
ATOM     73  C   UNL A   1      41.800  22.118  25.724  1.00  0.00     0.001 A 
ATOM     74  C   UNL A   1      41.150  21.314  27.905  1.00  0.00     0.001 A 
ATOM     75  C   UNL A   1      41.313  21.097  26.539  1.00  0.00     0.000 A 
ENDBRANCH  51  70
BRANCH  63  76
ATOM     76  C   UNL A   1      47.801  26.228  30.379  1.00  0.00    -0.014 A 
ATOM     77  C   UNL A   1      48.180  25.698  31.622  1.00  0.00     0.009 A 
ATOM     78  C   UNL A   1      48.713  26.175  29.313  1.00  0.00     0.009 A 
ATOM     79  C   UNL A   1      49.458  25.162  31.802  1.00  0.00     0.001 A 
ATOM     80  C   UNL A   1      49.976  25.609  29.486  1.00  0.00     0.001 A 
ATOM     81  C   UNL A   1      50.351  25.114  30.733  1.00  0.00     0.000 A 
ENDBRANCH  63  76
ENDBRANCH  37  38
ENDBRANCH  29  32
ENDBRANCH  27  28
ENDBRANCH  26  27
ENDBRANCH  25  26
ENDBRANCH   1  25
TORSDOF 16
ENDMDL
MODEL 2
REMARK VINA RESULT:     -10.7      2.819      6.908
REMARK SMILES COC(=O)c1ccc(Cl)c(-c2ccc(C(=O)NCCCCCCNC(=O)c3ccc(-c4c5nc(c(-c6ccccc6)c6ccc([nH]6)c(-c6ccccc6)c6nc(c(-c7ccccc7)c7ccc4[nH]7)C=C6)C=C5)cc3)nc2)c1
REMARK SMILES IDX 20 1 19 2 18 3 17 4 15 5 16 6 14 8 11 9 12 10 76 11 13 12
REMARK SMILES IDX 75 13 10 14 5 15 6 16 77 17 7 18 8 19 9 20 3 21 4 22 2 23
REMARK SMILES IDX 1 24 21 25 22 26 23 27 24 28 25 29 26 31 27 32 28 33 74 34
REMARK SMILES IDX 29 35 73 36 30 37 31 38 32 39 67 40 33 41 72 42 66 43 68 44
REMARK SMILES IDX 34 45 71 46 65 47 64 48 35 50 57 51 42 52 56 53 43 54 46 55
REMARK SMILES IDX 55 56 69 57 44 58 45 59 54 61 70 62 47 63 36 64 37 65 41 66
REMARK SMILES IDX 38 67 40 68 39 69 58 70 59 71 63 72 60 73 62 74 61 75 48 76
REMARK SMILES IDX 49 77 53 78 50 79 52 80 51 81
REMARK H PARENT 17 7 24 30 68 49 46 60
REMARK Flexibility Score: inf
ROOT
ATOM      1  C   UNL A   1      31.489  29.942  25.258  1.00  0.00     0.002 C 
ENDROOT
BRANCH   1   2
ATOM      2  C   UNL A   1      32.793  29.316  24.743  1.00  0.00     0.021 C 
BRANCH   2   3
ATOM      3  C   UNL A   1      32.643  27.832  24.401  1.00  0.00     0.116 C 
BRANCH   3   4
ATOM      4  N   UNL A   1      31.338  27.357  24.803  1.00  0.00    -0.351 N 
ATOM      5  C   UNL A   1      30.821  26.126  25.132  1.00  0.00     0.269 C 
ATOM      6  O   UNL A   1      29.621  26.118  25.417  1.00  0.00    -0.268 OA
ATOM      7  H   UNL A   1      30.669  28.077  24.853  1.00  0.00     0.163 HD
BRANCH   5   8
ATOM      8  C   UNL A   1      31.615  24.845  25.194  1.00  0.00     0.128 A 
ATOM      9  C   UNL A   1      33.008  22.443  25.035  1.00  0.00     0.002 A 
ATOM     10  C   UNL A   1      32.620  22.953  26.275  1.00  0.00     0.013 A 
ATOM     11  C   UNL A   1      32.699  23.216  23.924  1.00  0.00     0.120 A 
ATOM     12  C   UNL A   1      31.956  24.176  26.360  1.00  0.00     0.035 A 
ATOM     13  N   UNL A   1      32.006  24.378  23.976  1.00  0.00    -0.250 NA
BRANCH   9  14
ATOM     14  C   UNL A   1      33.760  21.189  24.953  1.00  0.00     0.003 A 
ATOM     15  C   UNL A   1      33.786  18.826  24.336  1.00  0.00     0.060 A 
ATOM     16  C   UNL A   1      35.164  18.771  24.560  1.00  0.00     0.017 A 
ATOM     17  C   UNL A   1      33.092  20.029  24.526  1.00  0.00     0.026 A 
ATOM     18  C   UNL A   1      35.840  19.910  25.000  1.00  0.00     0.022 A 
ATOM     19  C   UNL A   1      35.144  21.107  25.204  1.00  0.00     0.048 A 
ATOM     20  Cl  UNL A   1      36.054  22.468  25.764  1.00  0.00    -0.084 Cl
BRANCH  15  21
ATOM     21  C   UNL A   1      33.018  17.650  23.869  1.00  0.00     0.337 C 
ATOM     22  O   UNL A   1      33.183  17.126  22.783  1.00  0.00    -0.246 OA
BRANCH  21  23
ATOM     23  O   UNL A   1      32.081  17.327  24.794  1.00  0.00    -0.465 OA
ATOM     24  C   UNL A   1      32.527  16.365  25.750  1.00  0.00     0.282 C 
ENDBRANCH  21  23
ENDBRANCH  15  21
ENDBRANCH   9  14
ENDBRANCH   5   8
ENDBRANCH   3   4
ENDBRANCH   2   3
ENDBRANCH   1   2
BRANCH   1  25
ATOM     25  C   UNL A   1      31.570  30.501  26.685  1.00  0.00     0.002 C 
BRANCH  25  26
ATOM     26  C   UNL A   1      31.402  32.019  26.784  1.00  0.00     0.021 C 
BRANCH  26  27
ATOM     27  C   UNL A   1      32.718  32.773  26.936  1.00  0.00     0.116 C 
BRANCH  27  28
ATOM     28  N   UNL A   1      32.524  34.039  27.626  1.00  0.00    -0.352 N 
ATOM     29  C   UNL A   1      33.159  34.525  28.740  1.00  0.00     0.251 C 
ATOM     30  H   UNL A   1      31.840  34.630  27.239  1.00  0.00     0.163 HD
ATOM     31  O   UNL A   1      32.695  35.481  29.350  1.00  0.00    -0.269 OA
BRANCH  29  32
ATOM     32  C   UNL A   1      34.408  33.887  29.200  1.00  0.00     0.039 A 
ATOM     33  C   UNL A   1      35.621  34.286  28.638  1.00  0.00     0.014 A 
ATOM     34  C   UNL A   1      34.373  32.885  30.174  1.00  0.00     0.014 A 
ATOM     35  C   UNL A   1      36.809  33.709  29.086  1.00  0.00     0.010 A 
ATOM     36  C   UNL A   1      35.562  32.373  30.680  1.00  0.00     0.010 A 
ATOM     37  C   UNL A   1      36.790  32.769  30.131  1.00  0.00    -0.014 A 
BRANCH  37  38
ATOM     38  C   UNL A   1      38.046  32.181  30.655  1.00  0.00     0.031 A 
ATOM     39  C   UNL A   1      38.595  30.915  30.056  1.00  0.00     0.074 A 
ATOM     40  C   UNL A   1      38.662  32.757  31.703  1.00  0.00     0.049 A 
ATOM     41  N   UNL A   1      39.659  30.235  30.398  1.00  0.00    -0.248 NA
ATOM     42  C   UNL A   1      37.833  30.322  28.945  1.00  0.00     0.031 C 
ATOM     43  C   UNL A   1      38.209  33.968  32.392  1.00  0.00     0.029 A 
ATOM     44  N   UNL A   1      39.805  32.401  32.372  1.00  0.00    -0.354 N 
ATOM     45  C   UNL A   1      39.688  29.131  29.555  1.00  0.00     0.074 A 
ATOM     46  C   UNL A   1      38.501  29.199  28.730  1.00  0.00     0.031 C 
ATOM     47  C   UNL A   1      39.088  34.277  33.358  1.00  0.00     0.029 A 
ATOM     48  C   UNL A   1      40.137  33.263  33.388  1.00  0.00     0.049 A 
ATOM     49  H   UNL A   1      40.337  31.604  32.145  1.00  0.00     0.167 HD
ATOM     50  C   UNL A   1      40.626  28.160  29.459  1.00  0.00     0.031 A 
ATOM     51  C   UNL A   1      41.169  33.237  34.251  1.00  0.00     0.031 A 
ATOM     52  C   UNL A   1      41.802  28.092  30.286  1.00  0.00     0.049 A 
ATOM     53  C   UNL A   1      42.178  32.128  34.153  1.00  0.00     0.074 A 
ATOM     54  C   UNL A   1      42.838  27.177  30.241  1.00  0.00     0.029 A 
ATOM     55  N   UNL A   1      42.091  28.974  31.319  1.00  0.00    -0.354 N 
ATOM     56  N   UNL A   1      42.228  31.127  33.307  1.00  0.00    -0.248 NA
ATOM     57  C   UNL A   1      43.280  32.152  35.124  1.00  0.00     0.031 C 
ATOM     58  C   UNL A   1      43.720  27.463  31.287  1.00  0.00     0.029 A 
ATOM     59  C   UNL A   1      43.273  28.603  31.939  1.00  0.00     0.049 A 
ATOM     60  H   UNL A   1      41.539  29.747  31.573  1.00  0.00     0.167 HD
ATOM     61  C   UNL A   1      43.382  30.422  33.621  1.00  0.00     0.074 A 
ATOM     62  C   UNL A   1      44.009  31.119  34.727  1.00  0.00     0.031 C 
ATOM     63  C   UNL A   1      43.880  29.301  33.043  1.00  0.00     0.031 A 
BRANCH  50  64
ATOM     64  C   UNL A   1      40.399  27.083  28.432  1.00  0.00    -0.014 A 
ATOM     65  C   UNL A   1      39.620  25.950  28.718  1.00  0.00     0.009 A 
ATOM     66  C   UNL A   1      40.967  27.206  27.154  1.00  0.00     0.009 A 
ATOM     67  C   UNL A   1      39.460  24.940  27.767  1.00  0.00     0.001 A 
ATOM     68  C   UNL A   1      40.776  26.212  26.192  1.00  0.00     0.001 A 
ATOM     69  C   UNL A   1      40.035  25.073  26.504  1.00  0.00     0.000 A 
ENDBRANCH  50  64
BRANCH  51  70
ATOM     70  C   UNL A   1      41.314  34.314  35.266  1.00  0.00    -0.014 A 
ATOM     71  C   UNL A   1      40.714  34.186  36.529  1.00  0.00     0.009 A 
ATOM     72  C   UNL A   1      42.061  35.468  34.985  1.00  0.00     0.009 A 
ATOM     73  C   UNL A   1      40.839  35.202  37.478  1.00  0.00     0.001 A 
ATOM     74  C   UNL A   1      42.210  36.469  35.947  1.00  0.00     0.001 A 
ATOM     75  C   UNL A   1      41.592  36.339  37.189  1.00  0.00     0.000 A 
ENDBRANCH  51  70
BRANCH  63  76
ATOM     76  C   UNL A   1      45.188  28.778  33.573  1.00  0.00    -0.014 A 
ATOM     77  C   UNL A   1      45.236  27.832  34.608  1.00  0.00     0.009 A 
ATOM     78  C   UNL A   1      46.392  29.215  32.997  1.00  0.00     0.009 A 
ATOM     79  C   UNL A   1      46.465  27.363  35.081  1.00  0.00     0.001 A 
ATOM     80  C   UNL A   1      47.616  28.720  33.448  1.00  0.00     0.001 A 
ATOM     81  C   UNL A   1      47.651  27.804  34.497  1.00  0.00     0.000 A 
ENDBRANCH  63  76
ENDBRANCH  37  38
ENDBRANCH  29  32
ENDBRANCH  27  28
ENDBRANCH  26  27
ENDBRANCH  25  26
ENDBRANCH   1  25
TORSDOF 16
ENDMDL
MODEL 3
REMARK VINA RESULT:     -10.7      4.381      8.173
REMARK SMILES COC(=O)c1ccc(Cl)c(-c2ccc(C(=O)NCCCCCCNC(=O)c3ccc(-c4c5nc(c(-c6ccccc6)c6ccc([nH]6)c(-c6ccccc6)c6nc(c(-c7ccccc7)c7ccc4[nH]7)C=C6)C=C5)cc3)nc2)c1
REMARK SMILES IDX 20 1 19 2 18 3 17 4 15 5 16 6 14 8 11 9 12 10 76 11 13 12
REMARK SMILES IDX 75 13 10 14 5 15 6 16 77 17 7 18 8 19 9 20 3 21 4 22 2 23
REMARK SMILES IDX 1 24 21 25 22 26 23 27 24 28 25 29 26 31 27 32 28 33 74 34
REMARK SMILES IDX 29 35 73 36 30 37 31 38 32 39 67 40 33 41 72 42 66 43 68 44
REMARK SMILES IDX 34 45 71 46 65 47 64 48 35 50 57 51 42 52 56 53 43 54 46 55
REMARK SMILES IDX 55 56 69 57 44 58 45 59 54 61 70 62 47 63 36 64 37 65 41 66
REMARK SMILES IDX 38 67 40 68 39 69 58 70 59 71 63 72 60 73 62 74 61 75 48 76
REMARK SMILES IDX 49 77 53 78 50 79 52 80 51 81
REMARK H PARENT 17 7 24 30 68 49 46 60
REMARK Flexibility Score: inf
ROOT
ATOM      1  C   UNL A   1      35.546  33.203  28.621  1.00  0.00     0.002 C 
ENDROOT
BRANCH   1   2
ATOM      2  C   UNL A   1      34.773  31.940  29.028  1.00  0.00     0.021 C 
BRANCH   2   3
ATOM      3  C   UNL A   1      34.579  30.963  27.866  1.00  0.00     0.116 C 
BRANCH   3   4
ATOM      4  N   UNL A   1      33.268  31.138  27.282  1.00  0.00    -0.351 N 
ATOM      5  C   UNL A   1      32.465  30.368  26.474  1.00  0.00     0.269 C 
ATOM      6  O   UNL A   1      31.385  30.879  26.163  1.00  0.00    -0.268 OA
ATOM      7  H   UNL A   1      32.858  32.002  27.515  1.00  0.00     0.163 HD
BRANCH   5   8
ATOM      8  C   UNL A   1      32.801  28.977  25.995  1.00  0.00     0.128 A 
ATOM      9  C   UNL A   1      33.478  26.531  24.858  1.00  0.00     0.002 A 
ATOM     10  C   UNL A   1      32.693  26.580  26.011  1.00  0.00     0.013 A 
ATOM     11  C   UNL A   1      33.921  27.750  24.358  1.00  0.00     0.120 A 
ATOM     12  C   UNL A   1      32.386  27.803  26.604  1.00  0.00     0.035 A 
ATOM     13  N   UNL A   1      33.589  28.951  24.884  1.00  0.00    -0.250 NA
BRANCH   9  14
ATOM     14  C   UNL A   1      33.852  25.243  24.271  1.00  0.00     0.003 A 
ATOM     15  C   UNL A   1      35.092  23.150  24.487  1.00  0.00     0.060 A 
ATOM     16  C   UNL A   1      34.479  22.654  23.334  1.00  0.00     0.017 A 
ATOM     17  C   UNL A   1      34.775  24.432  24.954  1.00  0.00     0.026 A 
ATOM     18  C   UNL A   1      33.572  23.451  22.634  1.00  0.00     0.022 A 
ATOM     19  C   UNL A   1      33.267  24.738  23.092  1.00  0.00     0.048 A 
ATOM     20  Cl  UNL A   1      32.143  25.667  22.160  1.00  0.00    -0.084 Cl
BRANCH  15  21
ATOM     21  C   UNL A   1      36.061  22.349  25.269  1.00  0.00     0.337 C 
ATOM     22  O   UNL A   1      35.745  21.631  26.200  1.00  0.00    -0.246 OA
BRANCH  21  23
ATOM     23  O   UNL A   1      37.318  22.610  24.833  1.00  0.00    -0.465 OA
ATOM     24  C   UNL A   1      38.334  22.251  25.768  1.00  0.00     0.282 C 
ENDBRANCH  21  23
ENDBRANCH  15  21
ENDBRANCH   9  14
ENDBRANCH   5   8
ENDBRANCH   3   4
ENDBRANCH   2   3
ENDBRANCH   1   2
BRANCH   1  25
ATOM     25  C   UNL A   1      34.664  34.362  28.135  1.00  0.00     0.002 C 
BRANCH  25  26
ATOM     26  C   UNL A   1      33.452  34.653  29.022  1.00  0.00     0.021 C 
BRANCH  26  27
ATOM     27  C   UNL A   1      33.486  36.031  29.672  1.00  0.00     0.116 C 
BRANCH  27  28
ATOM     28  N   UNL A   1      32.558  36.111  30.790  1.00  0.00    -0.352 N 
ATOM     29  C   UNL A   1      32.604  35.472  32.002  1.00  0.00     0.251 C 
ATOM     30  H   UNL A   1      31.787  36.708  30.657  1.00  0.00     0.163 HD
ATOM     31  O   UNL A   1      31.612  35.436  32.722  1.00  0.00    -0.269 OA
BRANCH  29  32
ATOM     32  C   UNL A   1      33.858  34.826  32.435  1.00  0.00     0.039 A 
ATOM     33  C   UNL A   1      33.813  33.522  32.931  1.00  0.00     0.014 A 
ATOM     34  C   UNL A   1      35.071  35.516  32.364  1.00  0.00     0.014 A 
ATOM     35  C   UNL A   1      34.996  32.893  33.317  1.00  0.00     0.010 A 
ATOM     36  C   UNL A   1      36.258  34.859  32.668  1.00  0.00     0.010 A 
ATOM     37  C   UNL A   1      36.230  33.547  33.161  1.00  0.00    -0.014 A 
BRANCH  37  38
ATOM     38  C   UNL A   1      37.503  32.877  33.519  1.00  0.00     0.031 A 
ATOM     39  C   UNL A   1      38.121  31.877  32.580  1.00  0.00     0.074 A 
ATOM     40  C   UNL A   1      38.075  33.129  34.712  1.00  0.00     0.049 A 
ATOM     41  N   UNL A   1      39.209  31.167  32.731  1.00  0.00    -0.248 NA
ATOM     42  C   UNL A   1      37.406  31.623  31.319  1.00  0.00     0.031 C 
ATOM     43  C   UNL A   1      37.555  34.053  35.722  1.00  0.00     0.029 A 
ATOM     44  N   UNL A   1      39.221  32.631  35.274  1.00  0.00    -0.354 N 
ATOM     45  C   UNL A   1      39.303  30.376  31.593  1.00  0.00     0.074 A 
ATOM     46  C   UNL A   1      38.129  30.646  30.792  1.00  0.00     0.031 C 
ATOM     47  C   UNL A   1      38.402  34.085  36.762  1.00  0.00     0.029 A 
ATOM     48  C   UNL A   1      39.496  33.152  36.514  1.00  0.00     0.049 A 
ATOM     49  H   UNL A   1      39.793  31.963  34.831  1.00  0.00     0.167 HD
ATOM     50  C   UNL A   1      40.287  29.518  31.234  1.00  0.00     0.031 A 
ATOM     51  C   UNL A   1      40.513  32.905  37.359  1.00  0.00     0.031 A 
ATOM     52  C   UNL A   1      41.451  29.247  32.036  1.00  0.00     0.049 A 
ATOM     53  C   UNL A   1      41.574  31.919  36.958  1.00  0.00     0.074 A 
ATOM     54  C   UNL A   1      42.529  28.429  31.746  1.00  0.00     0.029 A 
ATOM     55  N   UNL A   1      41.682  29.781  33.297  1.00  0.00    -0.354 N 
ATOM     56  N   UNL A   1      41.684  31.227  35.849  1.00  0.00    -0.248 NA
ATOM     57  C   UNL A   1      42.657  31.688  37.923  1.00  0.00     0.031 C 
ATOM     58  C   UNL A   1      43.379  28.417  32.856  1.00  0.00     0.029 A 
ATOM     59  C   UNL A   1      42.869  29.285  33.809  1.00  0.00     0.049 A 
ATOM     60  H   UNL A   1      41.089  30.417  33.757  1.00  0.00     0.167 HD
ATOM     61  C   UNL A   1      42.864  30.505  35.969  1.00  0.00     0.074 A 
ATOM     62  C   UNL A   1      43.440  30.855  37.252  1.00  0.00     0.031 C 
ATOM     63  C   UNL A   1      43.424  29.635  35.092  1.00  0.00     0.031 A 
BRANCH  50  64
ATOM     64  C   UNL A   1      40.128  28.798  29.921  1.00  0.00    -0.014 A 
ATOM     65  C   UNL A   1      39.540  27.524  29.850  1.00  0.00     0.009 A 
ATOM     66  C   UNL A   1      40.566  29.406  28.734  1.00  0.00     0.009 A 
ATOM     67  C   UNL A   1      39.443  26.854  28.629  1.00  0.00     0.001 A 
ATOM     68  C   UNL A   1      40.436  28.749  27.509  1.00  0.00     0.001 A 
ATOM     69  C   UNL A   1      39.888  27.468  27.459  1.00  0.00     0.000 A 
ENDBRANCH  50  64
BRANCH  51  70
ATOM     70  C   UNL A   1      40.591  33.625  38.657  1.00  0.00    -0.014 A 
ATOM     71  C   UNL A   1      41.260  34.855  38.749  1.00  0.00     0.009 A 
ATOM     72  C   UNL A   1      39.988  33.094  39.809  1.00  0.00     0.009 A 
ATOM     73  C   UNL A   1      41.344  35.526  39.970  1.00  0.00     0.001 A 
ATOM     74  C   UNL A   1      40.048  33.782  41.022  1.00  0.00     0.001 A 
ATOM     75  C   UNL A   1      40.733  34.993  41.104  1.00  0.00     0.000 A 
ENDBRANCH  51  70
BRANCH  63  76
ATOM     76  C   UNL A   1      44.745  29.026  35.476  1.00  0.00    -0.014 A 
ATOM     77  C   UNL A   1      44.821  27.805  36.164  1.00  0.00     0.009 A 
ATOM     78  C   UNL A   1      45.937  29.672  35.109  1.00  0.00     0.009 A 
ATOM     79  C   UNL A   1      46.061  27.263  36.509  1.00  0.00     0.001 A 
ATOM     80  C   UNL A   1      47.175  29.112  35.425  1.00  0.00     0.001 A 
ATOM     81  C   UNL A   1      47.235  27.914  36.134  1.00  0.00     0.000 A 
ENDBRANCH  63  76
ENDBRANCH  37  38
ENDBRANCH  29  32
ENDBRANCH  27  28
ENDBRANCH  26  27
ENDBRANCH  25  26
ENDBRANCH   1  25
TORSDOF 16
ENDMDL
