MODEL 1
REMARK VINA RESULT:     -11.9      0.000      0.000
REMARK SMILES CN1C(=O)C[C@H](C(=O)Nc2ccc(C(=O)NCCCCCCNC(=O)c3ccc(-c4c5nc(c(-c6ccccc6)c6ccc([nH]6)c(-c6ccccc6)c6nc(c(-c7ccccc7)c7ccc4[nH]7)C=C6)C=C5)cc3)cc2)S/C1=[NH+]\c1cccc(C(F)(F)F)c1
REMARK SMILES IDX 18 1 17 2 16 3 14 4 15 5 13 7 10 8 11 9 75 10 12 11 74 12
REMARK SMILES IDX 9 13 7 14 8 15 6 17 1 18 2 19 3 20 77 21 4 22 5 23 76 24
REMARK SMILES IDX 78 25 79 27 80 28 88 29 81 30 83 31 82 32 84 33 85 34 86 35
REMARK SMILES IDX 87 36 19 37 20 38 21 39 22 40 23 41 24 42 25 44 26 45 27 46
REMARK SMILES IDX 73 47 28 48 72 49 29 50 30 51 31 52 66 53 32 54 71 55 65 56
REMARK SMILES IDX 67 57 33 58 70 59 64 60 63 61 34 63 56 64 41 65 55 66 42 67
REMARK SMILES IDX 45 68 54 69 68 70 43 71 44 72 53 74 69 75 46 76 35 77 36 78
REMARK SMILES IDX 40 79 37 80 39 81 38 82 57 83 58 84 62 85 59 86 61 87 60 88
REMARK SMILES IDX 47 89 48 90 52 91 49 92 51 93 50 94
REMARK H PARENT 16 6 9 16 78 26 23 43 67 62 45 73
REMARK Flexibility Score: inf
ROOT
ATOM      1  C   UNL A   1      35.186  31.932  28.082  1.00  0.00     0.021 C 
ENDROOT
BRANCH   1   2
ATOM      2  C   UNL A   1      34.257  30.835  27.556  1.00  0.00     0.116 C 
BRANCH   2   3
ATOM      3  N   UNL A   1      33.038  31.424  27.032  1.00  0.00    -0.352 N 
ATOM      4  C   UNL A   1      31.894  30.871  26.514  1.00  0.00     0.251 C 
ATOM      5  O   UNL A   1      30.996  31.628  26.146  1.00  0.00    -0.269 OA
ATOM      6  H   UNL A   1      33.030  32.408  27.053  1.00  0.00     0.163 HD
BRANCH   4   7
ATOM      7  C   UNL A   1      31.667  29.402  26.461  1.00  0.00     0.039 A 
ATOM      8  C   UNL A   1      30.917  26.707  26.255  1.00  0.00     0.041 A 
ATOM      9  C   UNL A   1      30.984  27.493  25.108  1.00  0.00     0.027 A 
ATOM     10  C   UNL A   1      31.385  27.220  27.464  1.00  0.00     0.027 A 
ATOM     11  C   UNL A   1      31.328  28.845  25.219  1.00  0.00     0.016 A 
ATOM     12  C   UNL A   1      31.783  28.555  27.563  1.00  0.00     0.016 A 
BRANCH   8  13
ATOM     13  N   UNL A   1      30.421  25.401  26.163  1.00  0.00    -0.325 N 
ATOM     14  C   UNL A   1      31.129  24.222  26.260  1.00  0.00     0.238 C 
ATOM     15  O   UNL A   1      30.576  23.164  25.953  1.00  0.00    -0.273 OA
ATOM     16  H   UNL A   1      29.453  25.315  26.011  1.00  0.00     0.169 HD
BRANCH  14  17
ATOM     17  C   UNL A   1      32.525  24.239  26.893  1.00  0.00     0.160 C 
ATOM     18  C   UNL A   1      34.191  20.918  24.543  1.00  0.00     0.301 C 
ATOM     19  N   UNL A   1      33.741  22.070  25.313  1.00  0.00    -0.194 N 
ATOM     20  C   UNL A   1      33.393  21.801  26.635  1.00  0.00     0.311 C 
ATOM     21  C   UNL A   1      33.692  23.305  24.678  1.00  0.00     0.319 C 
ATOM     22  O   UNL A   1      33.516  20.673  27.128  1.00  0.00    -0.247 OA
ATOM     23  C   UNL A   1      32.885  22.913  27.531  1.00  0.00     0.153 C 
ATOM     24  S   UNL A   1      33.812  24.682  25.741  1.00  0.00    -0.024 SA
ATOM     25  N   UNL A   1      33.622  23.382  23.386  1.00  0.00    -0.235 N 
ATOM     26  H   UNL A   1      33.716  22.559  22.852  1.00  0.00     0.313 HD
BRANCH  25  27
ATOM     27  C   UNL A   1      33.417  24.602  22.731  1.00  0.00     0.126 A 
ATOM     28  C   UNL A   1      32.676  24.601  21.546  1.00  0.00     0.052 A 
ATOM     29  C   UNL A   1      33.936  25.808  23.209  1.00  0.00     0.064 A 
ATOM     30  C   UNL A   1      32.417  25.790  20.867  1.00  0.00     0.005 A 
ATOM     31  C   UNL A   1      33.648  27.020  22.561  1.00  0.00     0.060 A 
ATOM     32  C   UNL A   1      32.892  26.996  21.378  1.00  0.00     0.013 A 
BRANCH  31  33
ATOM     33  C   UNL A   1      34.114  28.332  23.133  1.00  0.00     0.416 C 
ATOM     34  F   UNL A   1      34.379  28.267  24.466  1.00  0.00    -0.166 F 
ATOM     35  F   UNL A   1      35.263  28.772  22.544  1.00  0.00    -0.166 F 
ATOM     36  F   UNL A   1      33.218  29.348  22.976  1.00  0.00    -0.166 F 
ENDBRANCH  31  33
ENDBRANCH  25  27
ENDBRANCH  14  17
ENDBRANCH   8  13
ENDBRANCH   4   7
ENDBRANCH   2   3
ENDBRANCH   1   2
BRANCH   1  37
ATOM     37  C   UNL A   1      34.534  32.813  29.155  1.00  0.00     0.002 C 
BRANCH  37  38
ATOM     38  C   UNL A   1      34.577  34.319  28.867  1.00  0.00     0.002 C 
BRANCH  38  39
ATOM     39  C   UNL A   1      33.243  35.048  29.044  1.00  0.00     0.021 C 
BRANCH  39  40
ATOM     40  C   UNL A   1      33.346  36.364  29.806  1.00  0.00     0.116 C 
BRANCH  40  41
ATOM     41  N   UNL A   1      32.432  36.405  30.937  1.00  0.00    -0.352 N 
ATOM     42  C   UNL A   1      32.490  35.723  32.126  1.00  0.00     0.251 C 
ATOM     43  H   UNL A   1      31.661  37.008  30.834  1.00  0.00     0.163 HD
ATOM     44  O   UNL A   1      31.520  35.701  32.876  1.00  0.00    -0.269 OA
BRANCH  42  45
ATOM     45  C   UNL A   1      33.726  35.001  32.497  1.00  0.00     0.039 A 
ATOM     46  C   UNL A   1      33.638  33.665  32.895  1.00  0.00     0.014 A 
ATOM     47  C   UNL A   1      34.965  35.649  32.468  1.00  0.00     0.014 A 
ATOM     48  C   UNL A   1      34.800  32.963  33.217  1.00  0.00     0.010 A 
ATOM     49  C   UNL A   1      36.128  34.928  32.714  1.00  0.00     0.010 A 
ATOM     50  C   UNL A   1      36.056  33.581  33.102  1.00  0.00    -0.014 A 
BRANCH  50  51
ATOM     51  C   UNL A   1      37.308  32.841  33.396  1.00  0.00     0.031 A 
ATOM     52  C   UNL A   1      38.057  33.100  34.674  1.00  0.00     0.074 A 
ATOM     53  C   UNL A   1      37.799  31.976  32.489  1.00  0.00     0.049 A 
ATOM     54  N   UNL A   1      39.185  32.581  35.090  1.00  0.00    -0.248 NA
ATOM     55  C   UNL A   1      37.475  34.092  35.593  1.00  0.00     0.031 C 
ATOM     56  C   UNL A   1      37.184  31.660  31.198  1.00  0.00     0.029 A 
ATOM     57  N   UNL A   1      38.932  31.204  32.516  1.00  0.00    -0.354 N 
ATOM     58  C   UNL A   1      39.453  33.194  36.307  1.00  0.00     0.074 A 
ATOM     59  C   UNL A   1      38.403  34.163  36.534  1.00  0.00     0.031 C 
ATOM     60  C   UNL A   1      37.928  30.733  30.573  1.00  0.00     0.029 A 
ATOM     61  C   UNL A   1      39.090  30.421  31.399  1.00  0.00     0.049 A 
ATOM     62  H   UNL A   1      39.571  31.210  33.265  1.00  0.00     0.167 HD
ATOM     63  C   UNL A   1      40.470  32.959  37.170  1.00  0.00     0.031 A 
ATOM     64  C   UNL A   1      40.063  29.549  31.075  1.00  0.00     0.031 A 
ATOM     65  C   UNL A   1      41.516  31.997  36.943  1.00  0.00     0.049 A 
ATOM     66  C   UNL A   1      41.198  29.326  32.033  1.00  0.00     0.074 A 
ATOM     67  C   UNL A   1      42.565  31.649  37.775  1.00  0.00     0.029 A 
ATOM     68  N   UNL A   1      41.648  31.235  35.792  1.00  0.00    -0.354 N 
ATOM     69  N   UNL A   1      41.406  29.865  33.210  1.00  0.00    -0.248 NA
ATOM     70  C   UNL A   1      42.229  28.364  31.620  1.00  0.00     0.031 C 
ATOM     71  C   UNL A   1      43.363  30.715  37.105  1.00  0.00     0.029 A 
ATOM     72  C   UNL A   1      42.776  30.436  35.881  1.00  0.00     0.049 A 
ATOM     73  H   UNL A   1      41.030  31.258  35.025  1.00  0.00     0.167 HD
ATOM     74  C   UNL A   1      42.573  29.287  33.692  1.00  0.00     0.074 A 
ATOM     75  C   UNL A   1      43.019  28.346  32.685  1.00  0.00     0.031 C 
ATOM     76  C   UNL A   1      43.212  29.510  34.866  1.00  0.00     0.031 A 
BRANCH  63  77
ATOM     77  C   UNL A   1      40.500  33.776  38.434  1.00  0.00    -0.014 A 
ATOM     78  C   UNL A   1      41.194  34.996  38.499  1.00  0.00     0.009 A 
ATOM     79  C   UNL A   1      39.823  33.322  39.577  1.00  0.00     0.009 A 
ATOM     80  C   UNL A   1      41.253  35.716  39.694  1.00  0.00     0.001 A 
ATOM     81  C   UNL A   1      39.855  34.060  40.761  1.00  0.00     0.001 A 
ATOM     82  C   UNL A   1      40.582  35.248  40.823  1.00  0.00     0.000 A 
ENDBRANCH  63  77
BRANCH  64  83
ATOM     83  C   UNL A   1      39.985  28.795  29.797  1.00  0.00    -0.014 A 
ATOM     84  C   UNL A   1      40.488  29.356  28.613  1.00  0.00     0.009 A 
ATOM     85  C   UNL A   1      39.423  27.510  29.753  1.00  0.00     0.009 A 
ATOM     86  C   UNL A   1      40.414  28.654  27.409  1.00  0.00     0.001 A 
ATOM     87  C   UNL A   1      39.375  26.799  28.553  1.00  0.00     0.001 A 
ATOM     88  C   UNL A   1      39.863  27.374  27.380  1.00  0.00     0.000 A 
ENDBRANCH  64  83
BRANCH  76  89
ATOM     89  C   UNL A   1      44.447  28.698  35.139  1.00  0.00    -0.014 A 
ATOM     90  C   UNL A   1      45.720  29.146  34.752  1.00  0.00     0.009 A 
ATOM     91  C   UNL A   1      44.336  27.480  35.828  1.00  0.00     0.009 A 
ATOM     92  C   UNL A   1      46.852  28.373  35.019  1.00  0.00     0.001 A 
ATOM     93  C   UNL A   1      45.472  26.723  36.121  1.00  0.00     0.001 A 
ATOM     94  C   UNL A   1      46.727  27.167  35.707  1.00  0.00     0.000 A 
ENDBRANCH  76  89
ENDBRANCH  50  51
ENDBRANCH  42  45
ENDBRANCH  40  41
ENDBRANCH  39  40
ENDBRANCH  38  39
ENDBRANCH  37  38
ENDBRANCH   1  37
TORSDOF 17
ENDMDL
MODEL 2
REMARK VINA RESULT:     -11.9      5.998     11.869
REMARK SMILES CN1C(=O)C[C@H](C(=O)Nc2ccc(C(=O)NCCCCCCNC(=O)c3ccc(-c4c5nc(c(-c6ccccc6)c6ccc([nH]6)c(-c6ccccc6)c6nc(c(-c7ccccc7)c7ccc4[nH]7)C=C6)C=C5)cc3)cc2)S/C1=[NH+]\c1cccc(C(F)(F)F)c1
REMARK SMILES IDX 18 1 17 2 16 3 14 4 15 5 13 7 10 8 11 9 75 10 12 11 74 12
REMARK SMILES IDX 9 13 7 14 8 15 6 17 1 18 2 19 3 20 77 21 4 22 5 23 76 24
REMARK SMILES IDX 78 25 79 27 80 28 88 29 81 30 83 31 82 32 84 33 85 34 86 35
REMARK SMILES IDX 87 36 19 37 20 38 21 39 22 40 23 41 24 42 25 44 26 45 27 46
REMARK SMILES IDX 73 47 28 48 72 49 29 50 30 51 31 52 66 53 32 54 71 55 65 56
REMARK SMILES IDX 67 57 33 58 70 59 64 60 63 61 34 63 56 64 41 65 55 66 42 67
REMARK SMILES IDX 45 68 54 69 68 70 43 71 44 72 53 74 69 75 46 76 35 77 36 78
REMARK SMILES IDX 40 79 37 80 39 81 38 82 57 83 58 84 62 85 59 86 61 87 60 88
REMARK SMILES IDX 47 89 48 90 52 91 49 92 51 93 50 94
REMARK H PARENT 16 6 9 16 78 26 23 43 67 62 45 73
REMARK Flexibility Score: inf
ROOT
ATOM      1  C   UNL A   1      42.890  18.773  26.367  1.00  0.00     0.021 C 
ENDROOT
BRANCH   1   2
ATOM      2  C   UNL A   1      43.597  18.565  25.025  1.00  0.00     0.116 C 
BRANCH   2   3
ATOM      3  N   UNL A   1      45.037  18.578  25.213  1.00  0.00    -0.352 N 
ATOM      4  C   UNL A   1      45.957  19.595  25.226  1.00  0.00     0.251 C 
ATOM      5  O   UNL A   1      47.138  19.310  25.420  1.00  0.00    -0.269 OA
ATOM      6  H   UNL A   1      45.427  17.687  25.360  1.00  0.00     0.163 HD
BRANCH   4   7
ATOM      7  C   UNL A   1      45.571  21.027  25.099  1.00  0.00     0.039 A 
ATOM      8  C   UNL A   1      44.542  23.634  25.006  1.00  0.00     0.041 A 
ATOM      9  C   UNL A   1      44.789  23.035  26.237  1.00  0.00     0.027 A 
ATOM     10  C   UNL A   1      44.965  22.999  23.838  1.00  0.00     0.027 A 
ATOM     11  C   UNL A   1      45.274  21.723  26.280  1.00  0.00     0.016 A 
ATOM     12  C   UNL A   1      45.502  21.710  23.886  1.00  0.00     0.016 A 
BRANCH   8  13
ATOM     13  N   UNL A   1      43.911  24.883  24.965  1.00  0.00    -0.325 N 
ATOM     14  C   UNL A   1      44.441  26.107  25.314  1.00  0.00     0.238 C 
ATOM     15  O   UNL A   1      43.689  27.079  25.414  1.00  0.00    -0.273 OA
ATOM     16  H   UNL A   1      42.978  24.887  24.650  1.00  0.00     0.169 HD
BRANCH  14  17
ATOM     17  C   UNL A   1      45.962  26.260  25.413  1.00  0.00     0.160 C 
ATOM     18  C   UNL A   1      45.948  30.040  27.659  1.00  0.00     0.301 C 
ATOM     19  N   UNL A   1      46.043  28.756  26.978  1.00  0.00    -0.194 N 
ATOM     20  C   UNL A   1      46.351  28.823  25.621  1.00  0.00     0.311 C 
ATOM     21  C   UNL A   1      45.816  27.602  27.719  1.00  0.00     0.319 C 
ATOM     22  O   UNL A   1      46.585  29.900  25.056  1.00  0.00    -0.247 OA
ATOM     23  C   UNL A   1      46.453  27.555  24.797  1.00  0.00     0.153 C 
ATOM     24  S   UNL A   1      46.570  26.163  27.087  1.00  0.00    -0.024 SA
ATOM     25  N   UNL A   1      45.139  27.649  28.824  1.00  0.00    -0.235 N 
ATOM     26  H   UNL A   1      44.881  28.526  29.190  1.00  0.00     0.313 HD
BRANCH  25  27
ATOM     27  C   UNL A   1      44.765  26.485  29.508  1.00  0.00     0.126 A 
ATOM     28  C   UNL A   1      43.944  25.566  28.851  1.00  0.00     0.052 A 
ATOM     29  C   UNL A   1      45.170  26.222  30.819  1.00  0.00     0.064 A 
ATOM     30  C   UNL A   1      43.563  24.378  29.473  1.00  0.00     0.005 A 
ATOM     31  C   UNL A   1      44.832  25.011  31.444  1.00  0.00     0.060 A 
ATOM     32  C   UNL A   1      44.015  24.097  30.761  1.00  0.00     0.013 A 
BRANCH  31  33
ATOM     33  C   UNL A   1      45.358  24.676  32.815  1.00  0.00     0.416 C 
ATOM     34  F   UNL A   1      44.828  25.459  33.793  1.00  0.00    -0.166 F 
ATOM     35  F   UNL A   1      45.077  23.390  33.173  1.00  0.00    -0.166 F 
ATOM     36  F   UNL A   1      46.710  24.794  32.928  1.00  0.00    -0.166 F 
ENDBRANCH  31  33
ENDBRANCH  25  27
ENDBRANCH  14  17
ENDBRANCH   8  13
ENDBRANCH   4   7
ENDBRANCH   2   3
ENDBRANCH   1   2
BRANCH   1  37
ATOM     37  C   UNL A   1      41.578  19.558  26.243  1.00  0.00     0.002 C 
BRANCH  37  38
ATOM     38  C   UNL A   1      41.699  21.063  26.513  1.00  0.00     0.002 C 
BRANCH  38  39
ATOM     39  C   UNL A   1      40.730  21.610  27.564  1.00  0.00     0.021 C 
BRANCH  39  40
ATOM     40  C   UNL A   1      40.806  23.120  27.758  1.00  0.00     0.116 C 
BRANCH  40  41
ATOM     41  N   UNL A   1      40.968  23.819  26.493  1.00  0.00    -0.352 N 
ATOM     42  C   UNL A   1      40.766  25.145  26.201  1.00  0.00     0.251 C 
ATOM     43  H   UNL A   1      41.264  23.262  25.738  1.00  0.00     0.163 HD
ATOM     44  O   UNL A   1      40.728  25.524  25.035  1.00  0.00    -0.269 OA
BRANCH  42  45
ATOM     45  C   UNL A   1      40.580  26.117  27.299  1.00  0.00     0.039 A 
ATOM     46  C   UNL A   1      39.659  25.832  28.310  1.00  0.00     0.014 A 
ATOM     47  C   UNL A   1      41.303  27.314  27.320  1.00  0.00     0.014 A 
ATOM     48  C   UNL A   1      39.499  26.726  29.369  1.00  0.00     0.010 A 
ATOM     49  C   UNL A   1      41.197  28.167  28.413  1.00  0.00     0.010 A 
ATOM     50  C   UNL A   1      40.286  27.887  29.443  1.00  0.00    -0.014 A 
BRANCH  50  51
ATOM     51  C   UNL A   1      40.163  28.828  30.582  1.00  0.00     0.031 A 
ATOM     52  C   UNL A   1      39.157  29.944  30.535  1.00  0.00     0.074 A 
ATOM     53  C   UNL A   1      40.994  28.713  31.634  1.00  0.00     0.049 A 
ATOM     54  N   UNL A   1      38.927  30.887  31.415  1.00  0.00    -0.248 NA
ATOM     55  C   UNL A   1      38.315  30.027  29.331  1.00  0.00     0.031 C 
ATOM     56  C   UNL A   1      42.035  27.694  31.786  1.00  0.00     0.029 A 
ATOM     57  N   UNL A   1      41.095  29.464  32.778  1.00  0.00    -0.354 N 
ATOM     58  C   UNL A   1      37.929  31.680  30.862  1.00  0.00     0.074 A 
ATOM     59  C   UNL A   1      37.639  31.143  29.551  1.00  0.00     0.031 C 
ATOM     60  C   UNL A   1      42.643  27.860  32.972  1.00  0.00     0.029 A 
ATOM     61  C   UNL A   1      42.065  29.020  33.644  1.00  0.00     0.049 A 
ATOM     62  H   UNL A   1      40.525  30.246  32.962  1.00  0.00     0.167 HD
ATOM     63  C   UNL A   1      37.295  32.747  31.404  1.00  0.00     0.031 A 
ATOM     64  C   UNL A   1      42.447  29.495  34.843  1.00  0.00     0.031 A 
ATOM     65  C   UNL A   1      37.585  33.283  32.708  1.00  0.00     0.049 A 
ATOM     66  C   UNL A   1      41.751  30.699  35.412  1.00  0.00     0.074 A 
ATOM     67  C   UNL A   1      36.968  34.330  33.368  1.00  0.00     0.029 A 
ATOM     68  N   UNL A   1      38.585  32.814  33.546  1.00  0.00    -0.354 N 
ATOM     69  N   UNL A   1      40.764  31.400  34.908  1.00  0.00    -0.248 NA
ATOM     70  C   UNL A   1      42.216  31.169  36.724  1.00  0.00     0.031 C 
ATOM     71  C   UNL A   1      37.631  34.530  34.584  1.00  0.00     0.029 A 
ATOM     72  C   UNL A   1      38.621  33.568  34.708  1.00  0.00     0.049 A 
ATOM     73  H   UNL A   1      39.182  32.056  33.346  1.00  0.00     0.167 HD
ATOM     74  C   UNL A   1      40.470  32.375  35.852  1.00  0.00     0.074 A 
ATOM     75  C   UNL A   1      41.374  32.165  36.964  1.00  0.00     0.031 C 
ATOM     76  C   UNL A   1      39.532  33.351  35.803  1.00  0.00     0.031 A 
BRANCH  63  77
ATOM     77  C   UNL A   1      36.233  33.411  30.568  1.00  0.00    -0.014 A 
ATOM     78  C   UNL A   1      34.920  33.567  31.044  1.00  0.00     0.009 A 
ATOM     79  C   UNL A   1      36.549  33.888  29.287  1.00  0.00     0.009 A 
ATOM     80  C   UNL A   1      33.936  34.139  30.236  1.00  0.00     0.001 A 
ATOM     81  C   UNL A   1      35.571  34.491  28.493  1.00  0.00     0.001 A 
ATOM     82  C   UNL A   1      34.263  34.602  28.962  1.00  0.00     0.000 A 
ENDBRANCH  63  77
BRANCH  64  83
ATOM     83  C   UNL A   1      43.522  28.806  35.603  1.00  0.00    -0.014 A 
ATOM     84  C   UNL A   1      44.859  29.201  35.451  1.00  0.00     0.009 A 
ATOM     85  C   UNL A   1      43.219  27.763  36.492  1.00  0.00     0.009 A 
ATOM     86  C   UNL A   1      45.874  28.555  36.160  1.00  0.00     0.001 A 
ATOM     87  C   UNL A   1      44.232  27.137  37.220  1.00  0.00     0.001 A 
ATOM     88  C   UNL A   1      45.560  27.527  37.047  1.00  0.00     0.000 A 
ENDBRANCH  64  83
BRANCH  76  89
ATOM     89  C   UNL A   1      39.413  34.248  37.004  1.00  0.00    -0.014 A 
ATOM     90  C   UNL A   1      38.716  33.845  38.154  1.00  0.00     0.009 A 
ATOM     91  C   UNL A   1      40.040  35.504  36.995  1.00  0.00     0.009 A 
ATOM     92  C   UNL A   1      38.621  34.696  39.257  1.00  0.00     0.001 A 
ATOM     93  C   UNL A   1      39.970  36.341  38.110  1.00  0.00     0.001 A 
ATOM     94  C   UNL A   1      39.252  35.940  39.235  1.00  0.00     0.000 A 
ENDBRANCH  76  89
ENDBRANCH  50  51
ENDBRANCH  42  45
ENDBRANCH  40  41
ENDBRANCH  39  40
ENDBRANCH  38  39
ENDBRANCH  37  38
ENDBRANCH   1  37
TORSDOF 17
ENDMDL
MODEL 3
REMARK VINA RESULT:     -11.8      1.563      2.331
REMARK SMILES CN1C(=O)C[C@H](C(=O)Nc2ccc(C(=O)NCCCCCCNC(=O)c3ccc(-c4c5nc(c(-c6ccccc6)c6ccc([nH]6)c(-c6ccccc6)c6nc(c(-c7ccccc7)c7ccc4[nH]7)C=C6)C=C5)cc3)cc2)S/C1=[NH+]\c1cccc(C(F)(F)F)c1
REMARK SMILES IDX 18 1 17 2 16 3 14 4 15 5 13 7 10 8 11 9 75 10 12 11 74 12
REMARK SMILES IDX 9 13 7 14 8 15 6 17 1 18 2 19 3 20 77 21 4 22 5 23 76 24
REMARK SMILES IDX 78 25 79 27 80 28 88 29 81 30 83 31 82 32 84 33 85 34 86 35
REMARK SMILES IDX 87 36 19 37 20 38 21 39 22 40 23 41 24 42 25 44 26 45 27 46
REMARK SMILES IDX 73 47 28 48 72 49 29 50 30 51 31 52 66 53 32 54 71 55 65 56
REMARK SMILES IDX 67 57 33 58 70 59 64 60 63 61 34 63 56 64 41 65 55 66 42 67
REMARK SMILES IDX 45 68 54 69 68 70 43 71 44 72 53 74 69 75 46 76 35 77 36 78
REMARK SMILES IDX 40 79 37 80 39 81 38 82 57 83 58 84 62 85 59 86 61 87 60 88
REMARK SMILES IDX 47 89 48 90 52 91 49 92 51 93 50 94
REMARK H PARENT 16 6 9 16 78 26 23 43 67 62 45 73
REMARK Flexibility Score: inf
ROOT
ATOM      1  C   UNL A   1      35.742  29.946  27.642  1.00  0.00     0.021 C 
ENDROOT
BRANCH   1   2
ATOM      2  C   UNL A   1      34.585  29.275  26.899  1.00  0.00     0.116 C 
BRANCH   2   3
ATOM      3  N   UNL A   1      33.588  30.265  26.532  1.00  0.00    -0.352 N 
ATOM      4  C   UNL A   1      32.276  30.155  26.147  1.00  0.00     0.251 C 
ATOM      5  O   UNL A   1      31.653  31.187  25.898  1.00  0.00    -0.269 OA
ATOM      6  H   UNL A   1      33.916  31.192  26.568  1.00  0.00     0.163 HD
BRANCH   4   7
ATOM      7  C   UNL A   1      31.560  28.851  26.102  1.00  0.00     0.039 A 
ATOM      8  C   UNL A   1      30.507  26.252  26.134  1.00  0.00     0.041 A 
ATOM      9  C   UNL A   1      30.865  26.865  27.331  1.00  0.00     0.027 A 
ATOM     10  C   UNL A   1      30.518  26.996  24.954  1.00  0.00     0.027 A 
ATOM     11  C   UNL A   1      31.418  28.150  27.308  1.00  0.00     0.016 A 
ATOM     12  C   UNL A   1      31.019  28.300  24.942  1.00  0.00     0.016 A 
BRANCH   8  13
ATOM     13  N   UNL A   1      30.102  24.912  26.143  1.00  0.00    -0.325 N 
ATOM     14  C   UNL A   1      30.885  23.796  26.353  1.00  0.00     0.238 C 
ATOM     15  O   UNL A   1      30.412  22.681  26.125  1.00  0.00    -0.273 OA
ATOM     16  H   UNL A   1      29.146  24.747  25.979  1.00  0.00     0.169 HD
BRANCH  14  17
ATOM     17  C   UNL A   1      32.259  23.962  27.010  1.00  0.00     0.160 C 
ATOM     18  C   UNL A   1      34.385  21.058  24.484  1.00  0.00     0.301 C 
ATOM     19  N   UNL A   1      33.775  22.086  25.318  1.00  0.00    -0.194 N 
ATOM     20  C   UNL A   1      33.455  21.687  26.614  1.00  0.00     0.311 C 
ATOM     21  C   UNL A   1      33.563  23.341  24.762  1.00  0.00     0.319 C 
ATOM     22  O   UNL A   1      33.727  20.556  27.037  1.00  0.00    -0.247 OA
ATOM     23  C   UNL A   1      32.792  22.659  27.570  1.00  0.00     0.153 C 
ATOM     24  S   UNL A   1      33.484  24.650  25.911  1.00  0.00    -0.024 SA
ATOM     25  N   UNL A   1      33.495  23.492  23.476  1.00  0.00    -0.235 N 
ATOM     26  H   UNL A   1      33.705  22.726  22.893  1.00  0.00     0.313 HD
BRANCH  25  27
ATOM     27  C   UNL A   1      33.131  24.713  22.895  1.00  0.00     0.126 A 
ATOM     28  C   UNL A   1      32.010  24.742  22.062  1.00  0.00     0.052 A 
ATOM     29  C   UNL A   1      33.852  25.890  23.108  1.00  0.00     0.064 A 
ATOM     30  C   UNL A   1      31.585  25.935  21.480  1.00  0.00     0.005 A 
ATOM     31  C   UNL A   1      33.413  27.109  22.565  1.00  0.00     0.060 A 
ATOM     32  C   UNL A   1      32.277  27.116  21.740  1.00  0.00     0.013 A 
BRANCH  31  33
ATOM     33  C   UNL A   1      34.124  28.398  22.881  1.00  0.00     0.416 C 
ATOM     34  F   UNL A   1      34.742  28.380  24.093  1.00  0.00    -0.166 F 
ATOM     35  F   UNL A   1      35.098  28.684  21.969  1.00  0.00    -0.166 F 
ATOM     36  F   UNL A   1      33.307  29.488  22.889  1.00  0.00    -0.166 F 
ENDBRANCH  31  33
ENDBRANCH  25  27
ENDBRANCH  14  17
ENDBRANCH   8  13
ENDBRANCH   4   7
ENDBRANCH   2   3
ENDBRANCH   1   2
BRANCH   1  37
ATOM     37  C   UNL A   1      35.305  31.159  28.473  1.00  0.00     0.002 C 
BRANCH  37  38
ATOM     38  C   UNL A   1      35.971  32.483  28.081  1.00  0.00     0.002 C 
BRANCH  38  39
ATOM     39  C   UNL A   1      35.076  33.718  28.209  1.00  0.00     0.021 C 
BRANCH  39  40
ATOM     40  C   UNL A   1      33.781  33.475  28.977  1.00  0.00     0.116 C 
BRANCH  40  41
ATOM     41  N   UNL A   1      33.591  34.454  30.037  1.00  0.00    -0.352 N 
ATOM     42  C   UNL A   1      34.230  34.560  31.246  1.00  0.00     0.251 C 
ATOM     43  H   UNL A   1      32.905  35.137  29.861  1.00  0.00     0.163 HD
ATOM     44  O   UNL A   1      33.791  35.305  32.116  1.00  0.00    -0.269 OA
BRANCH  42  45
ATOM     45  C   UNL A   1      35.446  33.761  31.505  1.00  0.00     0.039 A 
ATOM     46  C   UNL A   1      35.316  32.484  32.056  1.00  0.00     0.014 A 
ATOM     47  C   UNL A   1      36.713  34.280  31.219  1.00  0.00     0.014 A 
ATOM     48  C   UNL A   1      36.454  31.707  32.274  1.00  0.00     0.010 A 
ATOM     49  C   UNL A   1      37.839  33.477  31.366  1.00  0.00     0.010 A 
ATOM     50  C   UNL A   1      37.722  32.187  31.906  1.00  0.00    -0.014 A 
BRANCH  50  51
ATOM     51  C   UNL A   1      38.940  31.360  32.088  1.00  0.00     0.031 A 
ATOM     52  C   UNL A   1      39.858  31.614  33.251  1.00  0.00     0.074 A 
ATOM     53  C   UNL A   1      39.249  30.419  31.177  1.00  0.00     0.049 A 
ATOM     54  N   UNL A   1      40.986  31.023  33.557  1.00  0.00    -0.248 NA
ATOM     55  C   UNL A   1      39.471  32.690  34.178  1.00  0.00     0.031 C 
ATOM     56  C   UNL A   1      38.458  30.097  29.987  1.00  0.00     0.029 A 
ATOM     57  N   UNL A   1      40.315  29.559  31.110  1.00  0.00    -0.354 N 
ATOM     58  C   UNL A   1      41.448  31.666  34.699  1.00  0.00     0.074 A 
ATOM     59  C   UNL A   1      40.510  32.727  34.997  1.00  0.00     0.031 C 
ATOM     60  C   UNL A   1      39.047  29.085  29.329  1.00  0.00     0.029 A 
ATOM     61  C   UNL A   1      40.275  28.716  30.026  1.00  0.00     0.049 A 
ATOM     62  H   UNL A   1      41.040  29.546  31.777  1.00  0.00     0.167 HD
ATOM     63  C   UNL A   1      42.542  31.388  35.447  1.00  0.00     0.031 A 
ATOM     64  C   UNL A   1      41.131  27.755  29.636  1.00  0.00     0.031 A 
ATOM     65  C   UNL A   1      43.477  30.334  35.149  1.00  0.00     0.049 A 
ATOM     66  C   UNL A   1      42.356  27.482  30.463  1.00  0.00     0.074 A 
ATOM     67  C   UNL A   1      44.590  29.939  35.868  1.00  0.00     0.029 A 
ATOM     68  N   UNL A   1      43.408  29.513  34.033  1.00  0.00    -0.354 N 
ATOM     69  N   UNL A   1      42.747  28.054  31.576  1.00  0.00    -0.248 NA
ATOM     70  C   UNL A   1      43.252  26.422  29.983  1.00  0.00     0.031 C 
ATOM     71  C   UNL A   1      45.226  28.914  35.159  1.00  0.00     0.029 A 
ATOM     72  C   UNL A   1      44.474  28.629  34.030  1.00  0.00     0.049 A 
ATOM     73  H   UNL A   1      42.704  29.552  33.345  1.00  0.00     0.167 HD
ATOM     74  C   UNL A   1      43.917  27.404  31.947  1.00  0.00     0.074 A 
ATOM     75  C   UNL A   1      44.164  26.386  30.945  1.00  0.00     0.031 C 
ATOM     76  C   UNL A   1      44.711  27.627  33.022  1.00  0.00     0.031 A 
BRANCH  63  77
ATOM     77  C   UNL A   1      42.789  32.255  36.652  1.00  0.00    -0.014 A 
ATOM     78  C   UNL A   1      43.543  33.437  36.559  1.00  0.00     0.009 A 
ATOM     79  C   UNL A   1      42.259  31.887  37.898  1.00  0.00     0.009 A 
ATOM     80  C   UNL A   1      43.805  34.202  37.697  1.00  0.00     0.001 A 
ATOM     81  C   UNL A   1      42.493  32.672  39.028  1.00  0.00     0.001 A 
ATOM     82  C   UNL A   1      43.278  33.820  38.930  1.00  0.00     0.000 A 
ENDBRANCH  63  77
BRANCH  64  83
ATOM     83  C   UNL A   1      40.840  26.953  28.419  1.00  0.00    -0.014 A 
ATOM     84  C   UNL A   1      41.375  27.332  27.179  1.00  0.00     0.009 A 
ATOM     85  C   UNL A   1      40.041  25.802  28.491  1.00  0.00     0.009 A 
ATOM     86  C   UNL A   1      41.101  26.585  26.031  1.00  0.00     0.001 A 
ATOM     87  C   UNL A   1      39.791  25.042  27.347  1.00  0.00     0.001 A 
ATOM     88  C   UNL A   1      40.314  25.438  26.117  1.00  0.00     0.000 A 
ENDBRANCH  64  83
BRANCH  76  89
ATOM     89  C   UNL A   1      45.905  26.729  33.189  1.00  0.00    -0.014 A 
ATOM     90  C   UNL A   1      47.158  27.068  32.653  1.00  0.00     0.009 A 
ATOM     91  C   UNL A   1      45.780  25.542  33.928  1.00  0.00     0.009 A 
ATOM     92  C   UNL A   1      48.252  26.217  32.825  1.00  0.00     0.001 A 
ATOM     93  C   UNL A   1      46.883  24.708  34.124  1.00  0.00     0.001 A 
ATOM     94  C   UNL A   1      48.114  25.042  33.563  1.00  0.00     0.000 A 
ENDBRANCH  76  89
ENDBRANCH  50  51
ENDBRANCH  42  45
ENDBRANCH  40  41
ENDBRANCH  39  40
ENDBRANCH  38  39
ENDBRANCH  37  38
ENDBRANCH   1  37
TORSDOF 17
ENDMDL
