MODEL 1
REMARK VINA RESULT:     -11.7      0.000      0.000
REMARK SMILES CS(=O)(=O)c1ccc(/C=C(/C(=O)NCCCCCCNC(=O)c2ccc(-c3c4nc(c(-c5ccccc5)c5ccc([nH]5)c(-c5ccccc5)c5nc(c(-c6ccccc6)c6ccc3[nH]6)C=C5)C=C4)cc2)c2ccc(O)cc2)cc1
REMARK SMILES IDX 16 1 15 2 14 3 13 4 11 5 12 6 10 8 9 9 8 10 5 11 6 12 79 13
REMARK SMILES IDX 7 14 78 15 2 16 1 17 3 18 4 19 71 20 72 21 77 22 73 23 76 24
REMARK SMILES IDX 74 25 75 26 17 28 18 29 19 30 20 31 21 32 22 34 23 35 24 36
REMARK SMILES IDX 70 37 25 38 69 39 26 40 27 41 28 42 63 43 29 44 68 45 62 46
REMARK SMILES IDX 64 47 30 48 67 49 61 50 60 51 31 53 53 54 38 55 52 56 39 57
REMARK SMILES IDX 42 58 51 59 65 60 40 61 41 62 50 64 66 65 43 66 32 67 33 68
REMARK SMILES IDX 37 69 34 70 36 71 35 72 54 73 55 74 59 75 56 76 58 77 57 78
REMARK SMILES IDX 44 79 45 80 49 81 46 82 48 83 47 84
REMARK H PARENT 13 7 75 27 20 33 64 52 42 63
REMARK Flexibility Score: inf
ROOT
ATOM      1  C   UNL A   1      36.426  22.254  25.466  1.00  0.00     0.002 C 
ENDROOT
BRANCH   1   2
ATOM      2  C   UNL A   1      35.934  23.666  25.104  1.00  0.00     0.021 C 
BRANCH   2   3
ATOM      3  C   UNL A   1      34.508  23.692  24.545  1.00  0.00     0.116 C 
BRANCH   3   4
ATOM      4  N   UNL A   1      33.564  23.414  25.609  1.00  0.00    -0.352 N 
ATOM      5  C   UNL A   1      32.531  24.095  26.166  1.00  0.00     0.251 C 
ATOM      6  O   UNL A   1      32.009  23.566  27.151  1.00  0.00    -0.269 OA
ATOM      7  H   UNL A   1      33.705  22.530  26.021  1.00  0.00     0.163 HD
BRANCH   5   8
ATOM      8  C   UNL A   1      31.958  25.368  25.583  1.00  0.00     0.047 C 
ATOM      9  C   UNL A   1      31.284  25.380  24.411  1.00  0.00     0.022 C 
BRANCH   9  10
ATOM     10  C   UNL A   1      30.533  26.491  23.786  1.00  0.00    -0.025 A 
ATOM     11  C   UNL A   1      28.982  28.640  22.852  1.00  0.00     0.067 A 
ATOM     12  C   UNL A   1      30.360  28.622  22.626  1.00  0.00     0.021 A 
ATOM     13  C   UNL A   1      28.359  27.572  23.497  1.00  0.00     0.021 A 
ATOM     14  C   UNL A   1      31.126  27.540  23.074  1.00  0.00     0.009 A 
ATOM     15  C   UNL A   1      29.137  26.502  23.956  1.00  0.00     0.009 A 
BRANCH  11  16
ATOM     16  S   UNL A   1      28.033  30.059  22.353  1.00  0.00     0.175 S 
ATOM     17  C   UNL A   1      29.002  31.468  22.817  1.00  0.00     0.163 C 
ATOM     18  O   UNL A   1      26.832  30.082  23.171  1.00  0.00    -0.224 OA
ATOM     19  O   UNL A   1      27.955  30.017  20.908  1.00  0.00    -0.224 OA
ENDBRANCH  11  16
ENDBRANCH   9  10
BRANCH   8  20
ATOM     20  C   UNL A   1      32.322  26.634  26.271  1.00  0.00    -0.013 A 
ATOM     21  C   UNL A   1      33.608  27.164  26.057  1.00  0.00     0.013 A 
ATOM     22  C   UNL A   1      31.415  27.357  27.057  1.00  0.00     0.013 A 
ATOM     23  C   UNL A   1      33.968  28.401  26.584  1.00  0.00     0.047 A 
ATOM     24  C   UNL A   1      31.770  28.609  27.571  1.00  0.00     0.047 A 
ATOM     25  C   UNL A   1      33.040  29.125  27.320  1.00  0.00     0.115 A 
BRANCH  25  26
ATOM     26  O   UNL A   1      33.415  30.356  27.769  1.00  0.00    -0.508 OA
ATOM     27  H   UNL A   1      34.026  30.430  28.475  1.00  0.00     0.293 HD
ENDBRANCH  25  26
ENDBRANCH   8  20
ENDBRANCH   5   8
ENDBRANCH   3   4
ENDBRANCH   2   3
ENDBRANCH   1   2
BRANCH   1  28
ATOM     28  C   UNL A   1      36.962  21.431  24.288  1.00  0.00     0.002 C 
BRANCH  28  29
ATOM     29  C   UNL A   1      37.786  20.204  24.681  1.00  0.00     0.021 C 
BRANCH  29  30
ATOM     30  C   UNL A   1      38.764  20.442  25.826  1.00  0.00     0.116 C 
BRANCH  30  31
ATOM     31  N   UNL A   1      39.816  19.440  25.862  1.00  0.00    -0.352 N 
ATOM     32  C   UNL A   1      41.157  19.602  26.104  1.00  0.00     0.251 C 
ATOM     33  H   UNL A   1      39.526  18.515  25.686  1.00  0.00     0.163 HD
ATOM     34  O   UNL A   1      41.941  18.681  25.901  1.00  0.00    -0.269 OA
BRANCH  32  35
ATOM     35  C   UNL A   1      41.661  20.901  26.597  1.00  0.00     0.039 A 
ATOM     36  C   UNL A   1      42.105  21.849  25.672  1.00  0.00     0.014 A 
ATOM     37  C   UNL A   1      41.709  21.177  27.967  1.00  0.00     0.014 A 
ATOM     38  C   UNL A   1      42.551  23.095  26.118  1.00  0.00     0.010 A 
ATOM     39  C   UNL A   1      42.092  22.442  28.406  1.00  0.00     0.010 A 
ATOM     40  C   UNL A   1      42.523  23.410  27.486  1.00  0.00    -0.014 A 
BRANCH  40  41
ATOM     41  C   UNL A   1      42.955  24.742  27.976  1.00  0.00     0.031 A 
ATOM     42  C   UNL A   1      41.933  25.800  28.288  1.00  0.00     0.074 A 
ATOM     43  C   UNL A   1      44.268  25.021  28.081  1.00  0.00     0.049 A 
ATOM     44  N   UNL A   1      42.117  27.038  28.671  1.00  0.00    -0.248 NA
ATOM     45  C   UNL A   1      40.519  25.424  28.128  1.00  0.00     0.031 C 
ATOM     46  C   UNL A   1      45.361  24.095  27.773  1.00  0.00     0.029 A 
ATOM     47  N   UNL A   1      44.907  26.171  28.473  1.00  0.00    -0.354 N 
ATOM     48  C   UNL A   1      40.848  27.592  28.777  1.00  0.00     0.074 A 
ATOM     49  C   UNL A   1      39.905  26.571  28.373  1.00  0.00     0.031 C 
ATOM     50  C   UNL A   1      46.532  24.705  28.012  1.00  0.00     0.029 A 
ATOM     51  C   UNL A   1      46.278  26.072  28.454  1.00  0.00     0.049 A 
ATOM     52  H   UNL A   1      44.429  26.988  28.741  1.00  0.00     0.167 HD
ATOM     53  C   UNL A   1      40.494  28.833  29.190  1.00  0.00     0.031 A 
ATOM     54  C   UNL A   1      47.223  26.982  28.756  1.00  0.00     0.031 A 
ATOM     55  C   UNL A   1      41.429  29.843  29.607  1.00  0.00     0.049 A 
ATOM     56  C   UNL A   1      46.806  28.353  29.208  1.00  0.00     0.074 A 
ATOM     57  C   UNL A   1      41.167  31.111  30.097  1.00  0.00     0.029 A 
ATOM     58  N   UNL A   1      42.807  29.699  29.584  1.00  0.00    -0.354 N 
ATOM     59  N   UNL A   1      45.600  28.841  29.361  1.00  0.00    -0.248 NA
ATOM     60  C   UNL A   1      47.885  29.295  29.541  1.00  0.00     0.031 C 
ATOM     61  C   UNL A   1      42.390  31.751  30.327  1.00  0.00     0.029 A 
ATOM     62  C   UNL A   1      43.410  30.862  30.031  1.00  0.00     0.049 A 
ATOM     63  H   UNL A   1      43.287  28.890  29.294  1.00  0.00     0.167 HD
ATOM     64  C   UNL A   1      45.772  30.135  29.835  1.00  0.00     0.074 A 
ATOM     65  C   UNL A   1      47.199  30.350  29.956  1.00  0.00     0.031 C 
ATOM     66  C   UNL A   1      44.832  31.060  30.144  1.00  0.00     0.031 A 
BRANCH  53  67
ATOM     67  C   UNL A   1      39.029  29.166  29.204  1.00  0.00    -0.014 A 
ATOM     68  C   UNL A   1      38.257  29.005  30.367  1.00  0.00     0.009 A 
ATOM     69  C   UNL A   1      38.416  29.676  28.050  1.00  0.00     0.009 A 
ATOM     70  C   UNL A   1      36.895  29.310  30.361  1.00  0.00     0.001 A 
ATOM     71  C   UNL A   1      37.061  30.009  28.055  1.00  0.00     0.001 A 
ATOM     72  C   UNL A   1      36.300  29.817  29.207  1.00  0.00     0.000 A 
ENDBRANCH  53  67
BRANCH  54  73
ATOM     73  C   UNL A   1      48.661  26.620  28.660  1.00  0.00    -0.014 A 
ATOM     74  C   UNL A   1      49.333  26.082  29.767  1.00  0.00     0.009 A 
ATOM     75  C   UNL A   1      49.368  26.813  27.464  1.00  0.00     0.009 A 
ATOM     76  C   UNL A   1      50.690  25.768  29.688  1.00  0.00     0.001 A 
ATOM     77  C   UNL A   1      50.721  26.473  27.378  1.00  0.00     0.001 A 
ATOM     78  C   UNL A   1      51.383  25.960  28.493  1.00  0.00     0.000 A 
ENDBRANCH  54  73
BRANCH  66  79
ATOM     79  C   UNL A   1      45.317  32.380  30.675  1.00  0.00    -0.014 A 
ATOM     80  C   UNL A   1      45.651  33.434  29.812  1.00  0.00     0.009 A 
ATOM     81  C   UNL A   1      45.401  32.580  32.062  1.00  0.00     0.009 A 
ATOM     82  C   UNL A   1      46.090  34.655  30.328  1.00  0.00     0.001 A 
ATOM     83  C   UNL A   1      45.813  33.811  32.575  1.00  0.00     0.001 A 
ATOM     84  C   UNL A   1      46.166  34.843  31.708  1.00  0.00     0.000 A 
ENDBRANCH  66  79
ENDBRANCH  40  41
ENDBRANCH  32  35
ENDBRANCH  30  31
ENDBRANCH  29  30
ENDBRANCH  28  29
ENDBRANCH   1  28
TORSDOF 17
ENDMDL
MODEL 2
REMARK VINA RESULT:     -11.6      3.035      8.195
REMARK SMILES CS(=O)(=O)c1ccc(/C=C(/C(=O)NCCCCCCNC(=O)c2ccc(-c3c4nc(c(-c5ccccc5)c5ccc([nH]5)c(-c5ccccc5)c5nc(c(-c6ccccc6)c6ccc3[nH]6)C=C5)C=C4)cc2)c2ccc(O)cc2)cc1
REMARK SMILES IDX 16 1 15 2 14 3 13 4 11 5 12 6 10 8 9 9 8 10 5 11 6 12 79 13
REMARK SMILES IDX 7 14 78 15 2 16 1 17 3 18 4 19 71 20 72 21 77 22 73 23 76 24
REMARK SMILES IDX 74 25 75 26 17 28 18 29 19 30 20 31 21 32 22 34 23 35 24 36
REMARK SMILES IDX 70 37 25 38 69 39 26 40 27 41 28 42 63 43 29 44 68 45 62 46
REMARK SMILES IDX 64 47 30 48 67 49 61 50 60 51 31 53 53 54 38 55 52 56 39 57
REMARK SMILES IDX 42 58 51 59 65 60 40 61 41 62 50 64 66 65 43 66 32 67 33 68
REMARK SMILES IDX 37 69 34 70 36 71 35 72 54 73 55 74 59 75 56 76 58 77 57 78
REMARK SMILES IDX 44 79 45 80 49 81 46 82 48 83 47 84
REMARK H PARENT 13 7 75 27 20 33 64 52 42 63
REMARK Flexibility Score: inf
ROOT
ATOM      1  C   UNL A   1      31.205  27.713  25.568  1.00  0.00     0.002 C 
ENDROOT
BRANCH   1   2
ATOM      2  C   UNL A   1      30.396  26.908  24.535  1.00  0.00     0.021 C 
BRANCH   2   3
ATOM      3  C   UNL A   1      31.009  25.543  24.208  1.00  0.00     0.116 C 
BRANCH   3   4
ATOM      4  N   UNL A   1      31.860  25.660  23.040  1.00  0.00    -0.352 N 
ATOM      5  C   UNL A   1      32.921  24.962  22.563  1.00  0.00     0.251 C 
ATOM      6  O   UNL A   1      33.468  25.434  21.563  1.00  0.00    -0.269 OA
ATOM      7  H   UNL A   1      31.611  26.419  22.463  1.00  0.00     0.163 HD
BRANCH   5   8
ATOM      8  C   UNL A   1      33.366  23.630  23.125  1.00  0.00     0.047 C 
ATOM      9  C   UNL A   1      32.522  22.580  23.237  1.00  0.00     0.022 C 
BRANCH   9  10
ATOM     10  C   UNL A   1      32.827  21.181  23.610  1.00  0.00    -0.025 A 
ATOM     11  C   UNL A   1      33.460  18.478  24.045  1.00  0.00     0.067 A 
ATOM     12  C   UNL A   1      34.067  19.471  24.817  1.00  0.00     0.021 A 
ATOM     13  C   UNL A   1      32.502  18.815  23.089  1.00  0.00     0.021 A 
ATOM     14  C   UNL A   1      33.734  20.814  24.612  1.00  0.00     0.009 A 
ATOM     15  C   UNL A   1      32.188  20.163  22.881  1.00  0.00     0.009 A 
BRANCH  11  16
ATOM     16  S   UNL A   1      33.954  16.783  24.255  1.00  0.00     0.175 S 
ATOM     17  C   UNL A   1      32.635  16.009  25.151  1.00  0.00     0.163 C 
ATOM     18  O   UNL A   1      35.118  16.778  25.126  1.00  0.00    -0.224 OA
ATOM     19  O   UNL A   1      34.007  16.200  22.932  1.00  0.00    -0.224 OA
ENDBRANCH  11  16
ENDBRANCH   9  10
BRANCH   8  20
ATOM     20  C   UNL A   1      34.730  23.582  23.713  1.00  0.00    -0.013 A 
ATOM     21  C   UNL A   1      34.918  24.106  25.006  1.00  0.00     0.013 A 
ATOM     22  C   UNL A   1      35.812  22.970  23.068  1.00  0.00     0.013 A 
ATOM     23  C   UNL A   1      36.146  23.990  25.652  1.00  0.00     0.047 A 
ATOM     24  C   UNL A   1      37.041  22.837  23.725  1.00  0.00     0.047 A 
ATOM     25  C   UNL A   1      37.192  23.338  25.016  1.00  0.00     0.115 A 
BRANCH  25  26
ATOM     26  O   UNL A   1      38.359  23.197  25.707  1.00  0.00    -0.508 OA
ATOM     27  H   UNL A   1      38.405  23.457  26.606  1.00  0.00     0.293 HD
ENDBRANCH  25  26
ENDBRANCH   8  20
ENDBRANCH   5   8
ENDBRANCH   3   4
ENDBRANCH   2   3
ENDBRANCH   1   2
BRANCH   1  28
ATOM     28  C   UNL A   1      32.379  28.514  24.992  1.00  0.00     0.002 C 
BRANCH  28  29
ATOM     29  C   UNL A   1      33.694  28.374  25.760  1.00  0.00     0.021 C 
BRANCH  29  30
ATOM     30  C   UNL A   1      33.568  28.573  27.267  1.00  0.00     0.116 C 
BRANCH  30  31
ATOM     31  N   UNL A   1      33.512  29.980  27.628  1.00  0.00    -0.352 N 
ATOM     32  C   UNL A   1      34.454  30.746  28.267  1.00  0.00     0.251 C 
ATOM     33  H   UNL A   1      32.682  30.448  27.380  1.00  0.00     0.163 HD
ATOM     34  O   UNL A   1      34.170  31.869  28.673  1.00  0.00    -0.269 OA
BRANCH  32  35
ATOM     35  C   UNL A   1      35.814  30.209  28.481  1.00  0.00     0.039 A 
ATOM     36  C   UNL A   1      36.720  30.216  27.417  1.00  0.00     0.014 A 
ATOM     37  C   UNL A   1      36.189  29.686  29.722  1.00  0.00     0.014 A 
ATOM     38  C   UNL A   1      38.019  29.745  27.611  1.00  0.00     0.010 A 
ATOM     39  C   UNL A   1      37.504  29.277  29.932  1.00  0.00     0.010 A 
ATOM     40  C   UNL A   1      38.429  29.296  28.877  1.00  0.00    -0.014 A 
BRANCH  40  41
ATOM     41  C   UNL A   1      39.817  28.829  29.114  1.00  0.00     0.031 A 
ATOM     42  C   UNL A   1      40.831  29.754  29.727  1.00  0.00     0.074 A 
ATOM     43  C   UNL A   1      40.181  27.594  28.721  1.00  0.00     0.049 A 
ATOM     44  N   UNL A   1      42.103  29.549  29.959  1.00  0.00    -0.248 NA
ATOM     45  C   UNL A   1      40.360  31.095  30.110  1.00  0.00     0.031 C 
ATOM     46  C   UNL A   1      39.303  26.612  28.079  1.00  0.00     0.029 A 
ATOM     47  N   UNL A   1      41.393  26.954  28.799  1.00  0.00    -0.354 N 
ATOM     48  C   UNL A   1      42.585  30.736  30.494  1.00  0.00     0.074 A 
ATOM     49  C   UNL A   1      41.483  31.673  30.509  1.00  0.00     0.031 C 
ATOM     50  C   UNL A   1      39.998  25.488  27.847  1.00  0.00     0.029 A 
ATOM     51  C   UNL A   1      41.376  25.679  28.287  1.00  0.00     0.049 A 
ATOM     52  H   UNL A   1      42.198  27.369  29.185  1.00  0.00     0.167 HD
ATOM     53  C   UNL A   1      43.830  31.018  30.949  1.00  0.00     0.031 A 
ATOM     54  C   UNL A   1      42.361  24.767  28.182  1.00  0.00     0.031 A 
ATOM     55  C   UNL A   1      44.922  30.083  30.950  1.00  0.00     0.049 A 
ATOM     56  C   UNL A   1      43.734  25.105  28.691  1.00  0.00     0.074 A 
ATOM     57  C   UNL A   1      46.205  30.256  31.442  1.00  0.00     0.029 A 
ATOM     58  N   UNL A   1      44.861  28.799  30.433  1.00  0.00    -0.354 N 
ATOM     59  N   UNL A   1      44.159  26.212  29.250  1.00  0.00    -0.248 NA
ATOM     60  C   UNL A   1      44.762  24.062  28.564  1.00  0.00     0.031 C 
ATOM     61  C   UNL A   1      46.932  29.089  31.181  1.00  0.00     0.029 A 
ATOM     62  C   UNL A   1      46.087  28.174  30.575  1.00  0.00     0.049 A 
ATOM     63  H   UNL A   1      44.062  28.390  30.026  1.00  0.00     0.167 HD
ATOM     64  C   UNL A   1      45.491  25.990  29.567  1.00  0.00     0.074 A 
ATOM     65  C   UNL A   1      45.801  24.637  29.150  1.00  0.00     0.031 C 
ATOM     66  C   UNL A   1      46.379  26.828  30.154  1.00  0.00     0.031 A 
BRANCH  53  67
ATOM     67  C   UNL A   1      44.074  32.403  31.480  1.00  0.00    -0.014 A 
ATOM     68  C   UNL A   1      43.884  32.705  32.839  1.00  0.00     0.009 A 
ATOM     69  C   UNL A   1      44.528  33.413  30.618  1.00  0.00     0.009 A 
ATOM     70  C   UNL A   1      44.107  33.998  33.314  1.00  0.00     0.001 A 
ATOM     71  C   UNL A   1      44.779  34.698  31.102  1.00  0.00     0.001 A 
ATOM     72  C   UNL A   1      44.558  34.992  32.447  1.00  0.00     0.000 A 
ENDBRANCH  53  67
BRANCH  54  73
ATOM     73  C   UNL A   1      42.081  23.436  27.586  1.00  0.00    -0.014 A 
ATOM     74  C   UNL A   1      42.399  23.176  26.244  1.00  0.00     0.009 A 
ATOM     75  C   UNL A   1      41.493  22.419  28.353  1.00  0.00     0.009 A 
ATOM     76  C   UNL A   1      42.110  21.935  25.675  1.00  0.00     0.001 A 
ATOM     77  C   UNL A   1      41.230  21.168  27.789  1.00  0.00     0.001 A 
ATOM     78  C   UNL A   1      41.530  20.931  26.448  1.00  0.00     0.000 A 
ENDBRANCH  54  73
BRANCH  66  79
ATOM     79  C   UNL A   1      47.760  26.296  30.411  1.00  0.00    -0.014 A 
ATOM     80  C   UNL A   1      48.121  25.778  31.664  1.00  0.00     0.009 A 
ATOM     81  C   UNL A   1      48.701  26.278  29.369  1.00  0.00     0.009 A 
ATOM     82  C   UNL A   1      49.408  25.280  31.877  1.00  0.00     0.001 A 
ATOM     83  C   UNL A   1      49.978  25.754  29.577  1.00  0.00     0.001 A 
ATOM     84  C   UNL A   1      50.332  25.264  30.832  1.00  0.00     0.000 A 
ENDBRANCH  66  79
ENDBRANCH  40  41
ENDBRANCH  32  35
ENDBRANCH  30  31
ENDBRANCH  29  30
ENDBRANCH  28  29
ENDBRANCH   1  28
TORSDOF 17
ENDMDL
MODEL 3
REMARK VINA RESULT:     -11.4      0.342      5.808
REMARK SMILES CS(=O)(=O)c1ccc(/C=C(/C(=O)NCCCCCCNC(=O)c2ccc(-c3c4nc(c(-c5ccccc5)c5ccc([nH]5)c(-c5ccccc5)c5nc(c(-c6ccccc6)c6ccc3[nH]6)C=C5)C=C4)cc2)c2ccc(O)cc2)cc1
REMARK SMILES IDX 16 1 15 2 14 3 13 4 11 5 12 6 10 8 9 9 8 10 5 11 6 12 79 13
REMARK SMILES IDX 7 14 78 15 2 16 1 17 3 18 4 19 71 20 72 21 77 22 73 23 76 24
REMARK SMILES IDX 74 25 75 26 17 28 18 29 19 30 20 31 21 32 22 34 23 35 24 36
REMARK SMILES IDX 70 37 25 38 69 39 26 40 27 41 28 42 63 43 29 44 68 45 62 46
REMARK SMILES IDX 64 47 30 48 67 49 61 50 60 51 31 53 53 54 38 55 52 56 39 57
REMARK SMILES IDX 42 58 51 59 65 60 40 61 41 62 50 64 66 65 43 66 32 67 33 68
REMARK SMILES IDX 37 69 34 70 36 71 35 72 54 73 55 74 59 75 56 76 58 77 57 78
REMARK SMILES IDX 44 79 45 80 49 81 46 82 48 83 47 84
REMARK H PARENT 13 7 75 27 20 33 64 52 42 63
REMARK Flexibility Score: inf
ROOT
ATOM      1  C   UNL A   1      36.102  21.790  24.315  1.00  0.00     0.002 C 
ENDROOT
BRANCH   1   2
ATOM      2  C   UNL A   1      35.489  23.123  24.779  1.00  0.00     0.021 C 
BRANCH   2   3
ATOM      3  C   UNL A   1      34.018  23.289  24.384  1.00  0.00     0.116 C 
BRANCH   3   4
ATOM      4  N   UNL A   1      33.183  23.158  25.562  1.00  0.00    -0.352 N 
ATOM      5  C   UNL A   1      32.291  23.966  26.190  1.00  0.00     0.251 C 
ATOM      6  O   UNL A   1      31.838  23.540  27.255  1.00  0.00    -0.269 OA
ATOM      7  H   UNL A   1      33.286  22.286  26.006  1.00  0.00     0.163 HD
BRANCH   5   8
ATOM      8  C   UNL A   1      31.778  25.262  25.601  1.00  0.00     0.047 C 
ATOM      9  C   UNL A   1      31.119  25.302  24.420  1.00  0.00     0.022 C 
BRANCH   9  10
ATOM     10  C   UNL A   1      30.421  26.443  23.787  1.00  0.00    -0.025 A 
ATOM     11  C   UNL A   1      28.965  28.648  22.833  1.00  0.00     0.067 A 
ATOM     12  C   UNL A   1      30.350  28.599  22.662  1.00  0.00     0.021 A 
ATOM     13  C   UNL A   1      28.289  27.585  23.432  1.00  0.00     0.021 A 
ATOM     14  C   UNL A   1      31.069  27.490  23.121  1.00  0.00     0.009 A 
ATOM     15  C   UNL A   1      29.020  26.487  23.901  1.00  0.00     0.009 A 
BRANCH  11  16
ATOM     16  S   UNL A   1      28.073  30.100  22.324  1.00  0.00     0.175 S 
ATOM     17  C   UNL A   1      29.100  31.472  22.770  1.00  0.00     0.163 C 
ATOM     18  O   UNL A   1      26.877  30.180  23.146  1.00  0.00    -0.224 OA
ATOM     19  O   UNL A   1      27.986  30.047  20.880  1.00  0.00    -0.224 OA
ENDBRANCH  11  16
ENDBRANCH   9  10
BRANCH   8  20
ATOM     20  C   UNL A   1      32.185  26.511  26.293  1.00  0.00    -0.013 A 
ATOM     21  C   UNL A   1      33.493  26.990  26.092  1.00  0.00     0.013 A 
ATOM     22  C   UNL A   1      31.300  27.270  27.071  1.00  0.00     0.013 A 
ATOM     23  C   UNL A   1      33.898  28.211  26.625  1.00  0.00     0.047 A 
ATOM     24  C   UNL A   1      31.701  28.506  27.591  1.00  0.00     0.047 A 
ATOM     25  C   UNL A   1      32.993  28.971  27.352  1.00  0.00     0.115 A 
BRANCH  25  26
ATOM     26  O   UNL A   1      33.412  30.185  27.806  1.00  0.00    -0.508 OA
ATOM     27  H   UNL A   1      34.161  30.596  27.421  1.00  0.00     0.293 HD
ENDBRANCH  25  26
ENDBRANCH   8  20
ENDBRANCH   5   8
ENDBRANCH   3   4
ENDBRANCH   2   3
ENDBRANCH   1   2
BRANCH   1  28
ATOM     28  C   UNL A   1      37.618  21.670  24.510  1.00  0.00     0.002 C 
BRANCH  28  29
ATOM     29  C   UNL A   1      38.124  20.252  24.778  1.00  0.00     0.021 C 
BRANCH  29  30
ATOM     30  C   UNL A   1      38.893  20.094  26.086  1.00  0.00     0.116 C 
BRANCH  30  31
ATOM     31  N   UNL A   1      40.045  19.220  25.939  1.00  0.00    -0.352 N 
ATOM     32  C   UNL A   1      41.380  19.530  26.007  1.00  0.00     0.251 C 
ATOM     33  H   UNL A   1      39.838  18.273  25.765  1.00  0.00     0.163 HD
ATOM     34  O   UNL A   1      42.226  18.711  25.664  1.00  0.00    -0.269 OA
BRANCH  32  35
ATOM     35  C   UNL A   1      41.799  20.865  26.483  1.00  0.00     0.039 A 
ATOM     36  C   UNL A   1      42.075  21.862  25.543  1.00  0.00     0.014 A 
ATOM     37  C   UNL A   1      41.934  21.128  27.849  1.00  0.00     0.014 A 
ATOM     38  C   UNL A   1      42.438  23.139  25.975  1.00  0.00     0.010 A 
ATOM     39  C   UNL A   1      42.233  22.418  28.280  1.00  0.00     0.010 A 
ATOM     40  C   UNL A   1      42.494  23.434  27.347  1.00  0.00    -0.014 A 
BRANCH  40  41
ATOM     41  C   UNL A   1      42.838  24.795  27.826  1.00  0.00     0.031 A 
ATOM     42  C   UNL A   1      44.274  25.175  28.055  1.00  0.00     0.074 A 
ATOM     43  C   UNL A   1      41.854  25.669  28.114  1.00  0.00     0.049 A 
ATOM     44  N   UNL A   1      44.768  26.293  28.524  1.00  0.00    -0.248 NA
ATOM     45  C   UNL A   1      45.288  24.157  27.737  1.00  0.00     0.031 C 
ATOM     46  C   UNL A   1      40.419  25.410  27.971  1.00  0.00     0.029 A 
ATOM     47  N   UNL A   1      41.915  26.954  28.593  1.00  0.00    -0.354 N 
ATOM     48  C   UNL A   1      46.143  26.106  28.574  1.00  0.00     0.074 A 
ATOM     49  C   UNL A   1      46.403  24.752  28.135  1.00  0.00     0.031 C 
ATOM     50  C   UNL A   1      39.739  26.510  28.330  1.00  0.00     0.029 A 
ATOM     51  C   UNL A   1      40.682  27.536  28.761  1.00  0.00     0.049 A 
ATOM     52  H   UNL A   1      42.761  27.413  28.797  1.00  0.00     0.167 HD
ATOM     53  C   UNL A   1      47.107  26.986  28.937  1.00  0.00     0.031 A 
ATOM     54  C   UNL A   1      40.349  28.760  29.215  1.00  0.00     0.031 A 
ATOM     55  C   UNL A   1      46.852  28.337  29.359  1.00  0.00     0.049 A 
ATOM     56  C   UNL A   1      41.437  29.717  29.615  1.00  0.00     0.074 A 
ATOM     57  C   UNL A   1      47.764  29.324  29.692  1.00  0.00     0.029 A 
ATOM     58  N   UNL A   1      45.590  28.892  29.505  1.00  0.00    -0.354 N 
ATOM     59  N   UNL A   1      42.736  29.545  29.599  1.00  0.00    -0.248 NA
ATOM     60  C   UNL A   1      41.010  31.043  30.084  1.00  0.00     0.031 C 
ATOM     61  C   UNL A   1      47.051  30.462  30.083  1.00  0.00     0.029 A 
ATOM     62  C   UNL A   1      45.699  30.200  29.943  1.00  0.00     0.049 A 
ATOM     63  H   UNL A   1      44.742  28.425  29.323  1.00  0.00     0.167 HD
ATOM     64  C   UNL A   1      43.283  30.746  30.028  1.00  0.00     0.074 A 
ATOM     65  C   UNL A   1      42.174  31.644  30.283  1.00  0.00     0.031 C 
ATOM     66  C   UNL A   1      44.586  31.079  30.192  1.00  0.00     0.031 A 
BRANCH  53  67
ATOM     67  C   UNL A   1      48.531  26.506  28.898  1.00  0.00    -0.014 A 
ATOM     68  C   UNL A   1      49.327  26.684  27.754  1.00  0.00     0.009 A 
ATOM     69  C   UNL A   1      49.095  25.897  30.029  1.00  0.00     0.009 A 
ATOM     70  C   UNL A   1      50.645  26.225  27.731  1.00  0.00     0.001 A 
ATOM     71  C   UNL A   1      50.422  25.465  30.013  1.00  0.00     0.001 A 
ATOM     72  C   UNL A   1      51.193  25.621  28.862  1.00  0.00     0.000 A 
ENDBRANCH  53  67
BRANCH  54  73
ATOM     73  C   UNL A   1      38.921  29.159  29.297  1.00  0.00    -0.014 A 
ATOM     74  C   UNL A   1      38.282  29.742  28.192  1.00  0.00     0.009 A 
ATOM     75  C   UNL A   1      38.190  28.962  30.478  1.00  0.00     0.009 A 
ATOM     76  C   UNL A   1      36.948  30.144  28.277  1.00  0.00     0.001 A 
ATOM     77  C   UNL A   1      36.847  29.340  30.552  1.00  0.00     0.001 A 
ATOM     78  C   UNL A   1      36.230  29.939  29.454  1.00  0.00     0.000 A 
ENDBRANCH  54  73
BRANCH  66  79
ATOM     79  C   UNL A   1      44.885  32.482  30.639  1.00  0.00    -0.014 A 
ATOM     80  C   UNL A   1      44.882  32.829  31.999  1.00  0.00     0.009 A 
ATOM     81  C   UNL A   1      45.214  33.458  29.686  1.00  0.00     0.009 A 
ATOM     82  C   UNL A   1      45.173  34.137  32.392  1.00  0.00     0.001 A 
ATOM     83  C   UNL A   1      45.532  34.757  30.084  1.00  0.00     0.001 A 
ATOM     84  C   UNL A   1      45.502  35.098  31.435  1.00  0.00     0.000 A 
ENDBRANCH  66  79
ENDBRANCH  40  41
ENDBRANCH  32  35
ENDBRANCH  30  31
ENDBRANCH  29  30
ENDBRANCH  28  29
ENDBRANCH   1  28
TORSDOF 17
ENDMDL
