MODEL 1
REMARK VINA RESULT:     -12.9      0.000      0.000
REMARK SMILES CC1(C)O[C@@H]2C[C@@H]3[C@H]4CCC5=CC(=O)C=C[C@@]5(C)[C@]4(F)[C@H](O)C[C@]3(C)[C@]2(C(=O)NCCCCCCNC(=O)c2ccc(-c3c4nc(c(-c5ccccc5)c5ccc([nH]5)c(-c5ccccc5)c5nc(c(-c6ccccc6)c6ccc3[nH]6)C=C5)C=C4)cc2)O1
REMARK SMILES IDX 33 1 32 2 31 3 30 4 29 5 27 6 28 7 26 9 1 10 2 11 4 12 87 13
REMARK SMILES IDX 3 14 5 15 6 16 24 17 7 18 23 19 25 20 8 21 21 22 9 23 19 24
REMARK SMILES IDX 10 25 17 26 20 27 11 28 16 29 18 30 12 31 15 32 13 33 14 34
REMARK SMILES IDX 22 35 34 37 35 38 36 39 37 40 38 42 39 43 40 44 86 45 41 46
REMARK SMILES IDX 85 47 42 48 43 49 44 50 79 51 45 52 84 53 78 54 80 55 46 56
REMARK SMILES IDX 83 57 77 58 76 59 47 61 69 62 54 63 68 64 55 65 58 66 67 67
REMARK SMILES IDX 81 68 56 69 57 70 66 72 82 73 59 74 48 75 49 76 53 77 50 78
REMARK SMILES IDX 52 79 51 80 70 81 71 82 75 83 72 84 74 85 73 86 60 87 61 88
REMARK SMILES IDX 65 89 62 90 64 91 63 92
REMARK H PARENT 29 8 22 36 36 41 80 60 58 71
REMARK Flexibility Score: inf
ROOT
ATOM      1  C   UNL A   1      36.817  20.345  24.835  1.00  0.00     0.002 C 
ENDROOT
BRANCH   1   2
ATOM      2  C   UNL A   1      35.430  19.721  25.000  1.00  0.00     0.002 C 
BRANCH   2   3
ATOM      3  C   UNL A   1      34.283  20.724  25.141  1.00  0.00     0.021 C 
BRANCH   3   4
ATOM      4  C   UNL A   1      34.471  22.010  24.349  1.00  0.00     0.116 C 
BRANCH   4   5
ATOM      5  N   UNL A   1      33.354  22.233  23.472  1.00  0.00    -0.353 N 
ATOM      6  C   UNL A   1      32.423  23.205  23.442  1.00  0.00     0.255 C 
ATOM      7  O   UNL A   1      31.424  22.943  22.758  1.00  0.00    -0.272 OA
ATOM      8  H   UNL A   1      33.252  21.554  22.766  1.00  0.00     0.163 HD
BRANCH   6   9
ATOM      9  C   UNL A   1      32.516  24.518  24.223  1.00  0.00     0.181 C 
ATOM     10  C   UNL A   1      30.488  23.356  26.647  1.00  0.00     0.075 C 
ATOM     11  C   UNL A   1      31.270  24.594  26.213  1.00  0.00     0.164 C 
ATOM     12  O   UNL A   1      32.646  24.488  26.612  1.00  0.00    -0.344 OA
ATOM     13  O   UNL A   1      31.180  24.685  24.778  1.00  0.00    -0.331 OA
ATOM     14  C   UNL A   1      30.662  25.832  26.900  1.00  0.00     0.075 C 
ATOM     15  C   UNL A   1      33.448  24.770  25.453  1.00  0.00     0.164 C 
ATOM     16  C   UNL A   1      33.853  26.314  25.434  1.00  0.00     0.040 C 
ATOM     17  C   UNL A   1      32.960  25.715  23.264  1.00  0.00     0.014 C 
ATOM     18  C   UNL A   1      32.910  26.834  24.341  1.00  0.00     0.008 C 
ATOM     19  C   UNL A   1      32.216  26.108  21.972  1.00  0.00     0.046 C 
ATOM     20  C   UNL A   1      34.403  25.365  22.747  1.00  0.00     0.015 C 
ATOM     21  C   UNL A   1      31.908  28.009  24.265  1.00  0.00     0.035 C 
ATOM     22  C   UNL A   1      31.002  27.006  22.111  1.00  0.00     0.154 C 
ATOM     23  C   UNL A   1      32.288  29.237  25.079  1.00  0.00     0.012 C 
ATOM     24  C   UNL A   1      31.346  28.329  22.877  1.00  0.00     0.152 C 
ATOM     25  C   UNL A   1      31.005  30.014  25.376  1.00  0.00     0.032 C 
ATOM     26  C   UNL A   1      30.120  29.336  23.007  1.00  0.00     0.044 C 
ATOM     27  F   UNL A   1      32.357  28.954  22.188  1.00  0.00    -0.239 F 
ATOM     28  C   UNL A   1      30.264  30.389  24.122  1.00  0.00    -0.053 C 
ATOM     29  C   UNL A   1      29.891  30.076  21.691  1.00  0.00    -0.009 C 
ATOM     30  C   UNL A   1      28.784  28.584  23.319  1.00  0.00     0.024 C 
ATOM     31  C   UNL A   1      29.633  31.575  24.029  1.00  0.00     0.052 C 
ATOM     32  C   UNL A   1      29.028  31.100  21.617  1.00  0.00     0.048 C 
ATOM     33  C   UNL A   1      28.785  31.891  22.847  1.00  0.00     0.178 C 
ATOM     34  O   UNL A   1      28.014  32.842  22.853  1.00  0.00    -0.290 OA
BRANCH  22  35
ATOM     35  O   UNL A   1      29.976  26.227  22.714  1.00  0.00    -0.390 OA
ATOM     36  H   UNL A   1      30.349  25.717  23.452  1.00  0.00     0.211 HD
ENDBRANCH  22  35
ENDBRANCH   6   9
ENDBRANCH   4   5
ENDBRANCH   3   4
ENDBRANCH   2   3
ENDBRANCH   1   2
BRANCH   1  37
ATOM     37  C   UNL A   1      37.986  19.364  24.945  1.00  0.00     0.021 C 
BRANCH  37  38
ATOM     38  C   UNL A   1      39.171  19.876  25.751  1.00  0.00     0.116 C 
BRANCH  38  39
ATOM     39  N   UNL A   1      40.252  18.908  25.804  1.00  0.00    -0.352 N 
ATOM     40  C   UNL A   1      41.584  19.130  25.993  1.00  0.00     0.251 C 
ATOM     41  H   UNL A   1      39.989  17.966  25.689  1.00  0.00     0.163 HD
ATOM     42  O   UNL A   1      42.397  18.209  25.817  1.00  0.00    -0.269 OA
BRANCH  40  43
ATOM     43  C   UNL A   1      42.064  20.468  26.379  1.00  0.00     0.039 A 
ATOM     44  C   UNL A   1      42.400  21.377  25.375  1.00  0.00     0.014 A 
ATOM     45  C   UNL A   1      42.186  20.828  27.726  1.00  0.00     0.014 A 
ATOM     46  C   UNL A   1      42.818  22.662  25.719  1.00  0.00     0.010 A 
ATOM     47  C   UNL A   1      42.527  22.135  28.066  1.00  0.00     0.010 A 
ATOM     48  C   UNL A   1      42.858  23.061  27.066  1.00  0.00    -0.014 A 
BRANCH  48  49
ATOM     49  C   UNL A   1      43.259  24.441  27.434  1.00  0.00     0.031 A 
ATOM     50  C   UNL A   1      44.703  24.858  27.362  1.00  0.00     0.074 A 
ATOM     51  C   UNL A   1      42.321  25.317  27.848  1.00  0.00     0.049 A 
ATOM     52  N   UNL A   1      45.239  26.020  27.636  1.00  0.00    -0.248 NA
ATOM     53  C   UNL A   1      45.674  23.833  26.942  1.00  0.00     0.031 C 
ATOM     54  C   UNL A   1      40.893  25.025  27.992  1.00  0.00     0.029 A 
ATOM     55  N   UNL A   1      42.428  26.634  28.215  1.00  0.00    -0.354 N 
ATOM     56  C   UNL A   1      46.604  25.866  27.420  1.00  0.00     0.074 A 
ATOM     57  C   UNL A   1      46.822  24.484  27.055  1.00  0.00     0.031 C 
ATOM     58  C   UNL A   1      40.252  26.143  28.374  1.00  0.00     0.029 A 
ATOM     59  C   UNL A   1      41.227  27.214  28.542  1.00  0.00     0.049 A 
ATOM     60  H   UNL A   1      43.286  27.118  28.242  1.00  0.00     0.167 HD
ATOM     61  C   UNL A   1      47.584  26.798  27.489  1.00  0.00     0.031 A 
ATOM     62  C   UNL A   1      40.944  28.470  28.935  1.00  0.00     0.031 A 
ATOM     63  C   UNL A   1      47.370  28.174  27.852  1.00  0.00     0.049 A 
ATOM     64  C   UNL A   1      42.062  29.471  29.047  1.00  0.00     0.074 A 
ATOM     65  C   UNL A   1      48.296  29.199  27.930  1.00  0.00     0.029 A 
ATOM     66  N   UNL A   1      46.141  28.715  28.195  1.00  0.00    -0.354 N 
ATOM     67  N   UNL A   1      43.337  29.322  28.782  1.00  0.00    -0.248 NA
ATOM     68  C   UNL A   1      41.694  30.820  29.500  1.00  0.00     0.031 C 
ATOM     69  C   UNL A   1      47.635  30.352  28.366  1.00  0.00     0.029 A 
ATOM     70  C   UNL A   1      46.288  30.057  28.503  1.00  0.00     0.049 A 
ATOM     71  H   UNL A   1      45.291  28.220  28.218  1.00  0.00     0.167 HD
ATOM     72  C   UNL A   1      43.916  30.565  29.001  1.00  0.00     0.074 A 
ATOM     73  C   UNL A   1      42.849  31.461  29.397  1.00  0.00     0.031 C 
ATOM     74  C   UNL A   1      45.215  30.936  28.887  1.00  0.00     0.031 A 
BRANCH  61  75
ATOM     75  C   UNL A   1      48.983  26.361  27.151  1.00  0.00    -0.014 A 
ATOM     76  C   UNL A   1      49.456  26.415  25.830  1.00  0.00     0.009 A 
ATOM     77  C   UNL A   1      49.855  25.944  28.169  1.00  0.00     0.009 A 
ATOM     78  C   UNL A   1      50.766  26.034  25.531  1.00  0.00     0.001 A 
ATOM     79  C   UNL A   1      51.173  25.591  27.870  1.00  0.00     0.001 A 
ATOM     80  C   UNL A   1      51.625  25.630  26.552  1.00  0.00     0.000 A 
ENDBRANCH  61  75
BRANCH  62  81
ATOM     81  C   UNL A   1      39.545  28.870  29.246  1.00  0.00    -0.014 A 
ATOM     82  C   UNL A   1      39.015  28.675  30.530  1.00  0.00     0.009 A 
ATOM     83  C   UNL A   1      38.716  29.402  28.245  1.00  0.00     0.009 A 
ATOM     84  C   UNL A   1      37.673  28.959  30.795  1.00  0.00     0.001 A 
ATOM     85  C   UNL A   1      37.385  29.719  28.522  1.00  0.00     0.001 A 
ATOM     86  C   UNL A   1      36.860  29.482  29.792  1.00  0.00     0.000 A 
ENDBRANCH  62  81
BRANCH  74  87
ATOM     87  C   UNL A   1      45.541  32.380  29.146  1.00  0.00    -0.014 A 
ATOM     88  C   UNL A   1      45.481  33.338  28.122  1.00  0.00     0.009 A 
ATOM     89  C   UNL A   1      45.892  32.790  30.441  1.00  0.00     0.009 A 
ATOM     90  C   UNL A   1      45.811  34.670  28.382  1.00  0.00     0.001 A 
ATOM     91  C   UNL A   1      46.189  34.127  30.705  1.00  0.00     0.001 A 
ATOM     92  C   UNL A   1      46.161  35.063  29.673  1.00  0.00     0.000 A 
ENDBRANCH  74  87
ENDBRANCH  48  49
ENDBRANCH  40  43
ENDBRANCH  38  39
ENDBRANCH  37  38
ENDBRANCH   1  37
TORSDOF 14
ENDMDL
MODEL 2
REMARK VINA RESULT:     -12.8      4.619     10.364
REMARK SMILES CC1(C)O[C@@H]2C[C@@H]3[C@H]4CCC5=CC(=O)C=C[C@@]5(C)[C@]4(F)[C@H](O)C[C@]3(C)[C@]2(C(=O)NCCCCCCNC(=O)c2ccc(-c3c4nc(c(-c5ccccc5)c5ccc([nH]5)c(-c5ccccc5)c5nc(c(-c6ccccc6)c6ccc3[nH]6)C=C5)C=C4)cc2)O1
REMARK SMILES IDX 33 1 32 2 31 3 30 4 29 5 27 6 28 7 26 9 1 10 2 11 4 12 87 13
REMARK SMILES IDX 3 14 5 15 6 16 24 17 7 18 23 19 25 20 8 21 21 22 9 23 19 24
REMARK SMILES IDX 10 25 17 26 20 27 11 28 16 29 18 30 12 31 15 32 13 33 14 34
REMARK SMILES IDX 22 35 34 37 35 38 36 39 37 40 38 42 39 43 40 44 86 45 41 46
REMARK SMILES IDX 85 47 42 48 43 49 44 50 79 51 45 52 84 53 78 54 80 55 46 56
REMARK SMILES IDX 83 57 77 58 76 59 47 61 69 62 54 63 68 64 55 65 58 66 67 67
REMARK SMILES IDX 81 68 56 69 57 70 66 72 82 73 59 74 48 75 49 76 53 77 50 78
REMARK SMILES IDX 52 79 51 80 70 81 71 82 75 83 72 84 74 85 73 86 60 87 61 88
REMARK SMILES IDX 65 89 62 90 64 91 63 92
REMARK H PARENT 29 8 22 36 36 41 80 60 58 71
REMARK Flexibility Score: inf
ROOT
ATOM      1  C   UNL A   1      31.419  30.760  26.310  1.00  0.00     0.002 C 
ENDROOT
BRANCH   1   2
ATOM      2  C   UNL A   1      31.012  30.295  24.911  1.00  0.00     0.002 C 
BRANCH   2   3
ATOM      3  C   UNL A   1      31.594  28.947  24.483  1.00  0.00     0.021 C 
BRANCH   3   4
ATOM      4  C   UNL A   1      31.509  27.859  25.544  1.00  0.00     0.116 C 
BRANCH   4   5
ATOM      5  N   UNL A   1      30.644  26.795  25.112  1.00  0.00    -0.353 N 
ATOM      6  C   UNL A   1      30.910  25.566  24.634  1.00  0.00     0.255 C 
ATOM      7  O   UNL A   1      29.957  25.013  24.068  1.00  0.00    -0.272 OA
ATOM      8  H   UNL A   1      29.684  27.003  25.180  1.00  0.00     0.163 HD
BRANCH   6   9
ATOM      9  C   UNL A   1      32.281  24.888  24.703  1.00  0.00     0.181 C 
ATOM     10  C   UNL A   1      32.899  25.545  21.458  1.00  0.00     0.075 C 
ATOM     11  C   UNL A   1      33.493  24.865  22.690  1.00  0.00     0.164 C 
ATOM     12  O   UNL A   1      34.145  25.827  23.533  1.00  0.00    -0.344 OA
ATOM     13  O   UNL A   1      32.411  24.239  23.406  1.00  0.00    -0.331 OA
ATOM     14  C   UNL A   1      34.542  23.834  22.231  1.00  0.00     0.075 C 
ATOM     15  C   UNL A   1      33.646  25.632  24.866  1.00  0.00     0.164 C 
ATOM     16  C   UNL A   1      34.622  24.662  25.676  1.00  0.00     0.040 C 
ATOM     17  C   UNL A   1      32.348  23.872  25.932  1.00  0.00     0.014 C 
ATOM     18  C   UNL A   1      33.795  23.370  25.670  1.00  0.00     0.008 C 
ATOM     19  C   UNL A   1      31.353  22.713  26.149  1.00  0.00     0.046 C 
ATOM     20  C   UNL A   1      32.176  24.732  27.236  1.00  0.00     0.015 C 
ATOM     21  C   UNL A   1      34.104  21.905  25.284  1.00  0.00     0.035 C 
ATOM     22  C   UNL A   1      31.611  21.422  25.396  1.00  0.00     0.154 C 
ATOM     23  C   UNL A   1      35.536  21.459  25.535  1.00  0.00     0.012 C 
ATOM     24  C   UNL A   1      33.049  20.866  25.673  1.00  0.00     0.152 C 
ATOM     25  C   UNL A   1      35.827  20.280  24.606  1.00  0.00     0.032 C 
ATOM     26  C   UNL A   1      33.357  19.483  24.948  1.00  0.00     0.044 C 
ATOM     27  F   UNL A   1      33.168  20.688  27.030  1.00  0.00    -0.239 F 
ATOM     28  C   UNL A   1      34.853  19.150  24.800  1.00  0.00    -0.053 C 
ATOM     29  C   UNL A   1      32.691  18.328  25.693  1.00  0.00    -0.009 C 
ATOM     30  C   UNL A   1      32.779  19.450  23.494  1.00  0.00     0.024 C 
ATOM     31  C   UNL A   1      35.264  17.870  24.719  1.00  0.00     0.052 C 
ATOM     32  C   UNL A   1      32.958  17.054  25.369  1.00  0.00     0.048 C 
ATOM     33  C   UNL A   1      34.282  16.754  24.772  1.00  0.00     0.178 C 
ATOM     34  O   UNL A   1      34.597  15.614  24.455  1.00  0.00    -0.290 OA
BRANCH  22  35
ATOM     35  O   UNL A   1      31.334  21.680  24.024  1.00  0.00    -0.390 OA
ATOM     36  H   UNL A   1      30.398  21.495  23.843  1.00  0.00     0.211 HD
ENDBRANCH  22  35
ENDBRANCH   6   9
ENDBRANCH   4   5
ENDBRANCH   3   4
ENDBRANCH   2   3
ENDBRANCH   1   2
BRANCH   1  37
ATOM     37  C   UNL A   1      31.355  32.272  26.534  1.00  0.00     0.021 C 
BRANCH  37  38
ATOM     38  C   UNL A   1      32.606  32.877  27.155  1.00  0.00     0.116 C 
BRANCH  38  39
ATOM     39  N   UNL A   1      32.370  34.217  27.661  1.00  0.00    -0.352 N 
ATOM     40  C   UNL A   1      33.023  34.877  28.659  1.00  0.00     0.251 C 
ATOM     41  H   UNL A   1      31.642  34.716  27.225  1.00  0.00     0.163 HD
ATOM     42  O   UNL A   1      32.569  35.945  29.097  1.00  0.00    -0.269 OA
BRANCH  40  43
ATOM     43  C   UNL A   1      34.255  34.312  29.238  1.00  0.00     0.039 A 
ATOM     44  C   UNL A   1      34.154  33.493  30.363  1.00  0.00     0.014 A 
ATOM     45  C   UNL A   1      35.507  34.587  28.676  1.00  0.00     0.014 A 
ATOM     46  C   UNL A   1      35.303  32.916  30.902  1.00  0.00     0.010 A 
ATOM     47  C   UNL A   1      36.642  33.948  29.165  1.00  0.00     0.010 A 
ATOM     48  C   UNL A   1      36.553  33.115  30.291  1.00  0.00    -0.014 A 
BRANCH  48  49
ATOM     49  C   UNL A   1      37.772  32.467  30.835  1.00  0.00     0.031 A 
ATOM     50  C   UNL A   1      38.419  32.994  32.086  1.00  0.00     0.074 A 
ATOM     51  C   UNL A   1      38.303  31.408  30.191  1.00  0.00     0.049 A 
ATOM     52  N   UNL A   1      39.482  32.554  32.712  1.00  0.00    -0.248 NA
ATOM     53  C   UNL A   1      37.805  34.179  32.708  1.00  0.00     0.031 C 
ATOM     54  C   UNL A   1      37.787  30.822  28.951  1.00  0.00     0.029 A 
ATOM     55  N   UNL A   1      39.392  30.631  30.496  1.00  0.00    -0.354 N 
ATOM     56  C   UNL A   1      39.659  33.403  33.798  1.00  0.00     0.074 A 
ATOM     57  C   UNL A   1      38.636  34.422  33.711  1.00  0.00     0.031 C 
ATOM     58  C   UNL A   1      38.533  29.753  28.627  1.00  0.00     0.029 A 
ATOM     59  C   UNL A   1      39.601  29.604  29.609  1.00  0.00     0.049 A 
ATOM     60  H   UNL A   1      39.968  30.795  31.278  1.00  0.00     0.167 HD
ATOM     61  C   UNL A   1      40.572  33.326  34.795  1.00  0.00     0.031 A 
ATOM     62  C   UNL A   1      40.549  28.648  29.590  1.00  0.00     0.031 A 
ATOM     63  C   UNL A   1      41.591  32.314  34.884  1.00  0.00     0.049 A 
ATOM     64  C   UNL A   1      41.578  28.616  30.687  1.00  0.00     0.074 A 
ATOM     65  C   UNL A   1      42.548  32.139  35.867  1.00  0.00     0.029 A 
ATOM     66  N   UNL A   1      41.780  31.304  33.954  1.00  0.00    -0.354 N 
ATOM     67  N   UNL A   1      41.694  29.393  31.737  1.00  0.00    -0.248 NA
ATOM     68  C   UNL A   1      42.599  27.562  30.601  1.00  0.00     0.031 C 
ATOM     69  C   UNL A   1      43.349  31.050  35.508  1.00  0.00     0.029 A 
ATOM     70  C   UNL A   1      42.851  30.512  34.333  1.00  0.00     0.049 A 
ATOM     71  H   UNL A   1      41.235  31.170  33.146  1.00  0.00     0.167 HD
ATOM     72  C   UNL A   1      42.777  28.900  32.454  1.00  0.00     0.074 A 
ATOM     73  C   UNL A   1      43.267  27.745  31.731  1.00  0.00     0.031 C 
ATOM     74  C   UNL A   1      43.320  29.361  33.606  1.00  0.00     0.031 A 
BRANCH  61  75
ATOM     75  C   UNL A   1      40.502  34.363  35.882  1.00  0.00    -0.014 A 
ATOM     76  C   UNL A   1      41.232  35.559  35.786  1.00  0.00     0.009 A 
ATOM     77  C   UNL A   1      39.655  34.170  36.985  1.00  0.00     0.009 A 
ATOM     78  C   UNL A   1      41.138  36.528  36.788  1.00  0.00     0.001 A 
ATOM     79  C   UNL A   1      39.541  35.154  37.970  1.00  0.00     0.001 A 
ATOM     80  C   UNL A   1      40.287  36.328  37.874  1.00  0.00     0.000 A 
ENDBRANCH  61  75
BRANCH  62  81
ATOM     81  C   UNL A   1      40.577  27.629  28.506  1.00  0.00    -0.014 A 
ATOM     82  C   UNL A   1      41.296  27.864  27.324  1.00  0.00     0.009 A 
ATOM     83  C   UNL A   1      39.843  26.439  28.626  1.00  0.00     0.009 A 
ATOM     84  C   UNL A   1      41.242  26.952  26.267  1.00  0.00     0.001 A 
ATOM     85  C   UNL A   1      39.820  25.512  27.582  1.00  0.00     0.001 A 
ATOM     86  C   UNL A   1      40.506  25.777  26.398  1.00  0.00     0.000 A 
ENDBRANCH  62  81
BRANCH  74  87
ATOM     87  C   UNL A   1      44.473  28.584  34.179  1.00  0.00    -0.014 A 
ATOM     88  C   UNL A   1      44.272  27.578  35.137  1.00  0.00     0.009 A 
ATOM     89  C   UNL A   1      45.777  28.851  33.736  1.00  0.00     0.009 A 
ATOM     90  C   UNL A   1      45.361  26.887  35.672  1.00  0.00     0.001 A 
ATOM     91  C   UNL A   1      46.860  28.135  34.247  1.00  0.00     0.001 A 
ATOM     92  C   UNL A   1      46.652  27.163  35.223  1.00  0.00     0.000 A 
ENDBRANCH  74  87
ENDBRANCH  48  49
ENDBRANCH  40  43
ENDBRANCH  38  39
ENDBRANCH  37  38
ENDBRANCH   1  37
TORSDOF 14
ENDMDL
MODEL 3
REMARK VINA RESULT:     -12.8      0.349      5.541
REMARK SMILES CC1(C)O[C@@H]2C[C@@H]3[C@H]4CCC5=CC(=O)C=C[C@@]5(C)[C@]4(F)[C@H](O)C[C@]3(C)[C@]2(C(=O)NCCCCCCNC(=O)c2ccc(-c3c4nc(c(-c5ccccc5)c5ccc([nH]5)c(-c5ccccc5)c5nc(c(-c6ccccc6)c6ccc3[nH]6)C=C5)C=C4)cc2)O1
REMARK SMILES IDX 33 1 32 2 31 3 30 4 29 5 27 6 28 7 26 9 1 10 2 11 4 12 87 13
REMARK SMILES IDX 3 14 5 15 6 16 24 17 7 18 23 19 25 20 8 21 21 22 9 23 19 24
REMARK SMILES IDX 10 25 17 26 20 27 11 28 16 29 18 30 12 31 15 32 13 33 14 34
REMARK SMILES IDX 22 35 34 37 35 38 36 39 37 40 38 42 39 43 40 44 86 45 41 46
REMARK SMILES IDX 85 47 42 48 43 49 44 50 79 51 45 52 84 53 78 54 80 55 46 56
REMARK SMILES IDX 83 57 77 58 76 59 47 61 69 62 54 63 68 64 55 65 58 66 67 67
REMARK SMILES IDX 81 68 56 69 57 70 66 72 82 73 59 74 48 75 49 76 53 77 50 78
REMARK SMILES IDX 52 79 51 80 70 81 71 82 75 83 72 84 74 85 73 86 60 87 61 88
REMARK SMILES IDX 65 89 62 90 64 91 63 92
REMARK H PARENT 29 8 22 36 36 41 80 60 58 71
REMARK Flexibility Score: inf
ROOT
ATOM      1  C   UNL A   1      37.075  20.432  24.695  1.00  0.00     0.002 C 
ENDROOT
BRANCH   1   2
ATOM      2  C   UNL A   1      35.636  20.009  24.999  1.00  0.00     0.002 C 
BRANCH   2   3
ATOM      3  C   UNL A   1      34.664  21.163  25.248  1.00  0.00     0.021 C 
BRANCH   3   4
ATOM      4  C   UNL A   1      34.780  22.310  24.254  1.00  0.00     0.116 C 
BRANCH   4   5
ATOM      5  N   UNL A   1      33.582  22.423  23.467  1.00  0.00    -0.353 N 
ATOM      6  C   UNL A   1      32.576  23.316  23.497  1.00  0.00     0.255 C 
ATOM      7  O   UNL A   1      31.550  22.959  22.900  1.00  0.00    -0.272 OA
ATOM      8  H   UNL A   1      33.481  21.723  22.782  1.00  0.00     0.163 HD
BRANCH   6   9
ATOM      9  C   UNL A   1      32.622  24.649  24.248  1.00  0.00     0.181 C 
ATOM     10  C   UNL A   1      30.677  23.456  26.725  1.00  0.00     0.075 C 
ATOM     11  C   UNL A   1      31.399  24.717  26.253  1.00  0.00     0.164 C 
ATOM     12  O   UNL A   1      32.783  24.679  26.635  1.00  0.00    -0.344 OA
ATOM     13  O   UNL A   1      31.287  24.771  24.818  1.00  0.00    -0.331 OA
ATOM     14  C   UNL A   1      30.747  25.942  26.920  1.00  0.00     0.075 C 
ATOM     15  C   UNL A   1      33.557  24.968  25.458  1.00  0.00     0.164 C 
ATOM     16  C   UNL A   1      33.894  26.528  25.400  1.00  0.00     0.040 C 
ATOM     17  C   UNL A   1      33.001  25.842  23.257  1.00  0.00     0.014 C 
ATOM     18  C   UNL A   1      32.916  26.982  24.310  1.00  0.00     0.008 C 
ATOM     19  C   UNL A   1      32.224  26.173  21.966  1.00  0.00     0.046 C 
ATOM     20  C   UNL A   1      34.450  25.543  22.727  1.00  0.00     0.015 C 
ATOM     21  C   UNL A   1      31.863  28.111  24.221  1.00  0.00     0.035 C 
ATOM     22  C   UNL A   1      30.974  27.022  22.103  1.00  0.00     0.154 C 
ATOM     23  C   UNL A   1      32.200  29.372  25.002  1.00  0.00     0.012 C 
ATOM     24  C   UNL A   1      31.270  28.375  22.835  1.00  0.00     0.152 C 
ATOM     25  C   UNL A   1      30.889  30.099  25.300  1.00  0.00     0.032 C 
ATOM     26  C   UNL A   1      30.003  29.331  22.960  1.00  0.00     0.044 C 
ATOM     27  F   UNL A   1      32.244  29.027  22.118  1.00  0.00    -0.239 F 
ATOM     28  C   UNL A   1      30.116  30.414  24.049  1.00  0.00    -0.053 C 
ATOM     29  C   UNL A   1      29.725  30.030  21.631  1.00  0.00    -0.009 C 
ATOM     30  C   UNL A   1      28.705  28.529  23.307  1.00  0.00     0.024 C 
ATOM     31  C   UNL A   1      29.432  31.569  23.938  1.00  0.00     0.052 C 
ATOM     32  C   UNL A   1      28.818  31.014  21.547  1.00  0.00     0.048 C 
ATOM     33  C   UNL A   1      28.557  31.822  22.762  1.00  0.00     0.178 C 
ATOM     34  O   UNL A   1      27.746  32.739  22.758  1.00  0.00    -0.290 OA
BRANCH  22  35
ATOM     35  O   UNL A   1      29.990  26.212  22.737  1.00  0.00    -0.390 OA
ATOM     36  H   UNL A   1      30.001  25.324  22.345  1.00  0.00     0.211 HD
ENDBRANCH  22  35
ENDBRANCH   6   9
ENDBRANCH   4   5
ENDBRANCH   3   4
ENDBRANCH   2   3
ENDBRANCH   1   2
BRANCH   1  37
ATOM     37  C   UNL A   1      38.140  19.382  25.018  1.00  0.00     0.021 C 
BRANCH  37  38
ATOM     38  C   UNL A   1      39.347  19.913  25.779  1.00  0.00     0.116 C 
BRANCH  38  39
ATOM     39  N   UNL A   1      40.387  18.910  25.919  1.00  0.00    -0.352 N 
ATOM     40  C   UNL A   1      41.721  19.092  26.137  1.00  0.00     0.251 C 
ATOM     41  H   UNL A   1      40.090  17.974  25.849  1.00  0.00     0.163 HD
ATOM     42  O   UNL A   1      42.501  18.133  26.039  1.00  0.00    -0.269 OA
BRANCH  40  43
ATOM     43  C   UNL A   1      42.241  20.431  26.463  1.00  0.00     0.039 A 
ATOM     44  C   UNL A   1      42.738  21.229  25.431  1.00  0.00     0.014 A 
ATOM     45  C   UNL A   1      42.243  20.901  27.782  1.00  0.00     0.014 A 
ATOM     46  C   UNL A   1      43.198  22.514  25.714  1.00  0.00     0.010 A 
ATOM     47  C   UNL A   1      42.628  22.212  28.049  1.00  0.00     0.010 A 
ATOM     48  C   UNL A   1      43.121  23.027  27.020  1.00  0.00    -0.014 A 
BRANCH  48  49
ATOM     49  C   UNL A   1      43.568  24.411  27.316  1.00  0.00     0.031 A 
ATOM     50  C   UNL A   1      42.570  25.460  27.726  1.00  0.00     0.074 A 
ATOM     51  C   UNL A   1      44.874  24.725  27.202  1.00  0.00     0.049 A 
ATOM     52  N   UNL A   1      42.775  26.717  28.030  1.00  0.00    -0.248 NA
ATOM     53  C   UNL A   1      41.157  25.051  27.786  1.00  0.00     0.031 C 
ATOM     54  C   UNL A   1      45.935  23.806  26.783  1.00  0.00     0.029 A 
ATOM     55  N   UNL A   1      45.533  25.905  27.438  1.00  0.00    -0.354 N 
ATOM     56  C   UNL A   1      41.522  27.243  28.320  1.00  0.00     0.074 A 
ATOM     57  C   UNL A   1      40.556  26.191  28.093  1.00  0.00     0.031 C 
ATOM     58  C   UNL A   1      47.115  24.445  26.834  1.00  0.00     0.029 A 
ATOM     59  C   UNL A   1      46.890  25.825  27.247  1.00  0.00     0.049 A 
ATOM     60  H   UNL A   1      45.075  26.731  27.718  1.00  0.00     0.167 HD
ATOM     61  C   UNL A   1      41.205  28.483  28.764  1.00  0.00     0.031 A 
ATOM     62  C   UNL A   1      47.848  26.761  27.389  1.00  0.00     0.031 A 
ATOM     63  C   UNL A   1      42.163  29.531  28.991  1.00  0.00     0.049 A 
ATOM     64  C   UNL A   1      47.458  28.143  27.840  1.00  0.00     0.074 A 
ATOM     65  C   UNL A   1      41.942  30.814  29.461  1.00  0.00     0.029 A 
ATOM     66  N   UNL A   1      43.526  29.415  28.766  1.00  0.00    -0.354 N 
ATOM     67  N   UNL A   1      46.275  28.606  28.165  1.00  0.00    -0.248 NA
ATOM     68  C   UNL A   1      48.543  29.127  27.957  1.00  0.00     0.031 C 
ATOM     69  C   UNL A   1      43.166  31.491  29.476  1.00  0.00     0.029 A 
ATOM     70  C   UNL A   1      44.156  30.610  29.071  1.00  0.00     0.049 A 
ATOM     71  H   UNL A   1      43.978  28.605  28.438  1.00  0.00     0.167 HD
ATOM     72  C   UNL A   1      46.479  29.922  28.559  1.00  0.00     0.074 A 
ATOM     73  C   UNL A   1      47.901  30.175  28.454  1.00  0.00     0.031 C 
ATOM     74  C   UNL A   1      45.572  30.842  28.969  1.00  0.00     0.031 A 
BRANCH  61  75
ATOM     75  C   UNL A   1      39.756  28.769  29.048  1.00  0.00    -0.014 A 
ATOM     76  C   UNL A   1      39.208  28.524  30.318  1.00  0.00     0.009 A 
ATOM     77  C   UNL A   1      38.944  29.341  28.057  1.00  0.00     0.009 A 
ATOM     78  C   UNL A   1      37.868  28.820  30.580  1.00  0.00     0.001 A 
ATOM     79  C   UNL A   1      37.613  29.663  28.331  1.00  0.00     0.001 A 
ATOM     80  C   UNL A   1      37.074  29.396  29.589  1.00  0.00     0.000 A 
ENDBRANCH  61  75
BRANCH  62  81
ATOM     81  C   UNL A   1      49.273  26.437  27.114  1.00  0.00    -0.014 A 
ATOM     82  C   UNL A   1      49.805  26.592  25.825  1.00  0.00     0.009 A 
ATOM     83  C   UNL A   1      50.096  25.920  28.127  1.00  0.00     0.009 A 
ATOM     84  C   UNL A   1      51.114  26.194  25.544  1.00  0.00     0.001 A 
ATOM     85  C   UNL A   1      51.416  25.557  27.853  1.00  0.00     0.001 A 
ATOM     86  C   UNL A   1      51.918  25.679  26.559  1.00  0.00     0.000 A 
ENDBRANCH  62  81
BRANCH  74  87
ATOM     87  C   UNL A   1      46.101  32.187  29.382  1.00  0.00    -0.014 A 
ATOM     88  C   UNL A   1      46.456  32.457  30.713  1.00  0.00     0.009 A 
ATOM     89  C   UNL A   1      46.265  33.193  28.417  1.00  0.00     0.009 A 
ATOM     90  C   UNL A   1      46.922  33.722  31.075  1.00  0.00     0.001 A 
ATOM     91  C   UNL A   1      46.763  34.446  28.777  1.00  0.00     0.001 A 
ATOM     92  C   UNL A   1      47.079  34.713  30.107  1.00  0.00     0.000 A 
ENDBRANCH  74  87
ENDBRANCH  48  49
ENDBRANCH  40  43
ENDBRANCH  38  39
ENDBRANCH  37  38
ENDBRANCH   1  37
TORSDOF 14
ENDMDL
