MODEL 1
REMARK VINA RESULT:     -11.7      0.000      0.000
REMARK SMILES Cc1nn([C@@H](C)C(=O)NCCCCCCNC(=O)c2ccc(-c3c4nc(c(-c5ccccc5)c5ccc([nH]5)c(-c5ccccc5)c5nc(c(-c6ccccc6)c6ccc3[nH]6)C=C5)C=C4)cc2)c(=O)c2cc3cc(F)ccc3n12
REMARK SMILES IDX 13 1 12 2 11 3 10 4 9 5 7 6 8 7 5 9 6 10 4 11 1 12 2 13 3 14
REMARK SMILES IDX 78 15 69 16 77 17 67 18 70 19 71 20 76 21 68 22 72 23 75 24
REMARK SMILES IDX 73 25 74 26 14 27 15 28 16 29 17 30 18 32 19 33 20 34 66 35
REMARK SMILES IDX 21 36 65 37 22 38 23 39 24 40 59 41 25 42 64 43 58 44 60 45
REMARK SMILES IDX 26 46 63 47 57 48 56 49 27 51 49 52 34 53 48 54 35 55 38 56
REMARK SMILES IDX 47 57 61 58 36 59 37 60 46 62 62 63 39 64 28 65 29 66 33 67
REMARK SMILES IDX 30 68 32 69 31 70 50 71 51 72 55 73 52 74 54 75 53 76 40 77
REMARK SMILES IDX 41 78 45 79 42 80 44 81 43 82
REMARK H PARENT 9 8 16 31 60 50 38 61
REMARK Flexibility Score: inf
ROOT
ATOM      1  C   UNL A   1      39.262  23.406  27.094  1.00  0.00     0.002 C 
ENDROOT
BRANCH   1   2
ATOM      2  C   UNL A   1      38.227  24.227  26.314  1.00  0.00     0.002 C 
BRANCH   2   3
ATOM      3  C   UNL A   1      37.331  23.402  25.386  1.00  0.00     0.021 C 
BRANCH   3   4
ATOM      4  C   UNL A   1      35.944  24.017  25.176  1.00  0.00     0.116 C 
BRANCH   4   5
ATOM      5  N   UNL A   1      35.000  23.532  26.161  1.00  0.00    -0.354 N 
ATOM      6  C   UNL A   1      33.690  23.181  26.084  1.00  0.00     0.244 C 
ATOM      7  O   UNL A   1      33.177  22.820  27.154  1.00  0.00    -0.273 OA
ATOM      8  H   UNL A   1      35.384  23.437  27.063  1.00  0.00     0.163 HD
BRANCH   6   9
ATOM      9  C   UNL A   1      32.841  23.177  24.790  1.00  0.00     0.197 C 
ATOM     10  C   UNL A   1      33.472  22.400  23.639  1.00  0.00     0.044 C 
BRANCH   9  11
ATOM     11  N   UNL A   1      32.240  24.482  24.444  1.00  0.00    -0.214 N 
ATOM     12  C   UNL A   1      33.462  27.392  22.480  1.00  0.00     0.090 C 
ATOM     13  C   UNL A   1      32.581  26.452  23.234  1.00  0.00     0.131 A 
ATOM     14  N   UNL A   1      33.053  25.320  23.673  1.00  0.00    -0.155 NA
ATOM     15  N   UNL A   1      31.246  26.828  23.436  1.00  0.00    -0.291 N 
ATOM     16  C   UNL A   1      30.445  26.019  24.204  1.00  0.00     0.115 A 
ATOM     17  C   UNL A   1      30.480  27.909  22.987  1.00  0.00     0.055 A 
ATOM     18  C   UNL A   1      30.981  24.882  24.900  1.00  0.00     0.291 A 
ATOM     19  C   UNL A   1      29.148  26.463  24.131  1.00  0.00     0.043 A 
ATOM     20  C   UNL A   1      29.148  27.642  23.354  1.00  0.00     0.004 A 
ATOM     21  C   UNL A   1      30.795  29.087  22.279  1.00  0.00     0.030 A 
ATOM     22  O   UNL A   1      30.353  24.333  25.793  1.00  0.00    -0.265 OA
ATOM     23  C   UNL A   1      28.119  28.516  22.957  1.00  0.00     0.049 A 
ATOM     24  C   UNL A   1      29.759  29.959  21.924  1.00  0.00     0.041 A 
ATOM     25  C   UNL A   1      28.446  29.664  22.246  1.00  0.00     0.123 A 
ATOM     26  F   UNL A   1      27.472  30.506  21.880  1.00  0.00    -0.207 F 
ENDBRANCH   9  11
ENDBRANCH   6   9
ENDBRANCH   4   5
ENDBRANCH   3   4
ENDBRANCH   2   3
ENDBRANCH   1   2
BRANCH   1  27
ATOM     27  C   UNL A   1      39.635  22.050  26.480  1.00  0.00     0.021 C 
BRANCH  27  28
ATOM     28  C   UNL A   1      41.064  21.588  26.772  1.00  0.00     0.116 C 
BRANCH  28  29
ATOM     29  N   UNL A   1      42.011  21.956  25.739  1.00  0.00    -0.352 N 
ATOM     30  C   UNL A   1      42.700  23.091  25.416  1.00  0.00     0.251 C 
ATOM     31  H   UNL A   1      42.205  21.211  25.126  1.00  0.00     0.163 HD
ATOM     32  O   UNL A   1      43.464  23.003  24.450  1.00  0.00    -0.269 OA
BRANCH  30  33
ATOM     33  C   UNL A   1      42.568  24.409  26.100  1.00  0.00     0.039 A 
ATOM     34  C   UNL A   1      42.978  24.701  27.399  1.00  0.00     0.014 A 
ATOM     35  C   UNL A   1      41.936  25.429  25.361  1.00  0.00     0.014 A 
ATOM     36  C   UNL A   1      42.686  25.936  27.976  1.00  0.00     0.010 A 
ATOM     37  C   UNL A   1      41.666  26.676  25.922  1.00  0.00     0.010 A 
ATOM     38  C   UNL A   1      42.000  26.915  27.251  1.00  0.00    -0.014 A 
BRANCH  38  39
ATOM     39  C   UNL A   1      41.670  28.159  27.944  1.00  0.00     0.031 A 
ATOM     40  C   UNL A   1      42.660  29.272  27.866  1.00  0.00     0.074 A 
ATOM     41  C   UNL A   1      40.517  28.369  28.610  1.00  0.00     0.049 A 
ATOM     42  N   UNL A   1      43.299  29.837  28.840  1.00  0.00    -0.248 NA
ATOM     43  C   UNL A   1      43.000  29.800  26.538  1.00  0.00     0.031 C 
ATOM     44  C   UNL A   1      39.294  27.565  28.611  1.00  0.00     0.029 A 
ATOM     45  N   UNL A   1      40.185  29.444  29.381  1.00  0.00    -0.354 N 
ATOM     46  C   UNL A   1      44.055  30.862  28.274  1.00  0.00     0.074 A 
ATOM     47  C   UNL A   1      43.873  30.761  26.846  1.00  0.00     0.031 C 
ATOM     48  C   UNL A   1      38.288  28.292  29.149  1.00  0.00     0.029 A 
ATOM     49  C   UNL A   1      38.836  29.533  29.670  1.00  0.00     0.049 A 
ATOM     50  H   UNL A   1      40.846  30.099  29.703  1.00  0.00     0.167 HD
ATOM     51  C   UNL A   1      44.712  31.798  29.016  1.00  0.00     0.031 A 
ATOM     52  C   UNL A   1      38.205  30.582  30.245  1.00  0.00     0.031 A 
ATOM     53  C   UNL A   1      44.829  31.427  30.397  1.00  0.00     0.049 A 
ATOM     54  C   UNL A   1      39.207  31.368  30.997  1.00  0.00     0.074 A 
ATOM     55  C   UNL A   1      45.473  30.413  31.077  1.00  0.00     0.029 A 
ATOM     56  N   UNL A   1      43.951  31.981  31.296  1.00  0.00    -0.354 N 
ATOM     57  N   UNL A   1      39.801  30.941  32.073  1.00  0.00    -0.248 NA
ATOM     58  C   UNL A   1      39.836  32.509  30.352  1.00  0.00     0.031 C 
ATOM     59  C   UNL A   1      44.612  30.096  32.167  1.00  0.00     0.029 A 
ATOM     60  C   UNL A   1      43.513  30.957  32.098  1.00  0.00     0.049 A 
ATOM     61  H   UNL A   1      43.688  32.927  31.354  1.00  0.00     0.167 HD
ATOM     62  C   UNL A   1      41.084  31.461  32.002  1.00  0.00     0.074 A 
ATOM     63  C   UNL A   1      41.004  32.519  30.999  1.00  0.00     0.031 C 
ATOM     64  C   UNL A   1      42.148  30.805  32.555  1.00  0.00     0.031 A 
BRANCH  51  65
ATOM     65  C   UNL A   1      45.078  33.171  28.530  1.00  0.00    -0.014 A 
ATOM     66  C   UNL A   1      46.339  33.463  27.980  1.00  0.00     0.009 A 
ATOM     67  C   UNL A   1      44.080  34.153  28.399  1.00  0.00     0.009 A 
ATOM     68  C   UNL A   1      46.601  34.684  27.348  1.00  0.00     0.001 A 
ATOM     69  C   UNL A   1      44.329  35.361  27.734  1.00  0.00     0.001 A 
ATOM     70  C   UNL A   1      45.591  35.626  27.212  1.00  0.00     0.000 A 
ENDBRANCH  51  65
BRANCH  52  71
ATOM     71  C   UNL A   1      36.874  31.118  29.897  1.00  0.00    -0.014 A 
ATOM     72  C   UNL A   1      36.579  31.447  28.560  1.00  0.00     0.009 A 
ATOM     73  C   UNL A   1      35.999  31.571  30.894  1.00  0.00     0.009 A 
ATOM     74  C   UNL A   1      35.473  32.234  28.233  1.00  0.00     0.001 A 
ATOM     75  C   UNL A   1      34.892  32.363  30.567  1.00  0.00     0.001 A 
ATOM     76  C   UNL A   1      34.638  32.706  29.240  1.00  0.00     0.000 A 
ENDBRANCH  52  71
BRANCH  64  77
ATOM     77  C   UNL A   1      41.869  29.616  33.450  1.00  0.00    -0.014 A 
ATOM     78  C   UNL A   1      41.926  29.787  34.842  1.00  0.00     0.009 A 
ATOM     79  C   UNL A   1      41.727  28.309  32.951  1.00  0.00     0.009 A 
ATOM     80  C   UNL A   1      41.842  28.689  35.705  1.00  0.00     0.001 A 
ATOM     81  C   UNL A   1      41.616  27.214  33.813  1.00  0.00     0.001 A 
ATOM     82  C   UNL A   1      41.681  27.404  35.190  1.00  0.00     0.000 A 
ENDBRANCH  64  77
ENDBRANCH  38  39
ENDBRANCH  30  33
ENDBRANCH  28  29
ENDBRANCH  27  28
ENDBRANCH   1  27
TORSDOF 14
ENDMDL
MODEL 2
REMARK VINA RESULT:     -11.6      3.166      8.428
REMARK SMILES Cc1nn([C@@H](C)C(=O)NCCCCCCNC(=O)c2ccc(-c3c4nc(c(-c5ccccc5)c5ccc([nH]5)c(-c5ccccc5)c5nc(c(-c6ccccc6)c6ccc3[nH]6)C=C5)C=C4)cc2)c(=O)c2cc3cc(F)ccc3n12
REMARK SMILES IDX 13 1 12 2 11 3 10 4 9 5 7 6 8 7 5 9 6 10 4 11 1 12 2 13 3 14
REMARK SMILES IDX 78 15 69 16 77 17 67 18 70 19 71 20 76 21 68 22 72 23 75 24
REMARK SMILES IDX 73 25 74 26 14 27 15 28 16 29 17 30 18 32 19 33 20 34 66 35
REMARK SMILES IDX 21 36 65 37 22 38 23 39 24 40 59 41 25 42 64 43 58 44 60 45
REMARK SMILES IDX 26 46 63 47 57 48 56 49 27 51 49 52 34 53 48 54 35 55 38 56
REMARK SMILES IDX 47 57 61 58 36 59 37 60 46 62 62 63 39 64 28 65 29 66 33 67
REMARK SMILES IDX 30 68 32 69 31 70 50 71 51 72 55 73 52 74 54 75 53 76 40 77
REMARK SMILES IDX 41 78 45 79 42 80 44 81 43 82
REMARK H PARENT 9 8 16 31 60 50 38 61
REMARK Flexibility Score: inf
ROOT
ATOM      1  C   UNL A   1      34.664  30.108  27.418  1.00  0.00     0.002 C 
ENDROOT
BRANCH   1   2
ATOM      2  C   UNL A   1      33.872  29.040  26.652  1.00  0.00     0.002 C 
BRANCH   2   3
ATOM      3  C   UNL A   1      32.808  29.598  25.702  1.00  0.00     0.021 C 
BRANCH   3   4
ATOM      4  C   UNL A   1      32.110  28.519  24.870  1.00  0.00     0.116 C 
BRANCH   4   5
ATOM      5  N   UNL A   1      31.418  27.570  25.717  1.00  0.00    -0.354 N 
ATOM      6  C   UNL A   1      31.095  26.259  25.557  1.00  0.00     0.244 C 
ATOM      7  O   UNL A   1      30.469  25.752  26.500  1.00  0.00    -0.273 OA
ATOM      8  H   UNL A   1      31.124  27.948  26.578  1.00  0.00     0.163 HD
BRANCH   6   9
ATOM      9  C   UNL A   1      31.473  25.389  24.334  1.00  0.00     0.197 C 
ATOM     10  C   UNL A   1      30.284  25.003  23.460  1.00  0.00     0.044 C 
BRANCH   9  11
ATOM     11  N   UNL A   1      32.449  24.317  24.620  1.00  0.00    -0.214 N 
ATOM     12  C   UNL A   1      32.250  20.607  24.474  1.00  0.00     0.090 C 
ATOM     13  C   UNL A   1      32.771  22.003  24.578  1.00  0.00     0.131 A 
ATOM     14  N   UNL A   1      31.964  23.016  24.445  1.00  0.00    -0.155 NA
ATOM     15  N   UNL A   1      34.143  22.172  24.808  1.00  0.00    -0.291 N 
ATOM     16  C   UNL A   1      34.626  23.443  24.995  1.00  0.00     0.115 A 
ATOM     17  C   UNL A   1      35.217  21.278  24.878  1.00  0.00     0.055 A 
ATOM     18  C   UNL A   1      33.739  24.571  25.089  1.00  0.00     0.291 A 
ATOM     19  C   UNL A   1      35.998  23.410  25.026  1.00  0.00     0.043 A 
ATOM     20  C   UNL A   1      36.388  22.056  24.935  1.00  0.00     0.004 A 
ATOM     21  C   UNL A   1      35.303  19.870  24.877  1.00  0.00     0.030 A 
ATOM     22  O   UNL A   1      34.125  25.644  25.530  1.00  0.00    -0.265 OA
ATOM     23  C   UNL A   1      37.650  21.432  24.922  1.00  0.00     0.049 A 
ATOM     24  C   UNL A   1      36.568  19.272  24.899  1.00  0.00     0.041 A 
ATOM     25  C   UNL A   1      37.716  20.045  24.905  1.00  0.00     0.123 A 
ATOM     26  F   UNL A   1      38.914  19.447  24.909  1.00  0.00    -0.207 F 
ENDBRANCH   9  11
ENDBRANCH   6   9
ENDBRANCH   4   5
ENDBRANCH   3   4
ENDBRANCH   2   3
ENDBRANCH   1   2
BRANCH   1  27
ATOM     27  C   UNL A   1      33.905  31.407  27.723  1.00  0.00     0.021 C 
BRANCH  27  28
ATOM     28  C   UNL A   1      34.798  32.628  27.952  1.00  0.00     0.116 C 
BRANCH  28  29
ATOM     29  N   UNL A   1      34.998  32.941  29.352  1.00  0.00    -0.352 N 
ATOM     30  C   UNL A   1      35.853  32.512  30.328  1.00  0.00     0.251 C 
ATOM     31  H   UNL A   1      34.371  33.627  29.677  1.00  0.00     0.163 HD
ATOM     32  O   UNL A   1      35.734  33.056  31.430  1.00  0.00    -0.269 OA
BRANCH  30  33
ATOM     33  C   UNL A   1      36.867  31.429  30.177  1.00  0.00     0.039 A 
ATOM     34  C   UNL A   1      36.630  30.063  30.312  1.00  0.00     0.014 A 
ATOM     35  C   UNL A   1      38.186  31.848  29.910  1.00  0.00     0.014 A 
ATOM     36  C   UNL A   1      37.683  29.151  30.275  1.00  0.00     0.010 A 
ATOM     37  C   UNL A   1      39.240  30.939  29.843  1.00  0.00     0.010 A 
ATOM     38  C   UNL A   1      38.996  29.589  30.073  1.00  0.00    -0.014 A 
BRANCH  38  39
ATOM     39  C   UNL A   1      40.056  28.584  30.115  1.00  0.00     0.031 A 
ATOM     40  C   UNL A   1      40.725  28.346  31.426  1.00  0.00     0.074 A 
ATOM     41  C   UNL A   1      40.434  27.839  29.056  1.00  0.00     0.049 A 
ATOM     42  N   UNL A   1      41.974  28.515  31.724  1.00  0.00    -0.248 NA
ATOM     43  C   UNL A   1      39.896  27.891  32.551  1.00  0.00     0.031 C 
ATOM     44  C   UNL A   1      39.774  27.683  27.759  1.00  0.00     0.029 A 
ATOM     45  N   UNL A   1      41.487  26.976  28.978  1.00  0.00    -0.354 N 
ATOM     46  C   UNL A   1      42.125  28.100  33.045  1.00  0.00     0.074 A 
ATOM     47  C   UNL A   1      40.803  27.774  33.524  1.00  0.00     0.031 C 
ATOM     48  C   UNL A   1      40.304  26.615  27.120  1.00  0.00     0.029 A 
ATOM     49  C   UNL A   1      41.436  26.126  27.889  1.00  0.00     0.049 A 
ATOM     50  H   UNL A   1      42.217  26.960  29.637  1.00  0.00     0.167 HD
ATOM     51  C   UNL A   1      43.340  27.953  33.644  1.00  0.00     0.031 A 
ATOM     52  C   UNL A   1      42.234  25.056  27.669  1.00  0.00     0.031 A 
ATOM     53  C   UNL A   1      44.400  28.585  32.910  1.00  0.00     0.049 A 
ATOM     54  C   UNL A   1      43.479  25.240  28.445  1.00  0.00     0.074 A 
ATOM     55  C   UNL A   1      44.703  29.889  32.576  1.00  0.00     0.029 A 
ATOM     56  N   UNL A   1      45.197  27.801  32.114  1.00  0.00    -0.354 N 
ATOM     57  N   UNL A   1      44.369  26.150  28.177  1.00  0.00    -0.248 NA
ATOM     58  C   UNL A   1      43.581  24.641  29.766  1.00  0.00     0.031 C 
ATOM     59  C   UNL A   1      45.288  29.811  31.280  1.00  0.00     0.029 A 
ATOM     60  C   UNL A   1      45.330  28.462  30.919  1.00  0.00     0.049 A 
ATOM     61  H   UNL A   1      45.596  26.934  32.355  1.00  0.00     0.167 HD
ATOM     62  C   UNL A   1      44.858  26.545  29.413  1.00  0.00     0.074 A 
ATOM     63  C   UNL A   1      44.437  25.494  30.334  1.00  0.00     0.031 C 
ATOM     64  C   UNL A   1      45.315  27.816  29.623  1.00  0.00     0.031 A 
BRANCH  51  65
ATOM     65  C   UNL A   1      43.616  27.048  34.810  1.00  0.00    -0.014 A 
ATOM     66  C   UNL A   1      43.580  27.502  36.141  1.00  0.00     0.009 A 
ATOM     67  C   UNL A   1      43.688  25.657  34.612  1.00  0.00     0.009 A 
ATOM     68  C   UNL A   1      43.637  26.616  37.222  1.00  0.00     0.001 A 
ATOM     69  C   UNL A   1      43.707  24.766  35.692  1.00  0.00     0.001 A 
ATOM     70  C   UNL A   1      43.684  25.247  36.998  1.00  0.00     0.000 A 
ENDBRANCH  51  65
BRANCH  52  71
ATOM     71  C   UNL A   1      41.834  23.750  27.108  1.00  0.00    -0.014 A 
ATOM     72  C   UNL A   1      40.693  23.094  27.605  1.00  0.00     0.009 A 
ATOM     73  C   UNL A   1      42.712  23.020  26.295  1.00  0.00     0.009 A 
ATOM     74  C   UNL A   1      40.457  21.744  27.335  1.00  0.00     0.001 A 
ATOM     75  C   UNL A   1      42.478  21.665  26.027  1.00  0.00     0.001 A 
ATOM     76  C   UNL A   1      41.359  21.025  26.559  1.00  0.00     0.000 A 
ENDBRANCH  52  71
BRANCH  64  77
ATOM     77  C   UNL A   1      45.496  28.719  28.422  1.00  0.00    -0.014 A 
ATOM     78  C   UNL A   1      46.760  28.801  27.819  1.00  0.00     0.009 A 
ATOM     79  C   UNL A   1      44.499  29.613  27.990  1.00  0.00     0.009 A 
ATOM     80  C   UNL A   1      47.020  29.743  26.817  1.00  0.00     0.001 A 
ATOM     81  C   UNL A   1      44.749  30.536  26.969  1.00  0.00     0.001 A 
ATOM     82  C   UNL A   1      46.013  30.606  26.390  1.00  0.00     0.000 A 
ENDBRANCH  64  77
ENDBRANCH  38  39
ENDBRANCH  30  33
ENDBRANCH  28  29
ENDBRANCH  27  28
ENDBRANCH   1  27
TORSDOF 14
ENDMDL
MODEL 3
REMARK VINA RESULT:     -11.5      3.131      8.158
REMARK SMILES Cc1nn([C@@H](C)C(=O)NCCCCCCNC(=O)c2ccc(-c3c4nc(c(-c5ccccc5)c5ccc([nH]5)c(-c5ccccc5)c5nc(c(-c6ccccc6)c6ccc3[nH]6)C=C5)C=C4)cc2)c(=O)c2cc3cc(F)ccc3n12
REMARK SMILES IDX 13 1 12 2 11 3 10 4 9 5 7 6 8 7 5 9 6 10 4 11 1 12 2 13 3 14
REMARK SMILES IDX 78 15 69 16 77 17 67 18 70 19 71 20 76 21 68 22 72 23 75 24
REMARK SMILES IDX 73 25 74 26 14 27 15 28 16 29 17 30 18 32 19 33 20 34 66 35
REMARK SMILES IDX 21 36 65 37 22 38 23 39 24 40 59 41 25 42 64 43 58 44 60 45
REMARK SMILES IDX 26 46 63 47 57 48 56 49 27 51 49 52 34 53 48 54 35 55 38 56
REMARK SMILES IDX 47 57 61 58 36 59 37 60 46 62 62 63 39 64 28 65 29 66 33 67
REMARK SMILES IDX 30 68 32 69 31 70 50 71 51 72 55 73 52 74 54 75 53 76 40 77
REMARK SMILES IDX 41 78 45 79 42 80 44 81 43 82
REMARK H PARENT 9 8 16 31 60 50 38 61
REMARK Flexibility Score: inf
ROOT
ATOM      1  C   UNL A   1      36.952  31.748  28.025  1.00  0.00     0.002 C 
ENDROOT
BRANCH   1   2
ATOM      2  C   UNL A   1      36.554  30.319  27.635  1.00  0.00     0.002 C 
BRANCH   2   3
ATOM      3  C   UNL A   1      35.054  30.027  27.739  1.00  0.00     0.021 C 
BRANCH   3   4
ATOM      4  C   UNL A   1      34.630  28.756  26.997  1.00  0.00     0.116 C 
BRANCH   4   5
ATOM      5  N   UNL A   1      34.202  29.056  25.646  1.00  0.00    -0.354 N 
ATOM      6  C   UNL A   1      33.216  28.549  24.860  1.00  0.00     0.244 C 
ATOM      7  O   UNL A   1      33.145  29.039  23.723  1.00  0.00    -0.273 OA
ATOM      8  H   UNL A   1      34.728  29.767  25.213  1.00  0.00     0.163 HD
BRANCH   6   9
ATOM      9  C   UNL A   1      32.201  27.463  25.290  1.00  0.00     0.197 C 
ATOM     10  C   UNL A   1      31.573  27.711  26.658  1.00  0.00     0.044 C 
BRANCH   9  11
ATOM     11  N   UNL A   1      32.627  26.076  25.009  1.00  0.00    -0.214 N 
ATOM     12  C   UNL A   1      35.844  24.272  25.476  1.00  0.00     0.090 C 
ATOM     13  C   UNL A   1      34.406  24.574  25.213  1.00  0.00     0.131 A 
ATOM     14  N   UNL A   1      33.959  25.791  25.332  1.00  0.00    -0.155 NA
ATOM     15  N   UNL A   1      33.571  23.509  24.852  1.00  0.00    -0.291 N 
ATOM     16  C   UNL A   1      32.267  23.780  24.519  1.00  0.00     0.115 A 
ATOM     17  C   UNL A   1      33.771  22.127  24.762  1.00  0.00     0.055 A 
ATOM     18  C   UNL A   1      31.790  25.131  24.411  1.00  0.00     0.291 A 
ATOM     19  C   UNL A   1      31.579  22.600  24.373  1.00  0.00     0.043 A 
ATOM     20  C   UNL A   1      32.507  21.549  24.540  1.00  0.00     0.004 A 
ATOM     21  C   UNL A   1      34.913  21.308  24.871  1.00  0.00     0.030 A 
ATOM     22  O   UNL A   1      30.734  25.387  23.852  1.00  0.00    -0.265 OA
ATOM     23  C   UNL A   1      32.370  20.148  24.494  1.00  0.00     0.049 A 
ATOM     24  C   UNL A   1      34.758  19.918  24.788  1.00  0.00     0.041 A 
ATOM     25  C   UNL A   1      33.505  19.357  24.620  1.00  0.00     0.123 A 
ATOM     26  F   UNL A   1      33.382  18.024  24.560  1.00  0.00    -0.207 F 
ENDBRANCH   9  11
ENDBRANCH   6   9
ENDBRANCH   4   5
ENDBRANCH   3   4
ENDBRANCH   2   3
ENDBRANCH   1   2
BRANCH   1  27
ATOM     27  C   UNL A   1      35.804  32.766  28.083  1.00  0.00     0.021 C 
BRANCH  27  28
ATOM     28  C   UNL A   1      35.894  33.765  29.238  1.00  0.00     0.116 C 
BRANCH  28  29
ATOM     29  N   UNL A   1      35.266  33.295  30.457  1.00  0.00    -0.352 N 
ATOM     30  C   UNL A   1      35.582  32.376  31.417  1.00  0.00     0.251 C 
ATOM     31  H   UNL A   1      34.410  33.747  30.636  1.00  0.00     0.163 HD
ATOM     32  O   UNL A   1      34.784  32.276  32.354  1.00  0.00    -0.269 OA
BRANCH  30  33
ATOM     33  C   UNL A   1      36.768  31.473  31.396  1.00  0.00     0.039 A 
ATOM     34  C   UNL A   1      38.102  31.874  31.451  1.00  0.00     0.014 A 
ATOM     35  C   UNL A   1      36.497  30.096  31.272  1.00  0.00     0.014 A 
ATOM     36  C   UNL A   1      39.130  30.946  31.296  1.00  0.00     0.010 A 
ATOM     37  C   UNL A   1      37.521  29.159  31.145  1.00  0.00     0.010 A 
ATOM     38  C   UNL A   1      38.843  29.591  31.109  1.00  0.00    -0.014 A 
BRANCH  38  39
ATOM     39  C   UNL A   1      39.970  28.688  30.884  1.00  0.00     0.031 A 
ATOM     40  C   UNL A   1      40.857  28.396  32.047  1.00  0.00     0.074 A 
ATOM     41  C   UNL A   1      40.227  28.079  29.709  1.00  0.00     0.049 A 
ATOM     42  N   UNL A   1      42.122  28.652  32.165  1.00  0.00    -0.248 NA
ATOM     43  C   UNL A   1      40.258  27.769  33.232  1.00  0.00     0.031 C 
ATOM     44  C   UNL A   1      39.381  27.979  28.519  1.00  0.00     0.029 A 
ATOM     45  N   UNL A   1      41.317  27.326  29.383  1.00  0.00    -0.354 N 
ATOM     46  C   UNL A   1      42.515  28.136  33.398  1.00  0.00     0.074 A 
ATOM     47  C   UNL A   1      41.316  27.650  34.037  1.00  0.00     0.031 C 
ATOM     48  C   UNL A   1      39.881  27.025  27.701  1.00  0.00     0.029 A 
ATOM     49  C   UNL A   1      41.156  26.575  28.233  1.00  0.00     0.049 A 
ATOM     50  H   UNL A   1      42.143  27.318  29.917  1.00  0.00     0.167 HD
ATOM     51  C   UNL A   1      43.819  28.049  33.785  1.00  0.00     0.031 A 
ATOM     52  C   UNL A   1      41.987  25.606  27.785  1.00  0.00     0.031 A 
ATOM     53  C   UNL A   1      44.694  28.838  32.967  1.00  0.00     0.049 A 
ATOM     54  C   UNL A   1      43.324  25.834  28.376  1.00  0.00     0.074 A 
ATOM     55  C   UNL A   1      44.839  30.189  32.726  1.00  0.00     0.029 A 
ATOM     56  N   UNL A   1      45.411  28.204  31.982  1.00  0.00    -0.354 N 
ATOM     57  N   UNL A   1      44.087  26.842  28.070  1.00  0.00    -0.248 NA
ATOM     58  C   UNL A   1      43.683  25.132  29.598  1.00  0.00     0.031 C 
ATOM     59  C   UNL A   1      45.211  30.281  31.353  1.00  0.00     0.029 A 
ATOM     60  C   UNL A   1      45.298  28.978  30.854  1.00  0.00     0.049 A 
ATOM     61  H   UNL A   1      45.908  27.359  32.068  1.00  0.00     0.167 HD
ATOM     62  C   UNL A   1      44.738  27.169  29.250  1.00  0.00     0.074 A 
ATOM     63  C   UNL A   1      44.552  26.006  30.112  1.00  0.00     0.031 C 
ATOM     64  C   UNL A   1      45.123  28.452  29.517  1.00  0.00     0.031 A 
BRANCH  51  65
ATOM     65  C   UNL A   1      44.347  27.072  34.796  1.00  0.00    -0.014 A 
ATOM     66  C   UNL A   1      44.528  27.413  36.149  1.00  0.00     0.009 A 
ATOM     67  C   UNL A   1      44.456  25.711  34.461  1.00  0.00     0.009 A 
ATOM     68  C   UNL A   1      44.824  26.447  37.118  1.00  0.00     0.001 A 
ATOM     69  C   UNL A   1      44.716  24.738  35.434  1.00  0.00     0.001 A 
ATOM     70  C   UNL A   1      44.903  25.108  36.762  1.00  0.00     0.000 A 
ENDBRANCH  51  65
BRANCH  52  71
ATOM     71  C   UNL A   1      41.604  24.325  27.161  1.00  0.00    -0.014 A 
ATOM     72  C   UNL A   1      40.648  23.501  27.784  1.00  0.00     0.009 A 
ATOM     73  C   UNL A   1      42.365  23.778  26.119  1.00  0.00     0.009 A 
ATOM     74  C   UNL A   1      40.485  22.166  27.408  1.00  0.00     0.001 A 
ATOM     75  C   UNL A   1      42.205  22.438  25.744  1.00  0.00     0.001 A 
ATOM     76  C   UNL A   1      41.276  21.630  26.398  1.00  0.00     0.000 A 
ENDBRANCH  52  71
BRANCH  64  77
ATOM     77  C   UNL A   1      45.039  29.471  28.401  1.00  0.00    -0.014 A 
ATOM     78  C   UNL A   1      46.216  29.851  27.738  1.00  0.00     0.009 A 
ATOM     79  C   UNL A   1      43.861  30.186  28.115  1.00  0.00     0.009 A 
ATOM     80  C   UNL A   1      46.216  30.906  26.819  1.00  0.00     0.001 A 
ATOM     81  C   UNL A   1      43.854  31.223  27.177  1.00  0.00     0.001 A 
ATOM     82  C   UNL A   1      45.034  31.588  26.536  1.00  0.00     0.000 A 
ENDBRANCH  64  77
ENDBRANCH  38  39
ENDBRANCH  30  33
ENDBRANCH  28  29
ENDBRANCH  27  28
ENDBRANCH   1  27
TORSDOF 14
ENDMDL
