MODEL 1
REMARK VINA RESULT:     -10.0      0.000      0.000
REMARK SMILES CC(C)[NH2+][C@]1(C(=O)NCCCCCCNC(=O)c2ccc(-c3c4nc(c(-c5ccccc5)c5ccc([nH]5)c(-c5ccccc5)c5nc(c(-c6ccccc6)c6ccc3[nH]6)C=C5)C=C4)cc2)CCC[C@@H]([N@@H+](C)C2CC2)C1
REMARK SMILES IDX 11 1 10 2 9 3 8 4 6 5 7 6 5 8 66 9 75 10 67 11 69 12 68 13
REMARK SMILES IDX 4 14 2 17 1 18 3 19 70 20 71 21 72 23 73 24 74 25 12 26
REMARK SMILES IDX 13 27 14 28 15 29 16 30 17 32 18 33 19 34 65 35 20 36 64 37
REMARK SMILES IDX 21 38 22 39 23 40 58 41 24 42 63 43 57 44 59 45 25 46 62 47
REMARK SMILES IDX 56 48 55 49 26 51 48 52 33 53 47 54 34 55 37 56 46 57 60 58
REMARK SMILES IDX 35 59 36 60 45 62 61 63 38 64 27 65 28 66 32 67 29 68 31 69
REMARK SMILES IDX 30 70 49 71 50 72 54 73 51 74 53 75 52 76 39 77 40 78 44 79
REMARK SMILES IDX 41 80 43 81 42 82
REMARK H PARENT 8 7 4 15 4 16 70 22 15 31 59 50 37 61
REMARK Flexibility Score: inf
ROOT
ATOM      1  C   UNL A   1      31.547  29.632  25.586  1.00  0.00     0.002 C 
ENDROOT
BRANCH   1   2
ATOM      2  C   UNL A   1      32.644  29.356  24.547  1.00  0.00     0.021 C 
BRANCH   2   3
ATOM      3  C   UNL A   1      33.538  28.162  24.909  1.00  0.00     0.116 C 
BRANCH   3   4
ATOM      4  N   UNL A   1      33.928  27.447  23.720  1.00  0.00    -0.351 N 
ATOM      5  C   UNL A   1      33.481  26.362  23.066  1.00  0.00     0.281 C 
ATOM      6  O   UNL A   1      33.751  26.437  21.850  1.00  0.00    -0.268 OA
ATOM      7  H   UNL A   1      34.711  27.851  23.281  1.00  0.00     0.163 HD
BRANCH   5   8
ATOM      8  C   UNL A   1      32.786  25.058  23.593  1.00  0.00     0.181 C 
ATOM      9  C   UNL A   1      32.849  24.073  22.371  1.00  0.00     0.079 C 
ATOM     10  C   UNL A   1      33.744  24.504  24.694  1.00  0.00     0.144 C 
ATOM     11  C   UNL A   1      32.620  22.601  22.715  1.00  0.00     0.013 C 
ATOM     12  C   UNL A   1      33.706  22.991  24.977  1.00  0.00     0.190 C 
ATOM     13  C   UNL A   1      33.642  22.101  23.727  1.00  0.00     0.065 C 
BRANCH   8  14
ATOM     14  N   UNL A   1      31.351  25.054  23.975  1.00  0.00    -0.331 N 
ATOM     15  H   UNL A   1      30.848  24.889  23.103  1.00  0.00     0.347 HD
ATOM     16  H   UNL A   1      31.388  24.382  24.742  1.00  0.00     0.347 HD
BRANCH  14  17
ATOM     17  C   UNL A   1      30.616  26.126  24.637  1.00  0.00     0.176 C 
ATOM     18  C   UNL A   1      29.289  26.318  23.876  1.00  0.00     0.075 C 
ATOM     19  C   UNL A   1      30.340  26.016  26.127  1.00  0.00     0.075 C 
ENDBRANCH  14  17
ENDBRANCH   8  14
BRANCH  12  20
ATOM     20  N   UNL A   1      34.778  22.613  25.936  1.00  0.00    -0.332 N 
ATOM     21  C   UNL A   1      34.261  21.722  26.983  1.00  0.00     0.333 C 
ATOM     22  H   UNL A   1      35.036  23.530  26.299  1.00  0.00     0.348 HD
BRANCH  20  23
ATOM     23  C   UNL A   1      36.086  22.110  25.428  1.00  0.00     0.184 C 
ATOM     24  C   UNL A   1      36.930  22.690  24.326  1.00  0.00     0.071 C 
ATOM     25  C   UNL A   1      37.323  22.918  25.752  1.00  0.00     0.071 C 
ENDBRANCH  20  23
ENDBRANCH  12  20
ENDBRANCH   5   8
ENDBRANCH   3   4
ENDBRANCH   2   3
ENDBRANCH   1   2
BRANCH   1  26
ATOM     26  C   UNL A   1      32.027  30.363  26.845  1.00  0.00     0.002 C 
BRANCH  26  27
ATOM     27  C   UNL A   1      31.622  31.838  26.934  1.00  0.00     0.021 C 
BRANCH  27  28
ATOM     28  C   UNL A   1      32.781  32.829  26.876  1.00  0.00     0.116 C 
BRANCH  28  29
ATOM     29  N   UNL A   1      32.529  34.008  27.691  1.00  0.00    -0.352 N 
ATOM     30  C   UNL A   1      33.123  34.430  28.847  1.00  0.00     0.251 C 
ATOM     31  H   UNL A   1      31.815  34.597  27.356  1.00  0.00     0.163 HD
ATOM     32  O   UNL A   1      32.595  35.331  29.505  1.00  0.00    -0.269 OA
BRANCH  30  33
ATOM     33  C   UNL A   1      34.387  33.832  29.323  1.00  0.00     0.039 A 
ATOM     34  C   UNL A   1      35.585  34.246  28.734  1.00  0.00     0.014 A 
ATOM     35  C   UNL A   1      34.398  32.816  30.284  1.00  0.00     0.014 A 
ATOM     36  C   UNL A   1      36.791  33.666  29.126  1.00  0.00     0.010 A 
ATOM     37  C   UNL A   1      35.609  32.284  30.726  1.00  0.00     0.010 A 
ATOM     38  C   UNL A   1      36.815  32.691  30.138  1.00  0.00    -0.014 A 
BRANCH  38  39
ATOM     39  C   UNL A   1      38.102  32.095  30.570  1.00  0.00     0.031 A 
ATOM     40  C   UNL A   1      38.870  32.680  31.722  1.00  0.00     0.074 A 
ATOM     41  C   UNL A   1      38.585  31.023  29.911  1.00  0.00     0.049 A 
ATOM     42  N   UNL A   1      39.973  32.247  32.282  1.00  0.00    -0.248 NA
ATOM     43  C   UNL A   1      38.345  33.921  32.313  1.00  0.00     0.031 C 
ATOM     44  C   UNL A   1      37.961  30.396  28.745  1.00  0.00     0.029 A 
ATOM     45  N   UNL A   1      39.704  30.266  30.140  1.00  0.00    -0.354 N 
ATOM     46  C   UNL A   1      40.275  33.165  33.280  1.00  0.00     0.074 A 
ATOM     47  C   UNL A   1      39.270  34.204  33.218  1.00  0.00     0.031 C 
ATOM     48  C   UNL A   1      38.682  29.321  28.388  1.00  0.00     0.029 A 
ATOM     49  C   UNL A   1      39.827  29.199  29.284  1.00  0.00     0.049 A 
ATOM     50  H   UNL A   1      40.357  30.467  30.849  1.00  0.00     0.167 HD
ATOM     51  C   UNL A   1      41.285  33.135  34.183  1.00  0.00     0.031 A 
ATOM     52  C   UNL A   1      40.748  28.219  29.238  1.00  0.00     0.031 A 
ATOM     53  C   UNL A   1      42.281  32.099  34.250  1.00  0.00     0.049 A 
ATOM     54  C   UNL A   1      41.843  28.193  30.265  1.00  0.00     0.074 A 
ATOM     55  C   UNL A   1      43.315  31.950  35.158  1.00  0.00     0.029 A 
ATOM     56  N   UNL A   1      42.367  31.031  33.369  1.00  0.00    -0.354 N 
ATOM     57  N   UNL A   1      42.070  29.026  31.252  1.00  0.00    -0.248 NA
ATOM     58  C   UNL A   1      42.795  27.078  30.183  1.00  0.00     0.031 C 
ATOM     59  C   UNL A   1      44.050  30.814  34.802  1.00  0.00     0.029 A 
ATOM     60  C   UNL A   1      43.445  30.229  33.702  1.00  0.00     0.049 A 
ATOM     61  H   UNL A   1      41.751  30.868  32.618  1.00  0.00     0.167 HD
ATOM     62  C   UNL A   1      43.177  28.522  31.922  1.00  0.00     0.074 A 
ATOM     63  C   UNL A   1      43.560  27.302  31.242  1.00  0.00     0.031 C 
ATOM     64  C   UNL A   1      43.818  29.025  33.006  1.00  0.00     0.031 A 
BRANCH  51  65
ATOM     65  C   UNL A   1      41.360  34.266  35.170  1.00  0.00    -0.014 A 
ATOM     66  C   UNL A   1      40.707  34.191  36.411  1.00  0.00     0.009 A 
ATOM     67  C   UNL A   1      42.114  35.411  34.868  1.00  0.00     0.009 A 
ATOM     68  C   UNL A   1      40.776  35.255  37.313  1.00  0.00     0.001 A 
ATOM     69  C   UNL A   1      42.204  36.463  35.783  1.00  0.00     0.001 A 
ATOM     70  C   UNL A   1      41.527  36.388  37.000  1.00  0.00     0.000 A 
ENDBRANCH  51  65
BRANCH  52  71
ATOM     71  C   UNL A   1      40.641  27.151  28.212  1.00  0.00    -0.014 A 
ATOM     72  C   UNL A   1      41.270  27.297  26.966  1.00  0.00     0.009 A 
ATOM     73  C   UNL A   1      39.919  25.977  28.477  1.00  0.00     0.009 A 
ATOM     74  C   UNL A   1      41.158  26.301  25.996  1.00  0.00     0.001 A 
ATOM     75  C   UNL A   1      39.830  24.971  27.513  1.00  0.00     0.001 A 
ATOM     76  C   UNL A   1      40.442  25.135  26.272  1.00  0.00     0.000 A 
ENDBRANCH  52  71
BRANCH  64  77
ATOM     77  C   UNL A   1      44.984  28.236  33.531  1.00  0.00    -0.014 A 
ATOM     78  C   UNL A   1      46.291  28.488  33.086  1.00  0.00     0.009 A 
ATOM     79  C   UNL A   1      44.771  27.235  34.490  1.00  0.00     0.009 A 
ATOM     80  C   UNL A   1      47.358  27.724  33.564  1.00  0.00     0.001 A 
ATOM     81  C   UNL A   1      45.842  26.491  34.985  1.00  0.00     0.001 A 
ATOM     82  C   UNL A   1      47.133  26.728  34.514  1.00  0.00     0.000 A 
ENDBRANCH  64  77
ENDBRANCH  38  39
ENDBRANCH  30  33
ENDBRANCH  28  29
ENDBRANCH  27  28
ENDBRANCH  26  27
ENDBRANCH   1  26
TORSDOF 17
ENDMDL
MODEL 2
REMARK VINA RESULT:      -9.8      1.476      2.227
REMARK SMILES CC(C)[NH2+][C@]1(C(=O)NCCCCCCNC(=O)c2ccc(-c3c4nc(c(-c5ccccc5)c5ccc([nH]5)c(-c5ccccc5)c5nc(c(-c6ccccc6)c6ccc3[nH]6)C=C5)C=C4)cc2)CCC[C@@H]([N@@H+](C)C2CC2)C1
REMARK SMILES IDX 11 1 10 2 9 3 8 4 6 5 7 6 5 8 66 9 75 10 67 11 69 12 68 13
REMARK SMILES IDX 4 14 2 17 1 18 3 19 70 20 71 21 72 23 73 24 74 25 12 26
REMARK SMILES IDX 13 27 14 28 15 29 16 30 17 32 18 33 19 34 65 35 20 36 64 37
REMARK SMILES IDX 21 38 22 39 23 40 58 41 24 42 63 43 57 44 59 45 25 46 62 47
REMARK SMILES IDX 56 48 55 49 26 51 48 52 33 53 47 54 34 55 37 56 46 57 60 58
REMARK SMILES IDX 35 59 36 60 45 62 61 63 38 64 27 65 28 66 32 67 29 68 31 69
REMARK SMILES IDX 30 70 49 71 50 72 54 73 51 74 53 75 52 76 39 77 40 78 44 79
REMARK SMILES IDX 41 80 43 81 42 82
REMARK H PARENT 8 7 4 15 4 16 70 22 15 31 59 50 37 61
REMARK Flexibility Score: inf
ROOT
ATOM      1  C   UNL A   1      33.334  28.829  27.075  1.00  0.00     0.002 C 
ENDROOT
BRANCH   1   2
ATOM      2  C   UNL A   1      32.024  28.214  27.589  1.00  0.00     0.021 C 
BRANCH   2   3
ATOM      3  C   UNL A   1      31.137  27.650  26.471  1.00  0.00     0.116 C 
BRANCH   3   4
ATOM      4  N   UNL A   1      30.939  26.234  26.652  1.00  0.00    -0.351 N 
ATOM      5  C   UNL A   1      31.645  25.126  26.372  1.00  0.00     0.281 C 
ATOM      6  O   UNL A   1      31.363  24.209  27.172  1.00  0.00    -0.268 OA
ATOM      7  H   UNL A   1      30.078  26.029  27.084  1.00  0.00     0.163 HD
BRANCH   5   8
ATOM      8  C   UNL A   1      32.647  24.812  25.207  1.00  0.00     0.181 C 
ATOM      9  C   UNL A   1      34.061  25.073  25.841  1.00  0.00     0.079 C 
ATOM     10  C   UNL A   1      32.517  23.277  24.962  1.00  0.00     0.144 C 
ATOM     11  C   UNL A   1      35.235  24.461  25.076  1.00  0.00     0.013 C 
ATOM     12  C   UNL A   1      33.731  22.545  24.359  1.00  0.00     0.190 C 
ATOM     13  C   UNL A   1      35.089  22.951  24.950  1.00  0.00     0.065 C 
BRANCH   8  14
ATOM     14  N   UNL A   1      32.662  25.629  23.967  1.00  0.00    -0.331 N 
ATOM     15  H   UNL A   1      32.610  26.596  24.288  1.00  0.00     0.347 HD
ATOM     16  H   UNL A   1      33.484  25.227  23.516  1.00  0.00     0.347 HD
BRANCH  14  17
ATOM     17  C   UNL A   1      31.723  25.551  22.853  1.00  0.00     0.176 C 
ATOM     18  C   UNL A   1      30.668  26.657  23.057  1.00  0.00     0.075 C 
ATOM     19  C   UNL A   1      32.259  25.611  21.434  1.00  0.00     0.075 C 
ENDBRANCH  14  17
ENDBRANCH   8  14
BRANCH  12  20
ATOM     20  N   UNL A   1      33.494  21.077  24.334  1.00  0.00    -0.332 N 
ATOM     21  C   UNL A   1      33.640  20.495  25.675  1.00  0.00     0.333 C 
ATOM     22  H   UNL A   1      34.233  20.779  23.698  1.00  0.00     0.348 HD
BRANCH  20  23
ATOM     23  C   UNL A   1      32.280  20.531  23.662  1.00  0.00     0.184 C 
ATOM     24  C   UNL A   1      32.016  20.424  22.186  1.00  0.00     0.071 C 
ATOM     25  C   UNL A   1      32.407  19.201  22.954  1.00  0.00     0.071 C 
ENDBRANCH  20  23
ENDBRANCH  12  20
ENDBRANCH   5   8
ENDBRANCH   3   4
ENDBRANCH   2   3
ENDBRANCH   1   2
BRANCH   1  26
ATOM     26  C   UNL A   1      33.555  30.292  27.477  1.00  0.00     0.002 C 
BRANCH  26  27
ATOM     27  C   UNL A   1      32.310  31.182  27.403  1.00  0.00     0.021 C 
BRANCH  27  28
ATOM     28  C   UNL A   1      32.479  32.460  26.586  1.00  0.00     0.116 C 
BRANCH  28  29
ATOM     29  N   UNL A   1      32.306  33.652  27.400  1.00  0.00    -0.352 N 
ATOM     30  C   UNL A   1      33.033  34.116  28.461  1.00  0.00     0.251 C 
ATOM     31  H   UNL A   1      31.542  34.218  27.146  1.00  0.00     0.163 HD
ATOM     32  O   UNL A   1      32.573  35.021  29.162  1.00  0.00    -0.269 OA
BRANCH  30  33
ATOM     33  C   UNL A   1      34.361  33.555  28.785  1.00  0.00     0.039 A 
ATOM     34  C   UNL A   1      34.500  32.802  29.955  1.00  0.00     0.014 A 
ATOM     35  C   UNL A   1      35.482  33.825  27.994  1.00  0.00     0.014 A 
ATOM     36  C   UNL A   1      35.750  32.300  30.315  1.00  0.00     0.010 A 
ATOM     37  C   UNL A   1      36.718  33.266  28.317  1.00  0.00     0.010 A 
ATOM     38  C   UNL A   1      36.866  32.514  29.490  1.00  0.00    -0.014 A 
BRANCH  38  39
ATOM     39  C   UNL A   1      38.189  31.956  29.864  1.00  0.00     0.031 A 
ATOM     40  C   UNL A   1      39.090  32.692  30.816  1.00  0.00     0.074 A 
ATOM     41  C   UNL A   1      38.581  30.782  29.335  1.00  0.00     0.049 A 
ATOM     42  N   UNL A   1      40.245  32.322  31.311  1.00  0.00    -0.248 NA
ATOM     43  C   UNL A   1      38.649  34.025  31.257  1.00  0.00     0.031 C 
ATOM     44  C   UNL A   1      37.821  29.998  28.360  1.00  0.00     0.029 A 
ATOM     45  N   UNL A   1      39.712  30.037  29.554  1.00  0.00    -0.354 N 
ATOM     46  C   UNL A   1      40.670  33.375  32.110  1.00  0.00     0.074 A 
ATOM     47  C   UNL A   1      39.676  34.420  31.996  1.00  0.00     0.031 C 
ATOM     48  C   UNL A   1      38.485  28.860  28.100  1.00  0.00     0.029 A 
ATOM     49  C   UNL A   1      39.724  28.847  28.870  1.00  0.00     0.049 A 
ATOM     50  H   UNL A   1      40.444  30.329  30.145  1.00  0.00     0.167 HD
ATOM     51  C   UNL A   1      41.776  33.458  32.887  1.00  0.00     0.031 A 
ATOM     52  C   UNL A   1      40.623  27.846  28.878  1.00  0.00     0.031 A 
ATOM     53  C   UNL A   1      42.762  32.417  33.006  1.00  0.00     0.049 A 
ATOM     54  C   UNL A   1      41.829  27.950  29.767  1.00  0.00     0.074 A 
ATOM     55  C   UNL A   1      43.893  32.383  33.805  1.00  0.00     0.029 A 
ATOM     56  N   UNL A   1      42.735  31.223  32.302  1.00  0.00    -0.354 N 
ATOM     57  N   UNL A   1      42.177  28.920  30.577  1.00  0.00    -0.248 NA
ATOM     58  C   UNL A   1      42.753  26.809  29.757  1.00  0.00     0.031 C 
ATOM     59  C   UNL A   1      44.570  31.184  33.554  1.00  0.00     0.029 A 
ATOM     60  C   UNL A   1      43.836  30.452  32.636  1.00  0.00     0.049 A 
ATOM     61  H   UNL A   1      42.036  30.961  31.661  1.00  0.00     0.167 HD
ATOM     62  C   UNL A   1      43.347  28.496  31.191  1.00  0.00     0.074 A 
ATOM     63  C   UNL A   1      43.637  27.174  30.675  1.00  0.00     0.031 C 
ATOM     64  C   UNL A   1      44.114  29.143  32.103  1.00  0.00     0.031 A 
BRANCH  51  65
ATOM     65  C   UNL A   1      41.976  34.727  33.668  1.00  0.00    -0.014 A 
ATOM     66  C   UNL A   1      41.438  34.880  34.956  1.00  0.00     0.009 A 
ATOM     67  C   UNL A   1      42.734  35.775  33.121  1.00  0.00     0.009 A 
ATOM     68  C   UNL A   1      41.622  36.070  35.664  1.00  0.00     0.001 A 
ATOM     69  C   UNL A   1      42.939  36.953  33.842  1.00  0.00     0.001 A 
ATOM     70  C   UNL A   1      42.375  37.103  35.108  1.00  0.00     0.000 A 
ENDBRANCH  51  65
BRANCH  52  71
ATOM     71  C   UNL A   1      40.388  26.634  28.053  1.00  0.00    -0.014 A 
ATOM     72  C   UNL A   1      40.946  26.528  26.770  1.00  0.00     0.009 A 
ATOM     73  C   UNL A   1      39.613  25.573  28.547  1.00  0.00     0.009 A 
ATOM     74  C   UNL A   1      40.714  25.396  25.989  1.00  0.00     0.001 A 
ATOM     75  C   UNL A   1      39.404  24.431  27.773  1.00  0.00     0.001 A 
ATOM     76  C   UNL A   1      39.947  24.346  26.492  1.00  0.00     0.000 A 
ENDBRANCH  52  71
BRANCH  64  77
ATOM     77  C   UNL A   1      45.324  28.414  32.612  1.00  0.00    -0.014 A 
ATOM     78  C   UNL A   1      46.572  28.547  31.984  1.00  0.00     0.009 A 
ATOM     79  C   UNL A   1      45.214  27.590  33.743  1.00  0.00     0.009 A 
ATOM     80  C   UNL A   1      47.678  27.837  32.455  1.00  0.00     0.001 A 
ATOM     81  C   UNL A   1      46.328  26.903  34.227  1.00  0.00     0.001 A 
ATOM     82  C   UNL A   1      47.556  27.018  33.577  1.00  0.00     0.000 A 
ENDBRANCH  64  77
ENDBRANCH  38  39
ENDBRANCH  30  33
ENDBRANCH  28  29
ENDBRANCH  27  28
ENDBRANCH  26  27
ENDBRANCH   1  26
TORSDOF 17
ENDMDL
MODEL 3
REMARK VINA RESULT:      -9.8      2.842      7.342
REMARK SMILES CC(C)[NH2+][C@]1(C(=O)NCCCCCCNC(=O)c2ccc(-c3c4nc(c(-c5ccccc5)c5ccc([nH]5)c(-c5ccccc5)c5nc(c(-c6ccccc6)c6ccc3[nH]6)C=C5)C=C4)cc2)CCC[C@@H]([N@@H+](C)C2CC2)C1
REMARK SMILES IDX 11 1 10 2 9 3 8 4 6 5 7 6 5 8 66 9 75 10 67 11 69 12 68 13
REMARK SMILES IDX 4 14 2 17 1 18 3 19 70 20 71 21 72 23 73 24 74 25 12 26
REMARK SMILES IDX 13 27 14 28 15 29 16 30 17 32 18 33 19 34 65 35 20 36 64 37
REMARK SMILES IDX 21 38 22 39 23 40 58 41 24 42 63 43 57 44 59 45 25 46 62 47
REMARK SMILES IDX 56 48 55 49 26 51 48 52 33 53 47 54 34 55 37 56 46 57 60 58
REMARK SMILES IDX 35 59 36 60 45 62 61 63 38 64 27 65 28 66 32 67 29 68 31 69
REMARK SMILES IDX 30 70 49 71 50 72 54 73 51 74 53 75 52 76 39 77 40 78 44 79
REMARK SMILES IDX 41 80 43 81 42 82
REMARK H PARENT 8 7 4 15 4 16 70 22 15 31 59 50 37 61
REMARK Flexibility Score: inf
ROOT
ATOM      1  C   UNL A   1      32.686  28.068  23.538  1.00  0.00     0.002 C 
ENDROOT
BRANCH   1   2
ATOM      2  C   UNL A   1      33.787  27.210  22.896  1.00  0.00     0.021 C 
BRANCH   2   3
ATOM      3  C   UNL A   1      33.395  25.734  22.742  1.00  0.00     0.116 C 
BRANCH   3   4
ATOM      4  N   UNL A   1      32.600  25.304  23.864  1.00  0.00    -0.351 N 
ATOM      5  C   UNL A   1      32.830  24.602  24.986  1.00  0.00     0.281 C 
ATOM      6  O   UNL A   1      32.038  24.941  25.890  1.00  0.00    -0.268 OA
ATOM      7  H   UNL A   1      31.662  25.595  23.792  1.00  0.00     0.163 HD
BRANCH   5   8
ATOM      8  C   UNL A   1      33.833  23.432  25.279  1.00  0.00     0.181 C 
ATOM      9  C   UNL A   1      33.663  23.161  26.817  1.00  0.00     0.079 C 
ATOM     10  C   UNL A   1      33.254  22.200  24.517  1.00  0.00     0.144 C 
ATOM     11  C   UNL A   1      34.207  21.815  27.300  1.00  0.00     0.013 C 
ATOM     12  C   UNL A   1      33.606  20.799  25.052  1.00  0.00     0.190 C 
ATOM     13  C   UNL A   1      33.536  20.654  26.579  1.00  0.00     0.065 C 
BRANCH   8  14
ATOM     14  N   UNL A   1      35.297  23.617  25.114  1.00  0.00    -0.331 N 
ATOM     15  H   UNL A   1      35.393  24.433  24.508  1.00  0.00     0.347 HD
ATOM     16  H   UNL A   1      35.576  23.606  26.095  1.00  0.00     0.347 HD
BRANCH  14  17
ATOM     17  C   UNL A   1      36.252  22.646  24.589  1.00  0.00     0.176 C 
ATOM     18  C   UNL A   1      36.618  23.081  23.156  1.00  0.00     0.075 C 
ATOM     19  C   UNL A   1      37.518  22.362  25.377  1.00  0.00     0.075 C 
ENDBRANCH  14  17
ENDBRANCH   8  14
BRANCH  12  20
ATOM     20  N   UNL A   1      32.855  19.753  24.308  1.00  0.00    -0.332 N 
ATOM     21  C   UNL A   1      32.132  20.332  23.168  1.00  0.00     0.333 C 
ATOM     22  H   UNL A   1      32.227  19.419  25.038  1.00  0.00     0.348 HD
BRANCH  20  23
ATOM     23  C   UNL A   1      33.541  18.494  23.900  1.00  0.00     0.184 C 
ATOM     24  C   UNL A   1      34.842  17.945  24.417  1.00  0.00     0.071 C 
ATOM     25  C   UNL A   1      33.552  17.348  24.887  1.00  0.00     0.071 C 
ENDBRANCH  20  23
ENDBRANCH  12  20
ENDBRANCH   5   8
ENDBRANCH   3   4
ENDBRANCH   2   3
ENDBRANCH   1   2
BRANCH   1  26
ATOM     26  C   UNL A   1      33.130  28.860  24.772  1.00  0.00     0.002 C 
BRANCH  26  27
ATOM     27  C   UNL A   1      33.920  28.058  25.811  1.00  0.00     0.021 C 
BRANCH  27  28
ATOM     28  C   UNL A   1      33.591  28.384  27.265  1.00  0.00     0.116 C 
BRANCH  28  29
ATOM     29  N   UNL A   1      33.587  29.818  27.512  1.00  0.00    -0.352 N 
ATOM     30  C   UNL A   1      34.528  30.621  28.093  1.00  0.00     0.251 C 
ATOM     31  H   UNL A   1      32.774  30.286  27.213  1.00  0.00     0.163 HD
ATOM     32  O   UNL A   1      34.223  31.770  28.424  1.00  0.00    -0.269 OA
BRANCH  30  33
ATOM     33  C   UNL A   1      35.905  30.141  28.330  1.00  0.00     0.039 A 
ATOM     34  C   UNL A   1      36.219  29.611  29.586  1.00  0.00     0.014 A 
ATOM     35  C   UNL A   1      36.905  30.278  27.362  1.00  0.00     0.014 A 
ATOM     36  C   UNL A   1      37.522  29.194  29.859  1.00  0.00     0.010 A 
ATOM     37  C   UNL A   1      38.190  29.799  27.611  1.00  0.00     0.010 A 
ATOM     38  C   UNL A   1      38.515  29.270  28.868  1.00  0.00    -0.014 A 
BRANCH  38  39
ATOM     39  C   UNL A   1      39.893  28.802  29.155  1.00  0.00     0.031 A 
ATOM     40  C   UNL A   1      40.340  27.430  28.735  1.00  0.00     0.074 A 
ATOM     41  C   UNL A   1      40.742  29.619  29.807  1.00  0.00     0.049 A 
ATOM     42  N   UNL A   1      41.525  26.882  28.837  1.00  0.00    -0.248 NA
ATOM     43  C   UNL A   1      39.323  26.549  28.138  1.00  0.00     0.031 C 
ATOM     44  C   UNL A   1      40.412  30.952  30.313  1.00  0.00     0.029 A 
ATOM     45  N   UNL A   1      42.061  29.451  30.142  1.00  0.00    -0.354 N 
ATOM     46  C   UNL A   1      41.393  25.596  28.329  1.00  0.00     0.074 A 
ATOM     47  C   UNL A   1      40.004  25.427  27.965  1.00  0.00     0.031 C 
ATOM     48  C   UNL A   1      41.513  31.500  30.854  1.00  0.00     0.029 A 
ATOM     49  C   UNL A   1      42.615  30.550  30.753  1.00  0.00     0.049 A 
ATOM     50  H   UNL A   1      42.563  28.623  29.962  1.00  0.00     0.167 HD
ATOM     51  C   UNL A   1      42.346  24.648  28.159  1.00  0.00     0.031 A 
ATOM     52  C   UNL A   1      43.875  30.774  31.166  1.00  0.00     0.031 A 
ATOM     53  C   UNL A   1      43.730  24.819  28.515  1.00  0.00     0.049 A 
ATOM     54  C   UNL A   1      44.920  29.719  30.943  1.00  0.00     0.074 A 
ATOM     55  C   UNL A   1      44.784  23.938  28.338  1.00  0.00     0.029 A 
ATOM     56  N   UNL A   1      44.252  25.949  29.125  1.00  0.00    -0.354 N 
ATOM     57  N   UNL A   1      44.795  28.537  30.390  1.00  0.00    -0.248 NA
ATOM     58  C   UNL A   1      46.283  30.040  31.385  1.00  0.00     0.031 C 
ATOM     59  C   UNL A   1      45.937  24.521  28.876  1.00  0.00     0.029 A 
ATOM     60  C   UNL A   1      45.610  25.783  29.345  1.00  0.00     0.049 A 
ATOM     61  H   UNL A   1      43.735  26.751  29.366  1.00  0.00     0.167 HD
ATOM     62  C   UNL A   1      46.068  27.983  30.394  1.00  0.00     0.074 A 
ATOM     63  C   UNL A   1      46.952  28.967  30.987  1.00  0.00     0.031 C 
ATOM     64  C   UNL A   1      46.471  26.768  29.946  1.00  0.00     0.031 A 
BRANCH  51  65
ATOM     65  C   UNL A   1      41.916  23.338  27.563  1.00  0.00    -0.014 A 
ATOM     66  C   UNL A   1      42.044  23.089  26.186  1.00  0.00     0.009 A 
ATOM     67  C   UNL A   1      41.399  22.327  28.389  1.00  0.00     0.009 A 
ATOM     68  C   UNL A   1      41.629  21.871  25.645  1.00  0.00     0.001 A 
ATOM     69  C   UNL A   1      41.009  21.100  27.849  1.00  0.00     0.001 A 
ATOM     70  C   UNL A   1      41.115  20.876  26.476  1.00  0.00     0.000 A 
ENDBRANCH  51  65
BRANCH  52  71
ATOM     71  C   UNL A   1      44.229  32.076  31.785  1.00  0.00    -0.014 A 
ATOM     72  C   UNL A   1      44.653  33.150  30.987  1.00  0.00     0.009 A 
ATOM     73  C   UNL A   1      44.135  32.256  33.174  1.00  0.00     0.009 A 
ATOM     74  C   UNL A   1      44.999  34.370  31.569  1.00  0.00     0.001 A 
ATOM     75  C   UNL A   1      44.458  33.486  33.750  1.00  0.00     0.001 A 
ATOM     76  C   UNL A   1      44.897  34.539  32.950  1.00  0.00     0.000 A 
ENDBRANCH  52  71
BRANCH  64  77
ATOM     77  C   UNL A   1      47.935  26.453  30.062  1.00  0.00    -0.014 A 
ATOM     78  C   UNL A   1      48.456  25.826  31.204  1.00  0.00     0.009 A 
ATOM     79  C   UNL A   1      48.801  26.780  29.008  1.00  0.00     0.009 A 
ATOM     80  C   UNL A   1      49.824  25.569  31.305  1.00  0.00     0.001 A 
ATOM     81  C   UNL A   1      50.165  26.498  29.100  1.00  0.00     0.001 A 
ATOM     82  C   UNL A   1      50.677  25.902  30.252  1.00  0.00     0.000 A 
ENDBRANCH  64  77
ENDBRANCH  38  39
ENDBRANCH  30  33
ENDBRANCH  28  29
ENDBRANCH  27  28
ENDBRANCH  26  27
ENDBRANCH   1  26
TORSDOF 17
ENDMDL
