MODEL 1
REMARK VINA RESULT:     -10.5      0.000      0.000
REMARK SMILES CCN1C(=O)/C(=C/c2ccccc2O[C@H](C)C(=O)NCCCCCCNC(=O)c2ccc(-c3c4nc(c(-c5ccccc5)c5ccc([nH]5)c(-c5ccccc5)c5nc(c(-c6ccccc6)c6ccc3[nH]6)C=C5)C=C4)cc2)S/C1=[NH+]\c1ccc(C)cc1O
REMARK SMILES IDX 21 1 20 2 19 3 17 4 18 5 15 7 16 8 14 9 13 10 8 11 9 12
REMARK SMILES IDX 10 13 12 14 11 15 7 16 3 17 4 18 78 19 5 20 6 21 77 22 79 23
REMARK SMILES IDX 2 25 1 26 80 27 81 28 86 29 82 30 85 31 83 32 84 33 87 34
REMARK SMILES IDX 22 36 23 37 24 38 25 39 26 40 27 41 28 43 29 44 30 45 76 46
REMARK SMILES IDX 31 47 75 48 32 49 33 50 34 51 69 52 35 53 74 54 68 55 70 56
REMARK SMILES IDX 36 57 73 58 67 59 66 60 37 62 59 63 44 64 58 65 45 66 48 67
REMARK SMILES IDX 57 68 71 69 46 70 47 71 56 73 72 74 49 75 38 76 39 77 43 78
REMARK SMILES IDX 40 79 42 80 41 81 60 82 61 83 65 84 62 85 64 86 63 87 50 88
REMARK SMILES IDX 51 89 55 90 52 91 54 92 53 93
REMARK H PARENT 19 6 79 24 87 35 26 42 70 61 48 72
REMARK Flexibility Score: inf
ROOT
ATOM      1  C   UNL A   1      36.032  34.201  31.471  1.00  0.00     0.021 C 
ENDROOT
BRANCH   1   2
ATOM      2  C   UNL A   1      34.625  33.671  31.240  1.00  0.00     0.116 C 
BRANCH   2   3
ATOM      3  N   UNL A   1      33.720  34.655  30.711  1.00  0.00    -0.353 N 
ATOM      4  C   UNL A   1      33.282  34.804  29.428  1.00  0.00     0.260 C 
ATOM      5  O   UNL A   1      32.422  35.669  29.227  1.00  0.00    -0.271 OA
ATOM      6  H   UNL A   1      33.369  35.306  31.361  1.00  0.00     0.163 HD
BRANCH   4   7
ATOM      7  C   UNL A   1      33.882  33.998  28.242  1.00  0.00     0.258 C 
ATOM      8  C   UNL A   1      35.147  34.657  27.715  1.00  0.00     0.064 C 
BRANCH   7   9
ATOM      9  O   UNL A   1      33.821  32.585  28.321  1.00  0.00    -0.480 OA
BRANCH   9  10
ATOM     10  C   UNL A   1      34.775  31.625  28.172  1.00  0.00     0.127 A 
ATOM     11  C   UNL A   1      34.368  30.519  27.389  1.00  0.00     0.018 A 
ATOM     12  C   UNL A   1      35.161  29.364  27.341  1.00  0.00     0.012 A 
ATOM     13  C   UNL A   1      36.385  29.325  28.006  1.00  0.00     0.001 A 
ATOM     14  C   UNL A   1      36.044  31.602  28.751  1.00  0.00     0.047 A 
ATOM     15  C   UNL A   1      36.837  30.452  28.683  1.00  0.00     0.004 A 
BRANCH  11  16
ATOM     16  C   UNL A   1      33.131  30.551  26.583  1.00  0.00     0.036 C 
ATOM     17  N   UNL A   1      31.254  28.330  24.419  1.00  0.00    -0.186 N 
ATOM     18  C   UNL A   1      31.463  29.560  25.016  1.00  0.00     0.348 C 
ATOM     19  C   UNL A   1      32.213  27.368  24.662  1.00  0.00     0.324 C 
ATOM     20  O   UNL A   1      30.727  30.539  24.994  1.00  0.00    -0.240 OA
ATOM     21  C   UNL A   1      32.738  29.546  25.784  1.00  0.00     0.110 C 
ATOM     22  S   UNL A   1      33.546  28.051  25.537  1.00  0.00     0.007 SA
ATOM     23  N   UNL A   1      32.070  26.127  24.322  1.00  0.00    -0.231 N 
ATOM     24  H   UNL A   1      31.255  25.849  23.846  1.00  0.00     0.313 HD
BRANCH  17  25
ATOM     25  C   UNL A   1      30.095  27.989  23.596  1.00  0.00     0.244 C 
ATOM     26  C   UNL A   1      29.796  28.854  22.385  1.00  0.00     0.055 C 
ENDBRANCH  17  25
BRANCH  23  27
ATOM     27  C   UNL A   1      33.061  25.163  24.621  1.00  0.00     0.167 A 
ATOM     28  C   UNL A   1      34.033  24.871  23.661  1.00  0.00     0.056 A 
ATOM     29  C   UNL A   1      33.070  24.414  25.811  1.00  0.00     0.162 A 
ATOM     30  C   UNL A   1      35.000  23.882  23.894  1.00  0.00     0.008 A 
ATOM     31  C   UNL A   1      34.043  23.452  26.065  1.00  0.00     0.054 A 
ATOM     32  C   UNL A   1      35.017  23.173  25.102  1.00  0.00    -0.047 A 
ATOM     33  C   UNL A   1      36.027  22.088  25.334  1.00  0.00     0.044 C 
BRANCH  29  34
ATOM     34  O   UNL A   1      32.114  24.586  26.779  1.00  0.00    -0.504 OA
ATOM     35  H   UNL A   1      31.660  23.844  27.125  1.00  0.00     0.293 HD
ENDBRANCH  29  34
ENDBRANCH  23  27
ENDBRANCH  11  16
ENDBRANCH   9  10
ENDBRANCH   7   9
ENDBRANCH   4   7
ENDBRANCH   2   3
ENDBRANCH   1   2
BRANCH   1  36
ATOM     36  C   UNL A   1      37.021  33.119  31.896  1.00  0.00     0.002 C 
BRANCH  36  37
ATOM     37  C   UNL A   1      37.654  33.335  33.277  1.00  0.00     0.002 C 
BRANCH  37  38
ATOM     38  C   UNL A   1      37.119  32.432  34.395  1.00  0.00     0.021 C 
BRANCH  38  39
ATOM     39  C   UNL A   1      38.147  31.463  34.973  1.00  0.00     0.116 C 
BRANCH  39  40
ATOM     40  N   UNL A   1      38.009  30.129  34.408  1.00  0.00    -0.352 N 
ATOM     41  C   UNL A   1      38.505  29.612  33.240  1.00  0.00     0.251 C 
ATOM     42  H   UNL A   1      37.479  29.501  34.950  1.00  0.00     0.163 HD
ATOM     43  O   UNL A   1      38.086  28.540  32.814  1.00  0.00    -0.269 OA
BRANCH  41  44
ATOM     44  C   UNL A   1      39.536  30.350  32.485  1.00  0.00     0.039 A 
ATOM     45  C   UNL A   1      40.547  31.007  33.189  1.00  0.00     0.014 A 
ATOM     46  C   UNL A   1      39.494  30.411  31.089  1.00  0.00     0.014 A 
ATOM     47  C   UNL A   1      41.557  31.669  32.490  1.00  0.00     0.010 A 
ATOM     48  C   UNL A   1      40.539  31.012  30.392  1.00  0.00     0.010 A 
ATOM     49  C   UNL A   1      41.583  31.642  31.085  1.00  0.00    -0.014 A 
BRANCH  49  50
ATOM     50  C   UNL A   1      42.715  32.234  30.331  1.00  0.00     0.031 A 
ATOM     51  C   UNL A   1      44.010  31.486  30.180  1.00  0.00     0.074 A 
ATOM     52  C   UNL A   1      42.593  33.483  29.838  1.00  0.00     0.049 A 
ATOM     53  N   UNL A   1      45.120  31.872  29.603  1.00  0.00    -0.248 NA
ATOM     54  C   UNL A   1      44.076  30.140  30.771  1.00  0.00     0.031 C 
ATOM     55  C   UNL A   1      41.401  34.328  29.955  1.00  0.00     0.029 A 
ATOM     56  N   UNL A   1      43.485  34.264  29.147  1.00  0.00    -0.354 N 
ATOM     57  C   UNL A   1      46.017  30.825  29.772  1.00  0.00     0.074 A 
ATOM     58  C   UNL A   1      45.338  29.806  30.544  1.00  0.00     0.031 C 
ATOM     59  C   UNL A   1      41.628  35.498  29.336  1.00  0.00     0.029 A 
ATOM     60  C   UNL A   1      42.994  35.505  28.821  1.00  0.00     0.049 A 
ATOM     61  H   UNL A   1      44.392  33.963  28.907  1.00  0.00     0.167 HD
ATOM     62  C   UNL A   1      47.287  30.716  29.314  1.00  0.00     0.031 A 
ATOM     63  C   UNL A   1      43.579  36.541  28.192  1.00  0.00     0.031 A 
ATOM     64  C   UNL A   1      47.958  31.729  28.542  1.00  0.00     0.049 A 
ATOM     65  C   UNL A   1      44.999  36.401  27.718  1.00  0.00     0.074 A 
ATOM     66  C   UNL A   1      49.221  31.684  27.979  1.00  0.00     0.029 A 
ATOM     67  N   UNL A   1      47.426  32.971  28.233  1.00  0.00    -0.354 N 
ATOM     68  N   UNL A   1      45.805  35.371  27.815  1.00  0.00    -0.248 NA
ATOM     69  C   UNL A   1      45.586  37.564  27.039  1.00  0.00     0.031 C 
ATOM     70  C   UNL A   1      49.479  32.923  27.385  1.00  0.00     0.029 A 
ATOM     71  C   UNL A   1      48.351  33.715  27.520  1.00  0.00     0.049 A 
ATOM     72  H   UNL A   1      46.524  33.277  28.483  1.00  0.00     0.167 HD
ATOM     73  C   UNL A   1      46.983  35.754  27.189  1.00  0.00     0.074 A 
ATOM     74  C   UNL A   1      46.778  37.099  26.695  1.00  0.00     0.031 C 
ATOM     75  C   UNL A   1      48.135  35.055  27.038  1.00  0.00     0.031 A 
BRANCH  62  76
ATOM     76  C   UNL A   1      48.045  29.460  29.643  1.00  0.00    -0.014 A 
ATOM     77  C   UNL A   1      48.835  29.367  30.800  1.00  0.00     0.009 A 
ATOM     78  C   UNL A   1      47.913  28.330  28.820  1.00  0.00     0.009 A 
ATOM     79  C   UNL A   1      49.499  28.178  31.109  1.00  0.00     0.001 A 
ATOM     80  C   UNL A   1      48.553  27.134  29.147  1.00  0.00     0.001 A 
ATOM     81  C   UNL A   1      49.351  27.061  30.288  1.00  0.00     0.000 A 
ENDBRANCH  62  76
BRANCH  63  82
ATOM     82  C   UNL A   1      42.833  37.810  27.982  1.00  0.00    -0.014 A 
ATOM     83  C   UNL A   1      42.101  38.024  26.804  1.00  0.00     0.009 A 
ATOM     84  C   UNL A   1      42.867  38.825  28.951  1.00  0.00     0.009 A 
ATOM     85  C   UNL A   1      41.451  39.241  26.586  1.00  0.00     0.001 A 
ATOM     86  C   UNL A   1      42.188  40.028  28.746  1.00  0.00     0.001 A 
ATOM     87  C   UNL A   1      41.492  40.240  27.557  1.00  0.00     0.000 A 
ENDBRANCH  63  82
BRANCH  75  88
ATOM     88  C   UNL A   1      49.251  35.722  26.284  1.00  0.00    -0.014 A 
ATOM     89  C   UNL A   1      50.243  36.459  26.952  1.00  0.00     0.009 A 
ATOM     90  C   UNL A   1      49.334  35.577  24.891  1.00  0.00     0.009 A 
ATOM     91  C   UNL A   1      51.273  37.067  26.231  1.00  0.00     0.001 A 
ATOM     92  C   UNL A   1      50.384  36.158  24.179  1.00  0.00     0.001 A 
ATOM     93  C   UNL A   1      51.346  36.911  24.848  1.00  0.00     0.000 A 
ENDBRANCH  75  88
ENDBRANCH  49  50
ENDBRANCH  41  44
ENDBRANCH  39  40
ENDBRANCH  38  39
ENDBRANCH  37  38
ENDBRANCH  36  37
ENDBRANCH   1  36
TORSDOF 19
ENDMDL
MODEL 2
REMARK VINA RESULT:     -10.2      4.951      9.308
REMARK SMILES CCN1C(=O)/C(=C/c2ccccc2O[C@H](C)C(=O)NCCCCCCNC(=O)c2ccc(-c3c4nc(c(-c5ccccc5)c5ccc([nH]5)c(-c5ccccc5)c5nc(c(-c6ccccc6)c6ccc3[nH]6)C=C5)C=C4)cc2)S/C1=[NH+]\c1ccc(C)cc1O
REMARK SMILES IDX 21 1 20 2 19 3 17 4 18 5 15 7 16 8 14 9 13 10 8 11 9 12
REMARK SMILES IDX 10 13 12 14 11 15 7 16 3 17 4 18 78 19 5 20 6 21 77 22 79 23
REMARK SMILES IDX 2 25 1 26 80 27 81 28 86 29 82 30 85 31 83 32 84 33 87 34
REMARK SMILES IDX 22 36 23 37 24 38 25 39 26 40 27 41 28 43 29 44 30 45 76 46
REMARK SMILES IDX 31 47 75 48 32 49 33 50 34 51 69 52 35 53 74 54 68 55 70 56
REMARK SMILES IDX 36 57 73 58 67 59 66 60 37 62 59 63 44 64 58 65 45 66 48 67
REMARK SMILES IDX 57 68 71 69 46 70 47 71 56 73 72 74 49 75 38 76 39 77 43 78
REMARK SMILES IDX 40 79 42 80 41 81 60 82 61 83 65 84 62 85 64 86 63 87 50 88
REMARK SMILES IDX 51 89 55 90 52 91 54 92 53 93
REMARK H PARENT 19 6 79 24 87 35 26 42 70 61 48 72
REMARK Flexibility Score: inf
ROOT
ATOM      1  C   UNL A   1      43.330  27.590  29.435  1.00  0.00     0.021 C 
ENDROOT
BRANCH   1   2
ATOM      2  C   UNL A   1      43.586  27.096  28.020  1.00  0.00     0.116 C 
BRANCH   2   3
ATOM      3  N   UNL A   1      43.433  28.115  27.018  1.00  0.00    -0.353 N 
ATOM      4  C   UNL A   1      42.615  28.119  25.927  1.00  0.00     0.260 C 
ATOM      5  O   UNL A   1      42.583  29.156  25.255  1.00  0.00    -0.271 OA
ATOM      6  H   UNL A   1      43.993  28.917  27.135  1.00  0.00     0.163 HD
BRANCH   4   7
ATOM      7  C   UNL A   1      41.818  26.862  25.477  1.00  0.00     0.258 C 
ATOM      8  C   UNL A   1      42.747  25.692  25.200  1.00  0.00     0.064 C 
BRANCH   7   9
ATOM      9  O   UNL A   1      40.575  26.621  26.113  1.00  0.00    -0.480 OA
BRANCH   9  10
ATOM     10  C   UNL A   1      40.066  27.044  27.303  1.00  0.00     0.127 A 
ATOM     11  C   UNL A   1      39.974  26.031  28.287  1.00  0.00     0.018 A 
ATOM     12  C   UNL A   1      39.266  26.268  29.473  1.00  0.00     0.012 A 
ATOM     13  C   UNL A   1      38.711  27.522  29.721  1.00  0.00     0.001 A 
ATOM     14  C   UNL A   1      39.588  28.317  27.610  1.00  0.00     0.047 A 
ATOM     15  C   UNL A   1      38.898  28.550  28.804  1.00  0.00     0.004 A 
BRANCH  11  16
ATOM     16  C   UNL A   1      40.634  24.720  28.117  1.00  0.00     0.036 C 
ATOM     17  N   UNL A   1      39.960  21.539  26.517  1.00  0.00    -0.186 N 
ATOM     18  C   UNL A   1      40.744  22.367  27.301  1.00  0.00     0.348 C 
ATOM     19  C   UNL A   1      38.759  22.067  26.090  1.00  0.00     0.324 C 
ATOM     20  O   UNL A   1      41.863  22.142  27.743  1.00  0.00    -0.240 OA
ATOM     21  C   UNL A   1      40.055  23.668  27.517  1.00  0.00     0.110 C 
ATOM     22  S   UNL A   1      38.484  23.614  26.826  1.00  0.00     0.007 SA
ATOM     23  N   UNL A   1      38.005  21.487  25.213  1.00  0.00    -0.231 N 
ATOM     24  H   UNL A   1      38.277  20.615  24.846  1.00  0.00     0.313 HD
BRANCH  17  25
ATOM     25  C   UNL A   1      40.332  20.187  26.102  1.00  0.00     0.244 C 
ATOM     26  C   UNL A   1      41.433  19.478  26.869  1.00  0.00     0.055 C 
ENDBRANCH  17  25
BRANCH  23  27
ATOM     27  C   UNL A   1      36.797  22.078  24.774  1.00  0.00     0.167 A 
ATOM     28  C   UNL A   1      36.795  22.810  23.584  1.00  0.00     0.056 A 
ATOM     29  C   UNL A   1      35.607  22.040  25.522  1.00  0.00     0.162 A 
ATOM     30  C   UNL A   1      35.634  23.459  23.141  1.00  0.00     0.008 A 
ATOM     31  C   UNL A   1      34.440  22.655  25.075  1.00  0.00     0.054 A 
ATOM     32  C   UNL A   1      34.446  23.377  23.879  1.00  0.00    -0.047 A 
ATOM     33  C   UNL A   1      33.215  24.105  23.424  1.00  0.00     0.044 C 
BRANCH  29  34
ATOM     34  O   UNL A   1      35.536  21.403  26.733  1.00  0.00    -0.504 OA
ATOM     35  H   UNL A   1      36.272  21.415  27.312  1.00  0.00     0.293 HD
ENDBRANCH  29  34
ENDBRANCH  23  27
ENDBRANCH  11  16
ENDBRANCH   9  10
ENDBRANCH   7   9
ENDBRANCH   4   7
ENDBRANCH   2   3
ENDBRANCH   1   2
BRANCH   1  36
ATOM     36  C   UNL A   1      43.300  26.467  30.468  1.00  0.00     0.002 C 
BRANCH  36  37
ATOM     37  C   UNL A   1      44.618  25.697  30.618  1.00  0.00     0.002 C 
BRANCH  37  38
ATOM     38  C   UNL A   1      44.578  24.231  30.171  1.00  0.00     0.021 C 
BRANCH  38  39
ATOM     39  C   UNL A   1      44.027  24.012  28.765  1.00  0.00     0.116 C 
BRANCH  39  40
ATOM     40  N   UNL A   1      44.872  23.119  27.987  1.00  0.00    -0.352 N 
ATOM     41  C   UNL A   1      45.866  23.407  27.089  1.00  0.00     0.251 C 
ATOM     42  H   UNL A   1      44.705  22.160  28.129  1.00  0.00     0.163 HD
ATOM     43  O   UNL A   1      46.305  22.529  26.352  1.00  0.00    -0.269 OA
BRANCH  41  44
ATOM     44  C   UNL A   1      46.404  24.779  26.998  1.00  0.00     0.039 A 
ATOM     45  C   UNL A   1      47.082  25.312  28.095  1.00  0.00     0.014 A 
ATOM     46  C   UNL A   1      46.220  25.544  25.842  1.00  0.00     0.014 A 
ATOM     47  C   UNL A   1      47.638  26.588  28.009  1.00  0.00     0.010 A 
ATOM     48  C   UNL A   1      46.834  26.788  25.732  1.00  0.00     0.010 A 
ATOM     49  C   UNL A   1      47.554  27.320  26.812  1.00  0.00    -0.014 A 
BRANCH  49  50
ATOM     50  C   UNL A   1      48.244  28.625  26.665  1.00  0.00     0.031 A 
ATOM     51  C   UNL A   1      47.462  29.909  26.664  1.00  0.00     0.074 A 
ATOM     52  C   UNL A   1      49.577  28.644  26.463  1.00  0.00     0.049 A 
ATOM     53  N   UNL A   1      47.892  31.133  26.491  1.00  0.00    -0.248 NA
ATOM     54  C   UNL A   1      46.007  29.804  26.859  1.00  0.00     0.031 C 
ATOM     55  C   UNL A   1      50.442  27.463  26.402  1.00  0.00     0.029 A 
ATOM     56  N   UNL A   1      50.438  29.694  26.264  1.00  0.00    -0.354 N 
ATOM     57  C   UNL A   1      46.763  31.942  26.545  1.00  0.00     0.074 A 
ATOM     58  C   UNL A   1      45.625  31.065  26.721  1.00  0.00     0.031 C 
ATOM     59  C   UNL A   1      51.710  27.855  26.204  1.00  0.00     0.029 A 
ATOM     60  C   UNL A   1      51.743  29.309  26.078  1.00  0.00     0.049 A 
ATOM     61  H   UNL A   1      50.147  30.635  26.254  1.00  0.00     0.167 HD
ATOM     62  C   UNL A   1      46.684  33.292  26.470  1.00  0.00     0.031 A 
ATOM     63  C   UNL A   1      52.844  30.039  25.818  1.00  0.00     0.031 A 
ATOM     64  C   UNL A   1      47.819  34.160  26.300  1.00  0.00     0.049 A 
ATOM     65  C   UNL A   1      52.721  31.534  25.713  1.00  0.00     0.074 A 
ATOM     66  C   UNL A   1      47.846  35.543  26.276  1.00  0.00     0.029 A 
ATOM     67  N   UNL A   1      49.124  33.730  26.116  1.00  0.00    -0.354 N 
ATOM     68  N   UNL A   1      51.656  32.288  25.850  1.00  0.00    -0.248 NA
ATOM     69  C   UNL A   1      53.954  32.280  25.428  1.00  0.00     0.031 C 
ATOM     70  C   UNL A   1      49.158  35.950  26.012  1.00  0.00     0.029 A 
ATOM     71  C   UNL A   1      49.959  34.822  25.940  1.00  0.00     0.049 A 
ATOM     72  H   UNL A   1      49.414  32.790  26.113  1.00  0.00     0.167 HD
ATOM     73  C   UNL A   1      52.096  33.595  25.691  1.00  0.00     0.074 A 
ATOM     74  C   UNL A   1      53.526  33.533  25.473  1.00  0.00     0.031 C 
ATOM     75  C   UNL A   1      51.379  34.745  25.720  1.00  0.00     0.031 A 
BRANCH  62  76
ATOM     76  C   UNL A   1      45.321  33.919  26.558  1.00  0.00    -0.014 A 
ATOM     77  C   UNL A   1      44.799  34.361  27.784  1.00  0.00     0.009 A 
ATOM     78  C   UNL A   1      44.576  34.134  25.387  1.00  0.00     0.009 A 
ATOM     79  C   UNL A   1      43.547  34.978  27.839  1.00  0.00     0.001 A 
ATOM     80  C   UNL A   1      43.339  34.779  25.441  1.00  0.00     0.001 A 
ATOM     81  C   UNL A   1      42.823  35.194  26.668  1.00  0.00     0.000 A 
ENDBRANCH  62  76
BRANCH  63  82
ATOM     82  C   UNL A   1      54.159  29.373  25.626  1.00  0.00    -0.014 A 
ATOM     83  C   UNL A   1      55.026  29.173  26.712  1.00  0.00     0.009 A 
ATOM     84  C   UNL A   1      54.564  28.952  24.350  1.00  0.00     0.009 A 
ATOM     85  C   UNL A   1      56.285  28.601  26.516  1.00  0.00     0.001 A 
ATOM     86  C   UNL A   1      55.810  28.349  24.162  1.00  0.00     0.001 A 
ATOM     87  C   UNL A   1      56.675  28.186  25.243  1.00  0.00     0.000 A 
ENDBRANCH  63  82
BRANCH  75  88
ATOM     88  C   UNL A   1      52.136  36.032  25.540  1.00  0.00    -0.014 A 
ATOM     89  C   UNL A   1      52.642  36.740  26.642  1.00  0.00     0.009 A 
ATOM     90  C   UNL A   1      52.379  36.520  24.248  1.00  0.00     0.009 A 
ATOM     91  C   UNL A   1      53.345  37.931  26.451  1.00  0.00     0.001 A 
ATOM     92  C   UNL A   1      53.111  37.693  24.059  1.00  0.00     0.001 A 
ATOM     93  C   UNL A   1      53.584  38.403  25.160  1.00  0.00     0.000 A 
ENDBRANCH  75  88
ENDBRANCH  49  50
ENDBRANCH  41  44
ENDBRANCH  39  40
ENDBRANCH  38  39
ENDBRANCH  37  38
ENDBRANCH  36  37
ENDBRANCH   1  36
TORSDOF 19
ENDMDL
MODEL 3
REMARK VINA RESULT:     -10.0      4.184      7.746
REMARK SMILES CCN1C(=O)/C(=C/c2ccccc2O[C@H](C)C(=O)NCCCCCCNC(=O)c2ccc(-c3c4nc(c(-c5ccccc5)c5ccc([nH]5)c(-c5ccccc5)c5nc(c(-c6ccccc6)c6ccc3[nH]6)C=C5)C=C4)cc2)S/C1=[NH+]\c1ccc(C)cc1O
REMARK SMILES IDX 21 1 20 2 19 3 17 4 18 5 15 7 16 8 14 9 13 10 8 11 9 12
REMARK SMILES IDX 10 13 12 14 11 15 7 16 3 17 4 18 78 19 5 20 6 21 77 22 79 23
REMARK SMILES IDX 2 25 1 26 80 27 81 28 86 29 82 30 85 31 83 32 84 33 87 34
REMARK SMILES IDX 22 36 23 37 24 38 25 39 26 40 27 41 28 43 29 44 30 45 76 46
REMARK SMILES IDX 31 47 75 48 32 49 33 50 34 51 69 52 35 53 74 54 68 55 70 56
REMARK SMILES IDX 36 57 73 58 67 59 66 60 37 62 59 63 44 64 58 65 45 66 48 67
REMARK SMILES IDX 57 68 71 69 46 70 47 71 56 73 72 74 49 75 38 76 39 77 43 78
REMARK SMILES IDX 40 79 42 80 41 81 60 82 61 83 65 84 62 85 64 86 63 87 50 88
REMARK SMILES IDX 51 89 55 90 52 91 54 92 53 93
REMARK H PARENT 19 6 79 24 87 35 26 42 70 61 48 72
REMARK Flexibility Score: inf
ROOT
ATOM      1  C   UNL A   1      35.103  29.784  27.205  1.00  0.00     0.021 C 
ENDROOT
BRANCH   1   2
ATOM      2  C   UNL A   1      34.317  28.504  26.965  1.00  0.00     0.116 C 
BRANCH   2   3
ATOM      3  N   UNL A   1      32.998  28.523  27.536  1.00  0.00    -0.353 N 
ATOM      4  C   UNL A   1      31.982  27.630  27.358  1.00  0.00     0.260 C 
ATOM      5  O   UNL A   1      30.962  27.802  28.034  1.00  0.00    -0.271 OA
ATOM      6  H   UNL A   1      32.801  29.281  28.133  1.00  0.00     0.163 HD
BRANCH   4   7
ATOM      7  C   UNL A   1      32.046  26.493  26.300  1.00  0.00     0.258 C 
ATOM      8  C   UNL A   1      31.591  25.168  26.890  1.00  0.00     0.064 C 
BRANCH   7   9
ATOM      9  O   UNL A   1      31.676  26.821  24.973  1.00  0.00    -0.480 OA
BRANCH   9  10
ATOM     10  C   UNL A   1      32.369  27.399  23.953  1.00  0.00     0.127 A 
ATOM     11  C   UNL A   1      32.754  26.500  22.931  1.00  0.00     0.018 A 
ATOM     12  C   UNL A   1      33.659  26.908  21.942  1.00  0.00     0.012 A 
ATOM     13  C   UNL A   1      34.128  28.220  21.918  1.00  0.00     0.001 A 
ATOM     14  C   UNL A   1      32.773  28.730  23.858  1.00  0.00     0.047 A 
ATOM     15  C   UNL A   1      33.663  29.134  22.856  1.00  0.00     0.004 A 
BRANCH  11  16
ATOM     16  C   UNL A   1      32.204  25.131  22.852  1.00  0.00     0.036 C 
ATOM     17  N   UNL A   1      33.194  21.761  23.750  1.00  0.00    -0.186 N 
ATOM     18  C   UNL A   1      32.313  22.661  23.176  1.00  0.00     0.348 C 
ATOM     19  C   UNL A   1      34.371  22.293  24.236  1.00  0.00     0.324 C 
ATOM     20  O   UNL A   1      31.193  22.435  22.735  1.00  0.00    -0.240 OA
ATOM     21  C   UNL A   1      32.890  24.032  23.207  1.00  0.00     0.110 C 
ATOM     22  S   UNL A   1      34.492  23.972  23.821  1.00  0.00     0.007 SA
ATOM     23  N   UNL A   1      35.209  21.614  24.952  1.00  0.00    -0.231 N 
ATOM     24  H   UNL A   1      35.022  20.667  25.143  1.00  0.00     0.313 HD
BRANCH  17  25
ATOM     25  C   UNL A   1      32.946  20.328  23.894  1.00  0.00     0.244 C 
ATOM     26  C   UNL A   1      32.441  19.818  25.232  1.00  0.00     0.055 C 
ENDBRANCH  17  25
BRANCH  23  27
ATOM     27  C   UNL A   1      36.388  22.204  25.463  1.00  0.00     0.167 A 
ATOM     28  C   UNL A   1      36.321  23.489  26.008  1.00  0.00     0.056 A 
ATOM     29  C   UNL A   1      37.652  21.595  25.373  1.00  0.00     0.162 A 
ATOM     30  C   UNL A   1      37.476  24.133  26.475  1.00  0.00     0.008 A 
ATOM     31  C   UNL A   1      38.800  22.214  25.861  1.00  0.00     0.054 A 
ATOM     32  C   UNL A   1      38.722  23.495  26.414  1.00  0.00    -0.047 A 
ATOM     33  C   UNL A   1      39.962  24.201  26.877  1.00  0.00     0.044 C 
BRANCH  29  34
ATOM     34  O   UNL A   1      37.822  20.366  24.792  1.00  0.00    -0.504 OA
ATOM     35  H   UNL A   1      37.790  20.281  23.860  1.00  0.00     0.293 HD
ENDBRANCH  29  34
ENDBRANCH  23  27
ENDBRANCH  11  16
ENDBRANCH   9  10
ENDBRANCH   7   9
ENDBRANCH   4   7
ENDBRANCH   2   3
ENDBRANCH   1   2
BRANCH   1  36
ATOM     36  C   UNL A   1      36.083  29.679  28.370  1.00  0.00     0.002 C 
BRANCH  36  37
ATOM     37  C   UNL A   1      36.749  31.003  28.770  1.00  0.00     0.002 C 
BRANCH  37  38
ATOM     38  C   UNL A   1      36.934  31.217  30.277  1.00  0.00     0.021 C 
BRANCH  38  39
ATOM     39  C   UNL A   1      37.129  29.935  31.080  1.00  0.00     0.116 C 
BRANCH  39  40
ATOM     40  N   UNL A   1      37.330  30.209  32.495  1.00  0.00    -0.352 N 
ATOM     41  C   UNL A   1      38.441  30.032  33.277  1.00  0.00     0.251 C 
ATOM     42  H   UNL A   1      36.547  30.579  32.962  1.00  0.00     0.163 HD
ATOM     43  O   UNL A   1      38.350  30.094  34.500  1.00  0.00    -0.269 OA
BRANCH  41  44
ATOM     44  C   UNL A   1      39.748  29.756  32.650  1.00  0.00     0.039 A 
ATOM     45  C   UNL A   1      40.608  28.839  33.258  1.00  0.00     0.014 A 
ATOM     46  C   UNL A   1      40.133  30.415  31.478  1.00  0.00     0.014 A 
ATOM     47  C   UNL A   1      41.827  28.531  32.653  1.00  0.00     0.010 A 
ATOM     48  C   UNL A   1      41.317  30.055  30.840  1.00  0.00     0.010 A 
ATOM     49  C   UNL A   1      42.173  29.106  31.418  1.00  0.00    -0.014 A 
BRANCH  49  50
ATOM     50  C   UNL A   1      43.407  28.696  30.704  1.00  0.00     0.031 A 
ATOM     51  C   UNL A   1      44.661  29.517  30.810  1.00  0.00     0.074 A 
ATOM     52  C   UNL A   1      43.372  27.613  29.902  1.00  0.00     0.049 A 
ATOM     53  N   UNL A   1      45.813  29.341  30.213  1.00  0.00    -0.248 NA
ATOM     54  C   UNL A   1      44.612  30.702  31.682  1.00  0.00     0.031 C 
ATOM     55  C   UNL A   1      42.203  26.757  29.683  1.00  0.00     0.029 A 
ATOM     56  N   UNL A   1      44.345  27.050  29.114  1.00  0.00    -0.354 N 
ATOM     57  C   UNL A   1      46.618  30.395  30.625  1.00  0.00     0.074 A 
ATOM     58  C   UNL A   1      45.811  31.231  31.488  1.00  0.00     0.031 C 
ATOM     59  C   UNL A   1      42.534  25.767  28.839  1.00  0.00     0.029 A 
ATOM     60  C   UNL A   1      43.921  25.944  28.420  1.00  0.00     0.049 A 
ATOM     61  H   UNL A   1      45.261  27.407  29.052  1.00  0.00     0.167 HD
ATOM     62  C   UNL A   1      47.916  30.636  30.324  1.00  0.00     0.031 A 
ATOM     63  C   UNL A   1      44.568  25.165  27.533  1.00  0.00     0.031 A 
ATOM     64  C   UNL A   1      48.718  29.800  29.471  1.00  0.00     0.049 A 
ATOM     65  C   UNL A   1      46.001  25.473  27.198  1.00  0.00     0.074 A 
ATOM     66  C   UNL A   1      50.060  29.927  29.158  1.00  0.00     0.029 A 
ATOM     67  N   UNL A   1      48.251  28.688  28.788  1.00  0.00    -0.354 N 
ATOM     68  N   UNL A   1      46.771  26.427  27.663  1.00  0.00    -0.248 NA
ATOM     69  C   UNL A   1      46.656  24.590  26.224  1.00  0.00     0.031 C 
ATOM     70  C   UNL A   1      50.389  28.930  28.233  1.00  0.00     0.029 A 
ATOM     71  C   UNL A   1      49.269  28.142  28.024  1.00  0.00     0.049 A 
ATOM     72  H   UNL A   1      47.332  28.338  28.839  1.00  0.00     0.167 HD
ATOM     73  C   UNL A   1      48.007  26.244  27.055  1.00  0.00     0.074 A 
ATOM     74  C   UNL A   1      47.889  25.074  26.210  1.00  0.00     0.031 C 
ATOM     75  C   UNL A   1      49.138  26.980  27.184  1.00  0.00     0.031 A 
BRANCH  62  76
ATOM     76  C   UNL A   1      48.555  31.864  30.913  1.00  0.00    -0.014 A 
ATOM     77  C   UNL A   1      49.222  31.819  32.147  1.00  0.00     0.009 A 
ATOM     78  C   UNL A   1      48.549  33.067  30.189  1.00  0.00     0.009 A 
ATOM     79  C   UNL A   1      49.844  32.961  32.658  1.00  0.00     0.001 A 
ATOM     80  C   UNL A   1      49.197  34.198  30.687  1.00  0.00     0.001 A 
ATOM     81  C   UNL A   1      49.838  34.146  31.924  1.00  0.00     0.000 A 
ENDBRANCH  62  76
BRANCH  63  82
ATOM     82  C   UNL A   1      43.868  24.024  26.886  1.00  0.00    -0.014 A 
ATOM     83  C   UNL A   1      43.539  22.874  27.622  1.00  0.00     0.009 A 
ATOM     84  C   UNL A   1      43.545  24.068  25.521  1.00  0.00     0.009 A 
ATOM     85  C   UNL A   1      42.936  21.782  26.996  1.00  0.00     0.001 A 
ATOM     86  C   UNL A   1      42.911  22.987  24.905  1.00  0.00     0.001 A 
ATOM     87  C   UNL A   1      42.618  21.840  25.640  1.00  0.00     0.000 A 
ENDBRANCH  63  82
BRANCH  75  88
ATOM     88  C   UNL A   1      50.346  26.525  26.415  1.00  0.00    -0.014 A 
ATOM     89  C   UNL A   1      50.637  27.042  25.142  1.00  0.00     0.009 A 
ATOM     90  C   UNL A   1      51.226  25.595  26.989  1.00  0.00     0.009 A 
ATOM     91  C   UNL A   1      51.768  26.608  24.447  1.00  0.00     0.001 A 
ATOM     92  C   UNL A   1      52.373  25.188  26.305  1.00  0.00     0.001 A 
ATOM     93  C   UNL A   1      52.637  25.687  25.031  1.00  0.00     0.000 A 
ENDBRANCH  75  88
ENDBRANCH  49  50
ENDBRANCH  41  44
ENDBRANCH  39  40
ENDBRANCH  38  39
ENDBRANCH  37  38
ENDBRANCH  36  37
ENDBRANCH   1  36
TORSDOF 19
ENDMDL
