MODEL 1
REMARK VINA RESULT:     -10.7      0.000      0.000
REMARK SMILES O=C(NCCCCCCNC(=O)c1cc(Br)ccc1NC(=O)c1ccc(Br)s1)c1ccc(-c2c3nc(c(-c4ccccc4)c4ccc([nH]4)c(-c4ccccc4)c4nc(c(-c5ccccc5)c5ccc2[nH]5)C=C4)C=C3)cc1
REMARK SMILES IDX 6 1 5 2 4 3 3 4 1 5 2 6 29 8 30 9 76 10 31 11 75 12 32 13
REMARK SMILES IDX 33 14 34 15 69 16 35 17 74 18 68 19 70 20 36 21 73 22 67 23
REMARK SMILES IDX 66 24 37 26 59 27 44 28 58 29 45 30 48 31 57 32 71 33 46 34
REMARK SMILES IDX 47 35 56 37 72 38 49 39 38 40 39 41 43 42 40 43 42 44 41 45
REMARK SMILES IDX 60 46 61 47 65 48 62 49 64 50 63 51 50 52 51 53 55 54 52 55
REMARK SMILES IDX 54 56 53 57 7 58 8 59 9 60 10 61 11 62 12 64 13 65 14 66
REMARK SMILES IDX 19 67 15 68 18 69 16 70 17 71 20 72 21 73 22 75 23 76 24 77
REMARK SMILES IDX 28 78 25 79 26 80 27 81
REMARK H PARENT 3 7 70 25 48 36 10 63 20 74
REMARK Flexibility Score: inf
ROOT
ATOM      1  C   UNL A   1      32.064  30.463  26.972  1.00  0.00     0.002 C 
ENDROOT
BRANCH   1   2
ATOM      2  C   UNL A   1      31.600  31.918  26.885  1.00  0.00     0.021 C 
BRANCH   2   3
ATOM      3  C   UNL A   1      32.715  32.955  26.823  1.00  0.00     0.116 C 
BRANCH   3   4
ATOM      4  N   UNL A   1      32.432  34.133  27.625  1.00  0.00    -0.352 N 
ATOM      5  O   UNL A   1      32.629  35.553  29.367  1.00  0.00    -0.269 OA
ATOM      6  C   UNL A   1      33.098  34.618  28.722  1.00  0.00     0.251 C 
ATOM      7  H   UNL A   1      31.650  34.659  27.338  1.00  0.00     0.163 HD
BRANCH   6   8
ATOM      8  C   UNL A   1      34.375  34.002  29.148  1.00  0.00     0.039 A 
ATOM      9  C   UNL A   1      35.581  34.350  28.533  1.00  0.00     0.014 A 
ATOM     10  C   UNL A   1      34.367  33.082  30.201  1.00  0.00     0.014 A 
ATOM     11  C   UNL A   1      36.753  33.691  28.887  1.00  0.00     0.010 A 
ATOM     12  C   UNL A   1      35.558  32.474  30.607  1.00  0.00     0.010 A 
ATOM     13  C   UNL A   1      36.759  32.758  29.937  1.00  0.00    -0.014 A 
BRANCH  13  14
ATOM     14  C   UNL A   1      38.045  32.154  30.367  1.00  0.00     0.031 A 
ATOM     15  C   UNL A   1      38.883  32.781  31.445  1.00  0.00     0.074 A 
ATOM     16  C   UNL A   1      38.442  31.006  29.784  1.00  0.00     0.049 A 
ATOM     17  N   UNL A   1      40.009  32.354  31.961  1.00  0.00    -0.248 NA
ATOM     18  C   UNL A   1      38.402  34.047  32.018  1.00  0.00     0.031 C 
ATOM     19  C   UNL A   1      37.719  30.309  28.717  1.00  0.00     0.029 A 
ATOM     20  N   UNL A   1      39.535  30.213  30.020  1.00  0.00    -0.354 N 
ATOM     21  C   UNL A   1      40.379  33.304  32.904  1.00  0.00     0.074 A 
ATOM     22  C   UNL A   1      39.370  34.340  32.876  1.00  0.00     0.031 C 
ATOM     23  C   UNL A   1      38.361  29.169  28.425  1.00  0.00     0.029 A 
ATOM     24  C   UNL A   1      39.566  29.082  29.241  1.00  0.00     0.049 A 
ATOM     25  H   UNL A   1      40.229  30.432  30.682  1.00  0.00     0.167 HD
ATOM     26  C   UNL A   1      41.461  33.307  33.721  1.00  0.00     0.031 A 
ATOM     27  C   UNL A   1      40.469  28.086  29.180  1.00  0.00     0.031 A 
ATOM     28  C   UNL A   1      42.466  32.277  33.748  1.00  0.00     0.049 A 
ATOM     29  C   UNL A   1      41.669  28.131  30.078  1.00  0.00     0.074 A 
ATOM     30  C   UNL A   1      43.581  32.179  34.564  1.00  0.00     0.029 A 
ATOM     31  N   UNL A   1      42.482  31.168  32.916  1.00  0.00    -0.354 N 
ATOM     32  N   UNL A   1      41.982  29.019  30.990  1.00  0.00    -0.248 NA
ATOM     33  C   UNL A   1      42.639  27.038  29.936  1.00  0.00     0.031 C 
ATOM     34  C   UNL A   1      44.295  31.034  34.195  1.00  0.00     0.029 A 
ATOM     35  C   UNL A   1      43.600  30.393  33.183  1.00  0.00     0.049 A 
ATOM     36  H   UNL A   1      41.800  30.961  32.237  1.00  0.00     0.167 HD
ATOM     37  C   UNL A   1      43.181  28.587  31.539  1.00  0.00     0.074 A 
ATOM     38  C   UNL A   1      43.523  27.344  30.875  1.00  0.00     0.031 C 
ATOM     39  C   UNL A   1      43.932  29.168  32.505  1.00  0.00     0.031 A 
BRANCH  26  40
ATOM     40  C   UNL A   1      41.630  34.480  34.646  1.00  0.00    -0.014 A 
ATOM     41  C   UNL A   1      42.339  35.624  34.249  1.00  0.00     0.009 A 
ATOM     42  C   UNL A   1      41.023  34.462  35.912  1.00  0.00     0.009 A 
ATOM     43  C   UNL A   1      42.457  36.717  35.112  1.00  0.00     0.001 A 
ATOM     44  C   UNL A   1      41.125  35.564  36.763  1.00  0.00     0.001 A 
ATOM     45  C   UNL A   1      41.846  36.688  36.365  1.00  0.00     0.000 A 
ENDBRANCH  26  40
BRANCH  27  46
ATOM     46  C   UNL A   1      40.272  26.970  28.222  1.00  0.00    -0.014 A 
ATOM     47  C   UNL A   1      40.809  27.035  26.928  1.00  0.00     0.009 A 
ATOM     48  C   UNL A   1      39.558  25.823  28.606  1.00  0.00     0.009 A 
ATOM     49  C   UNL A   1      40.619  25.982  26.032  1.00  0.00     0.001 A 
ATOM     50  C   UNL A   1      39.394  24.761  27.716  1.00  0.00     0.001 A 
ATOM     51  C   UNL A   1      39.917  24.845  26.428  1.00  0.00     0.000 A 
ENDBRANCH  27  46
BRANCH  39  52
ATOM     52  C   UNL A   1      45.190  28.454  32.905  1.00  0.00    -0.014 A 
ATOM     53  C   UNL A   1      46.381  28.624  32.183  1.00  0.00     0.009 A 
ATOM     54  C   UNL A   1      45.187  27.613  34.029  1.00  0.00     0.009 A 
ATOM     55  C   UNL A   1      47.537  27.937  32.558  1.00  0.00     0.001 A 
ATOM     56  C   UNL A   1      46.350  26.948  34.417  1.00  0.00     0.001 A 
ATOM     57  C   UNL A   1      47.522  27.103  33.676  1.00  0.00     0.000 A 
ENDBRANCH  39  52
ENDBRANCH  13  14
ENDBRANCH   6   8
ENDBRANCH   3   4
ENDBRANCH   2   3
ENDBRANCH   1   2
BRANCH   1  58
ATOM     58  C   UNL A   1      33.520  30.251  27.399  1.00  0.00     0.002 C 
BRANCH  58  59
ATOM     59  C   UNL A   1      34.230  29.047  26.773  1.00  0.00     0.021 C 
BRANCH  59  60
ATOM     60  C   UNL A   1      33.499  28.395  25.603  1.00  0.00     0.116 C 
BRANCH  60  61
ATOM     61  N   UNL A   1      34.176  28.610  24.332  1.00  0.00    -0.352 N 
ATOM     62  C   UNL A   1      33.645  28.581  23.065  1.00  0.00     0.253 C 
ATOM     63  H   UNL A   1      35.140  28.802  24.388  1.00  0.00     0.163 HD
ATOM     64  O   UNL A   1      34.368  28.608  22.076  1.00  0.00    -0.269 OA
BRANCH  62  65
ATOM     65  C   UNL A   1      32.183  28.445  22.906  1.00  0.00     0.064 A 
ATOM     66  C   UNL A   1      31.391  29.586  23.112  1.00  0.00     0.031 A 
ATOM     67  C   UNL A   1      31.606  27.191  22.619  1.00  0.00     0.054 A 
ATOM     68  C   UNL A   1      30.011  29.459  23.162  1.00  0.00     0.018 A 
ATOM     69  C   UNL A   1      30.220  27.083  22.767  1.00  0.00     0.028 A 
ATOM     70  Br  UNL A   1      28.935  30.974  23.487  1.00  0.00    -0.051 Br
ATOM     71  C   UNL A   1      29.425  28.206  23.027  1.00  0.00     0.018 A 
BRANCH  67  72
ATOM     72  N   UNL A   1      32.443  26.114  22.241  1.00  0.00    -0.321 N 
ATOM     73  C   UNL A   1      32.951  25.022  22.918  1.00  0.00     0.265 C 
ATOM     74  H   UNL A   1      32.721  26.150  21.298  1.00  0.00     0.170 HD
ATOM     75  O   UNL A   1      33.818  24.357  22.350  1.00  0.00    -0.268 OA
BRANCH  73  76
ATOM     76  C   UNL A   1      32.425  24.660  24.217  1.00  0.00     0.093 A 
ATOM     77  C   UNL A   1      32.949  24.900  25.477  1.00  0.00     0.027 A 
ATOM     78  S   UNL A   1      30.926  23.832  24.308  1.00  0.00    -0.123 S 
ATOM     79  C   UNL A   1      32.174  24.286  26.507  1.00  0.00     0.028 A 
ATOM     80  C   UNL A   1      31.066  23.664  25.988  1.00  0.00     0.071 A 
ATOM     81  Br  UNL A   1      29.830  22.717  27.026  1.00  0.00    -0.039 Br
ENDBRANCH  73  76
ENDBRANCH  67  72
ENDBRANCH  62  65
ENDBRANCH  60  61
ENDBRANCH  59  60
ENDBRANCH  58  59
ENDBRANCH   1  58
TORSDOF 15
ENDMDL
MODEL 2
REMARK VINA RESULT:     -10.7      2.205      2.596
REMARK SMILES O=C(NCCCCCCNC(=O)c1cc(Br)ccc1NC(=O)c1ccc(Br)s1)c1ccc(-c2c3nc(c(-c4ccccc4)c4ccc([nH]4)c(-c4ccccc4)c4nc(c(-c5ccccc5)c5ccc2[nH]5)C=C4)C=C3)cc1
REMARK SMILES IDX 6 1 5 2 4 3 3 4 1 5 2 6 29 8 30 9 76 10 31 11 75 12 32 13
REMARK SMILES IDX 33 14 34 15 69 16 35 17 74 18 68 19 70 20 36 21 73 22 67 23
REMARK SMILES IDX 66 24 37 26 59 27 44 28 58 29 45 30 48 31 57 32 71 33 46 34
REMARK SMILES IDX 47 35 56 37 72 38 49 39 38 40 39 41 43 42 40 43 42 44 41 45
REMARK SMILES IDX 60 46 61 47 65 48 62 49 64 50 63 51 50 52 51 53 55 54 52 55
REMARK SMILES IDX 54 56 53 57 7 58 8 59 9 60 10 61 11 62 12 64 13 65 14 66
REMARK SMILES IDX 19 67 15 68 18 69 16 70 17 71 20 72 21 73 22 75 23 76 24 77
REMARK SMILES IDX 28 78 25 79 26 80 27 81
REMARK H PARENT 3 7 70 25 48 36 10 63 20 74
REMARK Flexibility Score: inf
ROOT
ATOM      1  C   UNL A   1      35.031  31.719  27.776  1.00  0.00     0.002 C 
ENDROOT
BRANCH   1   2
ATOM      2  C   UNL A   1      33.723  32.479  28.001  1.00  0.00     0.021 C 
BRANCH   2   3
ATOM      3  C   UNL A   1      33.848  33.997  28.029  1.00  0.00     0.116 C 
BRANCH   3   4
ATOM      4  N   UNL A   1      33.336  34.581  29.256  1.00  0.00    -0.352 N 
ATOM      5  O   UNL A   1      33.133  34.883  31.482  1.00  0.00    -0.269 OA
ATOM      6  C   UNL A   1      33.782  34.426  30.545  1.00  0.00     0.251 C 
ATOM      7  H   UNL A   1      32.556  35.173  29.147  1.00  0.00     0.163 HD
BRANCH   6   8
ATOM      8  C   UNL A   1      35.036  33.688  30.812  1.00  0.00     0.039 A 
ATOM      9  C   UNL A   1      36.267  34.176  30.365  1.00  0.00     0.014 A 
ATOM     10  C   UNL A   1      34.981  32.500  31.549  1.00  0.00     0.014 A 
ATOM     11  C   UNL A   1      37.420  33.420  30.547  1.00  0.00     0.010 A 
ATOM     12  C   UNL A   1      36.151  31.777  31.797  1.00  0.00     0.010 A 
ATOM     13  C   UNL A   1      37.378  32.220  31.278  1.00  0.00    -0.014 A 
BRANCH  13  14
ATOM     14  C   UNL A   1      38.642  31.492  31.553  1.00  0.00     0.031 A 
ATOM     15  C   UNL A   1      39.491  31.820  32.749  1.00  0.00     0.074 A 
ATOM     16  C   UNL A   1      39.008  30.502  30.716  1.00  0.00     0.049 A 
ATOM     17  N   UNL A   1      40.600  31.249  33.150  1.00  0.00    -0.248 NA
ATOM     18  C   UNL A   1      39.044  32.931  33.604  1.00  0.00     0.031 C 
ATOM     19  C   UNL A   1      38.272  30.100  29.515  1.00  0.00     0.029 A 
ATOM     20  N   UNL A   1      40.075  29.642  30.758  1.00  0.00    -0.354 N 
ATOM     21  C   UNL A   1      40.992  31.938  34.290  1.00  0.00     0.074 A 
ATOM     22  C   UNL A   1      40.014  32.983  34.507  1.00  0.00     0.031 C 
ATOM     23  C   UNL A   1      38.882  29.041  28.961  1.00  0.00     0.029 A 
ATOM     24  C   UNL A   1      40.077  28.727  29.734  1.00  0.00     0.049 A 
ATOM     25  H   UNL A   1      40.771  29.677  31.453  1.00  0.00     0.167 HD
ATOM     26  C   UNL A   1      42.067  31.714  35.085  1.00  0.00     0.031 A 
ATOM     27  C   UNL A   1      40.950  27.746  29.440  1.00  0.00     0.031 A 
ATOM     28  C   UNL A   1      43.040  30.676  34.867  1.00  0.00     0.049 A 
ATOM     29  C   UNL A   1      42.144  27.540  30.322  1.00  0.00     0.074 A 
ATOM     30  C   UNL A   1      44.145  30.353  35.637  1.00  0.00     0.029 A 
ATOM     31  N   UNL A   1      43.029  29.794  33.798  1.00  0.00    -0.354 N 
ATOM     32  N   UNL A   1      42.478  28.177  31.418  1.00  0.00    -0.248 NA
ATOM     33  C   UNL A   1      43.081  26.481  29.927  1.00  0.00     0.031 C 
ATOM     34  C   UNL A   1      44.827  29.306  35.008  1.00  0.00     0.029 A 
ATOM     35  C   UNL A   1      44.120  28.944  33.874  1.00  0.00     0.049 A 
ATOM     36  H   UNL A   1      42.346  29.774  33.089  1.00  0.00     0.167 HD
ATOM     37  C   UNL A   1      43.658  27.590  31.850  1.00  0.00     0.074 A 
ATOM     38  C   UNL A   1      43.968  26.530  30.911  1.00  0.00     0.031 C 
ATOM     39  C   UNL A   1      44.420  27.903  32.925  1.00  0.00     0.031 A 
BRANCH  26  40
ATOM     40  C   UNL A   1      42.265  32.630  36.260  1.00  0.00    -0.014 A 
ATOM     41  C   UNL A   1      41.734  32.319  37.522  1.00  0.00     0.009 A 
ATOM     42  C   UNL A   1      43.040  33.792  36.116  1.00  0.00     0.009 A 
ATOM     43  C   UNL A   1      41.957  33.167  38.610  1.00  0.00     0.001 A 
ATOM     44  C   UNL A   1      43.278  34.625  37.210  1.00  0.00     0.001 A 
ATOM     45  C   UNL A   1      42.732  34.316  38.455  1.00  0.00     0.000 A 
ENDBRANCH  26  40
BRANCH  27  46
ATOM     46  C   UNL A   1      40.726  26.893  28.245  1.00  0.00    -0.014 A 
ATOM     47  C   UNL A   1      41.328  27.210  27.019  1.00  0.00     0.009 A 
ATOM     48  C   UNL A   1      39.921  25.747  28.333  1.00  0.00     0.009 A 
ATOM     49  C   UNL A   1      41.112  26.404  25.899  1.00  0.00     0.001 A 
ATOM     50  C   UNL A   1      39.730  24.929  27.218  1.00  0.00     0.001 A 
ATOM     51  C   UNL A   1      40.319  25.263  26.001  1.00  0.00     0.000 A 
ENDBRANCH  27  46
BRANCH  39  52
ATOM     52  C   UNL A   1      45.652  27.076  33.146  1.00  0.00    -0.014 A 
ATOM     53  C   UNL A   1      46.896  27.478  32.634  1.00  0.00     0.009 A 
ATOM     54  C   UNL A   1      45.571  25.888  33.889  1.00  0.00     0.009 A 
ATOM     55  C   UNL A   1      48.029  26.686  32.833  1.00  0.00     0.001 A 
ATOM     56  C   UNL A   1      46.710  25.112  34.108  1.00  0.00     0.001 A 
ATOM     57  C   UNL A   1      47.936  25.507  33.572  1.00  0.00     0.000 A 
ENDBRANCH  39  52
ENDBRANCH  13  14
ENDBRANCH   6   8
ENDBRANCH   3   4
ENDBRANCH   2   3
ENDBRANCH   1   2
BRANCH   1  58
ATOM     58  C   UNL A   1      34.997  30.221  28.096  1.00  0.00     0.002 C 
BRANCH  58  59
ATOM     59  C   UNL A   1      35.265  29.281  26.918  1.00  0.00     0.021 C 
BRANCH  59  60
ATOM     60  C   UNL A   1      34.052  28.508  26.410  1.00  0.00     0.116 C 
BRANCH  60  61
ATOM     61  N   UNL A   1      33.045  28.310  27.442  1.00  0.00    -0.352 N 
ATOM     62  C   UNL A   1      31.743  27.892  27.297  1.00  0.00     0.253 C 
ATOM     63  H   UNL A   1      33.334  28.499  28.364  1.00  0.00     0.163 HD
ATOM     64  O   UNL A   1      30.957  27.938  28.236  1.00  0.00    -0.269 OA
BRANCH  62  65
ATOM     65  C   UNL A   1      31.278  27.450  25.967  1.00  0.00     0.064 A 
ATOM     66  C   UNL A   1      31.210  28.409  24.943  1.00  0.00     0.031 A 
ATOM     67  C   UNL A   1      30.857  26.121  25.760  1.00  0.00     0.054 A 
ATOM     68  C   UNL A   1      30.600  28.081  23.742  1.00  0.00     0.018 A 
ATOM     69  C   UNL A   1      30.169  25.853  24.573  1.00  0.00     0.028 A 
ATOM     70  Br  UNL A   1      30.456  29.372  22.374  1.00  0.00    -0.051 Br
ATOM     71  C   UNL A   1      30.046  26.818  23.567  1.00  0.00     0.018 A 
BRANCH  67  72
ATOM     72  N   UNL A   1      31.112  25.150  26.757  1.00  0.00    -0.321 N 
ATOM     73  C   UNL A   1      31.804  23.954  26.765  1.00  0.00     0.265 C 
ATOM     74  H   UNL A   1      30.714  25.374  27.629  1.00  0.00     0.170 HD
ATOM     75  O   UNL A   1      31.679  23.234  27.757  1.00  0.00    -0.268 OA
BRANCH  73  76
ATOM     76  C   UNL A   1      32.679  23.610  25.664  1.00  0.00     0.093 A 
ATOM     77  C   UNL A   1      32.386  22.957  24.478  1.00  0.00     0.027 A 
ATOM     78  S   UNL A   1      34.331  24.060  25.742  1.00  0.00    -0.123 S 
ATOM     79  C   UNL A   1      33.556  22.717  23.694  1.00  0.00     0.028 A 
ATOM     80  C   UNL A   1      34.669  23.254  24.291  1.00  0.00     0.071 A 
ATOM     81  Br  UNL A   1      36.395  23.109  23.581  1.00  0.00    -0.039 Br
ENDBRANCH  73  76
ENDBRANCH  67  72
ENDBRANCH  62  65
ENDBRANCH  60  61
ENDBRANCH  59  60
ENDBRANCH  58  59
ENDBRANCH   1  58
TORSDOF 15
ENDMDL
MODEL 3
REMARK VINA RESULT:     -10.7      3.889      9.152
REMARK SMILES O=C(NCCCCCCNC(=O)c1cc(Br)ccc1NC(=O)c1ccc(Br)s1)c1ccc(-c2c3nc(c(-c4ccccc4)c4ccc([nH]4)c(-c4ccccc4)c4nc(c(-c5ccccc5)c5ccc2[nH]5)C=C4)C=C3)cc1
REMARK SMILES IDX 6 1 5 2 4 3 3 4 1 5 2 6 29 8 30 9 76 10 31 11 75 12 32 13
REMARK SMILES IDX 33 14 34 15 69 16 35 17 74 18 68 19 70 20 36 21 73 22 67 23
REMARK SMILES IDX 66 24 37 26 59 27 44 28 58 29 45 30 48 31 57 32 71 33 46 34
REMARK SMILES IDX 47 35 56 37 72 38 49 39 38 40 39 41 43 42 40 43 42 44 41 45
REMARK SMILES IDX 60 46 61 47 65 48 62 49 64 50 63 51 50 52 51 53 55 54 52 55
REMARK SMILES IDX 54 56 53 57 7 58 8 59 9 60 10 61 11 62 12 64 13 65 14 66
REMARK SMILES IDX 19 67 15 68 18 69 16 70 17 71 20 72 21 73 22 75 23 76 24 77
REMARK SMILES IDX 28 78 25 79 26 80 27 81
REMARK H PARENT 3 7 70 25 48 36 10 63 20 74
REMARK Flexibility Score: inf
ROOT
ATOM      1  C   UNL A   1      37.481  21.248  24.848  1.00  0.00     0.002 C 
ENDROOT
BRANCH   1   2
ATOM      2  C   UNL A   1      38.231  19.920  24.957  1.00  0.00     0.021 C 
BRANCH   2   3
ATOM      3  C   UNL A   1      39.172  19.799  26.150  1.00  0.00     0.116 C 
BRANCH   3   4
ATOM      4  N   UNL A   1      40.412  19.118  25.821  1.00  0.00    -0.352 N 
ATOM      5  O   UNL A   1      42.622  18.913  25.417  1.00  0.00    -0.269 OA
ATOM      6  C   UNL A   1      41.701  19.585  25.874  1.00  0.00     0.251 C 
ATOM      7  H   UNL A   1      40.313  18.186  25.517  1.00  0.00     0.163 HD
BRANCH   6   8
ATOM      8  C   UNL A   1      41.986  20.913  26.462  1.00  0.00     0.039 A 
ATOM      9  C   UNL A   1      41.967  21.105  27.846  1.00  0.00     0.014 A 
ATOM     10  C   UNL A   1      42.304  21.978  25.613  1.00  0.00     0.014 A 
ATOM     11  C   UNL A   1      42.146  22.380  28.372  1.00  0.00     0.010 A 
ATOM     12  C   UNL A   1      42.558  23.245  26.147  1.00  0.00     0.010 A 
ATOM     13  C   UNL A   1      42.459  23.461  27.530  1.00  0.00    -0.014 A 
BRANCH  13  14
ATOM     14  C   UNL A   1      42.755  24.786  28.129  1.00  0.00     0.031 A 
ATOM     15  C   UNL A   1      44.153  25.173  28.524  1.00  0.00     0.074 A 
ATOM     16  C   UNL A   1      41.742  25.659  28.291  1.00  0.00     0.049 A 
ATOM     17  N   UNL A   1      44.581  26.307  29.020  1.00  0.00    -0.248 NA
ATOM     18  C   UNL A   1      45.205  24.161  28.343  1.00  0.00     0.031 C 
ATOM     19  C   UNL A   1      40.340  25.394  27.957  1.00  0.00     0.029 A 
ATOM     20  N   UNL A   1      41.735  26.948  28.757  1.00  0.00    -0.354 N 
ATOM     21  C   UNL A   1      45.945  26.141  29.226  1.00  0.00     0.074 A 
ATOM     22  C   UNL A   1      46.270  24.791  28.821  1.00  0.00     0.031 C 
ATOM     23  C   UNL A   1      39.619  26.501  28.182  1.00  0.00     0.029 A 
ATOM     24  C   UNL A   1      40.493  27.533  28.726  1.00  0.00     0.049 A 
ATOM     25  H   UNL A   1      42.542  27.410  29.081  1.00  0.00     0.167 HD
ATOM     26  C   UNL A   1      46.842  27.037  29.706  1.00  0.00     0.031 A 
ATOM     27  C   UNL A   1      40.094  28.761  29.104  1.00  0.00     0.031 A 
ATOM     28  C   UNL A   1      46.517  28.379  30.110  1.00  0.00     0.049 A 
ATOM     29  C   UNL A   1      41.106  29.720  29.655  1.00  0.00     0.074 A 
ATOM     30  C   UNL A   1      47.365  29.369  30.579  1.00  0.00     0.029 A 
ATOM     31  N   UNL A   1      45.241  28.921  30.101  1.00  0.00    -0.354 N 
ATOM     32  N   UNL A   1      42.397  29.559  29.807  1.00  0.00    -0.248 NA
ATOM     33  C   UNL A   1      40.603  31.031  30.088  1.00  0.00     0.031 C 
ATOM     34  C   UNL A   1      46.595  30.493  30.895  1.00  0.00     0.029 A 
ATOM     35  C   UNL A   1      45.275  30.221  30.578  1.00  0.00     0.049 A 
ATOM     36  H   UNL A   1      44.430  28.451  29.799  1.00  0.00     0.167 HD
ATOM     37  C   UNL A   1      42.866  30.750  30.344  1.00  0.00     0.074 A 
ATOM     38  C   UNL A   1      41.722  31.633  30.466  1.00  0.00     0.031 C 
ATOM     39  C   UNL A   1      44.128  31.081  30.706  1.00  0.00     0.031 A 
BRANCH  26  40
ATOM     40  C   UNL A   1      48.269  26.585  29.843  1.00  0.00    -0.014 A 
ATOM     41  C   UNL A   1      48.715  25.921  30.996  1.00  0.00     0.009 A 
ATOM     42  C   UNL A   1      49.166  26.778  28.779  1.00  0.00     0.009 A 
ATOM     43  C   UNL A   1      50.037  25.481  31.090  1.00  0.00     0.001 A 
ATOM     44  C   UNL A   1      50.481  26.317  28.869  1.00  0.00     0.001 A 
ATOM     45  C   UNL A   1      50.917  25.674  30.026  1.00  0.00     0.000 A 
ENDBRANCH  26  40
BRANCH  27  46
ATOM     46  C   UNL A   1      38.665  29.143  28.981  1.00  0.00    -0.014 A 
ATOM     47  C   UNL A   1      37.792  29.001  30.069  1.00  0.00     0.009 A 
ATOM     48  C   UNL A   1      38.172  29.669  27.776  1.00  0.00     0.009 A 
ATOM     49  C   UNL A   1      36.448  29.362  29.946  1.00  0.00     0.001 A 
ATOM     50  C   UNL A   1      36.836  30.054  27.666  1.00  0.00     0.001 A 
ATOM     51  C   UNL A   1      35.973  29.892  28.748  1.00  0.00     0.000 A 
ENDBRANCH  27  46
BRANCH  39  52
ATOM     52  C   UNL A   1      44.334  32.463  31.254  1.00  0.00    -0.014 A 
ATOM     53  C   UNL A   1      44.107  32.745  32.610  1.00  0.00     0.009 A 
ATOM     54  C   UNL A   1      44.776  33.491  30.407  1.00  0.00     0.009 A 
ATOM     55  C   UNL A   1      44.286  34.041  33.099  1.00  0.00     0.001 A 
ATOM     56  C   UNL A   1      44.979  34.778  30.904  1.00  0.00     0.001 A 
ATOM     57  C   UNL A   1      44.724  35.055  32.248  1.00  0.00     0.000 A 
ENDBRANCH  39  52
ENDBRANCH  13  14
ENDBRANCH   6   8
ENDBRANCH   3   4
ENDBRANCH   2   3
ENDBRANCH   1   2
BRANCH   1  58
ATOM     58  C   UNL A   1      38.036  22.400  25.691  1.00  0.00     0.002 C 
BRANCH  58  59
ATOM     59  C   UNL A   1      37.086  23.579  25.919  1.00  0.00     0.021 C 
BRANCH  59  60
ATOM     60  C   UNL A   1      35.601  23.257  25.776  1.00  0.00     0.116 C 
BRANCH  60  61
ATOM     61  N   UNL A   1      34.944  23.069  27.062  1.00  0.00    -0.352 N 
ATOM     62  C   UNL A   1      33.844  22.301  27.355  1.00  0.00     0.253 C 
ATOM     63  H   UNL A   1      35.340  23.557  27.819  1.00  0.00     0.163 HD
ATOM     64  O   UNL A   1      33.294  22.375  28.448  1.00  0.00    -0.269 OA
BRANCH  62  65
ATOM     65  C   UNL A   1      33.281  21.427  26.306  1.00  0.00     0.064 A 
ATOM     66  C   UNL A   1      33.994  20.264  25.969  1.00  0.00     0.031 A 
ATOM     67  C   UNL A   1      32.102  21.789  25.626  1.00  0.00     0.054 A 
ATOM     68  C   UNL A   1      33.605  19.522  24.863  1.00  0.00     0.018 A 
ATOM     69  C   UNL A   1      31.793  21.072  24.466  1.00  0.00     0.028 A 
ATOM     70  Br  UNL A   1      34.581  17.986  24.368  1.00  0.00    -0.051 Br
ATOM     71  C   UNL A   1      32.530  19.943  24.089  1.00  0.00     0.018 A 
BRANCH  67  72
ATOM     72  N   UNL A   1      31.322  22.864  26.116  1.00  0.00    -0.321 N 
ATOM     73  C   UNL A   1      31.291  24.218  25.842  1.00  0.00     0.265 C 
ATOM     74  H   UNL A   1      30.664  22.590  26.795  1.00  0.00     0.170 HD
ATOM     75  O   UNL A   1      30.617  24.931  26.587  1.00  0.00    -0.268 OA
BRANCH  73  76
ATOM     76  C   UNL A   1      31.983  24.745  24.685  1.00  0.00     0.093 A 
ATOM     77  C   UNL A   1      33.176  25.446  24.617  1.00  0.00     0.027 A 
ATOM     78  S   UNL A   1      31.316  24.489  23.127  1.00  0.00    -0.123 S 
ATOM     79  C   UNL A   1      33.468  25.881  23.288  1.00  0.00     0.028 A 
ATOM     80  C   UNL A   1      32.519  25.436  22.403  1.00  0.00     0.071 A 
ATOM     81  Br  UNL A   1      32.540  25.837  20.575  1.00  0.00    -0.039 Br
ENDBRANCH  73  76
ENDBRANCH  67  72
ENDBRANCH  62  65
ENDBRANCH  60  61
ENDBRANCH  59  60
ENDBRANCH  58  59
ENDBRANCH   1  58
TORSDOF 15
ENDMDL
