MODEL 1
REMARK VINA RESULT:     -11.1      0.000      0.000
REMARK SMILES Cc1cc(Cl)ccc1Oc1cc(C)c(N)c(C(=O)NCCCCCCNC(=O)c2ccc(-c3c4nc(c(-c5ccccc5)c5ccc([nH]5)c(-c5ccccc5)c5nc(c(-c6ccccc6)c6ccc3[nH]6)C=C5)C=C4)cc2)c1
REMARK SMILES IDX 22 1 21 2 20 3 19 4 17 5 18 6 16 8 10 9 11 10 77 11 12 12
REMARK SMILES IDX 13 13 14 14 9 15 8 16 1 17 2 18 3 19 4 20 7 21 5 22 6 23
REMARK SMILES IDX 15 24 23 27 24 28 25 29 26 30 27 31 28 33 29 34 30 35 76 36
REMARK SMILES IDX 31 37 75 38 32 39 33 40 34 41 69 42 35 43 74 44 68 45 70 46
REMARK SMILES IDX 36 47 73 48 67 49 66 50 37 52 59 53 44 54 58 55 45 56 48 57
REMARK SMILES IDX 57 58 71 59 46 60 47 61 56 63 72 64 49 65 38 66 39 67 43 68
REMARK SMILES IDX 40 69 42 70 41 71 60 72 61 73 65 74 62 75 64 76 63 77 50 78
REMARK SMILES IDX 51 79 55 80 52 81 54 82 53 83
REMARK H PARENT 19 7 15 25 15 26 26 32 70 51 48 62
REMARK Flexibility Score: inf
ROOT
ATOM      1  C   UNL A   1      37.662  21.845  25.211  1.00  0.00     0.002 C 
ENDROOT
BRANCH   1   2
ATOM      2  C   UNL A   1      36.841  23.010  24.636  1.00  0.00     0.021 C 
BRANCH   2   3
ATOM      3  C   UNL A   1      36.059  23.774  25.707  1.00  0.00     0.116 C 
BRANCH   3   4
ATOM      4  N   UNL A   1      35.463  22.834  26.637  1.00  0.00    -0.352 N 
ATOM      5  C   UNL A   1      34.360  22.018  26.628  1.00  0.00     0.253 C 
ATOM      6  O   UNL A   1      34.165  21.404  27.682  1.00  0.00    -0.269 OA
ATOM      7  H   UNL A   1      35.971  22.765  27.476  1.00  0.00     0.163 HD
BRANCH   5   8
ATOM      8  C   UNL A   1      33.461  21.788  25.443  1.00  0.00     0.066 A 
ATOM      9  C   UNL A   1      31.943  22.585  23.726  1.00  0.00     0.128 A 
ATOM     10  C   UNL A   1      31.965  21.353  23.087  1.00  0.00     0.052 A 
ATOM     11  C   UNL A   1      32.670  22.801  24.896  1.00  0.00     0.063 A 
ATOM     12  C   UNL A   1      32.628  20.278  23.686  1.00  0.00    -0.024 A 
ATOM     13  C   UNL A   1      32.455  18.903  23.095  1.00  0.00     0.047 C 
ATOM     14  C   UNL A   1      33.404  20.489  24.853  1.00  0.00     0.048 A 
BRANCH   9  15
ATOM     15  O   UNL A   1      31.290  23.645  23.168  1.00  0.00    -0.457 OA
BRANCH  15  16
ATOM     16  C   UNL A   1      31.807  24.922  23.235  1.00  0.00     0.130 A 
ATOM     17  C   UNL A   1      30.322  26.013  25.060  1.00  0.00     0.048 C 
ATOM     18  C   UNL A   1      31.427  26.012  24.040  1.00  0.00    -0.007 A 
ATOM     19  C   UNL A   1      32.113  27.236  23.872  1.00  0.00     0.027 A 
ATOM     20  C   UNL A   1      33.165  27.365  22.967  1.00  0.00     0.041 A 
ATOM     21  C   UNL A   1      32.880  25.072  22.333  1.00  0.00     0.049 A 
ATOM     22  Cl  UNL A   1      33.974  28.874  22.805  1.00  0.00    -0.084 Cl
ATOM     23  C   UNL A   1      33.561  26.282  22.200  1.00  0.00     0.024 A 
ENDBRANCH  15  16
ENDBRANCH   9  15
BRANCH  14  24
ATOM     24  N   UNL A   1      34.003  19.389  25.468  1.00  0.00    -0.398 N 
ATOM     25  H   UNL A   1      33.736  18.476  25.215  1.00  0.00     0.156 HD
ATOM     26  H   UNL A   1      34.694  19.526  26.157  1.00  0.00     0.156 HD
ENDBRANCH  14  24
ENDBRANCH   5   8
ENDBRANCH   3   4
ENDBRANCH   2   3
ENDBRANCH   1   2
BRANCH   1  27
ATOM     27  C   UNL A   1      37.313  20.466  24.634  1.00  0.00     0.002 C 
BRANCH  27  28
ATOM     28  C   UNL A   1      38.314  19.359  24.972  1.00  0.00     0.021 C 
BRANCH  28  29
ATOM     29  C   UNL A   1      39.291  19.725  26.083  1.00  0.00     0.116 C 
BRANCH  29  30
ATOM     30  N   UNL A   1      40.583  19.086  25.889  1.00  0.00    -0.352 N 
ATOM     31  C   UNL A   1      41.837  19.641  25.915  1.00  0.00     0.251 C 
ATOM     32  H   UNL A   1      40.554  18.118  25.714  1.00  0.00     0.163 HD
ATOM     33  O   UNL A   1      42.802  19.014  25.492  1.00  0.00    -0.269 OA
BRANCH  31  34
ATOM     34  C   UNL A   1      42.022  21.005  26.449  1.00  0.00     0.039 A 
ATOM     35  C   UNL A   1      41.959  21.208  27.830  1.00  0.00     0.014 A 
ATOM     36  C   UNL A   1      42.241  22.083  25.586  1.00  0.00     0.014 A 
ATOM     37  C   UNL A   1      42.167  22.486  28.349  1.00  0.00     0.010 A 
ATOM     38  C   UNL A   1      42.520  23.342  26.109  1.00  0.00     0.010 A 
ATOM     39  C   UNL A   1      42.479  23.556  27.494  1.00  0.00    -0.014 A 
BRANCH  39  40
ATOM     40  C   UNL A   1      42.769  24.907  28.032  1.00  0.00     0.031 A 
ATOM     41  C   UNL A   1      44.161  25.270  28.466  1.00  0.00     0.074 A 
ATOM     42  C   UNL A   1      41.761  25.786  28.196  1.00  0.00     0.049 A 
ATOM     43  N   UNL A   1      44.595  26.383  29.002  1.00  0.00    -0.248 NA
ATOM     44  C   UNL A   1      45.196  24.237  28.303  1.00  0.00     0.031 C 
ATOM     45  C   UNL A   1      40.357  25.535  27.860  1.00  0.00     0.029 A 
ATOM     46  N   UNL A   1      41.760  27.063  28.695  1.00  0.00    -0.354 N 
ATOM     47  C   UNL A   1      45.944  26.176  29.259  1.00  0.00     0.074 A 
ATOM     48  C   UNL A   1      46.246  24.817  28.866  1.00  0.00     0.031 C 
ATOM     49  C   UNL A   1      39.637  26.632  28.141  1.00  0.00     0.029 A 
ATOM     50  C   UNL A   1      40.518  27.645  28.711  1.00  0.00     0.049 A 
ATOM     51  H   UNL A   1      42.574  27.518  29.011  1.00  0.00     0.167 HD
ATOM     52  C   UNL A   1      46.854  27.044  29.762  1.00  0.00     0.031 A 
ATOM     53  C   UNL A   1      40.127  28.859  29.144  1.00  0.00     0.031 A 
ATOM     54  C   UNL A   1      46.552  28.398  30.146  1.00  0.00     0.049 A 
ATOM     55  C   UNL A   1      41.153  29.806  29.699  1.00  0.00     0.074 A 
ATOM     56  C   UNL A   1      47.417  29.380  30.596  1.00  0.00     0.029 A 
ATOM     57  N   UNL A   1      45.283  28.955  30.135  1.00  0.00    -0.354 N 
ATOM     58  N   UNL A   1      42.442  29.627  29.855  1.00  0.00    -0.248 NA
ATOM     59  C   UNL A   1      40.671  31.127  30.124  1.00  0.00     0.031 C 
ATOM     60  C   UNL A   1      46.662  30.513  30.915  1.00  0.00     0.029 A 
ATOM     61  C   UNL A   1      45.336  30.259  30.604  1.00  0.00     0.049 A 
ATOM     62  H   UNL A   1      44.466  28.494  29.838  1.00  0.00     0.167 HD
ATOM     63  C   UNL A   1      42.930  30.817  30.377  1.00  0.00     0.074 A 
ATOM     64  C   UNL A   1      41.800  31.716  30.493  1.00  0.00     0.031 C 
ATOM     65  C   UNL A   1      44.200  31.137  30.726  1.00  0.00     0.031 A 
BRANCH  52  66
ATOM     66  C   UNL A   1      48.261  26.541  29.943  1.00  0.00    -0.014 A 
ATOM     67  C   UNL A   1      49.233  26.708  28.944  1.00  0.00     0.009 A 
ATOM     68  C   UNL A   1      48.623  25.905  31.141  1.00  0.00     0.009 A 
ATOM     69  C   UNL A   1      50.524  26.204  29.121  1.00  0.00     0.001 A 
ATOM     70  C   UNL A   1      49.923  25.432  31.328  1.00  0.00     0.001 A 
ATOM     71  C   UNL A   1      50.869  25.571  30.314  1.00  0.00     0.000 A 
ENDBRANCH  52  66
BRANCH  53  72
ATOM     72  C   UNL A   1      38.696  29.245  29.054  1.00  0.00    -0.014 A 
ATOM     73  C   UNL A   1      37.852  29.122  30.168  1.00  0.00     0.009 A 
ATOM     74  C   UNL A   1      38.171  29.762  27.858  1.00  0.00     0.009 A 
ATOM     75  C   UNL A   1      36.508  29.493  30.081  1.00  0.00     0.001 A 
ATOM     76  C   UNL A   1      36.835  30.159  27.783  1.00  0.00     0.001 A 
ATOM     77  C   UNL A   1      36.002  30.017  28.892  1.00  0.00     0.000 A 
ENDBRANCH  53  72
BRANCH  65  78
ATOM     78  C   UNL A   1      44.439  32.526  31.249  1.00  0.00    -0.014 A 
ATOM     79  C   UNL A   1      44.728  33.592  30.383  1.00  0.00     0.009 A 
ATOM     80  C   UNL A   1      44.334  32.778  32.625  1.00  0.00     0.009 A 
ATOM     81  C   UNL A   1      44.938  34.876  30.889  1.00  0.00     0.001 A 
ATOM     82  C   UNL A   1      44.514  34.069  33.126  1.00  0.00     0.001 A 
ATOM     83  C   UNL A   1      44.825  35.114  32.258  1.00  0.00     0.000 A 
ENDBRANCH  65  78
ENDBRANCH  39  40
ENDBRANCH  31  34
ENDBRANCH  29  30
ENDBRANCH  28  29
ENDBRANCH  27  28
ENDBRANCH   1  27
TORSDOF 16
ENDMDL
MODEL 2
REMARK VINA RESULT:     -10.9      5.322     10.226
REMARK SMILES Cc1cc(Cl)ccc1Oc1cc(C)c(N)c(C(=O)NCCCCCCNC(=O)c2ccc(-c3c4nc(c(-c5ccccc5)c5ccc([nH]5)c(-c5ccccc5)c5nc(c(-c6ccccc6)c6ccc3[nH]6)C=C5)C=C4)cc2)c1
REMARK SMILES IDX 22 1 21 2 20 3 19 4 17 5 18 6 16 8 10 9 11 10 77 11 12 12
REMARK SMILES IDX 13 13 14 14 9 15 8 16 1 17 2 18 3 19 4 20 7 21 5 22 6 23
REMARK SMILES IDX 15 24 23 27 24 28 25 29 26 30 27 31 28 33 29 34 30 35 76 36
REMARK SMILES IDX 31 37 75 38 32 39 33 40 34 41 69 42 35 43 74 44 68 45 70 46
REMARK SMILES IDX 36 47 73 48 67 49 66 50 37 52 59 53 44 54 58 55 45 56 48 57
REMARK SMILES IDX 57 58 71 59 46 60 47 61 56 63 72 64 49 65 38 66 39 67 43 68
REMARK SMILES IDX 40 69 42 70 41 71 60 72 61 73 65 74 62 75 64 76 63 77 50 78
REMARK SMILES IDX 51 79 55 80 52 81 54 82 53 83
REMARK H PARENT 19 7 15 25 15 26 26 32 70 51 48 62
REMARK Flexibility Score: inf
ROOT
ATOM      1  C   UNL A   1      34.553  32.214  29.069  1.00  0.00     0.002 C 
ENDROOT
BRANCH   1   2
ATOM      2  C   UNL A   1      35.232  31.166  28.175  1.00  0.00     0.021 C 
BRANCH   2   3
ATOM      3  C   UNL A   1      34.245  30.156  27.585  1.00  0.00     0.116 C 
BRANCH   3   4
ATOM      4  N   UNL A   1      33.046  30.845  27.151  1.00  0.00    -0.352 N 
ATOM      5  C   UNL A   1      31.948  30.515  26.398  1.00  0.00     0.253 C 
ATOM      6  O   UNL A   1      31.157  31.444  26.204  1.00  0.00    -0.269 OA
ATOM      7  H   UNL A   1      33.011  31.774  27.473  1.00  0.00     0.163 HD
BRANCH   5   8
ATOM      8  C   UNL A   1      31.634  29.136  25.881  1.00  0.00     0.066 A 
ATOM      9  C   UNL A   1      31.510  26.729  26.155  1.00  0.00     0.128 A 
ATOM     10  C   UNL A   1      30.820  26.594  24.959  1.00  0.00     0.052 A 
ATOM     11  C   UNL A   1      31.925  27.980  26.609  1.00  0.00     0.063 A 
ATOM     12  C   UNL A   1      30.641  27.711  24.136  1.00  0.00    -0.024 A 
ATOM     13  C   UNL A   1      30.092  27.506  22.749  1.00  0.00     0.047 C 
ATOM     14  C   UNL A   1      31.021  28.995  24.600  1.00  0.00     0.048 A 
BRANCH   9  15
ATOM     15  O   UNL A   1      31.709  25.651  26.966  1.00  0.00    -0.457 OA
BRANCH  15  16
ATOM     16  C   UNL A   1      32.248  24.477  26.481  1.00  0.00     0.130 A 
ATOM     17  C   UNL A   1      30.234  22.850  26.639  1.00  0.00     0.048 C 
ATOM     18  C   UNL A   1      31.657  23.210  26.313  1.00  0.00    -0.007 A 
ATOM     19  C   UNL A   1      32.463  22.159  25.823  1.00  0.00     0.027 A 
ATOM     20  C   UNL A   1      33.797  22.363  25.473  1.00  0.00     0.041 A 
ATOM     21  C   UNL A   1      33.595  24.664  26.111  1.00  0.00     0.049 A 
ATOM     22  Cl  UNL A   1      34.735  21.053  24.873  1.00  0.00    -0.084 Cl
ATOM     23  C   UNL A   1      34.367  23.619  25.605  1.00  0.00     0.024 A 
ENDBRANCH  15  16
ENDBRANCH   9  15
BRANCH  14  24
ATOM     24  N   UNL A   1      30.892  30.084  23.737  1.00  0.00    -0.398 N 
ATOM     25  H   UNL A   1      30.345  30.006  22.922  1.00  0.00     0.156 HD
ATOM     26  H   UNL A   1      31.349  30.932  23.942  1.00  0.00     0.156 HD
ENDBRANCH  14  24
ENDBRANCH   5   8
ENDBRANCH   3   4
ENDBRANCH   2   3
ENDBRANCH   1   2
BRANCH   1  27
ATOM     27  C   UNL A   1      34.574  33.645  28.513  1.00  0.00     0.002 C 
BRANCH  27  28
ATOM     28  C   UNL A   1      33.278  34.433  28.721  1.00  0.00     0.021 C 
BRANCH  28  29
ATOM     29  C   UNL A   1      33.481  35.800  29.364  1.00  0.00     0.116 C 
BRANCH  29  30
ATOM     30  N   UNL A   1      32.576  36.002  30.485  1.00  0.00    -0.352 N 
ATOM     31  C   UNL A   1      32.644  35.494  31.757  1.00  0.00     0.251 C 
ATOM     32  H   UNL A   1      31.805  36.587  30.305  1.00  0.00     0.163 HD
ATOM     33  O   UNL A   1      31.676  35.564  32.506  1.00  0.00    -0.269 OA
BRANCH  31  34
ATOM     34  C   UNL A   1      33.890  34.851  32.222  1.00  0.00     0.039 A 
ATOM     35  C   UNL A   1      33.842  33.536  32.689  1.00  0.00     0.014 A 
ATOM     36  C   UNL A   1      35.099  35.553  32.210  1.00  0.00     0.014 A 
ATOM     37  C   UNL A   1      35.017  32.906  33.098  1.00  0.00     0.010 A 
ATOM     38  C   UNL A   1      36.281  34.900  32.548  1.00  0.00     0.010 A 
ATOM     39  C   UNL A   1      36.250  33.574  33.002  1.00  0.00    -0.014 A 
BRANCH  39  40
ATOM     40  C   UNL A   1      37.518  32.898  33.368  1.00  0.00     0.031 A 
ATOM     41  C   UNL A   1      38.119  31.864  32.458  1.00  0.00     0.074 A 
ATOM     42  C   UNL A   1      38.092  33.167  34.556  1.00  0.00     0.049 A 
ATOM     43  N   UNL A   1      39.193  31.137  32.632  1.00  0.00    -0.248 NA
ATOM     44  C   UNL A   1      37.402  31.590  31.202  1.00  0.00     0.031 C 
ATOM     45  C   UNL A   1      37.580  34.114  35.549  1.00  0.00     0.029 A 
ATOM     46  N   UNL A   1      39.228  32.661  35.134  1.00  0.00    -0.354 N 
ATOM     47  C   UNL A   1      39.269  30.307  31.520  1.00  0.00     0.074 A 
ATOM     48  C   UNL A   1      38.107  30.585  30.704  1.00  0.00     0.031 C 
ATOM     49  C   UNL A   1      38.411  34.137  36.602  1.00  0.00     0.029 A 
ATOM     50  C   UNL A   1      39.490  33.181  36.377  1.00  0.00     0.049 A 
ATOM     51  H   UNL A   1      39.801  31.989  34.699  1.00  0.00     0.167 HD
ATOM     52  C   UNL A   1      40.227  29.404  31.199  1.00  0.00     0.031 A 
ATOM     53  C   UNL A   1      40.484  32.914  37.245  1.00  0.00     0.031 A 
ATOM     54  C   UNL A   1      41.385  29.134  32.011  1.00  0.00     0.049 A 
ATOM     55  C   UNL A   1      41.537  31.910  36.869  1.00  0.00     0.074 A 
ATOM     56  C   UNL A   1      42.451  28.294  31.739  1.00  0.00     0.029 A 
ATOM     57  N   UNL A   1      41.621  29.692  33.257  1.00  0.00    -0.354 N 
ATOM     58  N   UNL A   1      41.642  31.196  35.775  1.00  0.00    -0.248 NA
ATOM     59  C   UNL A   1      42.614  31.686  37.843  1.00  0.00     0.031 C 
ATOM     60  C   UNL A   1      43.302  28.298  32.849  1.00  0.00     0.029 A 
ATOM     61  C   UNL A   1      42.800  29.188  33.785  1.00  0.00     0.049 A 
ATOM     62  H   UNL A   1      41.038  30.349  33.702  1.00  0.00     0.167 HD
ATOM     63  C   UNL A   1      42.806  30.453  35.918  1.00  0.00     0.074 A 
ATOM     64  C   UNL A   1      43.380  30.818  37.197  1.00  0.00     0.031 C 
ATOM     65  C   UNL A   1      43.351  29.551  35.065  1.00  0.00     0.031 A 
BRANCH  52  66
ATOM     66  C   UNL A   1      40.046  28.630  29.922  1.00  0.00    -0.014 A 
ATOM     67  C   UNL A   1      39.409  27.380  29.907  1.00  0.00     0.009 A 
ATOM     68  C   UNL A   1      40.509  29.170  28.711  1.00  0.00     0.009 A 
ATOM     69  C   UNL A   1      39.282  26.664  28.714  1.00  0.00     0.001 A 
ATOM     70  C   UNL A   1      40.351  28.466  27.516  1.00  0.00     0.001 A 
ATOM     71  C   UNL A   1      39.749  27.209  27.519  1.00  0.00     0.000 A 
ENDBRANCH  52  66
BRANCH  53  72
ATOM     72  C   UNL A   1      40.532  33.625  38.548  1.00  0.00    -0.014 A 
ATOM     73  C   UNL A   1      41.174  34.868  38.659  1.00  0.00     0.009 A 
ATOM     74  C   UNL A   1      39.915  33.075  39.683  1.00  0.00     0.009 A 
ATOM     75  C   UNL A   1      41.210  35.537  39.885  1.00  0.00     0.001 A 
ATOM     76  C   UNL A   1      39.929  33.760  40.900  1.00  0.00     0.001 A 
ATOM     77  C   UNL A   1      40.583  34.986  41.002  1.00  0.00     0.000 A 
ENDBRANCH  53  72
BRANCH  65  78
ATOM     78  C   UNL A   1      44.646  28.910  35.480  1.00  0.00    -0.014 A 
ATOM     79  C   UNL A   1      45.883  29.472  35.128  1.00  0.00     0.009 A 
ATOM     80  C   UNL A   1      44.626  27.749  36.268  1.00  0.00     0.009 A 
ATOM     81  C   UNL A   1      47.074  28.865  35.531  1.00  0.00     0.001 A 
ATOM     82  C   UNL A   1      45.818  27.161  36.695  1.00  0.00     0.001 A 
ATOM     83  C   UNL A   1      47.041  27.715  36.318  1.00  0.00     0.000 A 
ENDBRANCH  65  78
ENDBRANCH  39  40
ENDBRANCH  31  34
ENDBRANCH  29  30
ENDBRANCH  28  29
ENDBRANCH  27  28
ENDBRANCH   1  27
TORSDOF 16
ENDMDL
MODEL 3
REMARK VINA RESULT:     -10.9      1.090      6.036
REMARK SMILES Cc1cc(Cl)ccc1Oc1cc(C)c(N)c(C(=O)NCCCCCCNC(=O)c2ccc(-c3c4nc(c(-c5ccccc5)c5ccc([nH]5)c(-c5ccccc5)c5nc(c(-c6ccccc6)c6ccc3[nH]6)C=C5)C=C4)cc2)c1
REMARK SMILES IDX 22 1 21 2 20 3 19 4 17 5 18 6 16 8 10 9 11 10 77 11 12 12
REMARK SMILES IDX 13 13 14 14 9 15 8 16 1 17 2 18 3 19 4 20 7 21 5 22 6 23
REMARK SMILES IDX 15 24 23 27 24 28 25 29 26 30 27 31 28 33 29 34 30 35 76 36
REMARK SMILES IDX 31 37 75 38 32 39 33 40 34 41 69 42 35 43 74 44 68 45 70 46
REMARK SMILES IDX 36 47 73 48 67 49 66 50 37 52 59 53 44 54 58 55 45 56 48 57
REMARK SMILES IDX 57 58 71 59 46 60 47 61 56 63 72 64 49 65 38 66 39 67 43 68
REMARK SMILES IDX 40 69 42 70 41 71 60 72 61 73 65 74 62 75 64 76 63 77 50 78
REMARK SMILES IDX 51 79 55 80 52 81 54 82 53 83
REMARK H PARENT 19 7 15 25 15 26 26 32 70 51 48 62
REMARK Flexibility Score: inf
ROOT
ATOM      1  C   UNL A   1      37.759  22.073  25.319  1.00  0.00     0.002 C 
ENDROOT
BRANCH   1   2
ATOM      2  C   UNL A   1      36.961  23.301  24.857  1.00  0.00     0.021 C 
BRANCH   2   3
ATOM      3  C   UNL A   1      36.165  23.956  25.989  1.00  0.00     0.116 C 
BRANCH   3   4
ATOM      4  N   UNL A   1      35.518  22.931  26.784  1.00  0.00    -0.352 N 
ATOM      5  C   UNL A   1      34.264  22.378  26.830  1.00  0.00     0.253 C 
ATOM      6  O   UNL A   1      34.099  21.548  27.730  1.00  0.00    -0.269 OA
ATOM      7  H   UNL A   1      36.124  22.538  27.452  1.00  0.00     0.163 HD
BRANCH   5   8
ATOM      8  C   UNL A   1      33.155  22.659  25.851  1.00  0.00     0.066 A 
ATOM      9  C   UNL A   1      31.239  23.947  25.106  1.00  0.00     0.128 A 
ATOM     10  C   UNL A   1      31.234  23.295  23.881  1.00  0.00     0.052 A 
ATOM     11  C   UNL A   1      32.178  23.629  26.087  1.00  0.00     0.063 A 
ATOM     12  C   UNL A   1      32.104  22.221  23.669  1.00  0.00    -0.024 A 
ATOM     13  C   UNL A   1      31.932  21.387  22.426  1.00  0.00     0.047 C 
ATOM     14  C   UNL A   1      33.090  21.910  24.637  1.00  0.00     0.048 A 
BRANCH   9  15
ATOM     15  O   UNL A   1      30.389  24.988  25.342  1.00  0.00    -0.457 OA
BRANCH  15  16
ATOM     16  C   UNL A   1      30.836  26.293  25.345  1.00  0.00     0.130 A 
ATOM     17  C   UNL A   1      30.799  26.885  22.820  1.00  0.00     0.048 C 
ATOM     18  C   UNL A   1      31.043  27.183  24.274  1.00  0.00    -0.007 A 
ATOM     19  C   UNL A   1      31.552  28.468  24.564  1.00  0.00     0.027 A 
ATOM     20  C   UNL A   1      31.810  28.873  25.872  1.00  0.00     0.041 A 
ATOM     21  C   UNL A   1      31.095  26.726  26.661  1.00  0.00     0.049 A 
ATOM     22  Cl  UNL A   1      32.422  30.451  26.175  1.00  0.00    -0.084 Cl
ATOM     23  C   UNL A   1      31.574  28.009  26.928  1.00  0.00     0.024 A 
ENDBRANCH  15  16
ENDBRANCH   9  15
BRANCH  14  24
ATOM     24  N   UNL A   1      33.903  20.794  24.433  1.00  0.00    -0.398 N 
ATOM     25  H   UNL A   1      33.528  19.978  24.029  1.00  0.00     0.156 HD
ATOM     26  H   UNL A   1      34.853  20.823  24.691  1.00  0.00     0.156 HD
ENDBRANCH  14  24
ENDBRANCH   5   8
ENDBRANCH   3   4
ENDBRANCH   2   3
ENDBRANCH   1   2
BRANCH   1  27
ATOM     27  C   UNL A   1      37.398  20.764  24.601  1.00  0.00     0.002 C 
BRANCH  27  28
ATOM     28  C   UNL A   1      38.316  19.583  24.924  1.00  0.00     0.021 C 
BRANCH  28  29
ATOM     29  C   UNL A   1      39.282  19.844  26.075  1.00  0.00     0.116 C 
BRANCH  29  30
ATOM     30  N   UNL A   1      40.533  19.125  25.895  1.00  0.00    -0.352 N 
ATOM     31  C   UNL A   1      41.819  19.598  25.934  1.00  0.00     0.251 C 
ATOM     32  H   UNL A   1      40.443  18.159  25.722  1.00  0.00     0.163 HD
ATOM     33  O   UNL A   1      42.746  18.910  25.522  1.00  0.00    -0.269 OA
BRANCH  31  34
ATOM     34  C   UNL A   1      42.085  20.950  26.467  1.00  0.00     0.039 A 
ATOM     35  C   UNL A   1      42.123  21.139  27.850  1.00  0.00     0.014 A 
ATOM     36  C   UNL A   1      42.279  22.030  25.601  1.00  0.00     0.014 A 
ATOM     37  C   UNL A   1      42.408  22.403  28.366  1.00  0.00     0.010 A 
ATOM     38  C   UNL A   1      42.635  23.273  26.115  1.00  0.00     0.010 A 
ATOM     39  C   UNL A   1      42.695  23.472  27.502  1.00  0.00    -0.014 A 
BRANCH  39  40
ATOM     40  C   UNL A   1      43.066  24.807  28.032  1.00  0.00     0.031 A 
ATOM     41  C   UNL A   1      42.007  25.842  28.291  1.00  0.00     0.074 A 
ATOM     42  C   UNL A   1      44.365  25.110  28.214  1.00  0.00     0.049 A 
ATOM     43  N   UNL A   1      42.144  27.075  28.707  1.00  0.00    -0.248 NA
ATOM     44  C   UNL A   1      40.616  25.450  28.016  1.00  0.00     0.031 C 
ATOM     45  C   UNL A   1      45.490  24.209  27.953  1.00  0.00     0.029 A 
ATOM     46  N   UNL A   1      44.960  26.265  28.654  1.00  0.00    -0.354 N 
ATOM     47  C   UNL A   1      40.862  27.611  28.725  1.00  0.00     0.074 A 
ATOM     48  C   UNL A   1      39.969  26.586  28.232  1.00  0.00     0.031 C 
ATOM     49  C   UNL A   1      46.635  24.838  28.259  1.00  0.00     0.029 A 
ATOM     50  C   UNL A   1      46.330  26.194  28.699  1.00  0.00     0.049 A 
ATOM     51  H   UNL A   1      44.452  27.068  28.912  1.00  0.00     0.167 HD
ATOM     52  C   UNL A   1      40.462  28.840  29.131  1.00  0.00     0.031 A 
ATOM     53  C   UNL A   1      47.242  27.120  29.049  1.00  0.00     0.031 A 
ATOM     54  C   UNL A   1      41.353  29.855  29.628  1.00  0.00     0.049 A 
ATOM     55  C   UNL A   1      46.776  28.477  29.496  1.00  0.00     0.074 A 
ATOM     56  C   UNL A   1      41.039  31.105  30.133  1.00  0.00     0.029 A 
ATOM     57  N   UNL A   1      42.733  29.740  29.671  1.00  0.00    -0.354 N 
ATOM     58  N   UNL A   1      45.554  28.940  29.590  1.00  0.00    -0.248 NA
ATOM     59  C   UNL A   1      47.817  29.434  29.897  1.00  0.00     0.031 C 
ATOM     60  C   UNL A   1      42.234  31.769  30.426  1.00  0.00     0.029 A 
ATOM     61  C   UNL A   1      43.290  30.910  30.162  1.00  0.00     0.049 A 
ATOM     62  H   UNL A   1      43.243  28.944  29.394  1.00  0.00     0.167 HD
ATOM     63  C   UNL A   1      45.674  30.234  30.081  1.00  0.00     0.074 A 
ATOM     64  C   UNL A   1      47.089  30.473  30.281  1.00  0.00     0.031 C 
ATOM     65  C   UNL A   1      44.701  31.140  30.343  1.00  0.00     0.031 A 
BRANCH  52  66
ATOM     66  C   UNL A   1      38.994  29.156  29.032  1.00  0.00    -0.014 A 
ATOM     67  C   UNL A   1      38.128  28.961  30.119  1.00  0.00     0.009 A 
ATOM     68  C   UNL A   1      38.473  29.672  27.835  1.00  0.00     0.009 A 
ATOM     69  C   UNL A   1      36.763  29.231  29.995  1.00  0.00     0.001 A 
ATOM     70  C   UNL A   1      37.114  29.971  27.723  1.00  0.00     0.001 A 
ATOM     71  C   UNL A   1      36.257  29.739  28.799  1.00  0.00     0.000 A 
ENDBRANCH  52  66
BRANCH  53  72
ATOM     72  C   UNL A   1      48.687  26.782  29.002  1.00  0.00    -0.014 A 
ATOM     73  C   UNL A   1      49.435  27.010  27.837  1.00  0.00     0.009 A 
ATOM     74  C   UNL A   1      49.333  26.252  30.130  1.00  0.00     0.009 A 
ATOM     75  C   UNL A   1      50.796  26.698  27.799  1.00  0.00     0.001 A 
ATOM     76  C   UNL A   1      50.699  25.967  30.098  1.00  0.00     0.001 A 
ATOM     77  C   UNL A   1      51.428  26.183  28.930  1.00  0.00     0.000 A 
ENDBRANCH  53  72
BRANCH  65  78
ATOM     78  C   UNL A   1      45.132  32.469  30.895  1.00  0.00    -0.014 A 
ATOM     79  C   UNL A   1      45.284  32.671  32.276  1.00  0.00     0.009 A 
ATOM     80  C   UNL A   1      45.428  33.523  30.017  1.00  0.00     0.009 A 
ATOM     81  C   UNL A   1      45.694  33.912  32.767  1.00  0.00     0.001 A 
ATOM     82  C   UNL A   1      45.867  34.754  30.509  1.00  0.00     0.001 A 
ATOM     83  C   UNL A   1      45.990  34.950  31.884  1.00  0.00     0.000 A 
ENDBRANCH  65  78
ENDBRANCH  39  40
ENDBRANCH  31  34
ENDBRANCH  29  30
ENDBRANCH  28  29
ENDBRANCH  27  28
ENDBRANCH   1  27
TORSDOF 16
ENDMDL
