MODEL 1
REMARK VINA RESULT:     -10.9      0.000      0.000
REMARK SMILES CCc1ccc(C[NH+]2CCC(Oc3ccccc3OC)(C(=O)NCCCCCCNC(=O)c3ccc(-c4c5nc(c(-c6ccccc6)c6ccc([nH]6)c(-c6ccccc6)c6nc(c(-c7ccccc7)c7ccc4[nH]7)C=C6)C=C5)cc3)CC2)nc1
REMARK SMILES IDX 26 1 25 2 24 3 23 4 21 5 22 6 11 8 8 9 9 10 82 11 10 13
REMARK SMILES IDX 81 14 7 15 6 16 3 17 4 18 84 19 5 20 83 21 2 22 1 23 12 24
REMARK SMILES IDX 13 25 14 26 18 27 15 28 17 29 16 30 19 31 20 32 27 33 28 34
REMARK SMILES IDX 29 35 30 36 31 37 32 39 33 40 34 41 80 42 35 43 79 44 36 45
REMARK SMILES IDX 37 46 38 47 73 48 39 49 78 50 72 51 74 52 40 53 77 54 71 55
REMARK SMILES IDX 70 56 41 58 63 59 48 60 62 61 49 62 52 63 61 64 75 65 50 66
REMARK SMILES IDX 51 67 60 69 76 70 53 71 42 72 43 73 47 74 44 75 46 76 45 77
REMARK SMILES IDX 64 78 65 79 69 80 66 81 68 82 67 83 54 84 55 85 59 86 56 87
REMARK SMILES IDX 58 88 57 89
REMARK H PARENT 23 7 8 12 30 38 74 57 52 68
REMARK Flexibility Score: inf
ROOT
ATOM      1  C   UNL A   1      33.902  30.393  27.239  1.00  0.00     0.002 C 
ENDROOT
BRANCH   1   2
ATOM      2  C   UNL A   1      34.647  29.102  26.893  1.00  0.00     0.021 C 
BRANCH   2   3
ATOM      3  C   UNL A   1      33.866  28.159  25.983  1.00  0.00     0.116 C 
BRANCH   3   4
ATOM      4  N   UNL A   1      34.103  28.425  24.580  1.00  0.00    -0.353 N 
ATOM      5  C   UNL A   1      33.758  27.717  23.461  1.00  0.00     0.264 C 
ATOM      6  O   UNL A   1      33.902  28.332  22.398  1.00  0.00    -0.270 OA
ATOM      7  H   UNL A   1      34.597  29.258  24.401  1.00  0.00     0.163 HD
BRANCH   5   8
ATOM      8  C   UNL A   1      33.234  26.238  23.514  1.00  0.00     0.197 C 
ATOM      9  N   UNL A   1      30.295  26.346  23.412  1.00  0.00    -0.330 N 
ATOM     10  C   UNL A   1      31.087  26.669  22.224  1.00  0.00     0.267 C 
ATOM     11  C   UNL A   1      30.988  26.773  24.636  1.00  0.00     0.267 C 
ATOM     12  H   UNL A   1      30.198  25.333  23.451  1.00  0.00     0.348 HD
ATOM     13  C   UNL A   1      32.407  25.917  22.263  1.00  0.00     0.120 C 
ATOM     14  C   UNL A   1      32.347  26.066  24.770  1.00  0.00     0.120 C 
BRANCH   9  15
ATOM     15  C   UNL A   1      28.918  26.892  23.332  1.00  0.00     0.319 C 
BRANCH  15  16
ATOM     16  C   UNL A   1      28.802  28.397  23.141  1.00  0.00     0.095 A 
ATOM     17  C   UNL A   1      28.487  31.037  22.410  1.00  0.00    -0.030 A 
ATOM     18  C   UNL A   1      27.457  30.384  23.087  1.00  0.00     0.007 A 
ATOM     19  C   UNL A   1      29.657  30.322  22.185  1.00  0.00     0.115 A 
ATOM     20  C   UNL A   1      27.610  29.049  23.452  1.00  0.00     0.030 A 
ATOM     21  N   UNL A   1      29.840  29.034  22.547  1.00  0.00    -0.255 NA
BRANCH  17  22
ATOM     22  C   UNL A   1      28.333  32.447  21.912  1.00  0.00     0.034 C 
ATOM     23  C   UNL A   1      28.808  33.471  22.934  1.00  0.00     0.009 C 
ENDBRANCH  17  22
ENDBRANCH  15  16
ENDBRANCH   9  15
BRANCH   8  24
ATOM     24  O   UNL A   1      34.458  25.463  23.529  1.00  0.00    -0.473 OA
BRANCH  24  25
ATOM     25  C   UNL A   1      34.537  24.321  24.266  1.00  0.00     0.162 A 
ATOM     26  C   UNL A   1      35.179  24.429  25.504  1.00  0.00     0.050 A 
ATOM     27  C   UNL A   1      34.178  23.057  23.785  1.00  0.00     0.160 A 
ATOM     28  C   UNL A   1      35.408  23.295  26.285  1.00  0.00     0.004 A 
ATOM     29  C   UNL A   1      34.390  21.927  24.580  1.00  0.00     0.050 A 
ATOM     30  C   UNL A   1      35.011  22.043  25.823  1.00  0.00     0.004 A 
BRANCH  27  31
ATOM     31  O   UNL A   1      33.551  22.819  22.592  1.00  0.00    -0.493 OA
ATOM     32  C   UNL A   1      32.289  22.185  22.744  1.00  0.00     0.278 C 
ENDBRANCH  27  31
ENDBRANCH  24  25
ENDBRANCH   8  24
ENDBRANCH   5   8
ENDBRANCH   3   4
ENDBRANCH   2   3
ENDBRANCH   1   2
BRANCH   1  33
ATOM     33  C   UNL A   1      32.378  30.329  27.078  1.00  0.00     0.002 C 
BRANCH  33  34
ATOM     34  C   UNL A   1      31.659  31.682  27.087  1.00  0.00     0.021 C 
BRANCH  34  35
ATOM     35  C   UNL A   1      32.516  32.866  26.647  1.00  0.00     0.116 C 
BRANCH  35  36
ATOM     36  N   UNL A   1      32.346  34.015  27.522  1.00  0.00    -0.352 N 
ATOM     37  C   UNL A   1      33.049  34.379  28.639  1.00  0.00     0.251 C 
ATOM     38  H   UNL A   1      31.615  34.624  27.275  1.00  0.00     0.163 HD
ATOM     39  O   UNL A   1      32.613  35.268  29.374  1.00  0.00    -0.269 OA
BRANCH  37  40
ATOM     40  C   UNL A   1      34.322  33.711  28.981  1.00  0.00     0.039 A 
ATOM     41  C   UNL A   1      35.451  33.974  28.198  1.00  0.00     0.014 A 
ATOM     42  C   UNL A   1      34.402  32.801  30.039  1.00  0.00     0.014 A 
ATOM     43  C   UNL A   1      36.668  33.366  28.510  1.00  0.00     0.010 A 
ATOM     44  C   UNL A   1      35.632  32.248  30.390  1.00  0.00     0.010 A 
ATOM     45  C   UNL A   1      36.777  32.522  29.627  1.00  0.00    -0.014 A 
BRANCH  45  46
ATOM     46  C   UNL A   1      38.088  31.942  30.014  1.00  0.00     0.031 A 
ATOM     47  C   UNL A   1      39.017  32.684  30.934  1.00  0.00     0.074 A 
ATOM     48  C   UNL A   1      38.461  30.755  29.495  1.00  0.00     0.049 A 
ATOM     49  N   UNL A   1      40.198  32.329  31.374  1.00  0.00    -0.248 NA
ATOM     50  C   UNL A   1      38.575  34.007  31.404  1.00  0.00     0.031 C 
ATOM     51  C   UNL A   1      37.673  29.959  28.551  1.00  0.00     0.029 A 
ATOM     52  N   UNL A   1      39.599  30.012  29.689  1.00  0.00    -0.354 N 
ATOM     53  C   UNL A   1      40.644  33.385  32.160  1.00  0.00     0.074 A 
ATOM     54  C   UNL A   1      39.628  34.414  32.099  1.00  0.00     0.031 C 
ATOM     55  C   UNL A   1      38.337  28.825  28.273  1.00  0.00     0.029 A 
ATOM     56  C   UNL A   1      39.609  28.831  28.987  1.00  0.00     0.049 A 
ATOM     57  H   UNL A   1      40.337  30.299  30.273  1.00  0.00     0.167 HD
ATOM     58  C   UNL A   1      41.787  33.483  32.881  1.00  0.00     0.031 A 
ATOM     59  C   UNL A   1      40.539  27.860  28.924  1.00  0.00     0.031 A 
ATOM     60  C   UNL A   1      42.794  32.456  32.949  1.00  0.00     0.049 A 
ATOM     61  C   UNL A   1      41.796  27.994  29.735  1.00  0.00     0.074 A 
ATOM     62  C   UNL A   1      43.954  32.436  33.703  1.00  0.00     0.029 A 
ATOM     63  N   UNL A   1      42.764  31.272  32.229  1.00  0.00    -0.354 N 
ATOM     64  N   UNL A   1      42.161  28.962  30.539  1.00  0.00    -0.248 NA
ATOM     65  C   UNL A   1      42.764  26.892  29.639  1.00  0.00     0.031 C 
ATOM     66  C   UNL A   1      44.654  31.264  33.398  1.00  0.00     0.029 A 
ATOM     67  C   UNL A   1      43.901  30.527  32.500  1.00  0.00     0.049 A 
ATOM     68  H   UNL A   1      42.043  31.001  31.617  1.00  0.00     0.167 HD
ATOM     69  C   UNL A   1      43.389  28.576  31.062  1.00  0.00     0.074 A 
ATOM     70  C   UNL A   1      43.692  27.273  30.503  1.00  0.00     0.031 C 
ATOM     71  C   UNL A   1      44.195  29.239  31.926  1.00  0.00     0.031 A 
BRANCH  58  72
ATOM     72  C   UNL A   1      42.016  34.753  33.653  1.00  0.00    -0.014 A 
ATOM     73  C   UNL A   1      41.545  34.903  34.968  1.00  0.00     0.009 A 
ATOM     74  C   UNL A   1      42.756  35.798  33.077  1.00  0.00     0.009 A 
ATOM     75  C   UNL A   1      41.783  36.083  35.676  1.00  0.00     0.001 A 
ATOM     76  C   UNL A   1      43.017  36.965  33.796  1.00  0.00     0.001 A 
ATOM     77  C   UNL A   1      42.523  37.110  35.093  1.00  0.00     0.000 A 
ENDBRANCH  58  72
BRANCH  59  78
ATOM     78  C   UNL A   1      40.313  26.667  28.067  1.00  0.00    -0.014 A 
ATOM     79  C   UNL A   1      39.551  25.585  28.534  1.00  0.00     0.009 A 
ATOM     80  C   UNL A   1      40.869  26.598  26.780  1.00  0.00     0.009 A 
ATOM     81  C   UNL A   1      39.377  24.446  27.743  1.00  0.00     0.001 A 
ATOM     82  C   UNL A   1      40.667  25.472  25.979  1.00  0.00     0.001 A 
ATOM     83  C   UNL A   1      39.932  24.393  26.465  1.00  0.00     0.000 A 
ENDBRANCH  59  78
BRANCH  71  84
ATOM     84  C   UNL A   1      45.469  28.555  32.334  1.00  0.00    -0.014 A 
ATOM     85  C   UNL A   1      46.659  28.737  31.611  1.00  0.00     0.009 A 
ATOM     86  C   UNL A   1      45.484  27.728  33.469  1.00  0.00     0.009 A 
ATOM     87  C   UNL A   1      47.826  28.070  31.991  1.00  0.00     0.001 A 
ATOM     88  C   UNL A   1      46.659  27.089  33.865  1.00  0.00     0.001 A 
ATOM     89  C   UNL A   1      47.825  27.250  33.119  1.00  0.00     0.000 A 
ENDBRANCH  71  84
ENDBRANCH  45  46
ENDBRANCH  37  40
ENDBRANCH  35  36
ENDBRANCH  34  35
ENDBRANCH  33  34
ENDBRANCH   1  33
TORSDOF 19
ENDMDL
MODEL 2
REMARK VINA RESULT:     -10.8      0.713      5.665
REMARK SMILES CCc1ccc(C[NH+]2CCC(Oc3ccccc3OC)(C(=O)NCCCCCCNC(=O)c3ccc(-c4c5nc(c(-c6ccccc6)c6ccc([nH]6)c(-c6ccccc6)c6nc(c(-c7ccccc7)c7ccc4[nH]7)C=C6)C=C5)cc3)CC2)nc1
REMARK SMILES IDX 26 1 25 2 24 3 23 4 21 5 22 6 11 8 8 9 9 10 82 11 10 13
REMARK SMILES IDX 81 14 7 15 6 16 3 17 4 18 84 19 5 20 83 21 2 22 1 23 12 24
REMARK SMILES IDX 13 25 14 26 18 27 15 28 17 29 16 30 19 31 20 32 27 33 28 34
REMARK SMILES IDX 29 35 30 36 31 37 32 39 33 40 34 41 80 42 35 43 79 44 36 45
REMARK SMILES IDX 37 46 38 47 73 48 39 49 78 50 72 51 74 52 40 53 77 54 71 55
REMARK SMILES IDX 70 56 41 58 63 59 48 60 62 61 49 62 52 63 61 64 75 65 50 66
REMARK SMILES IDX 51 67 60 69 76 70 53 71 42 72 43 73 47 74 44 75 46 76 45 77
REMARK SMILES IDX 64 78 65 79 69 80 66 81 68 82 67 83 54 84 55 85 59 86 56 87
REMARK SMILES IDX 58 88 57 89
REMARK H PARENT 23 7 8 12 30 38 74 57 52 68
REMARK Flexibility Score: inf
ROOT
ATOM      1  C   UNL A   1      34.066  30.274  27.133  1.00  0.00     0.002 C 
ENDROOT
BRANCH   1   2
ATOM      2  C   UNL A   1      34.668  28.867  27.177  1.00  0.00     0.021 C 
BRANCH   2   3
ATOM      3  C   UNL A   1      34.059  27.899  26.168  1.00  0.00     0.116 C 
BRANCH   3   4
ATOM      4  N   UNL A   1      34.265  28.327  24.800  1.00  0.00    -0.353 N 
ATOM      5  C   UNL A   1      33.826  27.798  23.618  1.00  0.00     0.264 C 
ATOM      6  O   UNL A   1      33.979  28.533  22.635  1.00  0.00    -0.270 OA
ATOM      7  H   UNL A   1      34.815  29.139  24.706  1.00  0.00     0.163 HD
BRANCH   5   8
ATOM      8  C   UNL A   1      33.192  26.365  23.506  1.00  0.00     0.197 C 
ATOM      9  N   UNL A   1      30.269  26.703  23.480  1.00  0.00    -0.330 N 
ATOM     10  C   UNL A   1      31.068  27.105  22.322  1.00  0.00     0.267 C 
ATOM     11  C   UNL A   1      31.007  26.928  24.731  1.00  0.00     0.267 C 
ATOM     12  H   UNL A   1      30.095  25.702  23.401  1.00  0.00     0.348 HD
ATOM     13  C   UNL A   1      32.327  26.258  22.244  1.00  0.00     0.120 C 
ATOM     14  C   UNL A   1      32.310  26.111  24.752  1.00  0.00     0.120 C 
BRANCH   9  15
ATOM     15  C   UNL A   1      28.936  27.354  23.494  1.00  0.00     0.319 C 
BRANCH  15  16
ATOM     16  C   UNL A   1      28.887  28.791  22.997  1.00  0.00     0.095 A 
ATOM     17  C   UNL A   1      28.430  31.412  22.270  1.00  0.00    -0.030 A 
ATOM     18  C   UNL A   1      29.204  31.137  23.397  1.00  0.00     0.007 A 
ATOM     19  C   UNL A   1      27.969  30.328  21.532  1.00  0.00     0.115 A 
ATOM     20  C   UNL A   1      29.432  29.815  23.771  1.00  0.00     0.030 A 
ATOM     21  N   UNL A   1      28.193  29.037  21.860  1.00  0.00    -0.255 NA
BRANCH  17  22
ATOM     22  C   UNL A   1      28.077  32.819  21.880  1.00  0.00     0.034 C 
ATOM     23  C   UNL A   1      27.752  32.940  20.397  1.00  0.00     0.009 C 
ENDBRANCH  17  22
ENDBRANCH  15  16
ENDBRANCH   9  15
BRANCH   8  24
ATOM     24  O   UNL A   1      34.354  25.505  23.404  1.00  0.00    -0.473 OA
BRANCH  24  25
ATOM     25  C   UNL A   1      34.447  24.386  24.172  1.00  0.00     0.162 A 
ATOM     26  C   UNL A   1      35.250  24.484  25.313  1.00  0.00     0.050 A 
ATOM     27  C   UNL A   1      33.940  23.137  23.793  1.00  0.00     0.160 A 
ATOM     28  C   UNL A   1      35.497  23.362  26.105  1.00  0.00     0.004 A 
ATOM     29  C   UNL A   1      34.173  22.020  24.602  1.00  0.00     0.050 A 
ATOM     30  C   UNL A   1      34.956  22.129  25.750  1.00  0.00     0.004 A 
BRANCH  27  31
ATOM     31  O   UNL A   1      33.148  22.909  22.701  1.00  0.00    -0.493 OA
ATOM     32  C   UNL A   1      31.795  22.640  23.041  1.00  0.00     0.278 C 
ENDBRANCH  27  31
ENDBRANCH  24  25
ENDBRANCH   8  24
ENDBRANCH   5   8
ENDBRANCH   3   4
ENDBRANCH   2   3
ENDBRANCH   1   2
BRANCH   1  33
ATOM     33  C   UNL A   1      32.536  30.325  27.051  1.00  0.00     0.002 C 
BRANCH  33  34
ATOM     34  C   UNL A   1      31.926  31.730  27.020  1.00  0.00     0.021 C 
BRANCH  34  35
ATOM     35  C   UNL A   1      32.937  32.865  26.874  1.00  0.00     0.116 C 
BRANCH  35  36
ATOM     36  N   UNL A   1      32.584  34.016  27.689  1.00  0.00    -0.352 N 
ATOM     37  C   UNL A   1      33.153  34.484  28.842  1.00  0.00     0.251 C 
ATOM     38  H   UNL A   1      31.817  34.539  27.361  1.00  0.00     0.163 HD
ATOM     39  O   UNL A   1      32.572  35.346  29.506  1.00  0.00    -0.269 OA
BRANCH  37  40
ATOM     40  C   UNL A   1      34.454  33.961  29.307  1.00  0.00     0.039 A 
ATOM     41  C   UNL A   1      34.476  33.085  30.397  1.00  0.00     0.014 A 
ATOM     42  C   UNL A   1      35.652  34.356  28.704  1.00  0.00     0.014 A 
ATOM     43  C   UNL A   1      35.692  32.567  30.846  1.00  0.00     0.010 A 
ATOM     44  C   UNL A   1      36.857  33.785  29.110  1.00  0.00     0.010 A 
ATOM     45  C   UNL A   1      36.890  32.887  30.187  1.00  0.00    -0.014 A 
BRANCH  45  46
ATOM     46  C   UNL A   1      38.173  32.271  30.606  1.00  0.00     0.031 A 
ATOM     47  C   UNL A   1      38.643  30.979  29.996  1.00  0.00     0.074 A 
ATOM     48  C   UNL A   1      38.899  32.859  31.578  1.00  0.00     0.049 A 
ATOM     49  N   UNL A   1      39.735  30.300  30.243  1.00  0.00    -0.248 NA
ATOM     50  C   UNL A   1      37.764  30.356  28.994  1.00  0.00     0.031 C 
ATOM     51  C   UNL A   1      38.529  34.086  32.286  1.00  0.00     0.029 A 
ATOM     52  N   UNL A   1      40.101  32.502  32.137  1.00  0.00    -0.354 N 
ATOM     53  C   UNL A   1      39.669  29.168  29.440  1.00  0.00     0.074 A 
ATOM     54  C   UNL A   1      38.408  29.228  28.732  1.00  0.00     0.031 C 
ATOM     55  C   UNL A   1      39.498  34.397  33.163  1.00  0.00     0.029 A 
ATOM     56  C   UNL A   1      40.537  33.375  33.105  1.00  0.00     0.049 A 
ATOM     57  H   UNL A   1      40.603  31.698  31.870  1.00  0.00     0.167 HD
ATOM     58  C   UNL A   1      40.581  28.178  29.291  1.00  0.00     0.031 A 
ATOM     59  C   UNL A   1      41.649  33.354  33.863  1.00  0.00     0.031 A 
ATOM     60  C   UNL A   1      41.840  28.123  29.989  1.00  0.00     0.049 A 
ATOM     61  C   UNL A   1      42.645  32.245  33.677  1.00  0.00     0.074 A 
ATOM     62  C   UNL A   1      42.858  27.195  29.857  1.00  0.00     0.029 A 
ATOM     63  N   UNL A   1      42.247  29.028  30.957  1.00  0.00    -0.354 N 
ATOM     64  N   UNL A   1      42.604  31.229  32.850  1.00  0.00    -0.248 NA
ATOM     65  C   UNL A   1      43.848  32.290  34.520  1.00  0.00     0.031 C 
ATOM     66  C   UNL A   1      43.858  27.508  30.784  1.00  0.00     0.029 A 
ATOM     67  C   UNL A   1      43.489  28.664  31.451  1.00  0.00     0.049 A 
ATOM     68  H   UNL A   1      41.730  29.813  31.249  1.00  0.00     0.167 HD
ATOM     69  C   UNL A   1      43.784  30.527  33.057  1.00  0.00     0.074 A 
ATOM     70  C   UNL A   1      44.530  31.248  34.068  1.00  0.00     0.031 C 
ATOM     71  C   UNL A   1      44.213  29.385  32.465  1.00  0.00     0.031 A 
BRANCH  58  72
ATOM     72  C   UNL A   1      40.249  27.062  28.339  1.00  0.00    -0.014 A 
ATOM     73  C   UNL A   1      40.687  27.087  27.005  1.00  0.00     0.009 A 
ATOM     74  C   UNL A   1      39.531  25.945  28.794  1.00  0.00     0.009 A 
ATOM     75  C   UNL A   1      40.384  26.034  26.140  1.00  0.00     0.001 A 
ATOM     76  C   UNL A   1      39.254  24.880  27.935  1.00  0.00     0.001 A 
ATOM     77  C   UNL A   1      39.673  24.929  26.606  1.00  0.00     0.000 A 
ENDBRANCH  58  72
BRANCH  59  78
ATOM     78  C   UNL A   1      41.887  34.427  34.865  1.00  0.00    -0.014 A 
ATOM     79  C   UNL A   1      41.336  34.336  36.153  1.00  0.00     0.009 A 
ATOM     80  C   UNL A   1      42.658  35.552  34.535  1.00  0.00     0.009 A 
ATOM     81  C   UNL A   1      41.526  35.367  37.077  1.00  0.00     0.001 A 
ATOM     82  C   UNL A   1      42.871  36.565  35.472  1.00  0.00     0.001 A 
ATOM     83  C   UNL A   1      42.296  36.478  36.737  1.00  0.00     0.000 A 
ENDBRANCH  59  78
BRANCH  71  84
ATOM     84  C   UNL A   1      45.559  28.863  32.884  1.00  0.00    -0.014 A 
ATOM     85  C   UNL A   1      45.704  28.046  34.016  1.00  0.00     0.009 A 
ATOM     86  C   UNL A   1      46.696  29.179  32.124  1.00  0.00     0.009 A 
ATOM     87  C   UNL A   1      46.968  27.593  34.403  1.00  0.00     0.001 A 
ATOM     88  C   UNL A   1      47.952  28.699  32.494  1.00  0.00     0.001 A 
ATOM     89  C   UNL A   1      48.089  27.917  33.640  1.00  0.00     0.000 A 
ENDBRANCH  71  84
ENDBRANCH  45  46
ENDBRANCH  37  40
ENDBRANCH  35  36
ENDBRANCH  34  35
ENDBRANCH  33  34
ENDBRANCH   1  33
TORSDOF 19
ENDMDL
MODEL 3
REMARK VINA RESULT:     -10.5      2.046      5.075
REMARK SMILES CCc1ccc(C[NH+]2CCC(Oc3ccccc3OC)(C(=O)NCCCCCCNC(=O)c3ccc(-c4c5nc(c(-c6ccccc6)c6ccc([nH]6)c(-c6ccccc6)c6nc(c(-c7ccccc7)c7ccc4[nH]7)C=C6)C=C5)cc3)CC2)nc1
REMARK SMILES IDX 26 1 25 2 24 3 23 4 21 5 22 6 11 8 8 9 9 10 82 11 10 13
REMARK SMILES IDX 81 14 7 15 6 16 3 17 4 18 84 19 5 20 83 21 2 22 1 23 12 24
REMARK SMILES IDX 13 25 14 26 18 27 15 28 17 29 16 30 19 31 20 32 27 33 28 34
REMARK SMILES IDX 29 35 30 36 31 37 32 39 33 40 34 41 80 42 35 43 79 44 36 45
REMARK SMILES IDX 37 46 38 47 73 48 39 49 78 50 72 51 74 52 40 53 77 54 71 55
REMARK SMILES IDX 70 56 41 58 63 59 48 60 62 61 49 62 52 63 61 64 75 65 50 66
REMARK SMILES IDX 51 67 60 69 76 70 53 71 42 72 43 73 47 74 44 75 46 76 45 77
REMARK SMILES IDX 64 78 65 79 69 80 66 81 68 82 67 83 54 84 55 85 59 86 56 87
REMARK SMILES IDX 58 88 57 89
REMARK H PARENT 23 7 8 12 30 38 74 57 52 68
REMARK Flexibility Score: inf
ROOT
ATOM      1  C   UNL A   1      35.171  30.301  27.574  1.00  0.00     0.002 C 
ENDROOT
BRANCH   1   2
ATOM      2  C   UNL A   1      33.792  29.833  27.104  1.00  0.00     0.021 C 
BRANCH   2   3
ATOM      3  C   UNL A   1      33.814  28.524  26.320  1.00  0.00     0.116 C 
BRANCH   3   4
ATOM      4  N   UNL A   1      34.078  28.730  24.912  1.00  0.00    -0.353 N 
ATOM      5  C   UNL A   1      33.324  28.445  23.806  1.00  0.00     0.264 C 
ATOM      6  O   UNL A   1      33.731  28.959  22.758  1.00  0.00    -0.270 OA
ATOM      7  H   UNL A   1      34.948  29.148  24.717  1.00  0.00     0.163 HD
BRANCH   5   8
ATOM      8  C   UNL A   1      32.051  27.526  23.853  1.00  0.00     0.197 C 
ATOM      9  N   UNL A   1      32.903  24.813  23.098  1.00  0.00    -0.330 N 
ATOM     10  C   UNL A   1      33.294  25.376  24.391  1.00  0.00     0.267 C 
ATOM     11  C   UNL A   1      32.840  25.859  22.068  1.00  0.00     0.267 C 
ATOM     12  H   UNL A   1      31.966  24.426  23.202  1.00  0.00     0.348 HD
ATOM     13  C   UNL A   1      32.253  26.381  24.853  1.00  0.00     0.120 C 
ATOM     14  C   UNL A   1      31.809  26.936  22.444  1.00  0.00     0.120 C 
BRANCH   9  15
ATOM     15  C   UNL A   1      33.774  23.683  22.693  1.00  0.00     0.319 C 
BRANCH  15  16
ATOM     16  C   UNL A   1      33.538  22.362  23.411  1.00  0.00     0.095 A 
ATOM     17  C   UNL A   1      33.284  19.796  24.389  1.00  0.00    -0.030 A 
ATOM     18  C   UNL A   1      34.343  20.595  24.823  1.00  0.00     0.007 A 
ATOM     19  C   UNL A   1      32.369  20.369  23.514  1.00  0.00     0.115 A 
ATOM     20  C   UNL A   1      34.478  21.889  24.326  1.00  0.00     0.030 A 
ATOM     21  N   UNL A   1      32.464  21.628  23.033  1.00  0.00    -0.255 NA
BRANCH  17  22
ATOM     22  C   UNL A   1      33.149  18.364  24.822  1.00  0.00     0.034 C 
ATOM     23  C   UNL A   1      33.003  17.417  23.638  1.00  0.00     0.009 C 
ENDBRANCH  17  22
ENDBRANCH  15  16
ENDBRANCH   9  15
BRANCH   8  24
ATOM     24  O   UNL A   1      31.017  28.431  24.315  1.00  0.00    -0.473 OA
BRANCH  24  25
ATOM     25  C   UNL A   1      30.026  28.826  23.470  1.00  0.00     0.162 A 
ATOM     26  C   UNL A   1      30.148  30.111  22.932  1.00  0.00     0.050 A 
ATOM     27  C   UNL A   1      28.846  28.103  23.262  1.00  0.00     0.160 A 
ATOM     28  C   UNL A   1      29.131  30.649  22.143  1.00  0.00     0.004 A 
ATOM     29  C   UNL A   1      27.838  28.638  22.453  1.00  0.00     0.050 A 
ATOM     30  C   UNL A   1      27.975  29.911  21.902  1.00  0.00     0.004 A 
BRANCH  27  31
ATOM     31  O   UNL A   1      28.602  26.843  23.737  1.00  0.00    -0.493 OA
ATOM     32  C   UNL A   1      27.242  26.636  24.093  1.00  0.00     0.278 C 
ENDBRANCH  27  31
ENDBRANCH  24  25
ENDBRANCH   8  24
ENDBRANCH   5   8
ENDBRANCH   3   4
ENDBRANCH   2   3
ENDBRANCH   1   2
BRANCH   1  33
ATOM     33  C   UNL A   1      35.252  31.776  27.988  1.00  0.00     0.002 C 
BRANCH  33  34
ATOM     34  C   UNL A   1      33.905  32.489  28.145  1.00  0.00     0.021 C 
BRANCH  34  35
ATOM     35  C   UNL A   1      33.974  34.013  28.067  1.00  0.00     0.116 C 
BRANCH  35  36
ATOM     36  N   UNL A   1      33.450  34.642  29.269  1.00  0.00    -0.352 N 
ATOM     37  C   UNL A   1      33.831  34.492  30.575  1.00  0.00     0.251 C 
ATOM     38  H   UNL A   1      32.709  35.271  29.121  1.00  0.00     0.163 HD
ATOM     39  O   UNL A   1      33.118  34.943  31.476  1.00  0.00    -0.269 OA
BRANCH  37  40
ATOM     40  C   UNL A   1      35.082  33.787  30.921  1.00  0.00     0.039 A 
ATOM     41  C   UNL A   1      35.006  32.617  31.682  1.00  0.00     0.014 A 
ATOM     42  C   UNL A   1      36.328  34.290  30.535  1.00  0.00     0.014 A 
ATOM     43  C   UNL A   1      36.174  31.926  32.010  1.00  0.00     0.010 A 
ATOM     44  C   UNL A   1      37.486  33.563  30.804  1.00  0.00     0.010 A 
ATOM     45  C   UNL A   1      37.421  32.375  31.547  1.00  0.00    -0.014 A 
BRANCH  45  46
ATOM     46  C   UNL A   1      38.656  31.596  31.819  1.00  0.00     0.031 A 
ATOM     47  C   UNL A   1      39.511  31.903  33.018  1.00  0.00     0.074 A 
ATOM     48  C   UNL A   1      39.032  30.634  30.953  1.00  0.00     0.049 A 
ATOM     49  N   UNL A   1      40.620  31.327  33.408  1.00  0.00    -0.248 NA
ATOM     50  C   UNL A   1      39.078  33.014  33.879  1.00  0.00     0.031 C 
ATOM     51  C   UNL A   1      38.317  30.274  29.726  1.00  0.00     0.029 A 
ATOM     52  N   UNL A   1      40.108  29.783  30.974  1.00  0.00    -0.354 N 
ATOM     53  C   UNL A   1      41.024  32.012  34.548  1.00  0.00     0.074 A 
ATOM     54  C   UNL A   1      40.066  33.075  34.761  1.00  0.00     0.031 C 
ATOM     55  C   UNL A   1      38.958  29.256  29.129  1.00  0.00     0.029 A 
ATOM     56  C   UNL A   1      40.143  28.917  29.908  1.00  0.00     0.049 A 
ATOM     57  H   UNL A   1      40.790  29.793  31.684  1.00  0.00     0.167 HD
ATOM     58  C   UNL A   1      42.084  31.767  35.355  1.00  0.00     0.031 A 
ATOM     59  C   UNL A   1      41.033  27.957  29.591  1.00  0.00     0.031 A 
ATOM     60  C   UNL A   1      43.032  30.703  35.147  1.00  0.00     0.049 A 
ATOM     61  C   UNL A   1      42.199  27.705  30.504  1.00  0.00     0.074 A 
ATOM     62  C   UNL A   1      44.101  30.334  35.945  1.00  0.00     0.029 A 
ATOM     63  N   UNL A   1      43.030  29.843  34.060  1.00  0.00    -0.354 N 
ATOM     64  N   UNL A   1      42.515  28.308  31.624  1.00  0.00    -0.248 NA
ATOM     65  C   UNL A   1      43.122  26.631  30.114  1.00  0.00     0.031 C 
ATOM     66  C   UNL A   1      44.779  29.287  35.312  1.00  0.00     0.029 A 
ATOM     67  C   UNL A   1      44.097  28.964  34.151  1.00  0.00     0.049 A 
ATOM     68  H   UNL A   1      42.369  29.856  33.331  1.00  0.00     0.167 HD
ATOM     69  C   UNL A   1      43.660  27.671  32.084  1.00  0.00     0.074 A 
ATOM     70  C   UNL A   1      43.966  26.619  31.135  1.00  0.00     0.031 C 
ATOM     71  C   UNL A   1      44.396  27.932  33.192  1.00  0.00     0.031 A 
BRANCH  58  72
ATOM     72  C   UNL A   1      42.282  32.673  36.538  1.00  0.00    -0.014 A 
ATOM     73  C   UNL A   1      41.711  32.378  37.787  1.00  0.00     0.009 A 
ATOM     74  C   UNL A   1      43.093  33.812  36.418  1.00  0.00     0.009 A 
ATOM     75  C   UNL A   1      41.921  33.222  38.880  1.00  0.00     0.001 A 
ATOM     76  C   UNL A   1      43.325  34.639  37.518  1.00  0.00     0.001 A 
ATOM     77  C   UNL A   1      42.732  34.348  38.747  1.00  0.00     0.000 A 
ENDBRANCH  58  72
BRANCH  59  78
ATOM     78  C   UNL A   1      40.850  27.151  28.355  1.00  0.00    -0.014 A 
ATOM     79  C   UNL A   1      41.437  27.555  27.146  1.00  0.00     0.009 A 
ATOM     80  C   UNL A   1      40.078  25.980  28.375  1.00  0.00     0.009 A 
ATOM     81  C   UNL A   1      41.227  26.819  25.977  1.00  0.00     0.001 A 
ATOM     82  C   UNL A   1      39.896  25.229  27.212  1.00  0.00     0.001 A 
ATOM     83  C   UNL A   1      40.461  25.655  26.011  1.00  0.00     0.000 A 
ENDBRANCH  59  78
BRANCH  71  84
ATOM     84  C   UNL A   1      45.587  27.052  33.445  1.00  0.00    -0.014 A 
ATOM     85  C   UNL A   1      46.861  27.392  32.963  1.00  0.00     0.009 A 
ATOM     86  C   UNL A   1      45.436  25.872  34.191  1.00  0.00     0.009 A 
ATOM     87  C   UNL A   1      47.950  26.547  33.186  1.00  0.00     0.001 A 
ATOM     88  C   UNL A   1      46.532  25.045  34.439  1.00  0.00     0.001 A 
ATOM     89  C   UNL A   1      47.785  25.377  33.926  1.00  0.00     0.000 A 
ENDBRANCH  71  84
ENDBRANCH  45  46
ENDBRANCH  37  40
ENDBRANCH  35  36
ENDBRANCH  34  35
ENDBRANCH  33  34
ENDBRANCH   1  33
TORSDOF 19
ENDMDL
