MODEL 1
REMARK VINA RESULT:      -9.9      0.000      0.000
REMARK SMILES CCN1C(=O)N(CC)[C@H]2NC(=O)N(CCCC(=O)NCCCCCCNC(=O)c3ccc(-c4c5nc(c(-c6ccccc6)c6ccc([nH]6)c(-c6ccccc6)c6nc(c(-c7ccccc7)c7ccc4[nH]7)C=C6)C=C5)cc3)[C@@H]21
REMARK SMILES IDX 21 1 20 2 19 3 17 4 18 5 16 7 15 8 14 9 13 10 3 11 4 12
REMARK SMILES IDX 77 13 5 14 6 15 9 16 10 17 11 18 12 20 2 21 1 22 7 23 8 24
REMARK SMILES IDX 22 25 23 26 24 27 25 28 26 29 27 30 28 32 29 33 30 34 76 35
REMARK SMILES IDX 31 36 75 37 32 38 33 39 34 40 69 41 35 42 74 43 68 44 70 45
REMARK SMILES IDX 36 46 73 47 67 48 66 49 37 51 59 52 44 53 58 54 45 55 48 56
REMARK SMILES IDX 57 57 71 58 46 59 47 60 56 62 72 63 49 64 38 65 39 66 43 67
REMARK SMILES IDX 40 68 42 69 41 70 60 71 61 72 65 73 62 74 64 75 63 76 50 77
REMARK SMILES IDX 51 78 55 79 52 80 54 81 53 82
REMARK H PARENT 19 6 10 19 26 31 70 50 48 61
REMARK Flexibility Score: inf
ROOT
ATOM      1  C   UNL A   1      32.477  28.174  25.662  1.00  0.00     0.021 C 
ENDROOT
BRANCH   1   2
ATOM      2  C   UNL A   1      32.420  28.940  24.337  1.00  0.00     0.116 C 
BRANCH   2   3
ATOM      3  N   UNL A   1      31.271  29.817  24.298  1.00  0.00    -0.356 N 
ATOM      4  C   UNL A   1      30.060  29.776  23.702  1.00  0.00     0.220 C 
ATOM      5  O   UNL A   1      29.360  30.785  23.865  1.00  0.00    -0.275 OA
ATOM      6  H   UNL A   1      31.402  30.635  24.830  1.00  0.00     0.163 HD
BRANCH   4   7
ATOM      7  C   UNL A   1      29.442  28.556  23.033  1.00  0.00     0.102 C 
BRANCH   7   8
ATOM      8  C   UNL A   1      29.990  27.127  23.019  1.00  0.00     0.031 C 
BRANCH   8   9
ATOM      9  C   UNL A   1      29.685  26.137  24.129  1.00  0.00     0.124 C 
BRANCH   9  10
ATOM     10  N   UNL A   1      30.697  25.184  24.588  1.00  0.00    -0.300 N 
ATOM     11  N   UNL A   1      32.633  24.420  22.859  1.00  0.00    -0.300 N 
ATOM     12  C   UNL A   1      33.663  23.462  23.201  1.00  0.00     0.323 C 
ATOM     13  C   UNL A   1      32.018  24.804  24.114  1.00  0.00     0.231 C 
ATOM     14  O   UNL A   1      34.616  23.148  22.496  1.00  0.00    -0.248 OA
ATOM     15  N   UNL A   1      33.415  23.006  24.502  1.00  0.00    -0.300 N 
ATOM     16  C   UNL A   1      32.121  23.450  24.834  1.00  0.00     0.228 C 
ATOM     17  N   UNL A   1      31.639  23.743  26.117  1.00  0.00    -0.314 N 
ATOM     18  C   UNL A   1      30.600  24.657  25.918  1.00  0.00     0.320 C 
ATOM     19  H   UNL A   1      31.962  23.382  26.974  1.00  0.00     0.167 HD
ATOM     20  O   UNL A   1      29.739  24.901  26.758  1.00  0.00    -0.249 OA
BRANCH  11  21
ATOM     21  C   UNL A   1      32.886  25.268  21.708  1.00  0.00     0.120 C 
ATOM     22  C   UNL A   1      33.530  26.593  22.056  1.00  0.00     0.027 C 
ENDBRANCH  11  21
BRANCH  15  23
ATOM     23  C   UNL A   1      34.267  22.180  25.332  1.00  0.00     0.120 C 
ATOM     24  C   UNL A   1      34.551  20.799  24.764  1.00  0.00     0.027 C 
ENDBRANCH  15  23
ENDBRANCH   9  10
ENDBRANCH   8   9
ENDBRANCH   7   8
ENDBRANCH   4   7
ENDBRANCH   2   3
ENDBRANCH   1   2
BRANCH   1  25
ATOM     25  C   UNL A   1      31.787  28.920  26.797  1.00  0.00     0.002 C 
BRANCH  25  26
ATOM     26  C   UNL A   1      32.573  30.136  27.301  1.00  0.00     0.002 C 
BRANCH  26  27
ATOM     27  C   UNL A   1      31.805  31.464  27.320  1.00  0.00     0.021 C 
BRANCH  27  28
ATOM     28  C   UNL A   1      32.522  32.652  26.684  1.00  0.00     0.116 C 
BRANCH  28  29
ATOM     29  N   UNL A   1      32.354  33.877  27.445  1.00  0.00    -0.352 N 
ATOM     30  C   UNL A   1      33.103  34.407  28.461  1.00  0.00     0.251 C 
ATOM     31  H   UNL A   1      31.571  34.417  27.189  1.00  0.00     0.163 HD
ATOM     32  O   UNL A   1      32.696  35.401  29.056  1.00  0.00    -0.269 OA
BRANCH  30  33
ATOM     33  C   UNL A   1      34.386  33.790  28.862  1.00  0.00     0.039 A 
ATOM     34  C   UNL A   1      34.381  32.910  29.948  1.00  0.00     0.014 A 
ATOM     35  C   UNL A   1      35.590  34.113  28.230  1.00  0.00     0.014 A 
ATOM     36  C   UNL A   1      35.574  32.330  30.379  1.00  0.00     0.010 A 
ATOM     37  C   UNL A   1      36.771  33.483  28.619  1.00  0.00     0.010 A 
ATOM     38  C   UNL A   1      36.777  32.599  29.708  1.00  0.00    -0.014 A 
BRANCH  38  39
ATOM     39  C   UNL A   1      38.048  31.985  30.163  1.00  0.00     0.031 A 
ATOM     40  C   UNL A   1      38.862  32.646  31.242  1.00  0.00     0.074 A 
ATOM     41  C   UNL A   1      38.477  30.840  29.597  1.00  0.00     0.049 A 
ATOM     42  N   UNL A   1      39.999  32.263  31.769  1.00  0.00    -0.248 NA
ATOM     43  C   UNL A   1      38.341  33.909  31.790  1.00  0.00     0.031 C 
ATOM     44  C   UNL A   1      37.790  30.113  28.528  1.00  0.00     0.029 A 
ATOM     45  N   UNL A   1      39.592  30.083  29.851  1.00  0.00    -0.354 N 
ATOM     46  C   UNL A   1      40.327  33.237  32.704  1.00  0.00     0.074 A 
ATOM     47  C   UNL A   1      39.302  34.254  32.635  1.00  0.00     0.031 C 
ATOM     48  C   UNL A   1      38.481  28.998  28.241  1.00  0.00     0.029 A 
ATOM     49  C   UNL A   1      39.673  28.947  29.081  1.00  0.00     0.049 A 
ATOM     50  H   UNL A   1      40.270  30.329  30.521  1.00  0.00     0.167 HD
ATOM     51  C   UNL A   1      41.374  33.271  33.563  1.00  0.00     0.031 A 
ATOM     52  C   UNL A   1      40.604  27.975  29.059  1.00  0.00     0.031 A 
ATOM     53  C   UNL A   1      42.391  32.259  33.639  1.00  0.00     0.049 A 
ATOM     54  C   UNL A   1      41.770  28.052  30.004  1.00  0.00     0.074 A 
ATOM     55  C   UNL A   1      43.480  32.191  34.492  1.00  0.00     0.029 A 
ATOM     56  N   UNL A   1      42.442  31.132  32.834  1.00  0.00    -0.354 N 
ATOM     57  N   UNL A   1      42.039  28.957  30.914  1.00  0.00    -0.248 NA
ATOM     58  C   UNL A   1      42.757  26.965  29.924  1.00  0.00     0.031 C 
ATOM     59  C   UNL A   1      44.209  31.039  34.179  1.00  0.00     0.029 A 
ATOM     60  C   UNL A   1      43.549  30.368  33.162  1.00  0.00     0.049 A 
ATOM     61  H   UNL A   1      41.788  30.908  32.134  1.00  0.00     0.167 HD
ATOM     62  C   UNL A   1      43.206  28.532  31.534  1.00  0.00     0.074 A 
ATOM     63  C   UNL A   1      43.584  27.282  30.908  1.00  0.00     0.031 C 
ATOM     64  C   UNL A   1      43.904  29.123  32.534  1.00  0.00     0.031 A 
BRANCH  51  65
ATOM     65  C   UNL A   1      41.462  34.444  34.498  1.00  0.00    -0.014 A 
ATOM     66  C   UNL A   1      42.068  35.644  34.092  1.00  0.00     0.009 A 
ATOM     67  C   UNL A   1      40.900  34.366  35.781  1.00  0.00     0.009 A 
ATOM     68  C   UNL A   1      42.138  36.732  34.965  1.00  0.00     0.001 A 
ATOM     69  C   UNL A   1      40.949  35.464  36.643  1.00  0.00     0.001 A 
ATOM     70  C   UNL A   1      41.575  36.643  36.237  1.00  0.00     0.000 A 
ENDBRANCH  51  65
BRANCH  52  71
ATOM     71  C   UNL A   1      40.466  26.826  28.125  1.00  0.00    -0.014 A 
ATOM     72  C   UNL A   1      41.042  26.879  26.846  1.00  0.00     0.009 A 
ATOM     73  C   UNL A   1      39.735  25.688  28.495  1.00  0.00     0.009 A 
ATOM     74  C   UNL A   1      40.858  25.829  25.944  1.00  0.00     0.001 A 
ATOM     75  C   UNL A   1      39.576  24.627  27.601  1.00  0.00     0.001 A 
ATOM     76  C   UNL A   1      40.128  24.703  26.322  1.00  0.00     0.000 A 
ENDBRANCH  52  71
BRANCH  64  77
ATOM     77  C   UNL A   1      45.122  28.404  33.036  1.00  0.00    -0.014 A 
ATOM     78  C   UNL A   1      46.392  28.657  32.495  1.00  0.00     0.009 A 
ATOM     79  C   UNL A   1      44.998  27.483  34.088  1.00  0.00     0.009 A 
ATOM     80  C   UNL A   1      47.510  27.975  32.977  1.00  0.00     0.001 A 
ATOM     81  C   UNL A   1      46.123  26.822  34.585  1.00  0.00     0.001 A 
ATOM     82  C   UNL A   1      47.376  27.062  34.023  1.00  0.00     0.000 A 
ENDBRANCH  64  77
ENDBRANCH  38  39
ENDBRANCH  30  33
ENDBRANCH  28  29
ENDBRANCH  27  28
ENDBRANCH  26  27
ENDBRANCH  25  26
ENDBRANCH   1  25
TORSDOF 18
ENDMDL
MODEL 2
REMARK VINA RESULT:      -9.9      1.937      2.690
REMARK SMILES CCN1C(=O)N(CC)[C@H]2NC(=O)N(CCCC(=O)NCCCCCCNC(=O)c3ccc(-c4c5nc(c(-c6ccccc6)c6ccc([nH]6)c(-c6ccccc6)c6nc(c(-c7ccccc7)c7ccc4[nH]7)C=C6)C=C5)cc3)[C@@H]21
REMARK SMILES IDX 21 1 20 2 19 3 17 4 18 5 16 7 15 8 14 9 13 10 3 11 4 12
REMARK SMILES IDX 77 13 5 14 6 15 9 16 10 17 11 18 12 20 2 21 1 22 7 23 8 24
REMARK SMILES IDX 22 25 23 26 24 27 25 28 26 29 27 30 28 32 29 33 30 34 76 35
REMARK SMILES IDX 31 36 75 37 32 38 33 39 34 40 69 41 35 42 74 43 68 44 70 45
REMARK SMILES IDX 36 46 73 47 67 48 66 49 37 51 59 52 44 53 58 54 45 55 48 56
REMARK SMILES IDX 57 57 71 58 46 59 47 60 56 62 72 63 49 64 38 65 39 66 43 67
REMARK SMILES IDX 40 68 42 69 41 70 60 71 61 72 65 73 62 74 64 75 63 76 50 77
REMARK SMILES IDX 51 78 55 79 52 80 54 81 53 82
REMARK H PARENT 19 6 10 19 26 31 70 50 48 61
REMARK Flexibility Score: inf
ROOT
ATOM      1  C   UNL A   1      36.060  30.649  27.650  1.00  0.00     0.021 C 
ENDROOT
BRANCH   1   2
ATOM      2  C   UNL A   1      35.143  29.433  27.495  1.00  0.00     0.116 C 
BRANCH   2   3
ATOM      3  N   UNL A   1      33.753  29.832  27.497  1.00  0.00    -0.356 N 
ATOM      4  C   UNL A   1      32.601  29.279  27.060  1.00  0.00     0.220 C 
ATOM      5  O   UNL A   1      31.594  29.987  27.194  1.00  0.00    -0.275 OA
ATOM      6  H   UNL A   1      33.613  30.712  27.916  1.00  0.00     0.163 HD
BRANCH   4   7
ATOM      7  C   UNL A   1      32.427  27.834  26.611  1.00  0.00     0.102 C 
BRANCH   7   8
ATOM      8  C   UNL A   1      31.257  26.898  26.923  1.00  0.00     0.031 C 
BRANCH   8   9
ATOM      9  C   UNL A   1      30.750  25.882  25.916  1.00  0.00     0.124 C 
BRANCH   9  10
ATOM     10  N   UNL A   1      31.212  24.493  25.949  1.00  0.00    -0.300 N 
ATOM     11  N   UNL A   1      33.401  23.822  24.507  1.00  0.00    -0.300 N 
ATOM     12  C   UNL A   1      33.924  22.474  24.447  1.00  0.00     0.323 C 
ATOM     13  C   UNL A   1      32.464  23.835  25.613  1.00  0.00     0.231 C 
ATOM     14  O   UNL A   1      34.959  22.128  23.889  1.00  0.00    -0.248 OA
ATOM     15  N   UNL A   1      33.074  21.646  25.191  1.00  0.00    -0.300 N 
ATOM     16  C   UNL A   1      31.918  22.407  25.455  1.00  0.00     0.228 C 
ATOM     17  N   UNL A   1      31.063  22.277  26.558  1.00  0.00    -0.314 N 
ATOM     18  C   UNL A   1      30.465  23.531  26.707  1.00  0.00     0.320 C 
ATOM     19  H   UNL A   1      30.916  21.475  27.109  1.00  0.00     0.167 HD
ATOM     20  O   UNL A   1      29.438  23.723  27.352  1.00  0.00    -0.249 OA
BRANCH  11  21
ATOM     21  C   UNL A   1      34.299  24.890  24.104  1.00  0.00     0.120 C 
ATOM     22  C   UNL A   1      33.593  26.086  23.502  1.00  0.00     0.027 C 
ENDBRANCH  11  21
BRANCH  15  23
ATOM     23  C   UNL A   1      33.281  20.263  25.563  1.00  0.00     0.120 C 
ATOM     24  C   UNL A   1      32.843  19.256  24.513  1.00  0.00     0.027 C 
ENDBRANCH  15  23
ENDBRANCH   9  10
ENDBRANCH   8   9
ENDBRANCH   7   8
ENDBRANCH   4   7
ENDBRANCH   2   3
ENDBRANCH   1   2
BRANCH   1  25
ATOM     25  C   UNL A   1      35.407  31.775  28.443  1.00  0.00     0.002 C 
BRANCH  25  26
ATOM     26  C   UNL A   1      35.849  33.175  28.002  1.00  0.00     0.002 C 
BRANCH  26  27
ATOM     27  C   UNL A   1      34.858  34.308  28.294  1.00  0.00     0.021 C 
BRANCH  27  28
ATOM     28  C   UNL A   1      33.608  33.909  29.074  1.00  0.00     0.116 C 
BRANCH  28  29
ATOM     29  N   UNL A   1      33.445  34.675  30.297  1.00  0.00    -0.352 N 
ATOM     30  C   UNL A   1      34.166  34.664  31.461  1.00  0.00     0.251 C 
ATOM     31  H   UNL A   1      32.690  35.307  30.289  1.00  0.00     0.163 HD
ATOM     32  O   UNL A   1      33.764  35.308  32.426  1.00  0.00    -0.269 OA
BRANCH  30  33
ATOM     33  C   UNL A   1      35.412  33.875  31.576  1.00  0.00     0.039 A 
ATOM     34  C   UNL A   1      35.324  32.580  32.094  1.00  0.00     0.014 A 
ATOM     35  C   UNL A   1      36.659  34.412  31.244  1.00  0.00     0.014 A 
ATOM     36  C   UNL A   1      36.479  31.812  32.249  1.00  0.00     0.010 A 
ATOM     37  C   UNL A   1      37.804  33.622  31.338  1.00  0.00     0.010 A 
ATOM     38  C   UNL A   1      37.726  32.321  31.856  1.00  0.00    -0.014 A 
BRANCH  38  39
ATOM     39  C   UNL A   1      38.957  31.510  32.020  1.00  0.00     0.031 A 
ATOM     40  C   UNL A   1      39.878  31.759  33.183  1.00  0.00     0.074 A 
ATOM     41  C   UNL A   1      39.253  30.556  31.115  1.00  0.00     0.049 A 
ATOM     42  N   UNL A   1      40.999  31.156  33.493  1.00  0.00    -0.248 NA
ATOM     43  C   UNL A   1      39.499  32.837  34.113  1.00  0.00     0.031 C 
ATOM     44  C   UNL A   1      38.454  30.232  29.932  1.00  0.00     0.029 A 
ATOM     45  N   UNL A   1      40.306  29.679  31.056  1.00  0.00    -0.354 N 
ATOM     46  C   UNL A   1      41.457  31.782  34.646  1.00  0.00     0.074 A 
ATOM     47  C   UNL A   1      40.526  32.845  34.950  1.00  0.00     0.031 C 
ATOM     48  C   UNL A   1      39.027  29.205  29.283  1.00  0.00     0.029 A 
ATOM     49  C   UNL A   1      40.248  28.821  29.985  1.00  0.00     0.049 A 
ATOM     50  H   UNL A   1      41.035  29.665  31.719  1.00  0.00     0.167 HD
ATOM     51  C   UNL A   1      42.542  31.483  35.400  1.00  0.00     0.031 A 
ATOM     52  C   UNL A   1      41.084  27.834  29.612  1.00  0.00     0.031 A 
ATOM     53  C   UNL A   1      43.466  30.423  35.103  1.00  0.00     0.049 A 
ATOM     54  C   UNL A   1      42.296  27.543  30.452  1.00  0.00     0.074 A 
ATOM     55  C   UNL A   1      44.584  30.026  35.818  1.00  0.00     0.029 A 
ATOM     56  N   UNL A   1      43.377  29.586  34.002  1.00  0.00    -0.354 N 
ATOM     57  N   UNL A   1      42.689  28.114  31.565  1.00  0.00    -0.248 NA
ATOM     58  C   UNL A   1      43.176  26.459  29.988  1.00  0.00     0.031 C 
ATOM     59  C   UNL A   1      45.190  28.970  35.131  1.00  0.00     0.029 A 
ATOM     60  C   UNL A   1      44.425  28.680  34.013  1.00  0.00     0.049 A 
ATOM     61  H   UNL A   1      42.673  29.628  33.317  1.00  0.00     0.167 HD
ATOM     62  C   UNL A   1      43.840  27.441  31.949  1.00  0.00     0.074 A 
ATOM     63  C   UNL A   1      44.074  26.409  30.960  1.00  0.00     0.031 C 
ATOM     64  C   UNL A   1      44.635  27.656  33.025  1.00  0.00     0.031 A 
BRANCH  51  65
ATOM     65  C   UNL A   1      42.780  32.316  36.627  1.00  0.00    -0.014 A 
ATOM     66  C   UNL A   1      43.560  33.482  36.566  1.00  0.00     0.009 A 
ATOM     67  C   UNL A   1      42.187  31.957  37.848  1.00  0.00     0.009 A 
ATOM     68  C   UNL A   1      43.769  34.254  37.711  1.00  0.00     0.001 A 
ATOM     69  C   UNL A   1      42.378  32.746  38.985  1.00  0.00     0.001 A 
ATOM     70  C   UNL A   1      43.174  33.888  38.917  1.00  0.00     0.000 A 
ENDBRANCH  51  65
BRANCH  52  71
ATOM     71  C   UNL A   1      40.800  27.028  28.396  1.00  0.00    -0.014 A 
ATOM     72  C   UNL A   1      39.999  25.877  28.479  1.00  0.00     0.009 A 
ATOM     73  C   UNL A   1      41.351  27.384  27.156  1.00  0.00     0.009 A 
ATOM     74  C   UNL A   1      39.786  25.081  27.352  1.00  0.00     0.001 A 
ATOM     75  C   UNL A   1      41.113  26.602  26.025  1.00  0.00     0.001 A 
ATOM     76  C   UNL A   1      40.340  25.445  26.126  1.00  0.00     0.000 A 
ENDBRANCH  52  71
BRANCH  64  77
ATOM     77  C   UNL A   1      45.806  26.734  33.206  1.00  0.00    -0.014 A 
ATOM     78  C   UNL A   1      47.069  27.050  32.684  1.00  0.00     0.009 A 
ATOM     79  C   UNL A   1      45.646  25.547  33.939  1.00  0.00     0.009 A 
ATOM     80  C   UNL A   1      48.143  26.176  32.863  1.00  0.00     0.001 A 
ATOM     81  C   UNL A   1      46.728  24.689  34.140  1.00  0.00     0.001 A 
ATOM     82  C   UNL A   1      47.973  25.000  33.594  1.00  0.00     0.000 A 
ENDBRANCH  64  77
ENDBRANCH  38  39
ENDBRANCH  30  33
ENDBRANCH  28  29
ENDBRANCH  27  28
ENDBRANCH  26  27
ENDBRANCH  25  26
ENDBRANCH   1  25
TORSDOF 18
ENDMDL
MODEL 3
REMARK VINA RESULT:      -9.9      3.398      8.808
REMARK SMILES CCN1C(=O)N(CC)[C@H]2NC(=O)N(CCCC(=O)NCCCCCCNC(=O)c3ccc(-c4c5nc(c(-c6ccccc6)c6ccc([nH]6)c(-c6ccccc6)c6nc(c(-c7ccccc7)c7ccc4[nH]7)C=C6)C=C5)cc3)[C@@H]21
REMARK SMILES IDX 21 1 20 2 19 3 17 4 18 5 16 7 15 8 14 9 13 10 3 11 4 12
REMARK SMILES IDX 77 13 5 14 6 15 9 16 10 17 11 18 12 20 2 21 1 22 7 23 8 24
REMARK SMILES IDX 22 25 23 26 24 27 25 28 26 29 27 30 28 32 29 33 30 34 76 35
REMARK SMILES IDX 31 36 75 37 32 38 33 39 34 40 69 41 35 42 74 43 68 44 70 45
REMARK SMILES IDX 36 46 73 47 67 48 66 49 37 51 59 52 44 53 58 54 45 55 48 56
REMARK SMILES IDX 57 57 71 58 46 59 47 60 56 62 72 63 49 64 38 65 39 66 43 67
REMARK SMILES IDX 40 68 42 69 41 70 60 71 61 72 65 73 62 74 64 75 63 76 50 77
REMARK SMILES IDX 51 78 55 79 52 80 54 81 53 82
REMARK H PARENT 19 6 10 19 26 31 70 50 48 61
REMARK Flexibility Score: inf
ROOT
ATOM      1  C   UNL A   1      37.478  23.178  25.460  1.00  0.00     0.021 C 
ENDROOT
BRANCH   1   2
ATOM      2  C   UNL A   1      36.189  23.999  25.547  1.00  0.00     0.116 C 
BRANCH   2   3
ATOM      3  N   UNL A   1      35.039  23.139  25.717  1.00  0.00    -0.356 N 
ATOM      4  C   UNL A   1      33.944  22.854  24.981  1.00  0.00     0.220 C 
ATOM      5  O   UNL A   1      33.133  22.089  25.520  1.00  0.00    -0.275 OA
ATOM      6  H   UNL A   1      35.061  22.645  26.569  1.00  0.00     0.163 HD
BRANCH   4   7
ATOM      7  C   UNL A   1      33.734  23.235  23.522  1.00  0.00     0.102 C 
BRANCH   7   8
ATOM      8  C   UNL A   1      34.151  24.536  22.831  1.00  0.00     0.031 C 
BRANCH   8   9
ATOM      9  C   UNL A   1      33.165  25.659  22.568  1.00  0.00     0.124 C 
BRANCH   9  10
ATOM     10  N   UNL A   1      33.160  26.867  23.395  1.00  0.00    -0.300 N 
ATOM     11  N   UNL A   1      31.930  26.781  25.804  1.00  0.00    -0.300 N 
ATOM     12  C   UNL A   1      31.841  27.925  26.687  1.00  0.00     0.323 C 
ATOM     13  C   UNL A   1      32.923  27.126  24.806  1.00  0.00     0.231 C 
ATOM     14  O   UNL A   1      31.381  27.923  27.822  1.00  0.00    -0.248 OA
ATOM     15  N   UNL A   1      32.432  29.018  26.039  1.00  0.00    -0.300 N 
ATOM     16  C   UNL A   1      32.614  28.628  24.698  1.00  0.00     0.228 C 
ATOM     17  N   UNL A   1      33.605  29.086  23.819  1.00  0.00    -0.314 N 
ATOM     18  C   UNL A   1      33.767  28.061  22.883  1.00  0.00     0.320 C 
ATOM     19  H   UNL A   1      34.083  29.946  23.853  1.00  0.00     0.167 HD
ATOM     20  O   UNL A   1      34.305  28.217  21.790  1.00  0.00    -0.249 OA
BRANCH  11  21
ATOM     21  C   UNL A   1      31.699  25.477  26.399  1.00  0.00     0.120 C 
ATOM     22  C   UNL A   1      30.685  24.636  25.652  1.00  0.00     0.027 C 
ENDBRANCH  11  21
BRANCH  15  23
ATOM     23  C   UNL A   1      32.735  30.322  26.591  1.00  0.00     0.120 C 
ATOM     24  C   UNL A   1      31.579  31.307  26.549  1.00  0.00     0.027 C 
ENDBRANCH  15  23
ENDBRANCH   9  10
ENDBRANCH   8   9
ENDBRANCH   7   8
ENDBRANCH   4   7
ENDBRANCH   2   3
ENDBRANCH   1   2
BRANCH   1  25
ATOM     25  C   UNL A   1      38.592  23.746  26.330  1.00  0.00     0.002 C 
BRANCH  25  26
ATOM     26  C   UNL A   1      39.536  22.678  26.895  1.00  0.00     0.002 C 
BRANCH  26  27
ATOM     27  C   UNL A   1      39.798  21.473  25.982  1.00  0.00     0.021 C 
BRANCH  27  28
ATOM     28  C   UNL A   1      40.618  20.342  26.599  1.00  0.00     0.116 C 
BRANCH  28  29
ATOM     29  N   UNL A   1      41.863  20.105  25.891  1.00  0.00    -0.352 N 
ATOM     30  C   UNL A   1      42.922  20.937  25.644  1.00  0.00     0.251 C 
ATOM     31  H   UNL A   1      41.962  19.196  25.527  1.00  0.00     0.163 HD
ATOM     32  O   UNL A   1      43.824  20.561  24.901  1.00  0.00    -0.269 OA
BRANCH  30  33
ATOM     33  C   UNL A   1      42.986  22.287  26.246  1.00  0.00     0.039 A 
ATOM     34  C   UNL A   1      42.951  23.391  25.389  1.00  0.00     0.014 A 
ATOM     35  C   UNL A   1      43.143  22.474  27.622  1.00  0.00     0.014 A 
ATOM     36  C   UNL A   1      43.040  24.681  25.913  1.00  0.00     0.010 A 
ATOM     37  C   UNL A   1      43.166  23.764  28.150  1.00  0.00     0.010 A 
ATOM     38  C   UNL A   1      43.131  24.879  27.299  1.00  0.00    -0.014 A 
BRANCH  38  39
ATOM     39  C   UNL A   1      43.227  26.248  27.861  1.00  0.00     0.031 A 
ATOM     40  C   UNL A   1      44.574  26.876  28.095  1.00  0.00     0.074 A 
ATOM     41  C   UNL A   1      42.103  26.923  28.172  1.00  0.00     0.049 A 
ATOM     42  N   UNL A   1      44.860  28.060  28.579  1.00  0.00    -0.248 NA
ATOM     43  C   UNL A   1      45.755  26.065  27.756  1.00  0.00     0.031 C 
ATOM     44  C   UNL A   1      40.739  26.416  28.013  1.00  0.00     0.029 A 
ATOM     45  N   UNL A   1      41.932  28.185  28.680  1.00  0.00    -0.354 N 
ATOM     46  C   UNL A   1      46.247  28.131  28.604  1.00  0.00     0.074 A 
ATOM     47  C   UNL A   1      46.747  26.856  28.141  1.00  0.00     0.031 C 
ATOM     48  C   UNL A   1      39.870  27.371  28.383  1.00  0.00     0.029 A 
ATOM     49  C   UNL A   1      40.614  28.542  28.835  1.00  0.00     0.049 A 
ATOM     50  H   UNL A   1      42.682  28.779  28.912  1.00  0.00     0.167 HD
ATOM     51  C   UNL A   1      47.038  29.173  28.958  1.00  0.00     0.031 A 
ATOM     52  C   UNL A   1      40.069  29.686  29.289  1.00  0.00     0.031 A 
ATOM     53  C   UNL A   1      46.545  30.444  29.413  1.00  0.00     0.049 A 
ATOM     54  C   UNL A   1      40.971  30.816  29.701  1.00  0.00     0.074 A 
ATOM     55  C   UNL A   1      47.265  31.571  29.773  1.00  0.00     0.029 A 
ATOM     56  N   UNL A   1      45.204  30.759  29.567  1.00  0.00    -0.354 N 
ATOM     57  N   UNL A   1      42.280  30.883  29.674  1.00  0.00    -0.248 NA
ATOM     58  C   UNL A   1      40.315  32.036  30.196  1.00  0.00     0.031 C 
ATOM     59  C   UNL A   1      46.360  32.558  30.177  1.00  0.00     0.029 A 
ATOM     60  C   UNL A   1      45.076  32.059  30.026  1.00  0.00     0.049 A 
ATOM     61  H   UNL A   1      44.456  30.150  29.377  1.00  0.00     0.167 HD
ATOM     62  C   UNL A   1      42.602  32.158  30.118  1.00  0.00     0.074 A 
ATOM     63  C   UNL A   1      41.352  32.836  30.391  1.00  0.00     0.031 C 
ATOM     64  C   UNL A   1      43.824  32.719  30.284  1.00  0.00     0.031 A 
BRANCH  51  65
ATOM     65  C   UNL A   1      48.524  28.977  28.854  1.00  0.00    -0.014 A 
ATOM     66  C   UNL A   1      49.212  29.298  27.673  1.00  0.00     0.009 A 
ATOM     67  C   UNL A   1      49.251  28.506  29.959  1.00  0.00     0.009 A 
ATOM     68  C   UNL A   1      50.594  29.120  27.589  1.00  0.00     0.001 A 
ATOM     69  C   UNL A   1      50.637  28.353  29.879  1.00  0.00     0.001 A 
ATOM     70  C   UNL A   1      51.306  28.652  28.693  1.00  0.00     0.000 A 
ENDBRANCH  51  65
BRANCH  52  71
ATOM     71  C   UNL A   1      38.592  29.837  29.360  1.00  0.00    -0.014 A 
ATOM     72  C   UNL A   1      37.901  29.505  30.535  1.00  0.00     0.009 A 
ATOM     73  C   UNL A   1      37.865  30.284  28.247  1.00  0.00     0.009 A 
ATOM     74  C   UNL A   1      36.507  29.583  30.582  1.00  0.00     0.001 A 
ATOM     75  C   UNL A   1      36.473  30.388  28.306  1.00  0.00     0.001 A 
ATOM     76  C   UNL A   1      35.795  30.027  29.469  1.00  0.00     0.000 A 
ENDBRANCH  52  71
BRANCH  64  77
ATOM     77  C   UNL A   1      43.864  34.147  30.747  1.00  0.00    -0.014 A 
ATOM     78  C   UNL A   1      43.879  35.209  29.831  1.00  0.00     0.009 A 
ATOM     79  C   UNL A   1      43.854  34.430  32.122  1.00  0.00     0.009 A 
ATOM     80  C   UNL A   1      43.918  36.528  30.284  1.00  0.00     0.001 A 
ATOM     81  C   UNL A   1      43.865  35.751  32.571  1.00  0.00     0.001 A 
ATOM     82  C   UNL A   1      43.907  36.799  31.652  1.00  0.00     0.000 A 
ENDBRANCH  64  77
ENDBRANCH  38  39
ENDBRANCH  30  33
ENDBRANCH  28  29
ENDBRANCH  27  28
ENDBRANCH  26  27
ENDBRANCH  25  26
ENDBRANCH   1  25
TORSDOF 18
ENDMDL
