MODEL 1
REMARK VINA RESULT:     -11.5      0.000      0.000
REMARK SMILES Cc1nn(C)c(=O)c(C(=O)N2CC[C@@H](C(=O)NCCCCCCNC(=O)c3ccc(-c4c5nc(c(-c6ccccc6)c6ccc([nH]6)c(-c6ccccc6)c6nc(c(-c7ccccc7)c7ccc4[nH]7)C=C6)C=C5)cc3)[C@@H]2C)c1C
REMARK SMILES IDX 20 1 19 2 18 3 17 4 15 5 16 6 14 8 11 9 12 10 75 11 13 12
REMARK SMILES IDX 76 13 9 14 10 15 8 16 1 17 2 18 3 19 77 20 4 21 78 22 5 23
REMARK SMILES IDX 6 24 7 25 21 26 22 27 23 28 24 29 25 30 26 32 27 33 28 34
REMARK SMILES IDX 74 35 29 36 73 37 30 38 31 39 32 40 67 41 33 42 72 43 66 44
REMARK SMILES IDX 68 45 34 46 71 47 65 48 64 49 35 51 57 52 42 53 56 54 43 55
REMARK SMILES IDX 46 56 55 57 69 58 44 59 45 60 54 62 70 63 47 64 36 65 37 66
REMARK SMILES IDX 41 67 38 68 40 69 39 70 58 71 59 72 63 73 60 74 62 75 61 76
REMARK SMILES IDX 48 77 49 78 53 79 50 80 52 81 51 82
REMARK H PARENT 17 7 24 31 68 50 46 61
REMARK Flexibility Score: inf
ROOT
ATOM      1  C   UNL A   1      35.751  21.575  24.430  1.00  0.00     0.002 C 
ENDROOT
BRANCH   1   2
ATOM      2  C   UNL A   1      35.025  20.647  25.402  1.00  0.00     0.021 C 
BRANCH   2   3
ATOM      3  C   UNL A   1      33.868  19.818  24.839  1.00  0.00     0.116 C 
BRANCH   3   4
ATOM      4  N   UNL A   1      33.061  20.588  23.908  1.00  0.00    -0.356 N 
ATOM      5  C   UNL A   1      32.298  21.704  24.057  1.00  0.00     0.225 C 
ATOM      6  O   UNL A   1      31.691  22.089  23.051  1.00  0.00    -0.275 OA
ATOM      7  H   UNL A   1      33.068  20.234  22.991  1.00  0.00     0.163 HD
BRANCH   5   8
ATOM      8  C   UNL A   1      32.103  22.455  25.375  1.00  0.00     0.102 C 
ATOM      9  N   UNL A   1      31.194  24.672  25.571  1.00  0.00    -0.335 N 
ATOM     10  C   UNL A   1      30.435  23.807  26.468  1.00  0.00     0.121 C 
ATOM     11  C   UNL A   1      32.441  23.951  25.253  1.00  0.00     0.094 C 
ATOM     12  C   UNL A   1      30.716  22.383  26.005  1.00  0.00     0.037 C 
ATOM     13  C   UNL A   1      33.614  24.343  26.160  1.00  0.00     0.032 C 
BRANCH   9  14
ATOM     14  C   UNL A   1      31.198  26.043  25.877  1.00  0.00     0.260 C 
ATOM     15  O   UNL A   1      30.878  26.425  27.000  1.00  0.00    -0.269 OA
BRANCH  14  16
ATOM     16  C   UNL A   1      31.436  27.027  24.747  1.00  0.00     0.111 A 
ATOM     17  C   UNL A   1      34.084  28.840  22.767  1.00  0.00     0.069 C 
ATOM     18  C   UNL A   1      32.713  28.509  23.319  1.00  0.00     0.062 A 
ATOM     19  N   UNL A   1      31.712  28.934  22.628  1.00  0.00    -0.175 NA
ATOM     20  C   UNL A   1      32.586  27.706  24.563  1.00  0.00    -0.010 A 
ATOM     21  N   UNL A   1      30.475  28.517  23.017  1.00  0.00    -0.232 N 
ATOM     22  C   UNL A   1      33.700  27.831  25.536  1.00  0.00     0.047 C 
ATOM     23  C   UNL A   1      29.374  29.169  22.326  1.00  0.00     0.178 C 
ATOM     24  C   UNL A   1      30.255  27.458  23.903  1.00  0.00     0.279 A 
ATOM     25  O   UNL A   1      29.151  26.935  24.028  1.00  0.00    -0.267 OA
ENDBRANCH  14  16
ENDBRANCH   9  14
ENDBRANCH   5   8
ENDBRANCH   3   4
ENDBRANCH   2   3
ENDBRANCH   1   2
BRANCH   1  26
ATOM     26  C   UNL A   1      37.280  21.498  24.440  1.00  0.00     0.002 C 
BRANCH  26  27
ATOM     27  C   UNL A   1      37.890  20.169  24.896  1.00  0.00     0.021 C 
BRANCH  27  28
ATOM     28  C   UNL A   1      38.955  20.266  25.986  1.00  0.00     0.116 C 
BRANCH  28  29
ATOM     29  N   UNL A   1      40.022  19.294  25.838  1.00  0.00    -0.352 N 
ATOM     30  C   UNL A   1      41.378  19.441  25.993  1.00  0.00     0.251 C 
ATOM     31  H   UNL A   1      39.729  18.388  25.587  1.00  0.00     0.163 HD
ATOM     32  O   UNL A   1      42.133  18.513  25.711  1.00  0.00    -0.269 OA
BRANCH  30  33
ATOM     33  C   UNL A   1      41.944  20.725  26.460  1.00  0.00     0.039 A 
ATOM     34  C   UNL A   1      42.280  21.688  25.506  1.00  0.00     0.014 A 
ATOM     35  C   UNL A   1      42.149  20.981  27.818  1.00  0.00     0.014 A 
ATOM     36  C   UNL A   1      42.750  22.935  25.918  1.00  0.00     0.010 A 
ATOM     37  C   UNL A   1      42.551  22.252  28.233  1.00  0.00     0.010 A 
ATOM     38  C   UNL A   1      42.852  23.242  27.286  1.00  0.00    -0.014 A 
BRANCH  38  39
ATOM     39  C   UNL A   1      43.253  24.604  27.720  1.00  0.00     0.031 A 
ATOM     40  C   UNL A   1      44.696  25.018  27.723  1.00  0.00     0.074 A 
ATOM     41  C   UNL A   1      42.305  25.477  28.118  1.00  0.00     0.049 A 
ATOM     42  N   UNL A   1      45.217  26.186  28.002  1.00  0.00    -0.248 NA
ATOM     43  C   UNL A   1      45.684  23.984  27.380  1.00  0.00     0.031 C 
ATOM     44  C   UNL A   1      40.872  25.190  28.185  1.00  0.00     0.029 A 
ATOM     45  N   UNL A   1      42.404  26.785  28.520  1.00  0.00    -0.354 N 
ATOM     46  C   UNL A   1      46.588  26.031  27.858  1.00  0.00     0.074 A 
ATOM     47  C   UNL A   1      46.825  24.640  27.536  1.00  0.00     0.031 C 
ATOM     48  C   UNL A   1      40.219  26.306  28.544  1.00  0.00     0.029 A 
ATOM     49  C   UNL A   1      41.188  27.374  28.772  1.00  0.00     0.049 A 
ATOM     50  H   UNL A   1      43.262  27.257  28.619  1.00  0.00     0.167 HD
ATOM     51  C   UNL A   1      47.564  26.965  27.956  1.00  0.00     0.031 A 
ATOM     52  C   UNL A   1      40.882  28.635  29.130  1.00  0.00     0.031 A 
ATOM     53  C   UNL A   1      47.332  28.343  28.301  1.00  0.00     0.049 A 
ATOM     54  C   UNL A   1      41.982  29.644  29.296  1.00  0.00     0.074 A 
ATOM     55  C   UNL A   1      48.252  29.372  28.405  1.00  0.00     0.029 A 
ATOM     56  N   UNL A   1      46.092  28.883  28.607  1.00  0.00    -0.354 N 
ATOM     57  N   UNL A   1      43.270  29.496  29.100  1.00  0.00    -0.248 NA
ATOM     58  C   UNL A   1      41.588  30.993  29.725  1.00  0.00     0.031 C 
ATOM     59  C   UNL A   1      47.578  30.518  28.834  1.00  0.00     0.029 A 
ATOM     60  C   UNL A   1      46.227  30.223  28.931  1.00  0.00     0.049 A 
ATOM     61  H   UNL A   1      45.242  28.387  28.597  1.00  0.00     0.167 HD
ATOM     62  C   UNL A   1      43.839  30.737  29.358  1.00  0.00     0.074 A 
ATOM     63  C   UNL A   1      42.754  31.628  29.716  1.00  0.00     0.031 C 
ATOM     64  C   UNL A   1      45.142  31.100  29.295  1.00  0.00     0.031 A 
BRANCH  51  65
ATOM     65  C   UNL A   1      48.975  26.516  27.690  1.00  0.00    -0.014 A 
ATOM     66  C   UNL A   1      49.780  26.010  28.725  1.00  0.00     0.009 A 
ATOM     67  C   UNL A   1      49.503  26.577  26.392  1.00  0.00     0.009 A 
ATOM     68  C   UNL A   1      51.097  25.620  28.474  1.00  0.00     0.001 A 
ATOM     69  C   UNL A   1      50.809  26.153  26.137  1.00  0.00     0.001 A 
ATOM     70  C   UNL A   1      51.608  25.688  27.180  1.00  0.00     0.000 A 
ENDBRANCH  51  65
BRANCH  52  71
ATOM     71  C   UNL A   1      39.454  29.017  29.289  1.00  0.00    -0.014 A 
ATOM     72  C   UNL A   1      38.726  29.497  28.191  1.00  0.00     0.009 A 
ATOM     73  C   UNL A   1      38.794  28.838  30.516  1.00  0.00     0.009 A 
ATOM     74  C   UNL A   1      37.366  29.788  28.316  1.00  0.00     0.001 A 
ATOM     75  C   UNL A   1      37.429  29.105  30.631  1.00  0.00     0.001 A 
ATOM     76  C   UNL A   1      36.716  29.581  29.531  1.00  0.00     0.000 A 
ENDBRANCH  52  71
BRANCH  64  77
ATOM     77  C   UNL A   1      45.487  32.531  29.604  1.00  0.00    -0.014 A 
ATOM     78  C   UNL A   1      45.454  33.519  28.608  1.00  0.00     0.009 A 
ATOM     79  C   UNL A   1      45.754  32.910  30.930  1.00  0.00     0.009 A 
ATOM     80  C   UNL A   1      45.693  34.857  28.933  1.00  0.00     0.001 A 
ATOM     81  C   UNL A   1      45.965  34.251  31.256  1.00  0.00     0.001 A 
ATOM     82  C   UNL A   1      45.938  35.223  30.257  1.00  0.00     0.000 A 
ENDBRANCH  64  77
ENDBRANCH  38  39
ENDBRANCH  30  33
ENDBRANCH  28  29
ENDBRANCH  27  28
ENDBRANCH  26  27
ENDBRANCH   1  26
TORSDOF 15
ENDMDL
MODEL 2
REMARK VINA RESULT:     -11.4      0.606      5.944
REMARK SMILES Cc1nn(C)c(=O)c(C(=O)N2CC[C@@H](C(=O)NCCCCCCNC(=O)c3ccc(-c4c5nc(c(-c6ccccc6)c6ccc([nH]6)c(-c6ccccc6)c6nc(c(-c7ccccc7)c7ccc4[nH]7)C=C6)C=C5)cc3)[C@@H]2C)c1C
REMARK SMILES IDX 20 1 19 2 18 3 17 4 15 5 16 6 14 8 11 9 12 10 75 11 13 12
REMARK SMILES IDX 76 13 9 14 10 15 8 16 1 17 2 18 3 19 77 20 4 21 78 22 5 23
REMARK SMILES IDX 6 24 7 25 21 26 22 27 23 28 24 29 25 30 26 32 27 33 28 34
REMARK SMILES IDX 74 35 29 36 73 37 30 38 31 39 32 40 67 41 33 42 72 43 66 44
REMARK SMILES IDX 68 45 34 46 71 47 65 48 64 49 35 51 57 52 42 53 56 54 43 55
REMARK SMILES IDX 46 56 55 57 69 58 44 59 45 60 54 62 70 63 47 64 36 65 37 66
REMARK SMILES IDX 41 67 38 68 40 69 39 70 58 71 59 72 63 73 60 74 62 75 61 76
REMARK SMILES IDX 48 77 49 78 53 79 50 80 52 81 51 82
REMARK H PARENT 17 7 24 31 68 50 46 61
REMARK Flexibility Score: inf
ROOT
ATOM      1  C   UNL A   1      35.384  20.742  25.319  1.00  0.00     0.002 C 
ENDROOT
BRANCH   1   2
ATOM      2  C   UNL A   1      34.664  19.484  24.834  1.00  0.00     0.021 C 
BRANCH   2   3
ATOM      3  C   UNL A   1      33.135  19.530  24.797  1.00  0.00     0.116 C 
BRANCH   3   4
ATOM      4  N   UNL A   1      32.652  20.508  23.837  1.00  0.00    -0.356 N 
ATOM      5  C   UNL A   1      32.177  21.775  23.973  1.00  0.00     0.225 C 
ATOM      6  O   UNL A   1      31.800  22.332  22.936  1.00  0.00    -0.275 OA
ATOM      7  H   UNL A   1      32.674  20.193  22.905  1.00  0.00     0.163 HD
BRANCH   5   8
ATOM      8  C   UNL A   1      32.027  22.508  25.306  1.00  0.00     0.102 C 
ATOM      9  N   UNL A   1      31.142  24.729  25.560  1.00  0.00    -0.335 N 
ATOM     10  C   UNL A   1      30.403  23.858  26.468  1.00  0.00     0.121 C 
ATOM     11  C   UNL A   1      32.373  24.004  25.195  1.00  0.00     0.094 C 
ATOM     12  C   UNL A   1      30.658  22.439  25.977  1.00  0.00     0.037 C 
ATOM     13  C   UNL A   1      33.575  24.374  26.072  1.00  0.00     0.032 C 
BRANCH   9  14
ATOM     14  C   UNL A   1      31.165  26.096  25.885  1.00  0.00     0.260 C 
ATOM     15  O   UNL A   1      31.034  26.455  27.053  1.00  0.00    -0.269 OA
BRANCH  14  16
ATOM     16  C   UNL A   1      31.183  27.101  24.748  1.00  0.00     0.111 A 
ATOM     17  C   UNL A   1      29.027  29.184  22.462  1.00  0.00     0.069 C 
ATOM     18  C   UNL A   1      30.264  28.484  22.985  1.00  0.00     0.062 A 
ATOM     19  N   UNL A   1      31.391  28.949  22.571  1.00  0.00    -0.175 NA
ATOM     20  C   UNL A   1      30.130  27.360  23.948  1.00  0.00    -0.010 A 
ATOM     21  N   UNL A   1      32.516  28.441  23.146  1.00  0.00    -0.232 N 
ATOM     22  C   UNL A   1      28.885  26.558  23.845  1.00  0.00     0.047 C 
ATOM     23  C   UNL A   1      33.757  28.860  22.516  1.00  0.00     0.178 C 
ATOM     24  C   UNL A   1      32.513  27.689  24.324  1.00  0.00     0.279 A 
ATOM     25  O   UNL A   1      33.543  27.473  24.959  1.00  0.00    -0.267 OA
ENDBRANCH  14  16
ENDBRANCH   9  14
ENDBRANCH   5   8
ENDBRANCH   3   4
ENDBRANCH   2   3
ENDBRANCH   1   2
BRANCH   1  26
ATOM     26  C   UNL A   1      36.734  21.040  24.663  1.00  0.00     0.002 C 
BRANCH  26  27
ATOM     27  C   UNL A   1      37.821  19.974  24.830  1.00  0.00     0.021 C 
BRANCH  27  28
ATOM     28  C   UNL A   1      38.976  20.342  25.758  1.00  0.00     0.116 C 
BRANCH  28  29
ATOM     29  N   UNL A   1      40.004  19.320  25.833  1.00  0.00    -0.352 N 
ATOM     30  C   UNL A   1      41.344  19.434  26.109  1.00  0.00     0.251 C 
ATOM     31  H   UNL A   1      39.692  18.402  25.660  1.00  0.00     0.163 HD
ATOM     32  O   UNL A   1      42.076  18.452  26.015  1.00  0.00    -0.269 OA
BRANCH  30  33
ATOM     33  C   UNL A   1      41.924  20.742  26.482  1.00  0.00     0.039 A 
ATOM     34  C   UNL A   1      42.357  21.591  25.460  1.00  0.00     0.014 A 
ATOM     35  C   UNL A   1      42.046  21.133  27.818  1.00  0.00     0.014 A 
ATOM     36  C   UNL A   1      42.844  22.860  25.775  1.00  0.00     0.010 A 
ATOM     37  C   UNL A   1      42.465  22.427  28.128  1.00  0.00     0.010 A 
ATOM     38  C   UNL A   1      42.865  23.304  27.109  1.00  0.00    -0.014 A 
BRANCH  38  39
ATOM     39  C   UNL A   1      43.285  24.692  27.429  1.00  0.00     0.031 A 
ATOM     40  C   UNL A   1      42.271  25.739  27.790  1.00  0.00     0.074 A 
ATOM     41  C   UNL A   1      44.593  25.013  27.391  1.00  0.00     0.049 A 
ATOM     42  N   UNL A   1      42.464  26.977  28.166  1.00  0.00    -0.248 NA
ATOM     43  C   UNL A   1      40.855  25.349  27.708  1.00  0.00     0.031 C 
ATOM     44  C   UNL A   1      45.674  24.094  27.031  1.00  0.00     0.029 A 
ATOM     45  N   UNL A   1      45.236  26.190  27.679  1.00  0.00    -0.354 N 
ATOM     46  C   UNL A   1      41.200  27.510  28.375  1.00  0.00     0.074 A 
ATOM     47  C   UNL A   1      40.245  26.483  28.017  1.00  0.00     0.031 C 
ATOM     48  C   UNL A   1      46.850  24.725  27.178  1.00  0.00     0.029 A 
ATOM     49  C   UNL A   1      46.605  26.100  27.602  1.00  0.00     0.049 A 
ATOM     50  H   UNL A   1      44.763  27.020  27.917  1.00  0.00     0.167 HD
ATOM     51  C   UNL A   1      40.861  28.732  28.850  1.00  0.00     0.031 A 
ATOM     52  C   UNL A   1      47.560  27.014  27.860  1.00  0.00     0.031 A 
ATOM     53  C   UNL A   1      41.809  29.763  29.182  1.00  0.00     0.049 A 
ATOM     54  C   UNL A   1      47.164  28.386  28.324  1.00  0.00     0.074 A 
ATOM     55  C   UNL A   1      41.565  31.027  29.690  1.00  0.00     0.029 A 
ATOM     56  N   UNL A   1      43.184  29.649  29.032  1.00  0.00    -0.354 N 
ATOM     57  N   UNL A   1      45.966  28.856  28.572  1.00  0.00    -0.248 NA
ATOM     58  C   UNL A   1      48.249  29.351  28.551  1.00  0.00     0.031 C 
ATOM     59  C   UNL A   1      42.786  31.700  29.788  1.00  0.00     0.029 A 
ATOM     60  C   UNL A   1      43.798  30.833  29.407  1.00  0.00     0.049 A 
ATOM     61  H   UNL A   1      43.651  28.848  28.706  1.00  0.00     0.167 HD
ATOM     62  C   UNL A   1      46.152  30.162  29.007  1.00  0.00     0.074 A 
ATOM     63  C   UNL A   1      47.580  30.407  28.997  1.00  0.00     0.031 C 
ATOM     64  C   UNL A   1      45.220  31.070  29.385  1.00  0.00     0.031 A 
BRANCH  51  65
ATOM     65  C   UNL A   1      39.394  29.018  29.028  1.00  0.00    -0.014 A 
ATOM     66  C   UNL A   1      38.749  28.751  30.248  1.00  0.00     0.009 A 
ATOM     67  C   UNL A   1      38.651  29.579  27.979  1.00  0.00     0.009 A 
ATOM     68  C   UNL A   1      37.382  28.995  30.396  1.00  0.00     0.001 A 
ATOM     69  C   UNL A   1      37.292  29.854  28.141  1.00  0.00     0.001 A 
ATOM     70  C   UNL A   1      36.656  29.550  29.345  1.00  0.00     0.000 A 
ENDBRANCH  51  65
BRANCH  52  71
ATOM     71  C   UNL A   1      48.989  26.623  27.739  1.00  0.00    -0.014 A 
ATOM     72  C   UNL A   1      49.658  26.051  28.832  1.00  0.00     0.009 A 
ATOM     73  C   UNL A   1      49.670  26.751  26.518  1.00  0.00     0.009 A 
ATOM     74  C   UNL A   1      50.978  25.613  28.704  1.00  0.00     0.001 A 
ATOM     75  C   UNL A   1      50.981  26.289  26.386  1.00  0.00     0.001 A 
ATOM     76  C   UNL A   1      51.634  25.722  27.479  1.00  0.00     0.000 A 
ENDBRANCH  52  71
BRANCH  64  77
ATOM     77  C   UNL A   1      45.701  32.420  29.841  1.00  0.00    -0.014 A 
ATOM     78  C   UNL A   1      45.969  32.678  31.194  1.00  0.00     0.009 A 
ATOM     79  C   UNL A   1      45.981  33.415  28.889  1.00  0.00     0.009 A 
ATOM     80  C   UNL A   1      46.497  33.912  31.585  1.00  0.00     0.001 A 
ATOM     81  C   UNL A   1      46.534  34.635  29.280  1.00  0.00     0.001 A 
ATOM     82  C   UNL A   1      46.788  34.884  30.628  1.00  0.00     0.000 A 
ENDBRANCH  64  77
ENDBRANCH  38  39
ENDBRANCH  30  33
ENDBRANCH  28  29
ENDBRANCH  27  28
ENDBRANCH  26  27
ENDBRANCH   1  26
TORSDOF 15
ENDMDL
MODEL 3
REMARK VINA RESULT:     -11.4      4.724      9.998
REMARK SMILES Cc1nn(C)c(=O)c(C(=O)N2CC[C@@H](C(=O)NCCCCCCNC(=O)c3ccc(-c4c5nc(c(-c6ccccc6)c6ccc([nH]6)c(-c6ccccc6)c6nc(c(-c7ccccc7)c7ccc4[nH]7)C=C6)C=C5)cc3)[C@@H]2C)c1C
REMARK SMILES IDX 20 1 19 2 18 3 17 4 15 5 16 6 14 8 11 9 12 10 75 11 13 12
REMARK SMILES IDX 76 13 9 14 10 15 8 16 1 17 2 18 3 19 77 20 4 21 78 22 5 23
REMARK SMILES IDX 6 24 7 25 21 26 22 27 23 28 24 29 25 30 26 32 27 33 28 34
REMARK SMILES IDX 74 35 29 36 73 37 30 38 31 39 32 40 67 41 33 42 72 43 66 44
REMARK SMILES IDX 68 45 34 46 71 47 65 48 64 49 35 51 57 52 42 53 56 54 43 55
REMARK SMILES IDX 46 56 55 57 69 58 44 59 45 60 54 62 70 63 47 64 36 65 37 66
REMARK SMILES IDX 41 67 38 68 40 69 39 70 58 71 59 72 63 73 60 74 62 75 61 76
REMARK SMILES IDX 48 77 49 78 53 79 50 80 52 81 51 82
REMARK H PARENT 17 7 24 31 68 50 46 61
REMARK Flexibility Score: inf
ROOT
ATOM      1  C   UNL A   1      32.132  29.611  27.149  1.00  0.00     0.002 C 
ENDROOT
BRANCH   1   2
ATOM      2  C   UNL A   1      33.546  29.073  26.939  1.00  0.00     0.021 C 
BRANCH   2   3
ATOM      3  C   UNL A   1      33.751  28.093  25.781  1.00  0.00     0.116 C 
BRANCH   3   4
ATOM      4  N   UNL A   1      33.983  28.788  24.526  1.00  0.00    -0.356 N 
ATOM      5  C   UNL A   1      33.397  28.697  23.303  1.00  0.00     0.225 C 
ATOM      6  O   UNL A   1      33.871  29.417  22.416  1.00  0.00    -0.275 OA
ATOM      7  H   UNL A   1      34.706  29.454  24.570  1.00  0.00     0.163 HD
BRANCH   5   8
ATOM      8  C   UNL A   1      32.258  27.740  22.953  1.00  0.00     0.102 C 
ATOM      9  N   UNL A   1      32.036  25.500  23.797  1.00  0.00    -0.335 N 
ATOM     10  C   UNL A   1      30.778  26.191  24.057  1.00  0.00     0.121 C 
ATOM     11  C   UNL A   1      32.744  26.291  22.773  1.00  0.00     0.094 C 
ATOM     12  C   UNL A   1      31.090  27.677  23.932  1.00  0.00     0.037 C 
ATOM     13  C   UNL A   1      32.500  25.786  21.345  1.00  0.00     0.032 C 
BRANCH   9  14
ATOM     14  C   UNL A   1      31.978  24.097  23.730  1.00  0.00     0.260 C 
ATOM     15  O   UNL A   1      30.999  23.544  23.236  1.00  0.00    -0.269 OA
BRANCH  14  16
ATOM     16  C   UNL A   1      33.065  23.303  24.431  1.00  0.00     0.111 A 
ATOM     17  C   UNL A   1      33.914  21.356  27.546  1.00  0.00     0.069 C 
ATOM     18  C   UNL A   1      34.129  22.117  26.254  1.00  0.00     0.062 A 
ATOM     19  N   UNL A   1      35.234  21.877  25.638  1.00  0.00    -0.175 NA
ATOM     20  C   UNL A   1      33.080  23.042  25.754  1.00  0.00    -0.010 A 
ATOM     21  N   UNL A   1      35.382  22.427  24.401  1.00  0.00    -0.232 N 
ATOM     22  C   UNL A   1      32.226  23.681  26.787  1.00  0.00     0.047 C 
ATOM     23  C   UNL A   1      36.712  22.282  23.831  1.00  0.00     0.178 C 
ATOM     24  C   UNL A   1      34.326  22.970  23.663  1.00  0.00     0.279 A 
ATOM     25  O   UNL A   1      34.431  23.213  22.463  1.00  0.00    -0.267 OA
ENDBRANCH  14  16
ENDBRANCH   9  14
ENDBRANCH   5   8
ENDBRANCH   3   4
ENDBRANCH   2   3
ENDBRANCH   1   2
BRANCH   1  26
ATOM     26  C   UNL A   1      31.649  30.651  26.135  1.00  0.00     0.002 C 
BRANCH  26  27
ATOM     27  C   UNL A   1      31.404  32.064  26.675  1.00  0.00     0.021 C 
BRANCH  27  28
ATOM     28  C   UNL A   1      32.632  32.791  27.215  1.00  0.00     0.116 C 
BRANCH  28  29
ATOM     29  N   UNL A   1      32.350  34.141  27.668  1.00  0.00    -0.352 N 
ATOM     30  C   UNL A   1      33.001  34.915  28.596  1.00  0.00     0.251 C 
ATOM     31  H   UNL A   1      31.571  34.569  27.243  1.00  0.00     0.163 HD
ATOM     32  O   UNL A   1      32.535  36.004  28.922  1.00  0.00    -0.269 OA
BRANCH  30  33
ATOM     33  C   UNL A   1      34.241  34.430  29.239  1.00  0.00     0.039 A 
ATOM     34  C   UNL A   1      34.140  33.790  30.476  1.00  0.00     0.014 A 
ATOM     35  C   UNL A   1      35.491  34.605  28.638  1.00  0.00     0.014 A 
ATOM     36  C   UNL A   1      35.283  33.260  31.076  1.00  0.00     0.010 A 
ATOM     37  C   UNL A   1      36.621  34.012  29.202  1.00  0.00     0.010 A 
ATOM     38  C   UNL A   1      36.528  33.331  30.425  1.00  0.00    -0.014 A 
BRANCH  38  39
ATOM     39  C   UNL A   1      37.721  32.674  31.016  1.00  0.00     0.031 A 
ATOM     40  C   UNL A   1      38.300  33.156  32.315  1.00  0.00     0.074 A 
ATOM     41  C   UNL A   1      38.288  31.634  30.375  1.00  0.00     0.049 A 
ATOM     42  N   UNL A   1      39.291  32.657  33.010  1.00  0.00    -0.248 NA
ATOM     43  C   UNL A   1      37.697  34.360  32.906  1.00  0.00     0.031 C 
ATOM     44  C   UNL A   1      37.837  31.086  29.095  1.00  0.00     0.029 A 
ATOM     45  N   UNL A   1      39.353  30.840  30.721  1.00  0.00    -0.354 N 
ATOM     46  C   UNL A   1      39.423  33.477  34.121  1.00  0.00     0.074 A 
ATOM     47  C   UNL A   1      38.458  34.546  33.974  1.00  0.00     0.031 C 
ATOM     48  C   UNL A   1      38.579  30.010  28.794  1.00  0.00     0.029 A 
ATOM     49  C   UNL A   1      39.583  29.815  29.836  1.00  0.00     0.049 A 
ATOM     50  H   UNL A   1      39.899  30.990  31.527  1.00  0.00     0.167 HD
ATOM     51  C   UNL A   1      40.251  33.341  35.184  1.00  0.00     0.031 A 
ATOM     52  C   UNL A   1      40.488  28.819  29.864  1.00  0.00     0.031 A 
ATOM     53  C   UNL A   1      41.228  32.293  35.319  1.00  0.00     0.049 A 
ATOM     54  C   UNL A   1      41.442  28.719  31.020  1.00  0.00     0.074 A 
ATOM     55  C   UNL A   1      42.099  32.057  36.368  1.00  0.00     0.029 A 
ATOM     56  N   UNL A   1      41.469  31.310  34.370  1.00  0.00    -0.354 N 
ATOM     57  N   UNL A   1      41.516  29.469  32.092  1.00  0.00    -0.248 NA
ATOM     58  C   UNL A   1      42.432  27.633  30.974  1.00  0.00     0.031 C 
ATOM     59  C   UNL A   1      42.909  30.971  36.027  1.00  0.00     0.029 A 
ATOM     60  C   UNL A   1      42.497  30.485  34.795  1.00  0.00     0.049 A 
ATOM     61  H   UNL A   1      40.982  31.215  33.520  1.00  0.00     0.167 HD
ATOM     62  C   UNL A   1      42.542  28.935  32.861  1.00  0.00     0.074 A 
ATOM     63  C   UNL A   1      43.055  27.790  32.135  1.00  0.00     0.031 C 
ATOM     64  C   UNL A   1      43.007  29.354  34.062  1.00  0.00     0.031 A 
BRANCH  51  65
ATOM     65  C   UNL A   1      40.133  34.363  36.283  1.00  0.00    -0.014 A 
ATOM     66  C   UNL A   1      39.272  34.155  37.374  1.00  0.00     0.009 A 
ATOM     67  C   UNL A   1      40.904  35.534  36.243  1.00  0.00     0.009 A 
ATOM     68  C   UNL A   1      39.150  35.121  38.375  1.00  0.00     0.001 A 
ATOM     69  C   UNL A   1      40.806  36.482  37.263  1.00  0.00     0.001 A 
ATOM     70  C   UNL A   1      39.921  36.281  38.321  1.00  0.00     0.000 A 
ENDBRANCH  51  65
BRANCH  52  71
ATOM     71  C   UNL A   1      40.480  27.801  28.780  1.00  0.00    -0.014 A 
ATOM     72  C   UNL A   1      39.682  26.654  28.897  1.00  0.00     0.009 A 
ATOM     73  C   UNL A   1      41.210  28.003  27.598  1.00  0.00     0.009 A 
ATOM     74  C   UNL A   1      39.612  25.731  27.851  1.00  0.00     0.001 A 
ATOM     75  C   UNL A   1      41.118  27.091  26.544  1.00  0.00     0.001 A 
ATOM     76  C   UNL A   1      40.321  25.956  26.672  1.00  0.00     0.000 A 
ENDBRANCH  52  71
BRANCH  64  77
ATOM     77  C   UNL A   1      44.125  28.570  34.693  1.00  0.00    -0.014 A 
ATOM     78  C   UNL A   1      45.468  28.914  34.476  1.00  0.00     0.009 A 
ATOM     79  C   UNL A   1      43.824  27.534  35.593  1.00  0.00     0.009 A 
ATOM     80  C   UNL A   1      46.487  28.227  35.140  1.00  0.00     0.001 A 
ATOM     81  C   UNL A   1      44.843  26.869  36.276  1.00  0.00     0.001 A 
ATOM     82  C   UNL A   1      46.174  27.213  36.046  1.00  0.00     0.000 A 
ENDBRANCH  64  77
ENDBRANCH  38  39
ENDBRANCH  30  33
ENDBRANCH  28  29
ENDBRANCH  27  28
ENDBRANCH  26  27
ENDBRANCH   1  26
TORSDOF 15
ENDMDL
