MODEL 1
REMARK VINA RESULT:     -10.7      0.000      0.000
REMARK SMILES CN(Cc1ccncc1)C(=O)c1cccn1CC(=O)NCCCCCCNC(=O)c1ccc(-c2c3nc(c(-c4ccccc4)c4ccc([nH]4)c(-c4ccccc4)c4nc(c(-c5ccccc5)c5ccc2[nH]5)C=C4)C=C3)cc1
REMARK SMILES IDX 22 1 21 2 20 3 18 4 19 5 17 7 16 8 12 9 13 10 14 11 15 12
REMARK SMILES IDX 10 13 11 14 2 15 1 16 3 17 4 18 5 19 9 20 6 21 8 22 7 23
REMARK SMILES IDX 23 24 24 25 25 26 26 27 27 28 28 29 29 31 30 32 31 33 77 34
REMARK SMILES IDX 32 35 76 36 33 37 34 38 35 39 70 40 36 41 75 42 69 43 71 44
REMARK SMILES IDX 37 45 74 46 68 47 67 48 38 50 60 51 45 52 59 53 46 54 49 55
REMARK SMILES IDX 58 56 72 57 47 58 48 59 57 61 73 62 50 63 39 64 40 65 44 66
REMARK SMILES IDX 41 67 43 68 42 69 61 70 62 71 66 72 63 73 65 74 64 75 51 76
REMARK SMILES IDX 52 77 56 78 53 79 55 80 54 81
REMARK H PARENT 20 6 27 30 71 49 49 60
REMARK Flexibility Score: inf
ROOT
ATOM      1  C   UNL A   1      31.957  26.967  26.870  1.00  0.00     0.021 C 
ENDROOT
BRANCH   1   2
ATOM      2  C   UNL A   1      30.974  26.342  25.881  1.00  0.00     0.116 C 
BRANCH   2   3
ATOM      3  N   UNL A   1      30.270  25.220  26.463  1.00  0.00    -0.355 N 
ATOM      4  C   UNL A   1      30.759  23.988  26.799  1.00  0.00     0.239 C 
ATOM      5  O   UNL A   1      29.974  23.156  27.259  1.00  0.00    -0.273 OA
ATOM      6  H   UNL A   1      29.312  25.364  26.641  1.00  0.00     0.163 HD
BRANCH   4   7
ATOM      7  C   UNL A   1      32.239  23.684  26.641  1.00  0.00     0.222 C 
BRANCH   7   8
ATOM      8  N   UNL A   1      32.470  22.575  25.723  1.00  0.00    -0.334 N 
ATOM      9  C   UNL A   1      32.216  22.544  24.349  1.00  0.00     0.107 A 
ATOM     10  C   UNL A   1      32.337  21.199  24.010  1.00  0.00     0.033 A 
ATOM     11  C   UNL A   1      32.791  20.462  25.126  1.00  0.00     0.020 A 
ATOM     12  C   UNL A   1      32.906  21.346  26.162  1.00  0.00     0.087 A 
BRANCH   9  13
ATOM     13  C   UNL A   1      31.926  23.751  23.564  1.00  0.00     0.270 C 
ATOM     14  O   UNL A   1      30.758  24.009  23.256  1.00  0.00    -0.267 OA
BRANCH  13  15
ATOM     15  N   UNL A   1      32.938  24.601  23.086  1.00  0.00    -0.336 N 
ATOM     16  C   UNL A   1      32.903  24.919  21.662  1.00  0.00     0.147 C 
BRANCH  15  17
ATOM     17  C   UNL A   1      34.016  25.201  23.861  1.00  0.00     0.155 C 
BRANCH  17  18
ATOM     18  C   UNL A   1      35.132  24.272  24.280  1.00  0.00    -0.026 A 
ATOM     19  C   UNL A   1      35.698  24.283  25.561  1.00  0.00     0.025 A 
ATOM     20  C   UNL A   1      35.473  23.223  23.417  1.00  0.00     0.025 A 
ATOM     21  C   UNL A   1      36.464  23.198  25.956  1.00  0.00     0.111 A 
ATOM     22  C   UNL A   1      36.273  22.198  23.896  1.00  0.00     0.111 A 
ATOM     23  N   UNL A   1      36.756  22.153  25.153  1.00  0.00    -0.265 NA
ENDBRANCH  17  18
ENDBRANCH  15  17
ENDBRANCH  13  15
ENDBRANCH   9  13
ENDBRANCH   7   8
ENDBRANCH   4   7
ENDBRANCH   2   3
ENDBRANCH   1   2
BRANCH   1  24
ATOM     24  C   UNL A   1      31.414  28.224  27.551  1.00  0.00     0.002 C 
BRANCH  24  25
ATOM     25  C   UNL A   1      32.215  29.497  27.255  1.00  0.00     0.002 C 
BRANCH  25  26
ATOM     26  C   UNL A   1      33.501  29.284  26.438  1.00  0.00     0.021 C 
BRANCH  26  27
ATOM     27  C   UNL A   1      34.708  28.958  27.310  1.00  0.00     0.116 C 
BRANCH  27  28
ATOM     28  N   UNL A   1      34.965  30.054  28.233  1.00  0.00    -0.352 N 
ATOM     29  C   UNL A   1      36.027  30.273  29.055  1.00  0.00     0.251 C 
ATOM     30  H   UNL A   1      34.262  30.741  28.268  1.00  0.00     0.163 HD
ATOM     31  O   UNL A   1      35.883  31.016  30.039  1.00  0.00    -0.269 OA
BRANCH  29  32
ATOM     32  C   UNL A   1      37.343  29.675  28.792  1.00  0.00     0.039 A 
ATOM     33  C   UNL A   1      38.015  29.055  29.853  1.00  0.00     0.014 A 
ATOM     34  C   UNL A   1      37.967  29.837  27.550  1.00  0.00     0.014 A 
ATOM     35  C   UNL A   1      39.302  28.573  29.661  1.00  0.00     0.010 A 
ATOM     36  C   UNL A   1      39.234  29.325  27.340  1.00  0.00     0.010 A 
ATOM     37  C   UNL A   1      39.897  28.704  28.399  1.00  0.00    -0.014 A 
BRANCH  37  38
ATOM     38  C   UNL A   1      41.168  28.017  28.127  1.00  0.00     0.031 A 
ATOM     39  C   UNL A   1      42.322  29.048  28.073  1.00  0.00     0.074 A 
ATOM     40  C   UNL A   1      41.091  26.654  27.977  1.00  0.00     0.049 A 
ATOM     41  N   UNL A   1      43.466  28.967  27.476  1.00  0.00    -0.248 NA
ATOM     42  C   UNL A   1      42.179  30.385  28.730  1.00  0.00     0.031 C 
ATOM     43  C   UNL A   1      39.853  25.844  28.141  1.00  0.00     0.029 A 
ATOM     44  N   UNL A   1      42.000  25.662  27.671  1.00  0.00    -0.354 N 
ATOM     45  C   UNL A   1      44.231  30.112  27.808  1.00  0.00     0.074 A 
ATOM     46  C   UNL A   1      43.351  30.992  28.509  1.00  0.00     0.031 C 
ATOM     47  C   UNL A   1      40.070  24.540  27.841  1.00  0.00     0.029 A 
ATOM     48  C   UNL A   1      41.456  24.359  27.464  1.00  0.00     0.049 A 
ATOM     49  H   UNL A   1      42.965  25.842  27.601  1.00  0.00     0.167 HD
ATOM     50  C   UNL A   1      45.581  30.170  27.592  1.00  0.00     0.031 A 
ATOM     51  C   UNL A   1      42.080  23.237  26.977  1.00  0.00     0.031 A 
ATOM     52  C   UNL A   1      45.996  28.987  26.919  1.00  0.00     0.049 A 
ATOM     53  C   UNL A   1      43.494  23.609  26.894  1.00  0.00     0.074 A 
ATOM     54  C   UNL A   1      45.746  28.523  25.653  1.00  0.00     0.029 A 
ATOM     55  N   UNL A   1      46.358  27.941  27.734  1.00  0.00    -0.354 N 
ATOM     56  N   UNL A   1      44.288  23.721  27.912  1.00  0.00    -0.248 NA
ATOM     57  C   UNL A   1      44.059  23.932  25.579  1.00  0.00     0.031 C 
ATOM     58  C   UNL A   1      45.404  27.179  25.899  1.00  0.00     0.029 A 
ATOM     59  C   UNL A   1      45.789  26.821  27.196  1.00  0.00     0.049 A 
ATOM     60  H   UNL A   1      46.916  27.989  28.544  1.00  0.00     0.167 HD
ATOM     61  C   UNL A   1      45.269  24.528  27.403  1.00  0.00     0.074 A 
ATOM     62  C   UNL A   1      45.268  24.329  25.966  1.00  0.00     0.031 C 
ATOM     63  C   UNL A   1      45.565  25.687  28.050  1.00  0.00     0.031 A 
BRANCH  50  64
ATOM     64  C   UNL A   1      46.679  31.032  28.149  1.00  0.00    -0.014 A 
ATOM     65  C   UNL A   1      46.536  31.456  29.498  1.00  0.00     0.009 A 
ATOM     66  C   UNL A   1      47.593  31.728  27.355  1.00  0.00     0.009 A 
ATOM     67  C   UNL A   1      47.152  32.610  29.982  1.00  0.00     0.001 A 
ATOM     68  C   UNL A   1      48.248  32.865  27.857  1.00  0.00     0.001 A 
ATOM     69  C   UNL A   1      47.996  33.328  29.149  1.00  0.00     0.000 A 
ENDBRANCH  50  64
BRANCH  51  70
ATOM     70  C   UNL A   1      41.790  21.850  26.441  1.00  0.00    -0.014 A 
ATOM     71  C   UNL A   1      42.714  20.834  26.199  1.00  0.00     0.009 A 
ATOM     72  C   UNL A   1      40.419  21.468  26.299  1.00  0.00     0.009 A 
ATOM     73  C   UNL A   1      42.280  19.505  25.957  1.00  0.00     0.001 A 
ATOM     74  C   UNL A   1      39.986  20.151  26.129  1.00  0.00     0.001 A 
ATOM     75  C   UNL A   1      40.928  19.157  25.975  1.00  0.00     0.000 A 
ENDBRANCH  51  70
BRANCH  63  76
ATOM     76  C   UNL A   1      45.223  25.727  29.537  1.00  0.00    -0.014 A 
ATOM     77  C   UNL A   1      44.075  26.419  29.961  1.00  0.00     0.009 A 
ATOM     78  C   UNL A   1      46.054  25.205  30.548  1.00  0.00     0.009 A 
ATOM     79  C   UNL A   1      43.778  26.602  31.319  1.00  0.00     0.001 A 
ATOM     80  C   UNL A   1      45.761  25.386  31.912  1.00  0.00     0.001 A 
ATOM     81  C   UNL A   1      44.622  26.087  32.297  1.00  0.00     0.000 A 
ENDBRANCH  63  76
ENDBRANCH  37  38
ENDBRANCH  29  32
ENDBRANCH  27  28
ENDBRANCH  26  27
ENDBRANCH  25  26
ENDBRANCH  24  25
ENDBRANCH   1  24
TORSDOF 18
ENDMDL
MODEL 2
REMARK VINA RESULT:     -10.6      3.115      8.331
REMARK SMILES CN(Cc1ccncc1)C(=O)c1cccn1CC(=O)NCCCCCCNC(=O)c1ccc(-c2c3nc(c(-c4ccccc4)c4ccc([nH]4)c(-c4ccccc4)c4nc(c(-c5ccccc5)c5ccc2[nH]5)C=C4)C=C3)cc1
REMARK SMILES IDX 22 1 21 2 20 3 18 4 19 5 17 7 16 8 12 9 13 10 14 11 15 12
REMARK SMILES IDX 10 13 11 14 2 15 1 16 3 17 4 18 5 19 9 20 6 21 8 22 7 23
REMARK SMILES IDX 23 24 24 25 25 26 26 27 27 28 28 29 29 31 30 32 31 33 77 34
REMARK SMILES IDX 32 35 76 36 33 37 34 38 35 39 70 40 36 41 75 42 69 43 71 44
REMARK SMILES IDX 37 45 74 46 68 47 67 48 38 50 60 51 45 52 59 53 46 54 49 55
REMARK SMILES IDX 58 56 72 57 47 58 48 59 57 61 73 62 50 63 39 64 40 65 44 66
REMARK SMILES IDX 41 67 43 68 42 69 61 70 62 71 66 72 63 73 65 74 64 75 51 76
REMARK SMILES IDX 52 77 56 78 53 79 55 80 54 81
REMARK H PARENT 20 6 27 30 71 49 49 60
REMARK Flexibility Score: inf
ROOT
ATOM      1  C   UNL A   1      40.043  21.192  25.844  1.00  0.00     0.021 C 
ENDROOT
BRANCH   1   2
ATOM      2  C   UNL A   1      38.565  21.546  26.011  1.00  0.00     0.116 C 
BRANCH   2   3
ATOM      3  N   UNL A   1      38.069  22.309  24.886  1.00  0.00    -0.355 N 
ATOM      4  C   UNL A   1      36.875  22.185  24.231  1.00  0.00     0.239 C 
ATOM      5  O   UNL A   1      36.661  22.921  23.266  1.00  0.00    -0.273 OA
ATOM      6  H   UNL A   1      38.672  23.011  24.548  1.00  0.00     0.163 HD
BRANCH   4   7
ATOM      7  C   UNL A   1      35.837  21.188  24.718  1.00  0.00     0.222 C 
BRANCH   7   8
ATOM      8  N   UNL A   1      34.719  21.849  25.380  1.00  0.00    -0.334 N 
ATOM      9  C   UNL A   1      33.398  21.936  24.932  1.00  0.00     0.107 A 
ATOM     10  C   UNL A   1      32.818  22.890  25.762  1.00  0.00     0.033 A 
ATOM     11  C   UNL A   1      33.728  23.263  26.775  1.00  0.00     0.020 A 
ATOM     12  C   UNL A   1      34.884  22.571  26.539  1.00  0.00     0.087 A 
BRANCH   9  13
ATOM     13  C   UNL A   1      32.874  21.117  23.830  1.00  0.00     0.270 C 
ATOM     14  O   UNL A   1      32.589  21.655  22.756  1.00  0.00    -0.267 OA
BRANCH  13  15
ATOM     15  N   UNL A   1      32.618  19.743  23.968  1.00  0.00    -0.336 N 
ATOM     16  C   UNL A   1      32.198  19.034  22.764  1.00  0.00     0.147 C 
BRANCH  15  17
ATOM     17  C   UNL A   1      32.731  18.949  25.185  1.00  0.00     0.155 C 
BRANCH  17  18
ATOM     18  C   UNL A   1      33.242  17.537  25.014  1.00  0.00    -0.026 A 
ATOM     19  C   UNL A   1      34.586  17.233  24.761  1.00  0.00     0.025 A 
ATOM     20  C   UNL A   1      32.374  16.482  25.321  1.00  0.00     0.025 A 
ATOM     21  C   UNL A   1      35.016  15.930  24.951  1.00  0.00     0.111 A 
ATOM     22  C   UNL A   1      32.895  15.206  25.456  1.00  0.00     0.111 A 
ATOM     23  N   UNL A   1      34.201  14.913  25.299  1.00  0.00    -0.265 NA
ENDBRANCH  17  18
ENDBRANCH  15  17
ENDBRANCH  13  15
ENDBRANCH   9  13
ENDBRANCH   7   8
ENDBRANCH   4   7
ENDBRANCH   2   3
ENDBRANCH   1   2
BRANCH   1  24
ATOM     24  C   UNL A   1      40.832  21.256  27.152  1.00  0.00     0.002 C 
BRANCH  24  25
ATOM     25  C   UNL A   1      42.046  20.320  27.202  1.00  0.00     0.002 C 
BRANCH  25  26
ATOM     26  C   UNL A   1      42.216  19.405  25.977  1.00  0.00     0.021 C 
BRANCH  26  27
ATOM     27  C   UNL A   1      43.494  18.577  26.031  1.00  0.00     0.116 C 
BRANCH  27  28
ATOM     28  N   UNL A   1      44.205  18.677  24.765  1.00  0.00    -0.352 N 
ATOM     29  C   UNL A   1      44.533  19.775  24.031  1.00  0.00     0.251 C 
ATOM     30  H   UNL A   1      44.492  17.818  24.380  1.00  0.00     0.163 HD
ATOM     31  O   UNL A   1      44.762  19.643  22.819  1.00  0.00    -0.269 OA
BRANCH  29  32
ATOM     32  C   UNL A   1      44.648  21.106  24.643  1.00  0.00     0.039 A 
ATOM     33  C   UNL A   1      44.102  22.201  23.961  1.00  0.00     0.014 A 
ATOM     34  C   UNL A   1      45.398  21.295  25.809  1.00  0.00     0.014 A 
ATOM     35  C   UNL A   1      44.285  23.482  24.462  1.00  0.00     0.010 A 
ATOM     36  C   UNL A   1      45.551  22.564  26.336  1.00  0.00     0.010 A 
ATOM     37  C   UNL A   1      45.001  23.651  25.654  1.00  0.00    -0.014 A 
BRANCH  37  38
ATOM     38  C   UNL A   1      45.023  24.970  26.301  1.00  0.00     0.031 A 
ATOM     39  C   UNL A   1      43.575  25.462  26.545  1.00  0.00     0.074 A 
ATOM     40  C   UNL A   1      46.269  25.492  26.552  1.00  0.00     0.049 A 
ATOM     41  N   UNL A   1      43.131  26.667  26.684  1.00  0.00    -0.248 NA
ATOM     42  C   UNL A   1      42.439  24.488  26.593  1.00  0.00     0.031 C 
ATOM     43  C   UNL A   1      47.558  24.796  26.287  1.00  0.00     0.029 A 
ATOM     44  N   UNL A   1      46.731  26.681  27.078  1.00  0.00    -0.354 N 
ATOM     45  C   UNL A   1      41.752  26.609  27.000  1.00  0.00     0.074 A 
ATOM     46  C   UNL A   1      41.363  25.243  26.841  1.00  0.00     0.031 C 
ATOM     47  C   UNL A   1      48.619  25.597  26.553  1.00  0.00     0.029 A 
ATOM     48  C   UNL A   1      48.143  26.881  27.024  1.00  0.00     0.049 A 
ATOM     49  H   UNL A   1      46.124  27.351  27.467  1.00  0.00     0.167 HD
ATOM     50  C   UNL A   1      41.077  27.685  27.509  1.00  0.00     0.031 A 
ATOM     51  C   UNL A   1      48.858  28.021  27.295  1.00  0.00     0.031 A 
ATOM     52  C   UNL A   1      41.951  28.808  27.542  1.00  0.00     0.049 A 
ATOM     53  C   UNL A   1      47.873  28.951  27.849  1.00  0.00     0.074 A 
ATOM     54  C   UNL A   1      42.516  29.552  26.539  1.00  0.00     0.029 A 
ATOM     55  N   UNL A   1      42.681  28.954  28.697  1.00  0.00    -0.354 N 
ATOM     56  N   UNL A   1      47.371  28.871  29.040  1.00  0.00    -0.248 NA
ATOM     57  C   UNL A   1      47.364  30.028  26.991  1.00  0.00     0.031 C 
ATOM     58  C   UNL A   1      43.857  29.640  26.964  1.00  0.00     0.029 A 
ATOM     59  C   UNL A   1      43.953  29.268  28.310  1.00  0.00     0.049 A 
ATOM     60  H   UNL A   1      42.352  28.852  29.620  1.00  0.00     0.167 HD
ATOM     61  C   UNL A   1      46.216  29.591  28.898  1.00  0.00     0.074 A 
ATOM     62  C   UNL A   1      46.437  30.521  27.807  1.00  0.00     0.031 C 
ATOM     63  C   UNL A   1      45.034  29.002  29.220  1.00  0.00     0.031 A 
BRANCH  50  64
ATOM     64  C   UNL A   1      39.786  27.831  28.263  1.00  0.00    -0.014 A 
ATOM     65  C   UNL A   1      38.963  28.934  27.910  1.00  0.00     0.009 A 
ATOM     66  C   UNL A   1      39.531  27.211  29.488  1.00  0.00     0.009 A 
ATOM     67  C   UNL A   1      38.043  29.488  28.801  1.00  0.00     0.001 A 
ATOM     68  C   UNL A   1      38.573  27.743  30.367  1.00  0.00     0.001 A 
ATOM     69  C   UNL A   1      37.863  28.900  30.043  1.00  0.00     0.000 A 
ENDBRANCH  50  64
BRANCH  51  70
ATOM     70  C   UNL A   1      50.236  28.630  27.134  1.00  0.00    -0.014 A 
ATOM     71  C   UNL A   1      50.861  28.988  25.941  1.00  0.00     0.009 A 
ATOM     72  C   UNL A   1      50.929  29.023  28.323  1.00  0.00     0.009 A 
ATOM     73  C   UNL A   1      52.031  29.792  25.950  1.00  0.00     0.001 A 
ATOM     74  C   UNL A   1      52.039  29.870  28.339  1.00  0.00     0.001 A 
ATOM     75  C   UNL A   1      52.584  30.273  27.140  1.00  0.00     0.000 A 
ENDBRANCH  51  70
BRANCH  63  76
ATOM     76  C   UNL A   1      45.110  27.852  30.221  1.00  0.00    -0.014 A 
ATOM     77  C   UNL A   1      45.242  28.140  31.591  1.00  0.00     0.009 A 
ATOM     78  C   UNL A   1      45.173  26.494  29.854  1.00  0.00     0.009 A 
ATOM     79  C   UNL A   1      45.446  27.133  32.545  1.00  0.00     0.001 A 
ATOM     80  C   UNL A   1      45.378  25.480  30.807  1.00  0.00     0.001 A 
ATOM     81  C   UNL A   1      45.516  25.801  32.154  1.00  0.00     0.000 A 
ENDBRANCH  63  76
ENDBRANCH  37  38
ENDBRANCH  29  32
ENDBRANCH  27  28
ENDBRANCH  26  27
ENDBRANCH  25  26
ENDBRANCH  24  25
ENDBRANCH   1  24
TORSDOF 18
ENDMDL
MODEL 3
REMARK VINA RESULT:     -10.6      1.533      2.704
REMARK SMILES CN(Cc1ccncc1)C(=O)c1cccn1CC(=O)NCCCCCCNC(=O)c1ccc(-c2c3nc(c(-c4ccccc4)c4ccc([nH]4)c(-c4ccccc4)c4nc(c(-c5ccccc5)c5ccc2[nH]5)C=C4)C=C3)cc1
REMARK SMILES IDX 22 1 21 2 20 3 18 4 19 5 17 7 16 8 12 9 13 10 14 11 15 12
REMARK SMILES IDX 10 13 11 14 2 15 1 16 3 17 4 18 5 19 9 20 6 21 8 22 7 23
REMARK SMILES IDX 23 24 24 25 25 26 26 27 27 28 28 29 29 31 30 32 31 33 77 34
REMARK SMILES IDX 32 35 76 36 33 37 34 38 35 39 70 40 36 41 75 42 69 43 71 44
REMARK SMILES IDX 37 45 74 46 68 47 67 48 38 50 60 51 45 52 59 53 46 54 49 55
REMARK SMILES IDX 58 56 72 57 47 58 48 59 57 61 73 62 50 63 39 64 40 65 44 66
REMARK SMILES IDX 41 67 43 68 42 69 61 70 62 71 66 72 63 73 65 74 64 75 51 76
REMARK SMILES IDX 52 77 56 78 53 79 55 80 54 81
REMARK H PARENT 20 6 27 30 71 49 49 60
REMARK Flexibility Score: inf
ROOT
ATOM      1  C   UNL A   1      31.456  29.315  23.704  1.00  0.00     0.021 C 
ENDROOT
BRANCH   1   2
ATOM      2  C   UNL A   1      32.785  28.638  23.370  1.00  0.00     0.116 C 
BRANCH   2   3
ATOM      3  N   UNL A   1      32.636  27.660  22.315  1.00  0.00    -0.355 N 
ATOM      4  C   UNL A   1      33.010  26.345  22.311  1.00  0.00     0.239 C 
ATOM      5  O   UNL A   1      32.818  25.687  21.286  1.00  0.00    -0.273 OA
ATOM      6  H   UNL A   1      32.207  27.985  21.490  1.00  0.00     0.163 HD
BRANCH   4   7
ATOM      7  C   UNL A   1      33.608  25.717  23.559  1.00  0.00     0.222 C 
BRANCH   7   8
ATOM      8  N   UNL A   1      32.591  25.077  24.385  1.00  0.00    -0.334 N 
ATOM      9  C   UNL A   1      32.197  23.737  24.359  1.00  0.00     0.107 A 
ATOM     10  C   UNL A   1      31.029  23.709  25.116  1.00  0.00     0.033 A 
ATOM     11  C   UNL A   1      30.805  24.976  25.699  1.00  0.00     0.020 A 
ATOM     12  C   UNL A   1      31.812  25.793  25.264  1.00  0.00     0.087 A 
BRANCH   9  13
ATOM     13  C   UNL A   1      32.964  22.693  23.665  1.00  0.00     0.270 C 
ATOM     14  O   UNL A   1      32.838  22.558  22.444  1.00  0.00    -0.267 OA
BRANCH  13  15
ATOM     15  N   UNL A   1      33.794  21.787  24.347  1.00  0.00    -0.336 N 
ATOM     16  C   UNL A   1      35.230  22.023  24.256  1.00  0.00     0.147 C 
BRANCH  15  17
ATOM     17  C   UNL A   1      33.371  20.640  25.139  1.00  0.00     0.155 C 
BRANCH  17  18
ATOM     18  C   UNL A   1      33.263  19.325  24.402  1.00  0.00    -0.026 A 
ATOM     19  C   UNL A   1      32.394  19.119  23.324  1.00  0.00     0.025 A 
ATOM     20  C   UNL A   1      34.215  18.335  24.680  1.00  0.00     0.025 A 
ATOM     21  C   UNL A   1      32.598  18.016  22.510  1.00  0.00     0.111 A 
ATOM     22  C   UNL A   1      34.320  17.251  23.825  1.00  0.00     0.111 A 
ATOM     23  N   UNL A   1      33.547  17.083  22.734  1.00  0.00    -0.265 NA
ENDBRANCH  17  18
ENDBRANCH  15  17
ENDBRANCH  13  15
ENDBRANCH   9  13
ENDBRANCH   7   8
ENDBRANCH   4   7
ENDBRANCH   2   3
ENDBRANCH   1   2
BRANCH   1  24
ATOM     24  C   UNL A   1      31.186  29.413  25.206  1.00  0.00     0.002 C 
BRANCH  24  25
ATOM     25  C   UNL A   1      32.373  29.933  26.027  1.00  0.00     0.002 C 
BRANCH  25  26
ATOM     26  C   UNL A   1      32.881  28.974  27.117  1.00  0.00     0.021 C 
BRANCH  26  27
ATOM     27  C   UNL A   1      34.387  29.068  27.331  1.00  0.00     0.116 C 
BRANCH  27  28
ATOM     28  N   UNL A   1      34.700  30.220  28.163  1.00  0.00    -0.352 N 
ATOM     29  C   UNL A   1      35.785  30.463  28.948  1.00  0.00     0.251 C 
ATOM     30  H   UNL A   1      34.022  30.933  28.158  1.00  0.00     0.163 HD
ATOM     31  O   UNL A   1      35.687  31.282  29.875  1.00  0.00    -0.269 OA
BRANCH  29  32
ATOM     32  C   UNL A   1      37.074  29.800  28.708  1.00  0.00     0.039 A 
ATOM     33  C   UNL A   1      37.715  29.183  29.790  1.00  0.00     0.014 A 
ATOM     34  C   UNL A   1      37.709  29.897  27.465  1.00  0.00     0.014 A 
ATOM     35  C   UNL A   1      38.980  28.640  29.618  1.00  0.00     0.010 A 
ATOM     36  C   UNL A   1      38.952  29.324  27.275  1.00  0.00     0.010 A 
ATOM     37  C   UNL A   1      39.584  28.706  28.355  1.00  0.00    -0.014 A 
BRANCH  37  38
ATOM     38  C   UNL A   1      40.824  27.957  28.109  1.00  0.00     0.031 A 
ATOM     39  C   UNL A   1      42.032  28.926  28.094  1.00  0.00     0.074 A 
ATOM     40  C   UNL A   1      40.681  26.601  27.943  1.00  0.00     0.049 A 
ATOM     41  N   UNL A   1      43.185  28.791  27.526  1.00  0.00    -0.248 NA
ATOM     42  C   UNL A   1      41.942  30.263  28.760  1.00  0.00     0.031 C 
ATOM     43  C   UNL A   1      39.398  25.855  28.067  1.00  0.00     0.029 A 
ATOM     44  N   UNL A   1      41.545  25.565  27.651  1.00  0.00    -0.354 N 
ATOM     45  C   UNL A   1      44.000  29.891  27.889  1.00  0.00     0.074 A 
ATOM     46  C   UNL A   1      43.149  30.810  28.576  1.00  0.00     0.031 C 
ATOM     47  C   UNL A   1      39.555  24.544  27.760  1.00  0.00     0.029 A 
ATOM     48  C   UNL A   1      40.940  24.294  27.417  1.00  0.00     0.049 A 
ATOM     49  H   UNL A   1      42.519  25.695  27.607  1.00  0.00     0.167 HD
ATOM     50  C   UNL A   1      45.356  29.881  27.709  1.00  0.00     0.031 A 
ATOM     51  C   UNL A   1      41.517  23.146  26.935  1.00  0.00     0.031 A 
ATOM     52  C   UNL A   1      45.726  28.684  27.035  1.00  0.00     0.049 A 
ATOM     53  C   UNL A   1      42.950  23.444  26.892  1.00  0.00     0.074 A 
ATOM     54  C   UNL A   1      45.486  28.245  25.758  1.00  0.00     0.029 A 
ATOM     55  N   UNL A   1      46.012  27.613  27.848  1.00  0.00    -0.354 N 
ATOM     56  N   UNL A   1      43.722  23.506  27.931  1.00  0.00    -0.248 NA
ATOM     57  C   UNL A   1      43.565  23.749  25.595  1.00  0.00     0.031 C 
ATOM     58  C   UNL A   1      45.068  26.918  25.981  1.00  0.00     0.029 A 
ATOM     59  C   UNL A   1      45.400  26.529  27.285  1.00  0.00     0.049 A 
ATOM     60  H   UNL A   1      46.550  27.626  28.672  1.00  0.00     0.167 HD
ATOM     61  C   UNL A   1      44.756  24.265  27.455  1.00  0.00     0.074 A 
ATOM     62  C   UNL A   1      44.783  24.079  26.017  1.00  0.00     0.031 C 
ATOM     63  C   UNL A   1      45.095  25.401  28.121  1.00  0.00     0.031 A 
BRANCH  50  64
ATOM     64  C   UNL A   1      46.482  30.680  28.301  1.00  0.00    -0.014 A 
ATOM     65  C   UNL A   1      47.457  31.178  27.395  1.00  0.00     0.009 A 
ATOM     66  C   UNL A   1      46.829  30.642  29.653  1.00  0.00     0.009 A 
ATOM     67  C   UNL A   1      48.760  31.472  27.795  1.00  0.00     0.001 A 
ATOM     68  C   UNL A   1      48.130  30.981  30.063  1.00  0.00     0.001 A 
ATOM     69  C   UNL A   1      49.102  31.353  29.133  1.00  0.00     0.000 A 
ENDBRANCH  50  64
BRANCH  51  70
ATOM     70  C   UNL A   1      41.170  21.780  26.378  1.00  0.00    -0.014 A 
ATOM     71  C   UNL A   1      41.999  20.660  26.325  1.00  0.00     0.009 A 
ATOM     72  C   UNL A   1      39.811  21.547  25.995  1.00  0.00     0.009 A 
ATOM     73  C   UNL A   1      41.465  19.379  26.030  1.00  0.00     0.001 A 
ATOM     74  C   UNL A   1      39.267  20.281  25.771  1.00  0.00     0.001 A 
ATOM     75  C   UNL A   1      40.100  19.184  25.806  1.00  0.00     0.000 A 
ENDBRANCH  51  70
BRANCH  63  76
ATOM     76  C   UNL A   1      44.718  25.447  29.599  1.00  0.00    -0.014 A 
ATOM     77  C   UNL A   1      44.054  26.578  30.106  1.00  0.00     0.009 A 
ATOM     78  C   UNL A   1      45.093  24.464  30.536  1.00  0.00     0.009 A 
ATOM     79  C   UNL A   1      43.796  26.736  31.475  1.00  0.00     0.001 A 
ATOM     80  C   UNL A   1      44.837  24.618  31.911  1.00  0.00     0.001 A 
ATOM     81  C   UNL A   1      44.189  25.756  32.380  1.00  0.00     0.000 A 
ENDBRANCH  63  76
ENDBRANCH  37  38
ENDBRANCH  29  32
ENDBRANCH  27  28
ENDBRANCH  26  27
ENDBRANCH  25  26
ENDBRANCH  24  25
ENDBRANCH   1  24
TORSDOF 18
ENDMDL
