MODEL 1
REMARK VINA RESULT:     -10.3      0.000      0.000
REMARK SMILES Cn1c(SCC(=O)NCCCCCCNC(=O)c2ccc(-c3c4nc(c(-c5ccccc5)c5ccc([nH]5)c(-c5ccccc5)c5nc(c(-c6ccccc6)c6ccc3[nH]6)C=C5)C=C4)cc2)nnc1-c1ccccc1Br
REMARK SMILES IDX 11 1 10 2 9 3 8 4 6 5 7 6 5 8 4 9 3 10 1 11 2 12 68 13 66 14
REMARK SMILES IDX 67 15 69 16 70 17 74 18 71 19 73 20 75 21 72 22 12 23 13 24
REMARK SMILES IDX 14 25 15 26 16 27 17 29 18 30 19 31 65 32 20 33 64 34 21 35
REMARK SMILES IDX 22 36 23 37 58 38 24 39 63 40 57 41 59 42 25 43 62 44 56 45
REMARK SMILES IDX 55 46 26 48 48 49 33 50 47 51 34 52 37 53 46 54 60 55 35 56
REMARK SMILES IDX 36 57 45 59 61 60 38 61 27 62 28 63 32 64 29 65 31 66 30 67
REMARK SMILES IDX 49 68 50 69 54 70 51 71 53 72 52 73 39 74 40 75 44 76 41 77
REMARK SMILES IDX 43 78 42 79
REMARK H PARENT 8 7 15 28 59 47 37 58
REMARK Flexibility Score: inf
ROOT
ATOM      1  C   UNL A   1      33.659  30.497  27.392  1.00  0.00     0.002 C 
ENDROOT
BRANCH   1   2
ATOM      2  C   UNL A   1      34.407  29.229  26.953  1.00  0.00     0.021 C 
BRANCH   2   3
ATOM      3  C   UNL A   1      33.627  28.337  25.988  1.00  0.00     0.116 C 
BRANCH   3   4
ATOM      4  N   UNL A   1      34.107  28.485  24.630  1.00  0.00    -0.355 N 
ATOM      5  C   UNL A   1      33.416  28.589  23.467  1.00  0.00     0.230 C 
ATOM      6  O   UNL A   1      34.066  28.776  22.435  1.00  0.00    -0.274 OA
ATOM      7  H   UNL A   1      35.086  28.514  24.536  1.00  0.00     0.163 HD
BRANCH   5   8
ATOM      8  C   UNL A   1      31.906  28.594  23.427  1.00  0.00     0.178 C 
BRANCH   8   9
ATOM      9  S   UNL A   1      31.106  27.379  22.392  1.00  0.00    -0.076 SA
BRANCH   9  10
ATOM     10  C   UNL A   1      31.894  25.847  22.409  1.00  0.00     0.191 A 
ATOM     11  C   UNL A   1      31.130  24.685  24.543  1.00  0.00     0.154 C 
ATOM     12  N   UNL A   1      31.863  24.822  23.314  1.00  0.00    -0.305 N 
ATOM     13  C   UNL A   1      32.760  23.875  22.842  1.00  0.00     0.165 A 
ATOM     14  N   UNL A   1      32.776  25.560  21.474  1.00  0.00    -0.123 NA
ATOM     15  N   UNL A   1      33.328  24.340  21.750  1.00  0.00    -0.129 NA
BRANCH  13  16
ATOM     16  C   UNL A   1      33.081  22.610  23.495  1.00  0.00     0.034 A 
ATOM     17  C   UNL A   1      32.287  21.490  23.194  1.00  0.00     0.013 A 
ATOM     18  C   UNL A   1      34.156  22.457  24.385  1.00  0.00     0.029 A 
ATOM     19  C   UNL A   1      32.590  20.237  23.728  1.00  0.00     0.001 A 
ATOM     20  C   UNL A   1      34.461  21.198  24.912  1.00  0.00     0.016 A 
ATOM     21  Br  UNL A   1      35.234  23.922  24.942  1.00  0.00    -0.050 Br
ATOM     22  C   UNL A   1      33.684  20.089  24.576  1.00  0.00     0.001 A 
ENDBRANCH  13  16
ENDBRANCH   9  10
ENDBRANCH   8   9
ENDBRANCH   5   8
ENDBRANCH   3   4
ENDBRANCH   2   3
ENDBRANCH   1   2
BRANCH   1  23
ATOM     23  C   UNL A   1      32.166  30.532  27.051  1.00  0.00     0.002 C 
BRANCH  23  24
ATOM     24  C   UNL A   1      31.544  31.927  26.994  1.00  0.00     0.021 C 
BRANCH  24  25
ATOM     25  C   UNL A   1      32.535  33.055  26.735  1.00  0.00     0.116 C 
BRANCH  25  26
ATOM     26  N   UNL A   1      32.364  34.162  27.663  1.00  0.00    -0.352 N 
ATOM     27  C   UNL A   1      33.089  34.476  28.784  1.00  0.00     0.251 C 
ATOM     28  H   UNL A   1      31.620  34.774  27.456  1.00  0.00     0.163 HD
ATOM     29  O   UNL A   1      32.688  35.342  29.559  1.00  0.00    -0.269 OA
BRANCH  27  30
ATOM     30  C   UNL A   1      34.346  33.757  29.075  1.00  0.00     0.039 A 
ATOM     31  C   UNL A   1      35.470  34.012  28.285  1.00  0.00     0.014 A 
ATOM     32  C   UNL A   1      34.421  32.833  30.122  1.00  0.00     0.014 A 
ATOM     33  C   UNL A   1      36.684  33.389  28.585  1.00  0.00     0.010 A 
ATOM     34  C   UNL A   1      35.648  32.274  30.468  1.00  0.00     0.010 A 
ATOM     35  C   UNL A   1      36.791  32.543  29.702  1.00  0.00    -0.014 A 
BRANCH  35  36
ATOM     36  C   UNL A   1      38.093  31.941  30.086  1.00  0.00     0.031 A 
ATOM     37  C   UNL A   1      39.035  32.683  30.995  1.00  0.00     0.074 A 
ATOM     38  C   UNL A   1      38.455  30.751  29.569  1.00  0.00     0.049 A 
ATOM     39  N   UNL A   1      40.231  32.339  31.402  1.00  0.00    -0.248 NA
ATOM     40  C   UNL A   1      38.586  33.994  31.491  1.00  0.00     0.031 C 
ATOM     41  C   UNL A   1      37.651  29.948  28.646  1.00  0.00     0.029 A 
ATOM     42  N   UNL A   1      39.599  30.011  29.742  1.00  0.00    -0.354 N 
ATOM     43  C   UNL A   1      40.681  33.394  32.186  1.00  0.00     0.074 A 
ATOM     44  C   UNL A   1      39.654  34.411  32.156  1.00  0.00     0.031 C 
ATOM     45  C   UNL A   1      38.312  28.816  28.357  1.00  0.00     0.029 A 
ATOM     46  C   UNL A   1      39.604  28.832  29.035  1.00  0.00     0.049 A 
ATOM     47  H   UNL A   1      40.345  30.298  30.316  1.00  0.00     0.167 HD
ATOM     48  C   UNL A   1      41.837  33.500  32.884  1.00  0.00     0.031 A 
ATOM     49  C   UNL A   1      40.547  27.876  28.936  1.00  0.00     0.031 A 
ATOM     50  C   UNL A   1      42.859  32.487  32.916  1.00  0.00     0.049 A 
ATOM     51  C   UNL A   1      41.832  28.028  29.700  1.00  0.00     0.074 A 
ATOM     52  C   UNL A   1      44.039  32.477  33.638  1.00  0.00     0.029 A 
ATOM     53  N   UNL A   1      42.826  31.309  32.187  1.00  0.00    -0.354 N 
ATOM     54  N   UNL A   1      42.208  28.997  30.499  1.00  0.00    -0.248 NA
ATOM     55  C   UNL A   1      42.817  26.948  29.559  1.00  0.00     0.031 C 
ATOM     56  C   UNL A   1      44.750  31.322  33.297  1.00  0.00     0.029 A 
ATOM     57  C   UNL A   1      43.981  30.578  32.416  1.00  0.00     0.049 A 
ATOM     58  H   UNL A   1      42.091  31.031  31.592  1.00  0.00     0.167 HD
ATOM     59  C   UNL A   1      43.460  28.629  30.977  1.00  0.00     0.074 A 
ATOM     60  C   UNL A   1      43.769  27.341  30.394  1.00  0.00     0.031 C 
ATOM     61  C   UNL A   1      44.278  29.298  31.826  1.00  0.00     0.031 A 
BRANCH  48  62
ATOM     62  C   UNL A   1      42.065  34.769  33.661  1.00  0.00    -0.014 A 
ATOM     63  C   UNL A   1      41.595  34.915  34.976  1.00  0.00     0.009 A 
ATOM     64  C   UNL A   1      42.794  35.819  33.083  1.00  0.00     0.009 A 
ATOM     65  C   UNL A   1      41.814  36.102  35.679  1.00  0.00     0.001 A 
ATOM     66  C   UNL A   1      43.040  36.992  33.800  1.00  0.00     0.001 A 
ATOM     67  C   UNL A   1      42.541  37.137  35.093  1.00  0.00     0.000 A 
ENDBRANCH  48  62
BRANCH  49  68
ATOM     68  C   UNL A   1      40.307  26.680  28.084  1.00  0.00    -0.014 A 
ATOM     69  C   UNL A   1      39.556  25.597  28.566  1.00  0.00     0.009 A 
ATOM     70  C   UNL A   1      40.835  26.613  26.785  1.00  0.00     0.009 A 
ATOM     71  C   UNL A   1      39.364  24.461  27.777  1.00  0.00     0.001 A 
ATOM     72  C   UNL A   1      40.615  25.489  25.985  1.00  0.00     0.001 A 
ATOM     73  C   UNL A   1      39.889  24.410  26.486  1.00  0.00     0.000 A 
ENDBRANCH  49  68
BRANCH  61  74
ATOM     74  C   UNL A   1      45.571  28.632  32.207  1.00  0.00    -0.014 A 
ATOM     75  C   UNL A   1      46.754  28.859  31.486  1.00  0.00     0.009 A 
ATOM     76  C   UNL A   1      45.612  27.794  33.333  1.00  0.00     0.009 A 
ATOM     77  C   UNL A   1      47.942  28.231  31.864  1.00  0.00     0.001 A 
ATOM     78  C   UNL A   1      46.809  27.195  33.728  1.00  0.00     0.001 A 
ATOM     79  C   UNL A   1      47.970  27.405  32.987  1.00  0.00     0.000 A 
ENDBRANCH  61  74
ENDBRANCH  35  36
ENDBRANCH  27  30
ENDBRANCH  25  26
ENDBRANCH  24  25
ENDBRANCH  23  24
ENDBRANCH   1  23
TORSDOF 16
ENDMDL
MODEL 2
REMARK VINA RESULT:     -10.1      2.776      3.680
REMARK SMILES Cn1c(SCC(=O)NCCCCCCNC(=O)c2ccc(-c3c4nc(c(-c5ccccc5)c5ccc([nH]5)c(-c5ccccc5)c5nc(c(-c6ccccc6)c6ccc3[nH]6)C=C5)C=C4)cc2)nnc1-c1ccccc1Br
REMARK SMILES IDX 11 1 10 2 9 3 8 4 6 5 7 6 5 8 4 9 3 10 1 11 2 12 68 13 66 14
REMARK SMILES IDX 67 15 69 16 70 17 74 18 71 19 73 20 75 21 72 22 12 23 13 24
REMARK SMILES IDX 14 25 15 26 16 27 17 29 18 30 19 31 65 32 20 33 64 34 21 35
REMARK SMILES IDX 22 36 23 37 58 38 24 39 63 40 57 41 59 42 25 43 62 44 56 45
REMARK SMILES IDX 55 46 26 48 48 49 33 50 47 51 34 52 37 53 46 54 60 55 35 56
REMARK SMILES IDX 36 57 45 59 61 60 38 61 27 62 28 63 32 64 29 65 31 66 30 67
REMARK SMILES IDX 49 68 50 69 54 70 51 71 53 72 52 73 39 74 40 75 44 76 41 77
REMARK SMILES IDX 43 78 42 79
REMARK H PARENT 8 7 15 28 59 47 37 58
REMARK Flexibility Score: inf
ROOT
ATOM      1  C   UNL A   1      34.437  32.445  29.216  1.00  0.00     0.002 C 
ENDROOT
BRANCH   1   2
ATOM      2  C   UNL A   1      34.655  31.346  28.166  1.00  0.00     0.021 C 
BRANCH   2   3
ATOM      3  C   UNL A   1      33.462  31.110  27.240  1.00  0.00     0.116 C 
BRANCH   3   4
ATOM      4  N   UNL A   1      32.777  29.877  27.567  1.00  0.00    -0.355 N 
ATOM      5  C   UNL A   1      32.541  28.782  26.803  1.00  0.00     0.230 C 
ATOM      6  O   UNL A   1      31.985  27.821  27.344  1.00  0.00    -0.274 OA
ATOM      7  H   UNL A   1      32.429  29.826  28.486  1.00  0.00     0.163 HD
BRANCH   5   8
ATOM      8  C   UNL A   1      33.031  28.674  25.378  1.00  0.00     0.178 C 
BRANCH   8   9
ATOM      9  S   UNL A   1      32.147  27.574  24.284  1.00  0.00    -0.076 SA
BRANCH   9  10
ATOM     10  C   UNL A   1      33.049  26.168  23.860  1.00  0.00     0.191 A 
ATOM     11  C   UNL A   1      33.619  25.009  26.056  1.00  0.00     0.154 C 
ATOM     12  N   UNL A   1      33.618  25.190  24.630  1.00  0.00    -0.305 N 
ATOM     13  C   UNL A   1      34.286  24.356  23.746  1.00  0.00     0.165 A 
ATOM     14  N   UNL A   1      33.381  25.964  22.603  1.00  0.00    -0.123 NA
ATOM     15  N   UNL A   1      34.165  24.845  22.531  1.00  0.00    -0.129 NA
BRANCH  13  16
ATOM     16  C   UNL A   1      35.065  23.178  24.115  1.00  0.00     0.034 A 
ATOM     17  C   UNL A   1      36.450  23.333  24.295  1.00  0.00     0.013 A 
ATOM     18  C   UNL A   1      34.494  21.913  24.321  1.00  0.00     0.029 A 
ATOM     19  C   UNL A   1      37.238  22.262  24.720  1.00  0.00     0.001 A 
ATOM     20  C   UNL A   1      35.285  20.844  24.756  1.00  0.00     0.016 A 
ATOM     21  Br  UNL A   1      32.650  21.564  24.011  1.00  0.00    -0.050 Br
ATOM     22  C   UNL A   1      36.653  21.022  24.963  1.00  0.00     0.001 A 
ENDBRANCH  13  16
ENDBRANCH   9  10
ENDBRANCH   8   9
ENDBRANCH   5   8
ENDBRANCH   3   4
ENDBRANCH   2   3
ENDBRANCH   1   2
BRANCH   1  23
ATOM     23  C   UNL A   1      34.517  33.882  28.691  1.00  0.00     0.002 C 
BRANCH  23  24
ATOM     24  C   UNL A   1      33.238  34.705  28.851  1.00  0.00     0.021 C 
BRANCH  24  25
ATOM     25  C   UNL A   1      33.425  36.039  29.565  1.00  0.00     0.116 C 
BRANCH  25  26
ATOM     26  N   UNL A   1      32.507  36.200  30.681  1.00  0.00    -0.352 N 
ATOM     27  C   UNL A   1      32.573  35.670  31.944  1.00  0.00     0.251 C 
ATOM     28  H   UNL A   1      31.725  36.772  30.504  1.00  0.00     0.163 HD
ATOM     29  O   UNL A   1      31.610  35.756  32.703  1.00  0.00    -0.269 OA
BRANCH  27  30
ATOM     30  C   UNL A   1      33.797  34.970  32.387  1.00  0.00     0.039 A 
ATOM     31  C   UNL A   1      33.693  33.657  32.854  1.00  0.00     0.014 A 
ATOM     32  C   UNL A   1      35.043  35.602  32.345  1.00  0.00     0.014 A 
ATOM     33  C   UNL A   1      34.846  32.958  33.218  1.00  0.00     0.010 A 
ATOM     34  C   UNL A   1      36.197  34.879  32.631  1.00  0.00     0.010 A 
ATOM     35  C   UNL A   1      36.112  33.552  33.074  1.00  0.00    -0.014 A 
BRANCH  35  36
ATOM     36  C   UNL A   1      37.353  32.794  33.373  1.00  0.00     0.031 A 
ATOM     37  C   UNL A   1      38.108  33.045  34.650  1.00  0.00     0.074 A 
ATOM     38  C   UNL A   1      37.835  31.920  32.468  1.00  0.00     0.049 A 
ATOM     39  N   UNL A   1      39.232  32.514  35.061  1.00  0.00    -0.248 NA
ATOM     40  C   UNL A   1      37.540  34.040  35.574  1.00  0.00     0.031 C 
ATOM     41  C   UNL A   1      37.219  31.614  31.175  1.00  0.00     0.029 A 
ATOM     42  N   UNL A   1      38.959  31.133  32.495  1.00  0.00    -0.354 N 
ATOM     43  C   UNL A   1      39.512  33.120  36.280  1.00  0.00     0.074 A 
ATOM     44  C   UNL A   1      38.470  34.095  36.517  1.00  0.00     0.031 C 
ATOM     45  C   UNL A   1      37.957  30.685  30.546  1.00  0.00     0.029 A 
ATOM     46  C   UNL A   1      39.119  30.363  31.367  1.00  0.00     0.049 A 
ATOM     47  H   UNL A   1      39.591  31.120  33.249  1.00  0.00     0.167 HD
ATOM     48  C   UNL A   1      40.534  32.876  37.134  1.00  0.00     0.031 A 
ATOM     49  C   UNL A   1      40.097  29.502  31.027  1.00  0.00     0.031 A 
ATOM     50  C   UNL A   1      41.571  31.906  36.900  1.00  0.00     0.049 A 
ATOM     51  C   UNL A   1      41.234  29.267  31.981  1.00  0.00     0.074 A 
ATOM     52  C   UNL A   1      42.617  31.546  37.731  1.00  0.00     0.029 A 
ATOM     53  N   UNL A   1      41.697  31.148  35.746  1.00  0.00    -0.354 N 
ATOM     54  N   UNL A   1      41.442  29.792  33.164  1.00  0.00    -0.248 NA
ATOM     55  C   UNL A   1      42.265  28.310  31.558  1.00  0.00     0.031 C 
ATOM     56  C   UNL A   1      43.412  30.616  37.054  1.00  0.00     0.029 A 
ATOM     57  C   UNL A   1      42.823  30.345  35.829  1.00  0.00     0.049 A 
ATOM     58  H   UNL A   1      41.079  31.177  34.980  1.00  0.00     0.167 HD
ATOM     59  C   UNL A   1      42.610  29.208  33.638  1.00  0.00     0.074 A 
ATOM     60  C   UNL A   1      43.054  28.275  32.623  1.00  0.00     0.031 C 
ATOM     61  C   UNL A   1      43.255  29.423  34.811  1.00  0.00     0.031 A 
BRANCH  48  62
ATOM     62  C   UNL A   1      40.590  33.688  38.401  1.00  0.00    -0.014 A 
ATOM     63  C   UNL A   1      41.275  34.913  38.455  1.00  0.00     0.009 A 
ATOM     64  C   UNL A   1      39.915  33.239  39.547  1.00  0.00     0.009 A 
ATOM     65  C   UNL A   1      41.317  35.649  39.642  1.00  0.00     0.001 A 
ATOM     66  C   UNL A   1      39.932  33.993  40.722  1.00  0.00     0.001 A 
ATOM     67  C   UNL A   1      40.641  35.191  40.772  1.00  0.00     0.000 A 
ENDBRANCH  48  62
BRANCH  49  68
ATOM     68  C   UNL A   1      40.040  28.789  29.722  1.00  0.00    -0.014 A 
ATOM     69  C   UNL A   1      40.536  29.392  28.556  1.00  0.00     0.009 A 
ATOM     70  C   UNL A   1      39.481  27.504  29.635  1.00  0.00     0.009 A 
ATOM     71  C   UNL A   1      40.448  28.736  27.326  1.00  0.00     0.001 A 
ATOM     72  C   UNL A   1      39.424  26.836  28.410  1.00  0.00     0.001 A 
ATOM     73  C   UNL A   1      39.897  27.457  27.255  1.00  0.00     0.000 A 
ENDBRANCH  49  68
BRANCH  61  74
ATOM     74  C   UNL A   1      44.490  28.608  35.078  1.00  0.00    -0.014 A 
ATOM     75  C   UNL A   1      45.763  29.055  34.690  1.00  0.00     0.009 A 
ATOM     76  C   UNL A   1      44.380  27.390  35.768  1.00  0.00     0.009 A 
ATOM     77  C   UNL A   1      46.894  28.281  34.955  1.00  0.00     0.001 A 
ATOM     78  C   UNL A   1      45.515  26.634  36.061  1.00  0.00     0.001 A 
ATOM     79  C   UNL A   1      46.770  27.075  35.645  1.00  0.00     0.000 A 
ENDBRANCH  61  74
ENDBRANCH  35  36
ENDBRANCH  27  30
ENDBRANCH  25  26
ENDBRANCH  24  25
ENDBRANCH  23  24
ENDBRANCH   1  23
TORSDOF 16
ENDMDL
MODEL 3
REMARK VINA RESULT:     -10.1      1.116      6.044
REMARK SMILES Cn1c(SCC(=O)NCCCCCCNC(=O)c2ccc(-c3c4nc(c(-c5ccccc5)c5ccc([nH]5)c(-c5ccccc5)c5nc(c(-c6ccccc6)c6ccc3[nH]6)C=C5)C=C4)cc2)nnc1-c1ccccc1Br
REMARK SMILES IDX 11 1 10 2 9 3 8 4 6 5 7 6 5 8 4 9 3 10 1 11 2 12 68 13 66 14
REMARK SMILES IDX 67 15 69 16 70 17 74 18 71 19 73 20 75 21 72 22 12 23 13 24
REMARK SMILES IDX 14 25 15 26 16 27 17 29 18 30 19 31 65 32 20 33 64 34 21 35
REMARK SMILES IDX 22 36 23 37 58 38 24 39 63 40 57 41 59 42 25 43 62 44 56 45
REMARK SMILES IDX 55 46 26 48 48 49 33 50 47 51 34 52 37 53 46 54 60 55 35 56
REMARK SMILES IDX 36 57 45 59 61 60 38 61 27 62 28 63 32 64 29 65 31 66 30 67
REMARK SMILES IDX 49 68 50 69 54 70 51 71 53 72 52 73 39 74 40 75 44 76 41 77
REMARK SMILES IDX 43 78 42 79
REMARK H PARENT 8 7 15 28 59 47 37 58
REMARK Flexibility Score: inf
ROOT
ATOM      1  C   UNL A   1      32.194  29.233  27.286  1.00  0.00     0.002 C 
ENDROOT
BRANCH   1   2
ATOM      2  C   UNL A   1      31.342  27.954  27.314  1.00  0.00     0.021 C 
BRANCH   2   3
ATOM      3  C   UNL A   1      31.386  27.137  26.023  1.00  0.00     0.116 C 
BRANCH   3   4
ATOM      4  N   UNL A   1      32.690  27.210  25.398  1.00  0.00    -0.355 N 
ATOM      5  C   UNL A   1      33.032  27.559  24.132  1.00  0.00     0.230 C 
ATOM      6  O   UNL A   1      34.235  27.605  23.861  1.00  0.00    -0.274 OA
ATOM      7  H   UNL A   1      33.445  26.969  25.981  1.00  0.00     0.163 HD
BRANCH   5   8
ATOM      8  C   UNL A   1      32.005  27.987  23.110  1.00  0.00     0.178 C 
BRANCH   8   9
ATOM      9  S   UNL A   1      31.240  26.709  22.125  1.00  0.00    -0.076 SA
BRANCH   9  10
ATOM     10  C   UNL A   1      32.032  25.185  22.257  1.00  0.00     0.191 A 
ATOM     11  C   UNL A   1      30.957  24.000  24.239  1.00  0.00     0.154 C 
ATOM     12  N   UNL A   1      31.871  24.152  23.140  1.00  0.00    -0.305 N 
ATOM     13  C   UNL A   1      32.840  23.217  22.809  1.00  0.00     0.165 A 
ATOM     14  N   UNL A   1      33.052  24.912  21.469  1.00  0.00    -0.123 NA
ATOM     15  N   UNL A   1      33.567  23.695  21.822  1.00  0.00    -0.129 NA
BRANCH  13  16
ATOM     16  C   UNL A   1      33.069  21.951  23.498  1.00  0.00     0.034 A 
ATOM     17  C   UNL A   1      32.315  20.835  23.096  1.00  0.00     0.013 A 
ATOM     18  C   UNL A   1      34.020  21.793  24.518  1.00  0.00     0.029 A 
ATOM     19  C   UNL A   1      32.541  19.580  23.664  1.00  0.00     0.001 A 
ATOM     20  C   UNL A   1      34.249  20.533  25.080  1.00  0.00     0.016 A 
ATOM     21  Br  UNL A   1      35.024  23.253  25.210  1.00  0.00    -0.050 Br
ATOM     22  C   UNL A   1      33.516  19.427  24.646  1.00  0.00     0.001 A 
ENDBRANCH  13  16
ENDBRANCH   9  10
ENDBRANCH   8   9
ENDBRANCH   5   8
ENDBRANCH   3   4
ENDBRANCH   2   3
ENDBRANCH   1   2
BRANCH   1  23
ATOM     23  C   UNL A   1      31.743  30.302  26.286  1.00  0.00     0.002 C 
BRANCH  23  24
ATOM     24  C   UNL A   1      31.518  31.694  26.879  1.00  0.00     0.021 C 
BRANCH  24  25
ATOM     25  C   UNL A   1      32.793  32.474  27.172  1.00  0.00     0.116 C 
BRANCH  25  26
ATOM     26  N   UNL A   1      32.519  33.833  27.612  1.00  0.00    -0.352 N 
ATOM     27  C   UNL A   1      33.161  34.585  28.562  1.00  0.00     0.251 C 
ATOM     28  H   UNL A   1      31.763  34.276  27.162  1.00  0.00     0.163 HD
ATOM     29  O   UNL A   1      32.676  35.649  28.941  1.00  0.00    -0.269 OA
BRANCH  27  30
ATOM     30  C   UNL A   1      34.428  34.105  29.151  1.00  0.00     0.039 A 
ATOM     31  C   UNL A   1      34.382  33.315  30.303  1.00  0.00     0.014 A 
ATOM     32  C   UNL A   1      35.659  34.430  28.573  1.00  0.00     0.014 A 
ATOM     33  C   UNL A   1      35.564  32.800  30.837  1.00  0.00     0.010 A 
ATOM     34  C   UNL A   1      36.828  33.851  29.060  1.00  0.00     0.010 A 
ATOM     35  C   UNL A   1      36.794  33.034  30.198  1.00  0.00    -0.014 A 
BRANCH  35  36
ATOM     36  C   UNL A   1      38.050  32.422  30.703  1.00  0.00     0.031 A 
ATOM     37  C   UNL A   1      38.566  31.142  30.104  1.00  0.00     0.074 A 
ATOM     38  C   UNL A   1      38.694  32.986  31.743  1.00  0.00     0.049 A 
ATOM     39  N   UNL A   1      39.616  30.438  30.444  1.00  0.00    -0.248 NA
ATOM     40  C   UNL A   1      37.788  30.565  28.995  1.00  0.00     0.031 C 
ATOM     41  C   UNL A   1      38.277  34.205  32.438  1.00  0.00     0.029 A 
ATOM     42  N   UNL A   1      39.837  32.604  32.400  1.00  0.00    -0.354 N 
ATOM     43  C   UNL A   1      39.616  29.331  29.603  1.00  0.00     0.074 A 
ATOM     44  C   UNL A   1      38.434  29.429  28.775  1.00  0.00     0.031 C 
ATOM     45  C   UNL A   1      39.165  34.485  33.405  1.00  0.00     0.029 A 
ATOM     46  C   UNL A   1      40.188  33.446  33.429  1.00  0.00     0.049 A 
ATOM     47  H   UNL A   1      40.356  31.803  32.159  1.00  0.00     0.167 HD
ATOM     48  C   UNL A   1      40.525  28.331  29.516  1.00  0.00     0.031 A 
ATOM     49  C   UNL A   1      41.213  33.382  34.300  1.00  0.00     0.031 A 
ATOM     50  C   UNL A   1      41.702  28.233  30.339  1.00  0.00     0.049 A 
ATOM     51  C   UNL A   1      42.195  32.249  34.199  1.00  0.00     0.074 A 
ATOM     52  C   UNL A   1      42.712  27.289  30.288  1.00  0.00     0.029 A 
ATOM     53  N   UNL A   1      42.020  29.105  31.368  1.00  0.00    -0.354 N 
ATOM     54  N   UNL A   1      42.222  31.252  33.348  1.00  0.00    -0.248 NA
ATOM     55  C   UNL A   1      43.296  32.240  35.172  1.00  0.00     0.031 C 
ATOM     56  C   UNL A   1      43.609  27.554  31.328  1.00  0.00     0.029 A 
ATOM     57  C   UNL A   1      43.195  28.703  31.982  1.00  0.00     0.049 A 
ATOM     58  H   UNL A   1      41.489  29.894  31.627  1.00  0.00     0.167 HD
ATOM     59  C   UNL A   1      43.356  30.515  33.664  1.00  0.00     0.074 A 
ATOM     60  C   UNL A   1      44.000  31.190  34.772  1.00  0.00     0.031 C 
ATOM     61  C   UNL A   1      43.824  29.382  33.086  1.00  0.00     0.031 A 
BRANCH  48  62
ATOM     62  C   UNL A   1      40.273  27.249  28.500  1.00  0.00    -0.014 A 
ATOM     63  C   UNL A   1      40.788  27.337  27.196  1.00  0.00     0.009 A 
ATOM     64  C   UNL A   1      39.542  26.108  28.863  1.00  0.00     0.009 A 
ATOM     65  C   UNL A   1      40.539  26.323  26.267  1.00  0.00     0.001 A 
ATOM     66  C   UNL A   1      39.323  25.082  27.942  1.00  0.00     0.001 A 
ATOM     67  C   UNL A   1      39.812  25.195  26.643  1.00  0.00     0.000 A 
ENDBRANCH  48  62
BRANCH  49  68
ATOM     68  C   UNL A   1      41.368  34.432  35.344  1.00  0.00    -0.014 A 
ATOM     69  C   UNL A   1      40.802  34.263  36.617  1.00  0.00     0.009 A 
ATOM     70  C   UNL A   1      42.076  35.612  35.068  1.00  0.00     0.009 A 
ATOM     71  C   UNL A   1      40.918  35.265  37.582  1.00  0.00     0.001 A 
ATOM     72  C   UNL A   1      42.218  36.600  36.046  1.00  0.00     0.001 A 
ATOM     73  C   UNL A   1      41.629  36.430  37.298  1.00  0.00     0.000 A 
ENDBRANCH  49  68
BRANCH  61  74
ATOM     74  C   UNL A   1      45.115  28.820  33.614  1.00  0.00    -0.014 A 
ATOM     75  C   UNL A   1      45.135  27.890  34.666  1.00  0.00     0.009 A 
ATOM     76  C   UNL A   1      46.329  29.198  33.021  1.00  0.00     0.009 A 
ATOM     77  C   UNL A   1      46.346  27.380  35.134  1.00  0.00     0.001 A 
ATOM     78  C   UNL A   1      47.537  28.662  33.468  1.00  0.00     0.001 A 
ATOM     79  C   UNL A   1      47.545  27.761  34.532  1.00  0.00     0.000 A 
ENDBRANCH  61  74
ENDBRANCH  35  36
ENDBRANCH  27  30
ENDBRANCH  25  26
ENDBRANCH  24  25
ENDBRANCH  23  24
ENDBRANCH   1  23
TORSDOF 16
ENDMDL
