MODEL 1
REMARK VINA RESULT:     -12.8      0.000      0.000
REMARK SMILES Cc1ccc(C(=O)NC2(CC(=O)NCCCCCCNC(=O)c3ccc(-c4c5nc(c(-c6ccccc6)c6ccc([nH]6)c(-c6ccccc6)c6nc(c(-c7ccccc7)c7ccc4[nH]7)C=C6)C=C5)cc3)CCC2)cc1
REMARK SMILES IDX 16 1 15 2 14 3 13 4 11 5 12 6 10 8 9 9 71 10 73 11 72 12
REMARK SMILES IDX 8 13 6 14 7 15 5 17 1 18 2 19 3 20 75 21 4 22 74 23 17 24
REMARK SMILES IDX 18 25 19 26 20 27 21 28 22 30 23 31 24 32 70 33 25 34 69 35
REMARK SMILES IDX 26 36 27 37 28 38 63 39 29 40 68 41 62 42 64 43 30 44 67 45
REMARK SMILES IDX 61 46 60 47 31 49 53 50 38 51 52 52 39 53 42 54 51 55 65 56
REMARK SMILES IDX 40 57 41 58 50 60 66 61 43 62 32 63 33 64 37 65 34 66 36 67
REMARK SMILES IDX 35 68 54 69 55 70 59 71 56 72 58 73 57 74 44 75 45 76 49 77
REMARK SMILES IDX 46 78 48 79 47 80
REMARK H PARENT 13 7 8 16 20 29 64 48 42 59
REMARK Flexibility Score: inf
ROOT
ATOM      1  C   UNL A   1      34.154  33.527  27.952  1.00  0.00     0.002 C 
ENDROOT
BRANCH   1   2
ATOM      2  C   UNL A   1      34.013  32.049  28.248  1.00  0.00     0.021 C 
BRANCH   2   3
ATOM      3  C   UNL A   1      33.036  31.356  27.334  1.00  0.00     0.116 C 
BRANCH   3   4
ATOM      4  N   UNL A   1      33.732  30.341  26.229  1.00  0.00    -0.356 N 
ATOM      5  C   UNL A   1      33.341  28.612  25.360  1.00  0.00     0.222 C 
ATOM      6  O   UNL A   1      33.791  28.103  24.298  1.00  0.00    -0.275 OA
ATOM      7  H   UNL A   1      34.590  30.706  25.914  1.00  0.00     0.163 HD
BRANCH   5   8
ATOM      8  C   UNL A   1      32.143  27.331  26.085  1.00  0.00     0.128 C 
BRANCH   8   9
ATOM      9  C   UNL A   1      31.013  26.445  25.201  1.00  0.00     0.049 C 
ATOM     10  C   UNL A   1      31.463  25.893  23.803  1.00  0.00     0.029 C 
ATOM     11  C   UNL A   1      29.599  26.776  24.319  1.00  0.00     0.029 C 
ATOM     12  C   UNL A   1      30.471  26.865  23.088  1.00  0.00     0.005 C 
BRANCH   9  13
ATOM     13  N   UNL A   1      30.438  25.539  26.182  1.00  0.00    -0.346 N 
ATOM     14  C   UNL A   1      31.222  24.455  26.453  1.00  0.00     0.251 C 
ATOM     15  O   UNL A   1      31.005  23.665  27.357  1.00  0.00    -0.269 OA
ATOM     16  H   UNL A   1      29.566  25.692  26.611  1.00  0.00     0.164 HD
BRANCH  14  17
ATOM     17  C   UNL A   1      32.262  24.222  25.396  1.00  0.00     0.039 A 
ATOM     18  C   UNL A   1      36.599  22.940  23.124  1.00  0.00     0.044 C 
ATOM     19  C   UNL A   1      35.349  22.919  23.970  1.00  0.00    -0.051 A 
ATOM     20  C   UNL A   1      35.390  23.923  25.470  1.00  0.00     0.004 A 
ATOM     21  C   UNL A   1      33.800  22.458  23.181  1.00  0.00     0.004 A 
ATOM     22  C   UNL A   1      33.869  24.564  26.173  1.00  0.00     0.014 A 
ATOM     23  C   UNL A   1      32.226  23.117  23.847  1.00  0.00     0.014 A 
ENDBRANCH  14  17
ENDBRANCH   9  13
ENDBRANCH   8   9
ENDBRANCH   5   8
ENDBRANCH   3   4
ENDBRANCH   2   3
ENDBRANCH   1   2
BRANCH   1  24
ATOM     24  C   UNL A   1      33.006  34.413  28.466  1.00  0.00     0.002 C 
BRANCH  24  25
ATOM     25  C   UNL A   1      33.377  35.680  29.249  1.00  0.00     0.021 C 
BRANCH  25  26
ATOM     26  C   UNL A   1      32.972  35.628  30.693  1.00  0.00     0.116 C 
BRANCH  26  27
ATOM     27  N   UNL A   1      34.088  35.944  31.550  1.00  0.00    -0.352 N 
ATOM     28  C   UNL A   1      34.920  35.111  32.253  1.00  0.00     0.251 C 
ATOM     29  H   UNL A   1      34.281  36.905  31.645  1.00  0.00     0.163 HD
ATOM     30  O   UNL A   1      35.602  35.586  33.159  1.00  0.00    -0.269 OA
BRANCH  28  31
ATOM     31  C   UNL A   1      35.190  33.731  31.753  1.00  0.00     0.039 A 
ATOM     32  C   UNL A   1      35.338  32.818  32.806  1.00  0.00     0.014 A 
ATOM     33  C   UNL A   1      35.926  33.565  30.589  1.00  0.00     0.014 A 
ATOM     34  C   UNL A   1      36.488  32.052  32.862  1.00  0.00     0.010 A 
ATOM     35  C   UNL A   1      37.157  32.989  30.719  1.00  0.00     0.010 A 
ATOM     36  C   UNL A   1      37.441  32.272  31.879  1.00  0.00    -0.014 A 
BRANCH  36  37
ATOM     37  C   UNL A   1      38.709  31.598  31.811  1.00  0.00     0.031 A 
ATOM     38  C   UNL A   1      38.660  30.358  31.018  1.00  0.00     0.074 A 
ATOM     39  C   UNL A   1      39.792  32.252  32.285  1.00  0.00     0.049 A 
ATOM     40  N   UNL A   1      39.489  29.394  31.129  1.00  0.00    -0.248 NA
ATOM     41  C   UNL A   1      37.582  30.059  30.059  1.00  0.00     0.031 C 
ATOM     42  C   UNL A   1      41.209  31.988  32.084  1.00  0.00     0.029 A 
ATOM     43  N   UNL A   1      39.779  33.247  33.266  1.00  0.00    -0.354 N 
ATOM     44  C   UNL A   1      39.297  28.575  30.035  1.00  0.00     0.074 A 
ATOM     45  C   UNL A   1      38.016  28.930  29.494  1.00  0.00     0.031 C 
ATOM     46  C   UNL A   1      41.905  32.541  33.098  1.00  0.00     0.029 A 
ATOM     47  C   UNL A   1      40.939  33.082  34.046  1.00  0.00     0.049 A 
ATOM     48  H   UNL A   1      39.087  33.936  33.389  1.00  0.00     0.167 HD
ATOM     49  C   UNL A   1      40.353  27.834  29.614  1.00  0.00     0.031 A 
ATOM     50  C   UNL A   1      40.809  32.668  35.345  1.00  0.00     0.031 A 
ATOM     51  C   UNL A   1      41.474  28.047  30.524  1.00  0.00     0.049 A 
ATOM     52  C   UNL A   1      41.279  31.235  35.490  1.00  0.00     0.074 A 
ATOM     53  C   UNL A   1      42.535  28.936  30.476  1.00  0.00     0.029 A 
ATOM     54  N   UNL A   1      41.329  27.661  31.847  1.00  0.00    -0.354 N 
ATOM     55  N   UNL A   1      41.223  30.349  34.528  1.00  0.00    -0.248 NA
ATOM     56  C   UNL A   1      41.948  30.728  36.685  1.00  0.00     0.031 C 
ATOM     57  C   UNL A   1      42.959  29.161  31.815  1.00  0.00     0.029 A 
ATOM     58  C   UNL A   1      42.166  28.401  32.659  1.00  0.00     0.049 A 
ATOM     59  H   UNL A   1      40.717  26.959  32.164  1.00  0.00     0.167 HD
ATOM     60  C   UNL A   1      41.906  29.228  34.913  1.00  0.00     0.074 A 
ATOM     61  C   UNL A   1      42.308  29.497  36.283  1.00  0.00     0.031 C 
ATOM     62  C   UNL A   1      42.162  28.168  34.093  1.00  0.00     0.031 A 
BRANCH  49  63
ATOM     63  C   UNL A   1      40.499  27.166  28.276  1.00  0.00    -0.014 A 
ATOM     64  C   UNL A   1      39.906  25.901  28.107  1.00  0.00     0.009 A 
ATOM     65  C   UNL A   1      41.205  27.673  27.172  1.00  0.00     0.009 A 
ATOM     66  C   UNL A   1      40.030  25.166  26.924  1.00  0.00     0.001 A 
ATOM     67  C   UNL A   1      41.339  26.938  25.982  1.00  0.00     0.001 A 
ATOM     68  C   UNL A   1      40.753  25.684  25.860  1.00  0.00     0.000 A 
ENDBRANCH  49  63
BRANCH  50  69
ATOM     69  C   UNL A   1      39.611  33.293  35.999  1.00  0.00    -0.014 A 
ATOM     70  C   UNL A   1      38.510  32.436  36.239  1.00  0.00     0.009 A 
ATOM     71  C   UNL A   1      39.750  34.431  36.805  1.00  0.00     0.009 A 
ATOM     72  C   UNL A   1      37.728  32.581  37.390  1.00  0.00     0.001 A 
ATOM     73  C   UNL A   1      38.939  34.586  37.940  1.00  0.00     0.001 A 
ATOM     74  C   UNL A   1      37.979  33.628  38.269  1.00  0.00     0.000 A 
ENDBRANCH  50  69
BRANCH  62  75
ATOM     75  C   UNL A   1      42.511  26.786  34.579  1.00  0.00    -0.014 A 
ATOM     76  C   UNL A   1      41.642  26.000  35.343  1.00  0.00     0.009 A 
ATOM     77  C   UNL A   1      43.686  26.161  34.103  1.00  0.00     0.009 A 
ATOM     78  C   UNL A   1      41.966  24.683  35.680  1.00  0.00     0.001 A 
ATOM     79  C   UNL A   1      43.974  24.825  34.369  1.00  0.00     0.001 A 
ATOM     80  C   UNL A   1      43.123  24.093  35.183  1.00  0.00     0.000 A 
ENDBRANCH  62  75
ENDBRANCH  36  37
ENDBRANCH  28  31
ENDBRANCH  26  27
ENDBRANCH  25  26
ENDBRANCH  24  25
ENDBRANCH   1  24
TORSDOF 16
ENDMDL
MODEL 2
REMARK VINA RESULT:     -12.2      4.953     10.716
REMARK SMILES Cc1ccc(C(=O)NC2(CC(=O)NCCCCCCNC(=O)c3ccc(-c4c5nc(c(-c6ccccc6)c6ccc([nH]6)c(-c6ccccc6)c6nc(c(-c7ccccc7)c7ccc4[nH]7)C=C6)C=C5)cc3)CCC2)cc1
REMARK SMILES IDX 16 1 15 2 14 3 13 4 11 5 12 6 10 8 9 9 71 10 73 11 72 12
REMARK SMILES IDX 8 13 6 14 7 15 5 17 1 18 2 19 3 20 75 21 4 22 74 23 17 24
REMARK SMILES IDX 18 25 19 26 20 27 21 28 22 30 23 31 24 32 70 33 25 34 69 35
REMARK SMILES IDX 26 36 27 37 28 38 63 39 29 40 68 41 62 42 64 43 30 44 67 45
REMARK SMILES IDX 61 46 60 47 31 49 53 50 38 51 52 52 39 53 42 54 51 55 65 56
REMARK SMILES IDX 40 57 41 58 50 60 66 61 43 62 32 63 33 64 37 65 34 66 36 67
REMARK SMILES IDX 35 68 54 69 55 70 59 71 56 72 58 73 57 74 44 75 45 76 49 77
REMARK SMILES IDX 46 78 48 79 47 80
REMARK H PARENT 13 7 8 16 20 29 64 48 42 59
REMARK Flexibility Score: inf
ROOT
ATOM      1  C   UNL A   1      41.079  20.307  26.494  1.00  0.00     0.002 C 
ENDROOT
BRANCH   1   2
ATOM      2  C   UNL A   1      39.690  19.923  26.030  1.00  0.00     0.021 C 
BRANCH   2   3
ATOM      3  C   UNL A   1      38.725  21.081  26.038  1.00  0.00     0.116 C 
BRANCH   3   4
ATOM      4  N   UNL A   1      38.205  21.550  24.541  1.00  0.00    -0.356 N 
ATOM      5  C   UNL A   1      36.713  22.571  23.747  1.00  0.00     0.222 C 
ATOM      6  O   UNL A   1      36.604  23.135  22.624  1.00  0.00    -0.275 OA
ATOM      7  H   UNL A   1      38.818  21.227  23.841  1.00  0.00     0.163 HD
BRANCH   5   8
ATOM      8  C   UNL A   1      35.058  22.850  24.632  1.00  0.00     0.128 C 
BRANCH   8   9
ATOM      9  C   UNL A   1      33.552  22.345  24.065  1.00  0.00     0.049 C 
ATOM     10  C   UNL A   1      32.315  22.570  25.004  1.00  0.00     0.029 C 
ATOM     11  C   UNL A   1      32.758  20.864  23.816  1.00  0.00     0.029 C 
ATOM     12  C   UNL A   1      32.167  21.028  25.197  1.00  0.00     0.005 C 
BRANCH   9  13
ATOM     13  N   UNL A   1      33.515  22.833  22.696  1.00  0.00    -0.346 N 
ATOM     14  C   UNL A   1      33.300  24.178  22.599  1.00  0.00     0.251 C 
ATOM     15  O   UNL A   1      33.395  24.811  21.560  1.00  0.00    -0.269 OA
ATOM     16  H   UNL A   1      33.634  22.250  21.913  1.00  0.00     0.164 HD
BRANCH  14  17
ATOM     17  C   UNL A   1      32.734  24.760  23.862  1.00  0.00     0.039 A 
ATOM     18  C   UNL A   1      31.667  28.000  27.600  1.00  0.00     0.044 C 
ATOM     19  C   UNL A   1      31.855  27.374  26.239  1.00  0.00    -0.051 A 
ATOM     20  C   UNL A   1      33.563  27.181  25.686  1.00  0.00     0.004 A 
ATOM     21  C   UNL A   1      30.526  26.355  25.584  1.00  0.00     0.004 A 
ATOM     22  C   UNL A   1      33.996  25.894  24.514  1.00  0.00     0.014 A 
ATOM     23  C   UNL A   1      30.928  25.008  24.409  1.00  0.00     0.014 A 
ENDBRANCH  14  17
ENDBRANCH   9  13
ENDBRANCH   8   9
ENDBRANCH   5   8
ENDBRANCH   3   4
ENDBRANCH   2   3
ENDBRANCH   1   2
BRANCH   1  24
ATOM     24  C   UNL A   1      41.889  19.176  27.151  1.00  0.00     0.002 C 
BRANCH  24  25
ATOM     25  C   UNL A   1      42.987  18.505  26.314  1.00  0.00     0.021 C 
BRANCH  25  26
ATOM     26  C   UNL A   1      43.492  19.365  25.193  1.00  0.00     0.116 C 
BRANCH  26  27
ATOM     27  N   UNL A   1      44.676  20.083  25.592  1.00  0.00    -0.352 N 
ATOM     28  C   UNL A   1      44.973  21.418  25.484  1.00  0.00     0.251 C 
ATOM     29  H   UNL A   1      45.380  19.531  26.004  1.00  0.00     0.163 HD
ATOM     30  O   UNL A   1      46.144  21.773  25.595  1.00  0.00    -0.269 OA
BRANCH  28  31
ATOM     31  C   UNL A   1      43.876  22.430  25.505  1.00  0.00     0.039 A 
ATOM     32  C   UNL A   1      44.198  23.561  24.742  1.00  0.00     0.014 A 
ATOM     33  C   UNL A   1      43.106  22.570  26.651  1.00  0.00     0.014 A 
ATOM     34  C   UNL A   1      44.136  24.804  25.342  1.00  0.00     0.010 A 
ATOM     35  C   UNL A   1      43.234  23.743  27.336  1.00  0.00     0.010 A 
ATOM     36  C   UNL A   1      43.791  24.842  26.684  1.00  0.00    -0.014 A 
BRANCH  36  37
ATOM     37  C   UNL A   1      43.721  26.042  27.473  1.00  0.00     0.031 A 
ATOM     38  C   UNL A   1      42.387  26.664  27.459  1.00  0.00     0.074 A 
ATOM     39  C   UNL A   1      44.778  26.333  28.263  1.00  0.00     0.049 A 
ATOM     40  N   UNL A   1      42.158  27.893  27.716  1.00  0.00    -0.248 NA
ATOM     41  C   UNL A   1      41.167  25.943  27.055  1.00  0.00     0.031 C 
ATOM     42  C   UNL A   1      44.888  27.265  29.375  1.00  0.00     0.029 A 
ATOM     43  N   UNL A   1      46.096  25.923  28.047  1.00  0.00    -0.354 N 
ATOM     44  C   UNL A   1      40.796  28.016  27.895  1.00  0.00     0.074 A 
ATOM     45  C   UNL A   1      40.212  26.836  27.323  1.00  0.00     0.031 C 
ATOM     46  C   UNL A   1      46.184  27.600  29.539  1.00  0.00     0.029 A 
ATOM     47  C   UNL A   1      46.935  26.976  28.457  1.00  0.00     0.049 A 
ATOM     48  H   UNL A   1      46.384  25.058  27.675  1.00  0.00     0.167 HD
ATOM     49  C   UNL A   1      40.356  29.023  28.692  1.00  0.00     0.031 A 
ATOM     50  C   UNL A   1      47.649  27.661  27.510  1.00  0.00     0.031 A 
ATOM     51  C   UNL A   1      41.502  29.817  29.127  1.00  0.00     0.049 A 
ATOM     52  C   UNL A   1      47.069  29.047  27.317  1.00  0.00     0.074 A 
ATOM     53  C   UNL A   1      42.290  29.739  30.263  1.00  0.00     0.029 A 
ATOM     54  N   UNL A   1      42.245  30.482  28.164  1.00  0.00    -0.354 N 
ATOM     55  N   UNL A   1      45.808  29.344  27.507  1.00  0.00    -0.248 NA
ATOM     56  C   UNL A   1      47.884  30.220  27.010  1.00  0.00     0.031 C 
ATOM     57  C   UNL A   1      43.564  30.277  29.931  1.00  0.00     0.029 A 
ATOM     58  C   UNL A   1      43.536  30.685  28.608  1.00  0.00     0.049 A 
ATOM     59  H   UNL A   1      41.901  30.767  27.287  1.00  0.00     0.167 HD
ATOM     60  C   UNL A   1      45.655  30.702  27.450  1.00  0.00     0.074 A 
ATOM     61  C   UNL A   1      46.973  31.204  27.098  1.00  0.00     0.031 C 
ATOM     62  C   UNL A   1      44.493  31.355  27.744  1.00  0.00     0.031 A 
BRANCH  49  63
ATOM     63  C   UNL A   1      38.994  29.141  29.315  1.00  0.00    -0.014 A 
ATOM     64  C   UNL A   1      37.931  29.561  28.492  1.00  0.00     0.009 A 
ATOM     65  C   UNL A   1      38.678  28.899  30.661  1.00  0.00     0.009 A 
ATOM     66  C   UNL A   1      36.638  29.761  28.982  1.00  0.00     0.001 A 
ATOM     67  C   UNL A   1      37.381  29.102  31.162  1.00  0.00     0.001 A 
ATOM     68  C   UNL A   1      36.363  29.535  30.322  1.00  0.00     0.000 A 
ENDBRANCH  49  63
BRANCH  50  69
ATOM     69  C   UNL A   1      48.156  26.741  26.438  1.00  0.00    -0.014 A 
ATOM     70  C   UNL A   1      47.526  26.842  25.175  1.00  0.00     0.009 A 
ATOM     71  C   UNL A   1      49.465  26.244  26.484  1.00  0.00     0.009 A 
ATOM     72  C   UNL A   1      48.261  26.689  23.994  1.00  0.00     0.001 A 
ATOM     73  C   UNL A   1      50.185  26.061  25.293  1.00  0.00     0.001 A 
ATOM     74  C   UNL A   1      49.607  26.349  24.057  1.00  0.00     0.000 A 
ENDBRANCH  50  69
BRANCH  62  75
ATOM     75  C   UNL A   1      44.168  32.753  27.288  1.00  0.00    -0.014 A 
ATOM     76  C   UNL A   1      44.133  33.852  28.153  1.00  0.00     0.009 A 
ATOM     77  C   UNL A   1      44.068  33.023  25.905  1.00  0.00     0.009 A 
ATOM     78  C   UNL A   1      43.932  35.146  27.667  1.00  0.00     0.001 A 
ATOM     79  C   UNL A   1      43.948  34.320  25.411  1.00  0.00     0.001 A 
ATOM     80  C   UNL A   1      43.853  35.382  26.298  1.00  0.00     0.000 A 
ENDBRANCH  62  75
ENDBRANCH  36  37
ENDBRANCH  28  31
ENDBRANCH  26  27
ENDBRANCH  25  26
ENDBRANCH  24  25
ENDBRANCH   1  24
TORSDOF 16
ENDMDL
MODEL 3
REMARK VINA RESULT:     -12.2      5.057     10.675
REMARK SMILES Cc1ccc(C(=O)NC2(CC(=O)NCCCCCCNC(=O)c3ccc(-c4c5nc(c(-c6ccccc6)c6ccc([nH]6)c(-c6ccccc6)c6nc(c(-c7ccccc7)c7ccc4[nH]7)C=C6)C=C5)cc3)CCC2)cc1
REMARK SMILES IDX 16 1 15 2 14 3 13 4 11 5 12 6 10 8 9 9 71 10 73 11 72 12
REMARK SMILES IDX 8 13 6 14 7 15 5 17 1 18 2 19 3 20 75 21 4 22 74 23 17 24
REMARK SMILES IDX 18 25 19 26 20 27 21 28 22 30 23 31 24 32 70 33 25 34 69 35
REMARK SMILES IDX 26 36 27 37 28 38 63 39 29 40 68 41 62 42 64 43 30 44 67 45
REMARK SMILES IDX 61 46 60 47 31 49 53 50 38 51 52 52 39 53 42 54 51 55 65 56
REMARK SMILES IDX 40 57 41 58 50 60 66 61 43 62 32 63 33 64 37 65 34 66 36 67
REMARK SMILES IDX 35 68 54 69 55 70 59 71 56 72 58 73 57 74 44 75 45 76 49 77
REMARK SMILES IDX 46 78 48 79 47 80
REMARK H PARENT 13 7 8 16 20 29 64 48 42 59
REMARK Flexibility Score: inf
ROOT
ATOM      1  C   UNL A   1      40.623  19.624  26.160  1.00  0.00     0.002 C 
ENDROOT
BRANCH   1   2
ATOM      2  C   UNL A   1      40.161  21.064  26.090  1.00  0.00     0.021 C 
BRANCH   2   3
ATOM      3  C   UNL A   1      38.661  21.198  26.019  1.00  0.00     0.116 C 
BRANCH   3   4
ATOM      4  N   UNL A   1      38.069  21.480  24.502  1.00  0.00    -0.356 N 
ATOM      5  C   UNL A   1      36.768  22.676  23.622  1.00  0.00     0.222 C 
ATOM      6  O   UNL A   1      36.644  23.014  22.413  1.00  0.00    -0.275 OA
ATOM      7  H   UNL A   1      38.488  20.876  23.847  1.00  0.00     0.163 HD
BRANCH   5   8
ATOM      8  C   UNL A   1      35.362  23.547  24.553  1.00  0.00     0.128 C 
BRANCH   8   9
ATOM      9  C   UNL A   1      33.802  23.787  23.958  1.00  0.00     0.049 C 
ATOM     10  C   UNL A   1      33.352  22.908  22.739  1.00  0.00     0.029 C 
ATOM     11  C   UNL A   1      32.992  24.979  23.058  1.00  0.00     0.029 C 
ATOM     12  C   UNL A   1      33.324  24.172  21.823  1.00  0.00     0.005 C 
BRANCH   9  13
ATOM     13  N   UNL A   1      32.978  23.835  25.155  1.00  0.00    -0.346 N 
ATOM     14  C   UNL A   1      32.756  22.612  25.717  1.00  0.00     0.251 C 
ATOM     15  O   UNL A   1      32.233  22.447  26.807  1.00  0.00    -0.269 OA
ATOM     16  H   UNL A   1      32.614  24.671  25.525  1.00  0.00     0.164 HD
BRANCH  14  17
ATOM     17  C   UNL A   1      33.036  21.484  24.767  1.00  0.00     0.039 A 
ATOM     18  C   UNL A   1      34.279  16.926  22.954  1.00  0.00     0.044 C 
ATOM     19  C   UNL A   1      33.640  18.042  23.744  1.00  0.00    -0.051 A 
ATOM     20  C   UNL A   1      34.679  18.816  25.003  1.00  0.00     0.004 A 
ATOM     21  C   UNL A   1      32.235  18.899  23.019  1.00  0.00     0.004 A 
ATOM     22  C   UNL A   1      34.381  20.511  25.507  1.00  0.00     0.014 A 
ATOM     23  C   UNL A   1      31.913  20.642  23.482  1.00  0.00     0.014 A 
ENDBRANCH  14  17
ENDBRANCH   9  13
ENDBRANCH   8   9
ENDBRANCH   5   8
ENDBRANCH   3   4
ENDBRANCH   2   3
ENDBRANCH   1   2
BRANCH   1  24
ATOM     24  C   UNL A   1      41.934  19.391  26.930  1.00  0.00     0.002 C 
BRANCH  24  25
ATOM     25  C   UNL A   1      43.030  18.564  26.243  1.00  0.00     0.021 C 
BRANCH  25  26
ATOM     26  C   UNL A   1      43.678  19.274  25.091  1.00  0.00     0.116 C 
BRANCH  26  27
ATOM     27  N   UNL A   1      44.833  20.016  25.532  1.00  0.00    -0.352 N 
ATOM     28  C   UNL A   1      45.098  21.360  25.455  1.00  0.00     0.251 C 
ATOM     29  H   UNL A   1      45.541  19.475  25.952  1.00  0.00     0.163 HD
ATOM     30  O   UNL A   1      46.256  21.743  25.601  1.00  0.00    -0.269 OA
BRANCH  28  31
ATOM     31  C   UNL A   1      43.974  22.342  25.466  1.00  0.00     0.039 A 
ATOM     32  C   UNL A   1      44.254  23.460  24.668  1.00  0.00     0.014 A 
ATOM     33  C   UNL A   1      43.218  22.492  26.620  1.00  0.00     0.014 A 
ATOM     34  C   UNL A   1      44.168  24.717  25.236  1.00  0.00     0.010 A 
ATOM     35  C   UNL A   1      43.325  23.687  27.272  1.00  0.00     0.010 A 
ATOM     36  C   UNL A   1      43.842  24.782  26.582  1.00  0.00    -0.014 A 
BRANCH  36  37
ATOM     37  C   UNL A   1      43.752  26.000  27.340  1.00  0.00     0.031 A 
ATOM     38  C   UNL A   1      42.423  26.630  27.263  1.00  0.00     0.074 A 
ATOM     39  C   UNL A   1      44.781  26.304  28.161  1.00  0.00     0.049 A 
ATOM     40  N   UNL A   1      42.193  27.866  27.483  1.00  0.00    -0.248 NA
ATOM     41  C   UNL A   1      41.214  25.906  26.832  1.00  0.00     0.031 C 
ATOM     42  C   UNL A   1      44.857  27.262  29.254  1.00  0.00     0.029 A 
ATOM     43  N   UNL A   1      46.103  25.882  28.001  1.00  0.00    -0.354 N 
ATOM     44  C   UNL A   1      40.826  28.000  27.610  1.00  0.00     0.074 A 
ATOM     45  C   UNL A   1      40.256  26.810  27.045  1.00  0.00     0.031 C 
ATOM     46  C   UNL A   1      46.149  27.593  29.456  1.00  0.00     0.029 A 
ATOM     47  C   UNL A   1      46.935  26.939  28.417  1.00  0.00     0.049 A 
ATOM     48  H   UNL A   1      46.399  25.007  27.660  1.00  0.00     0.167 HD
ATOM     49  C   UNL A   1      40.365  29.028  28.367  1.00  0.00     0.031 A 
ATOM     50  C   UNL A   1      47.686  27.598  27.480  1.00  0.00     0.031 A 
ATOM     51  C   UNL A   1      41.499  29.825  28.825  1.00  0.00     0.049 A 
ATOM     52  C   UNL A   1      47.123  28.983  27.235  1.00  0.00     0.074 A 
ATOM     53  C   UNL A   1      42.245  29.770  29.990  1.00  0.00     0.029 A 
ATOM     54  N   UNL A   1      42.280  30.463  27.873  1.00  0.00    -0.354 N 
ATOM     55  N   UNL A   1      45.858  29.290  27.373  1.00  0.00    -0.248 NA
ATOM     56  C   UNL A   1      47.955  30.143  26.930  1.00  0.00     0.031 C 
ATOM     57  C   UNL A   1      43.534  30.292  29.692  1.00  0.00     0.029 A 
ATOM     58  C   UNL A   1      43.556  30.670  28.359  1.00  0.00     0.049 A 
ATOM     59  H   UNL A   1      41.970  30.730  26.979  1.00  0.00     0.167 HD
ATOM     60  C   UNL A   1      45.715  30.648  27.278  1.00  0.00     0.074 A 
ATOM     61  C   UNL A   1      47.048  31.134  26.963  1.00  0.00     0.031 C 
ATOM     62  C   UNL A   1      44.548  31.314  27.515  1.00  0.00     0.031 A 
BRANCH  49  63
ATOM     63  C   UNL A   1      38.982  29.168  28.938  1.00  0.00    -0.014 A 
ATOM     64  C   UNL A   1      37.975  29.682  28.098  1.00  0.00     0.009 A 
ATOM     65  C   UNL A   1      38.596  28.862  30.252  1.00  0.00     0.009 A 
ATOM     66  C   UNL A   1      36.670  29.908  28.543  1.00  0.00     0.001 A 
ATOM     67  C   UNL A   1      37.287  29.091  30.709  1.00  0.00     0.001 A 
ATOM     68  C   UNL A   1      36.326  29.616  29.855  1.00  0.00     0.000 A 
ENDBRANCH  49  63
BRANCH  50  69
ATOM     69  C   UNL A   1      48.225  26.650  26.450  1.00  0.00    -0.014 A 
ATOM     70  C   UNL A   1      47.567  26.646  25.196  1.00  0.00     0.009 A 
ATOM     71  C   UNL A   1      49.562  26.231  26.494  1.00  0.00     0.009 A 
ATOM     72  C   UNL A   1      48.288  26.469  24.010  1.00  0.00     0.001 A 
ATOM     73  C   UNL A   1      50.269  26.023  25.300  1.00  0.00     0.001 A 
ATOM     74  C   UNL A   1      49.652  26.210  24.063  1.00  0.00     0.000 A 
ENDBRANCH  50  69
BRANCH  62  75
ATOM     75  C   UNL A   1      44.248  32.702  27.016  1.00  0.00    -0.014 A 
ATOM     76  C   UNL A   1      44.117  33.017  25.659  1.00  0.00     0.009 A 
ATOM     77  C   UNL A   1      43.900  33.711  27.943  1.00  0.00     0.009 A 
ATOM     78  C   UNL A   1      43.732  34.296  25.249  1.00  0.00     0.001 A 
ATOM     79  C   UNL A   1      43.440  34.961  27.539  1.00  0.00     0.001 A 
ATOM     80  C   UNL A   1      43.381  35.262  26.187  1.00  0.00     0.000 A 
ENDBRANCH  62  75
ENDBRANCH  36  37
ENDBRANCH  28  31
ENDBRANCH  26  27
ENDBRANCH  25  26
ENDBRANCH  24  25
ENDBRANCH   1  24
TORSDOF 16
ENDMDL
