MODEL 1
REMARK VINA RESULT:     -11.3      0.000      0.000
REMARK SMILES O=C(NCCCCCCNC(=O)c1cc(SCC(=O)N2CCOCC2)ccn1)c1ccc(-c2c3nc(c(-c4ccccc4)c4ccc([nH]4)c(-c4ccccc4)c4nc(c(-c5ccccc5)c5ccc2[nH]5)C=C4)C=C3)cc1
REMARK SMILES IDX 7 1 6 2 5 3 4 4 3 5 1 6 2 7 29 9 30 10 76 11 31 12 75 13
REMARK SMILES IDX 32 14 33 15 34 16 69 17 35 18 74 19 68 20 70 21 36 22 73 23
REMARK SMILES IDX 67 24 66 25 37 27 59 28 44 29 58 30 45 31 48 32 57 33 71 34
REMARK SMILES IDX 46 35 47 36 56 38 72 39 49 40 38 41 39 42 43 43 40 44 42 45
REMARK SMILES IDX 41 46 60 47 61 48 65 49 62 50 64 51 63 52 50 53 51 54 55 55
REMARK SMILES IDX 52 56 54 57 53 58 8 59 9 60 10 61 11 62 12 64 13 65 14 66
REMARK SMILES IDX 28 67 15 68 27 69 26 70 16 71 17 72 18 73 19 74 20 75 21 76
REMARK SMILES IDX 25 77 22 78 24 79 23 80
REMARK H PARENT 3 8 70 26 48 37 10 63
REMARK Flexibility Score: inf
ROOT
ATOM      1  C   UNL A   1      30.653  29.495  24.227  1.00  0.00     0.002 C 
ENDROOT
BRANCH   1   2
ATOM      2  C   UNL A   1      31.633  29.885  25.339  1.00  0.00     0.002 C 
BRANCH   2   3
ATOM      3  C   UNL A   1      31.315  31.198  26.054  1.00  0.00     0.021 C 
BRANCH   3   4
ATOM      4  C   UNL A   1      32.397  31.674  27.014  1.00  0.00     0.116 C 
BRANCH   4   5
ATOM      5  N   UNL A   1      32.240  33.073  27.375  1.00  0.00    -0.352 N 
ATOM      6  O   UNL A   1      32.654  34.971  28.527  1.00  0.00    -0.269 OA
ATOM      7  C   UNL A   1      33.031  33.855  28.176  1.00  0.00     0.251 C 
ATOM      8  H   UNL A   1      31.452  33.523  26.991  1.00  0.00     0.163 HD
BRANCH   7   9
ATOM      9  C   UNL A   1      34.338  33.343  28.632  1.00  0.00     0.039 A 
ATOM     10  C   UNL A   1      34.430  32.564  29.789  1.00  0.00     0.014 A 
ATOM     11  C   UNL A   1      35.482  33.635  27.886  1.00  0.00     0.014 A 
ATOM     12  C   UNL A   1      35.677  32.185  30.268  1.00  0.00     0.010 A 
ATOM     13  C   UNL A   1      36.726  33.178  28.322  1.00  0.00     0.010 A 
ATOM     14  C   UNL A   1      36.836  32.467  29.528  1.00  0.00    -0.014 A 
BRANCH  14  15
ATOM     15  C   UNL A   1      38.143  31.939  29.983  1.00  0.00     0.031 A 
ATOM     16  C   UNL A   1      38.682  30.637  29.465  1.00  0.00     0.074 A 
ATOM     17  C   UNL A   1      38.840  32.645  30.895  1.00  0.00     0.049 A 
ATOM     18  N   UNL A   1      39.792  30.020  29.785  1.00  0.00    -0.248 NA
ATOM     19  C   UNL A   1      37.867  29.931  28.465  1.00  0.00     0.031 C 
ATOM     20  C   UNL A   1      38.411  33.917  31.480  1.00  0.00     0.029 A 
ATOM     21  N   UNL A   1      40.047  32.393  31.491  1.00  0.00    -0.354 N 
ATOM     22  C   UNL A   1      39.798  28.845  29.047  1.00  0.00     0.074 A 
ATOM     23  C   UNL A   1      38.570  28.822  28.281  1.00  0.00     0.031 C 
ATOM     24  C   UNL A   1      39.350  34.346  32.334  1.00  0.00     0.029 A 
ATOM     25  C   UNL A   1      40.410  33.348  32.409  1.00  0.00     0.049 A 
ATOM     26  H   UNL A   1      40.601  31.606  31.282  1.00  0.00     0.167 HD
ATOM     27  C   UNL A   1      40.743  27.873  29.014  1.00  0.00     0.031 A 
ATOM     28  C   UNL A   1      41.460  33.403  33.248  1.00  0.00     0.031 A 
ATOM     29  C   UNL A   1      41.953  27.895  29.797  1.00  0.00     0.049 A 
ATOM     30  C   UNL A   1      42.468  32.294  33.228  1.00  0.00     0.074 A 
ATOM     31  C   UNL A   1      42.993  26.982  29.802  1.00  0.00     0.029 A 
ATOM     32  N   UNL A   1      42.275  28.872  30.728  1.00  0.00    -0.354 N 
ATOM     33  N   UNL A   1      42.491  31.216  32.482  1.00  0.00    -0.248 NA
ATOM     34  C   UNL A   1      43.596  32.408  34.161  1.00  0.00     0.031 C 
ATOM     35  C   UNL A   1      43.908  27.367  30.787  1.00  0.00     0.029 A 
ATOM     36  C   UNL A   1      43.478  28.562  31.342  1.00  0.00     0.049 A 
ATOM     37  H   UNL A   1      41.731  29.668  30.923  1.00  0.00     0.167 HD
ATOM     38  C   UNL A   1      43.645  30.534  32.839  1.00  0.00     0.074 A 
ATOM     39  C   UNL A   1      44.301  31.328  33.859  1.00  0.00     0.031 C 
ATOM     40  C   UNL A   1      44.117  29.356  32.362  1.00  0.00     0.031 A 
BRANCH  27  41
ATOM     41  C   UNL A   1      40.478  26.678  28.137  1.00  0.00    -0.014 A 
ATOM     42  C   UNL A   1      39.703  25.594  28.581  1.00  0.00     0.009 A 
ATOM     43  C   UNL A   1      40.997  26.647  26.833  1.00  0.00     0.009 A 
ATOM     44  C   UNL A   1      39.497  24.485  27.757  1.00  0.00     0.001 A 
ATOM     45  C   UNL A   1      40.762  25.552  25.999  1.00  0.00     0.001 A 
ATOM     46  C   UNL A   1      40.023  24.467  26.466  1.00  0.00     0.000 A 
ENDBRANCH  27  41
BRANCH  28  47
ATOM     47  C   UNL A   1      41.575  34.544  34.194  1.00  0.00    -0.014 A 
ATOM     48  C   UNL A   1      41.034  34.465  35.484  1.00  0.00     0.009 A 
ATOM     49  C   UNL A   1      42.274  35.704  33.818  1.00  0.00     0.009 A 
ATOM     50  C   UNL A   1      41.180  35.532  36.376  1.00  0.00     0.001 A 
ATOM     51  C   UNL A   1      42.446  36.753  34.721  1.00  0.00     0.001 A 
ATOM     52  C   UNL A   1      41.892  36.669  35.996  1.00  0.00     0.000 A 
ENDBRANCH  28  47
BRANCH  40  53
ATOM     53  C   UNL A   1      45.426  28.866  32.915  1.00  0.00    -0.014 A 
ATOM     54  C   UNL A   1      45.477  27.996  34.016  1.00  0.00     0.009 A 
ATOM     55  C   UNL A   1      46.625  29.239  32.288  1.00  0.00     0.009 A 
ATOM     56  C   UNL A   1      46.705  27.532  34.492  1.00  0.00     0.001 A 
ATOM     57  C   UNL A   1      47.848  28.749  32.745  1.00  0.00     0.001 A 
ATOM     58  C   UNL A   1      47.888  27.902  33.851  1.00  0.00     0.000 A 
ENDBRANCH  40  53
ENDBRANCH  14  15
ENDBRANCH   7   9
ENDBRANCH   4   5
ENDBRANCH   3   4
ENDBRANCH   2   3
ENDBRANCH   1   2
BRANCH   1  59
ATOM     59  C   UNL A   1      31.298  29.049  22.913  1.00  0.00     0.021 C 
BRANCH  59  60
ATOM     60  C   UNL A   1      32.403  28.013  23.073  1.00  0.00     0.116 C 
BRANCH  60  61
ATOM     61  N   UNL A   1      32.745  27.368  21.818  1.00  0.00    -0.351 N 
ATOM     62  C   UNL A   1      32.794  26.024  21.527  1.00  0.00     0.269 C 
ATOM     63  H   UNL A   1      32.970  27.974  21.076  1.00  0.00     0.163 HD
ATOM     64  O   UNL A   1      33.166  25.649  20.418  1.00  0.00    -0.268 OA
BRANCH  62  65
ATOM     65  C   UNL A   1      32.383  25.042  22.567  1.00  0.00     0.129 A 
ATOM     66  C   UNL A   1      33.333  24.183  23.113  1.00  0.00     0.049 A 
ATOM     67  N   UNL A   1      31.064  25.016  22.872  1.00  0.00    -0.251 NA
ATOM     68  C   UNL A   1      32.890  23.190  23.974  1.00  0.00     0.012 A 
ATOM     69  C   UNL A   1      30.672  24.085  23.758  1.00  0.00     0.113 A 
ATOM     70  C   UNL A   1      31.533  23.158  24.317  1.00  0.00     0.035 A 
BRANCH  68  71
ATOM     71  S   UNL A   1      33.914  21.926  24.698  1.00  0.00    -0.116 SA
BRANCH  71  72
ATOM     72  C   UNL A   1      32.817  20.528  25.025  1.00  0.00     0.175 C 
BRANCH  72  73
ATOM     73  C   UNL A   1      32.396  19.591  23.902  1.00  0.00     0.233 C 
ATOM     74  O   UNL A   1      32.142  20.095  22.798  1.00  0.00    -0.274 OA
ATOM     75  N   UNL A   1      32.522  18.223  24.011  1.00  0.00    -0.337 N 
ATOM     76  C   UNL A   1      32.369  17.389  25.202  1.00  0.00     0.148 C 
ATOM     77  C   UNL A   1      32.919  17.443  22.833  1.00  0.00     0.148 C 
ATOM     78  C   UNL A   1      33.662  16.621  25.474  1.00  0.00     0.181 C 
ATOM     79  C   UNL A   1      34.206  16.667  23.161  1.00  0.00     0.181 C 
ATOM     80  O   UNL A   1      34.035  15.840  24.326  1.00  0.00    -0.378 OA
ENDBRANCH  72  73
ENDBRANCH  71  72
ENDBRANCH  68  71
ENDBRANCH  62  65
ENDBRANCH  60  61
ENDBRANCH  59  60
ENDBRANCH   1  59
TORSDOF 16
ENDMDL
MODEL 2
REMARK VINA RESULT:     -11.0      3.387      8.951
REMARK SMILES O=C(NCCCCCCNC(=O)c1cc(SCC(=O)N2CCOCC2)ccn1)c1ccc(-c2c3nc(c(-c4ccccc4)c4ccc([nH]4)c(-c4ccccc4)c4nc(c(-c5ccccc5)c5ccc2[nH]5)C=C4)C=C3)cc1
REMARK SMILES IDX 7 1 6 2 5 3 4 4 3 5 1 6 2 7 29 9 30 10 76 11 31 12 75 13
REMARK SMILES IDX 32 14 33 15 34 16 69 17 35 18 74 19 68 20 70 21 36 22 73 23
REMARK SMILES IDX 67 24 66 25 37 27 59 28 44 29 58 30 45 31 48 32 57 33 71 34
REMARK SMILES IDX 46 35 47 36 56 38 72 39 49 40 38 41 39 42 43 43 40 44 42 45
REMARK SMILES IDX 41 46 60 47 61 48 65 49 62 50 64 51 63 52 50 53 51 54 55 55
REMARK SMILES IDX 52 56 54 57 53 58 8 59 9 60 10 61 11 62 12 64 13 65 14 66
REMARK SMILES IDX 28 67 15 68 27 69 26 70 16 71 17 72 18 73 19 74 20 75 21 76
REMARK SMILES IDX 25 77 22 78 24 79 23 80
REMARK H PARENT 3 8 70 26 48 37 10 63
REMARK Flexibility Score: inf
ROOT
ATOM      1  C   UNL A   1      37.006  22.053  24.228  1.00  0.00     0.002 C 
ENDROOT
BRANCH   1   2
ATOM      2  C   UNL A   1      36.821  20.658  24.834  1.00  0.00     0.002 C 
BRANCH   2   3
ATOM      3  C   UNL A   1      38.070  19.778  24.835  1.00  0.00     0.021 C 
BRANCH   3   4
ATOM      4  C   UNL A   1      39.050  20.071  25.963  1.00  0.00     0.116 C 
BRANCH   4   5
ATOM      5  N   UNL A   1      40.249  19.253  25.881  1.00  0.00    -0.352 N 
ATOM      6  O   UNL A   1      42.466  18.839  25.766  1.00  0.00    -0.269 OA
ATOM      7  C   UNL A   1      41.559  19.617  26.053  1.00  0.00     0.251 C 
ATOM      8  H   UNL A   1      40.099  18.303  25.670  1.00  0.00     0.163 HD
BRANCH   7   9
ATOM      9  C   UNL A   1      41.880  20.961  26.572  1.00  0.00     0.039 A 
ATOM     10  C   UNL A   1      41.814  21.226  27.942  1.00  0.00     0.014 A 
ATOM     11  C   UNL A   1      42.265  21.962  25.677  1.00  0.00     0.014 A 
ATOM     12  C   UNL A   1      42.008  22.522  28.404  1.00  0.00     0.010 A 
ATOM     13  C   UNL A   1      42.546  23.243  26.154  1.00  0.00     0.010 A 
ATOM     14  C   UNL A   1      42.399  23.538  27.519  1.00  0.00    -0.014 A 
BRANCH  14  15
ATOM     15  C   UNL A   1      42.733  24.882  28.047  1.00  0.00     0.031 A 
ATOM     16  C   UNL A   1      44.129  25.225  28.480  1.00  0.00     0.074 A 
ATOM     17  C   UNL A   1      41.748  25.795  28.152  1.00  0.00     0.049 A 
ATOM     18  N   UNL A   1      44.580  26.342  28.993  1.00  0.00    -0.248 NA
ATOM     19  C   UNL A   1      45.150  24.178  28.326  1.00  0.00     0.031 C 
ATOM     20  C   UNL A   1      40.351  25.572  27.773  1.00  0.00     0.029 A 
ATOM     21  N   UNL A   1      41.769  27.087  28.608  1.00  0.00    -0.354 N 
ATOM     22  C   UNL A   1      45.928  26.126  29.246  1.00  0.00     0.074 A 
ATOM     23  C   UNL A   1      46.216  24.762  28.852  1.00  0.00     0.031 C 
ATOM     24  C   UNL A   1      39.652  26.694  27.993  1.00  0.00     0.029 A 
ATOM     25  C   UNL A   1      40.535  27.689  28.590  1.00  0.00     0.049 A 
ATOM     26  H   UNL A   1      42.587  27.538  28.918  1.00  0.00     0.167 HD
ATOM     27  C   UNL A   1      46.840  26.987  29.760  1.00  0.00     0.031 A 
ATOM     28  C   UNL A   1      40.142  28.895  29.037  1.00  0.00     0.031 A 
ATOM     29  C   UNL A   1      46.538  28.335  30.169  1.00  0.00     0.049 A 
ATOM     30  C   UNL A   1      41.158  29.814  29.646  1.00  0.00     0.074 A 
ATOM     31  C   UNL A   1      47.399  29.300  30.661  1.00  0.00     0.029 A 
ATOM     32  N   UNL A   1      45.271  28.903  30.150  1.00  0.00    -0.354 N 
ATOM     33  N   UNL A   1      42.442  29.618  29.825  1.00  0.00    -0.248 NA
ATOM     34  C   UNL A   1      40.675  31.120  30.112  1.00  0.00     0.031 C 
ATOM     35  C   UNL A   1      46.643  30.425  31.007  1.00  0.00     0.029 A 
ATOM     36  C   UNL A   1      45.322  30.191  30.660  1.00  0.00     0.049 A 
ATOM     37  H   UNL A   1      44.457  28.457  29.823  1.00  0.00     0.167 HD
ATOM     38  C   UNL A   1      42.926  30.782  30.404  1.00  0.00     0.074 A 
ATOM     39  C   UNL A   1      41.799  31.683  30.533  1.00  0.00     0.031 C 
ATOM     40  C   UNL A   1      44.191  31.075  30.791  1.00  0.00     0.031 A 
BRANCH  27  41
ATOM     41  C   UNL A   1      48.242  26.475  29.958  1.00  0.00    -0.014 A 
ATOM     42  C   UNL A   1      49.225  26.617  28.965  1.00  0.00     0.009 A 
ATOM     43  C   UNL A   1      48.591  25.858  31.170  1.00  0.00     0.009 A 
ATOM     44  C   UNL A   1      50.511  26.107  29.162  1.00  0.00     0.001 A 
ATOM     45  C   UNL A   1      49.886  25.380  31.378  1.00  0.00     0.001 A 
ATOM     46  C   UNL A   1      50.841  25.493  30.370  1.00  0.00     0.000 A 
ENDBRANCH  27  41
BRANCH  28  47
ATOM     47  C   UNL A   1      38.708  29.273  28.945  1.00  0.00    -0.014 A 
ATOM     48  C   UNL A   1      38.166  29.754  27.746  1.00  0.00     0.009 A 
ATOM     49  C   UNL A   1      37.862  29.104  30.055  1.00  0.00     0.009 A 
ATOM     50  C   UNL A   1      36.807  30.072  27.664  1.00  0.00     0.001 A 
ATOM     51  C   UNL A   1      36.500  29.391  29.961  1.00  0.00     0.001 A 
ATOM     52  C   UNL A   1      35.976  29.882  28.767  1.00  0.00     0.000 A 
ENDBRANCH  28  47
BRANCH  40  53
ATOM     53  C   UNL A   1      44.435  32.443  31.365  1.00  0.00    -0.014 A 
ATOM     54  C   UNL A   1      44.740  33.539  30.543  1.00  0.00     0.009 A 
ATOM     55  C   UNL A   1      44.303  32.647  32.748  1.00  0.00     0.009 A 
ATOM     56  C   UNL A   1      44.934  34.806  31.099  1.00  0.00     0.001 A 
ATOM     57  C   UNL A   1      44.466  33.918  33.297  1.00  0.00     0.001 A 
ATOM     58  C   UNL A   1      44.788  34.996  32.473  1.00  0.00     0.000 A 
ENDBRANCH  40  53
ENDBRANCH  14  15
ENDBRANCH   7   9
ENDBRANCH   4   5
ENDBRANCH   3   4
ENDBRANCH   2   3
ENDBRANCH   1   2
BRANCH   1  59
ATOM     59  C   UNL A   1      37.282  23.172  25.235  1.00  0.00     0.021 C 
BRANCH  59  60
ATOM     60  C   UNL A   1      36.033  23.781  25.858  1.00  0.00     0.116 C 
BRANCH  60  61
ATOM     61  N   UNL A   1      35.429  22.912  26.851  1.00  0.00    -0.351 N 
ATOM     62  C   UNL A   1      34.103  22.574  27.006  1.00  0.00     0.269 C 
ATOM     63  H   UNL A   1      36.050  22.509  27.499  1.00  0.00     0.163 HD
ATOM     64  O   UNL A   1      33.756  21.866  27.948  1.00  0.00    -0.268 OA
BRANCH  62  65
ATOM     65  C   UNL A   1      33.109  23.069  26.016  1.00  0.00     0.129 A 
ATOM     66  C   UNL A   1      32.387  24.228  26.289  1.00  0.00     0.049 A 
ATOM     67  N   UNL A   1      32.931  22.300  24.915  1.00  0.00    -0.251 NA
ATOM     68  C   UNL A   1      31.372  24.582  25.412  1.00  0.00     0.012 A 
ATOM     69  C   UNL A   1      31.986  22.702  24.050  1.00  0.00     0.113 A 
ATOM     70  C   UNL A   1      31.185  23.811  24.259  1.00  0.00     0.035 A 
BRANCH  68  71
ATOM     71  S   UNL A   1      30.262  25.957  25.626  1.00  0.00    -0.116 SA
BRANCH  71  72
ATOM     72  C   UNL A   1      29.543  26.270  24.000  1.00  0.00     0.175 C 
BRANCH  72  73
ATOM     73  C   UNL A   1      29.928  27.510  23.205  1.00  0.00     0.233 C 
ATOM     74  O   UNL A   1      29.335  28.567  23.465  1.00  0.00    -0.274 OA
ATOM     75  N   UNL A   1      31.049  27.540  22.404  1.00  0.00    -0.337 N 
ATOM     76  C   UNL A   1      31.630  26.456  21.613  1.00  0.00     0.148 C 
ATOM     77  C   UNL A   1      31.849  28.770  22.334  1.00  0.00     0.148 C 
ATOM     78  C   UNL A   1      33.067  26.192  22.061  1.00  0.00     0.181 C 
ATOM     79  C   UNL A   1      33.290  28.451  22.766  1.00  0.00     0.181 C 
ATOM     80  O   UNL A   1      33.852  27.392  21.970  1.00  0.00    -0.378 OA
ENDBRANCH  72  73
ENDBRANCH  71  72
ENDBRANCH  68  71
ENDBRANCH  62  65
ENDBRANCH  60  61
ENDBRANCH  59  60
ENDBRANCH   1  59
TORSDOF 16
ENDMDL
MODEL 3
REMARK VINA RESULT:     -11.0      3.677      9.133
REMARK SMILES O=C(NCCCCCCNC(=O)c1cc(SCC(=O)N2CCOCC2)ccn1)c1ccc(-c2c3nc(c(-c4ccccc4)c4ccc([nH]4)c(-c4ccccc4)c4nc(c(-c5ccccc5)c5ccc2[nH]5)C=C4)C=C3)cc1
REMARK SMILES IDX 7 1 6 2 5 3 4 4 3 5 1 6 2 7 29 9 30 10 76 11 31 12 75 13
REMARK SMILES IDX 32 14 33 15 34 16 69 17 35 18 74 19 68 20 70 21 36 22 73 23
REMARK SMILES IDX 67 24 66 25 37 27 59 28 44 29 58 30 45 31 48 32 57 33 71 34
REMARK SMILES IDX 46 35 47 36 56 38 72 39 49 40 38 41 39 42 43 43 40 44 42 45
REMARK SMILES IDX 41 46 60 47 61 48 65 49 62 50 64 51 63 52 50 53 51 54 55 55
REMARK SMILES IDX 52 56 54 57 53 58 8 59 9 60 10 61 11 62 12 64 13 65 14 66
REMARK SMILES IDX 28 67 15 68 27 69 26 70 16 71 17 72 18 73 19 74 20 75 21 76
REMARK SMILES IDX 25 77 22 78 24 79 23 80
REMARK H PARENT 3 8 70 26 48 37 10 63
REMARK Flexibility Score: inf
ROOT
ATOM      1  C   UNL A   1      36.985  22.099  24.118  1.00  0.00     0.002 C 
ENDROOT
BRANCH   1   2
ATOM      2  C   UNL A   1      36.715  20.726  24.742  1.00  0.00     0.002 C 
BRANCH   2   3
ATOM      3  C   UNL A   1      37.925  19.793  24.807  1.00  0.00     0.021 C 
BRANCH   3   4
ATOM      4  C   UNL A   1      38.966  20.179  25.850  1.00  0.00     0.116 C 
BRANCH   4   5
ATOM      5  N   UNL A   1      40.123  19.300  25.827  1.00  0.00    -0.352 N 
ATOM      6  O   UNL A   1      42.319  18.772  25.806  1.00  0.00    -0.269 OA
ATOM      7  C   UNL A   1      41.443  19.600  26.045  1.00  0.00     0.251 C 
ATOM      8  H   UNL A   1      39.932  18.355  25.625  1.00  0.00     0.163 HD
BRANCH   7   9
ATOM      9  C   UNL A   1      41.812  20.935  26.555  1.00  0.00     0.039 A 
ATOM     10  C   UNL A   1      42.167  21.959  25.672  1.00  0.00     0.014 A 
ATOM     11  C   UNL A   1      41.789  21.168  27.932  1.00  0.00     0.014 A 
ATOM     12  C   UNL A   1      42.620  23.173  26.170  1.00  0.00     0.010 A 
ATOM     13  C   UNL A   1      42.162  22.418  28.427  1.00  0.00     0.010 A 
ATOM     14  C   UNL A   1      42.600  23.424  27.551  1.00  0.00    -0.014 A 
BRANCH  14  15
ATOM     15  C   UNL A   1      42.958  24.770  28.057  1.00  0.00     0.031 A 
ATOM     16  C   UNL A   1      41.908  25.808  28.325  1.00  0.00     0.074 A 
ATOM     17  C   UNL A   1      44.260  25.057  28.256  1.00  0.00     0.049 A 
ATOM     18  N   UNL A   1      42.056  27.042  28.738  1.00  0.00    -0.248 NA
ATOM     19  C   UNL A   1      40.510  25.415  28.093  1.00  0.00     0.031 C 
ATOM     20  C   UNL A   1      45.371  24.132  28.018  1.00  0.00     0.029 A 
ATOM     21  N   UNL A   1      44.867  26.203  28.697  1.00  0.00    -0.354 N 
ATOM     22  C   UNL A   1      40.778  27.580  28.792  1.00  0.00     0.074 A 
ATOM     23  C   UNL A   1      39.867  26.546  28.345  1.00  0.00     0.031 C 
ATOM     24  C   UNL A   1      46.522  24.739  28.336  1.00  0.00     0.029 A 
ATOM     25  C   UNL A   1      46.237  26.113  28.731  1.00  0.00     0.049 A 
ATOM     26  H   UNL A   1      44.372  27.011  28.963  1.00  0.00     0.167 HD
ATOM     27  C   UNL A   1      40.401  28.823  29.177  1.00  0.00     0.031 A 
ATOM     28  C   UNL A   1      47.169  27.040  29.014  1.00  0.00     0.031 A 
ATOM     29  C   UNL A   1      41.317  29.852  29.599  1.00  0.00     0.049 A 
ATOM     30  C   UNL A   1      46.731  28.423  29.392  1.00  0.00     0.074 A 
ATOM     31  C   UNL A   1      41.032  31.129  30.050  1.00  0.00     0.029 A 
ATOM     32  N   UNL A   1      42.699  29.727  29.604  1.00  0.00    -0.354 N 
ATOM     33  N   UNL A   1      45.514  28.902  29.495  1.00  0.00    -0.248 NA
ATOM     34  C   UNL A   1      47.790  29.394  29.695  1.00  0.00     0.031 C 
ATOM     35  C   UNL A   1      42.241  31.800  30.258  1.00  0.00     0.029 A 
ATOM     36  C   UNL A   1      43.281  30.917  30.011  1.00  0.00     0.049 A 
ATOM     37  H   UNL A   1      43.194  28.913  29.355  1.00  0.00     0.167 HD
ATOM     38  C   UNL A   1      45.660  30.222  29.896  1.00  0.00     0.074 A 
ATOM     39  C   UNL A   1      47.083  30.463  30.030  1.00  0.00     0.031 C 
ATOM     40  C   UNL A   1      44.699  31.148  30.132  1.00  0.00     0.031 A 
BRANCH  27  41
ATOM     41  C   UNL A   1      38.933  29.155  29.109  1.00  0.00    -0.014 A 
ATOM     42  C   UNL A   1      38.093  29.013  30.226  1.00  0.00     0.009 A 
ATOM     43  C   UNL A   1      38.386  29.637  27.909  1.00  0.00     0.009 A 
ATOM     44  C   UNL A   1      36.729  29.301  30.128  1.00  0.00     0.001 A 
ATOM     45  C   UNL A   1      37.029  29.955  27.823  1.00  0.00     0.001 A 
ATOM     46  C   UNL A   1      36.200  29.775  28.928  1.00  0.00     0.000 A 
ENDBRANCH  27  41
BRANCH  28  47
ATOM     47  C   UNL A   1      48.607  26.680  28.913  1.00  0.00    -0.014 A 
ATOM     48  C   UNL A   1      49.312  26.860  27.716  1.00  0.00     0.009 A 
ATOM     49  C   UNL A   1      49.293  26.194  30.041  1.00  0.00     0.009 A 
ATOM     50  C   UNL A   1      50.673  26.549  27.645  1.00  0.00     0.001 A 
ATOM     51  C   UNL A   1      50.659  25.916  29.976  1.00  0.00     0.001 A 
ATOM     52  C   UNL A   1      51.345  26.087  28.776  1.00  0.00     0.000 A 
ENDBRANCH  28  47
BRANCH  40  53
ATOM     53  C   UNL A   1      45.151  32.505  30.594  1.00  0.00    -0.014 A 
ATOM     54  C   UNL A   1      45.327  33.566  29.691  1.00  0.00     0.009 A 
ATOM     55  C   UNL A   1      45.352  32.739  31.963  1.00  0.00     0.009 A 
ATOM     56  C   UNL A   1      45.720  34.825  30.149  1.00  0.00     0.001 A 
ATOM     57  C   UNL A   1      45.714  34.005  32.422  1.00  0.00     0.001 A 
ATOM     58  C   UNL A   1      45.904  35.046  31.514  1.00  0.00     0.000 A 
ENDBRANCH  40  53
ENDBRANCH  14  15
ENDBRANCH   7   9
ENDBRANCH   4   5
ENDBRANCH   3   4
ENDBRANCH   2   3
ENDBRANCH   1   2
BRANCH   1  59
ATOM     59  C   UNL A   1      37.236  23.233  25.115  1.00  0.00     0.021 C 
BRANCH  59  60
ATOM     60  C   UNL A   1      35.977  23.784  25.772  1.00  0.00     0.116 C 
BRANCH  60  61
ATOM     61  N   UNL A   1      35.430  22.878  26.766  1.00  0.00    -0.351 N 
ATOM     62  C   UNL A   1      34.122  22.483  26.943  1.00  0.00     0.269 C 
ATOM     63  H   UNL A   1      36.080  22.493  27.396  1.00  0.00     0.163 HD
ATOM     64  O   UNL A   1      33.824  21.750  27.882  1.00  0.00    -0.268 OA
BRANCH  62  65
ATOM     65  C   UNL A   1      33.089  22.949  25.979  1.00  0.00     0.129 A 
ATOM     66  C   UNL A   1      32.378  24.115  26.246  1.00  0.00     0.049 A 
ATOM     67  N   UNL A   1      32.868  22.146  24.910  1.00  0.00    -0.251 NA
ATOM     68  C   UNL A   1      31.328  24.443  25.400  1.00  0.00     0.012 A 
ATOM     69  C   UNL A   1      31.888  22.522  24.071  1.00  0.00     0.113 A 
ATOM     70  C   UNL A   1      31.096  23.637  24.279  1.00  0.00     0.035 A 
BRANCH  68  71
ATOM     71  S   UNL A   1      30.227  25.824  25.616  1.00  0.00    -0.116 SA
BRANCH  71  72
ATOM     72  C   UNL A   1      29.522  26.156  23.987  1.00  0.00     0.175 C 
BRANCH  72  73
ATOM     73  C   UNL A   1      29.958  27.374  23.185  1.00  0.00     0.233 C 
ATOM     74  O   UNL A   1      29.407  28.455  23.436  1.00  0.00    -0.274 OA
ATOM     75  N   UNL A   1      31.082  27.355  22.386  1.00  0.00    -0.337 N 
ATOM     76  C   UNL A   1      31.621  26.243  21.604  1.00  0.00     0.148 C 
ATOM     77  C   UNL A   1      31.929  28.551  22.311  1.00  0.00     0.148 C 
ATOM     78  C   UNL A   1      33.045  25.925  22.057  1.00  0.00     0.181 C 
ATOM     79  C   UNL A   1      33.356  28.177  22.748  1.00  0.00     0.181 C 
ATOM     80  O   UNL A   1      33.877  27.093  21.960  1.00  0.00    -0.378 OA
ENDBRANCH  72  73
ENDBRANCH  71  72
ENDBRANCH  68  71
ENDBRANCH  62  65
ENDBRANCH  60  61
ENDBRANCH  59  60
ENDBRANCH   1  59
TORSDOF 16
ENDMDL
