MODEL 1
REMARK VINA RESULT:     -10.7      0.000      0.000
REMARK SMILES CNC(=O)c1cc(S(=O)(=O)N2CCC(C(=O)NCCCCCCNC(=O)c3ccc(-c4c5nc(c(-c6ccccc6)c6ccc([nH]6)c(-c6ccccc6)c6nc(c(-c7ccccc7)c7ccc4[nH]7)C=C6)C=C5)cc3)CC2)ccc1OC
REMARK SMILES IDX 20 1 19 2 18 3 17 4 15 5 16 6 14 8 11 9 12 10 76 11 13 12
REMARK SMILES IDX 75 13 8 14 9 15 10 16 7 17 5 18 6 19 79 20 78 21 77 22 3 23
REMARK SMILES IDX 1 24 2 25 4 27 80 28 81 29 21 30 22 31 23 32 24 33 25 34
REMARK SMILES IDX 26 36 27 37 28 38 74 39 29 40 73 41 30 42 31 43 32 44 67 45
REMARK SMILES IDX 33 46 72 47 66 48 68 49 34 50 71 51 65 52 64 53 35 55 57 56
REMARK SMILES IDX 42 57 56 58 43 59 46 60 55 61 69 62 44 63 45 64 54 66 70 67
REMARK SMILES IDX 47 68 36 69 37 70 41 71 38 72 40 73 39 74 58 75 59 76 63 77
REMARK SMILES IDX 60 78 62 79 61 80 48 81 49 82 53 83 50 84 52 85 51 86
REMARK H PARENT 17 7 2 26 24 35 68 54 46 65
REMARK Flexibility Score: inf
ROOT
ATOM      1  C   UNL A   1      41.333  21.979  26.403  1.00  0.00     0.002 C 
ENDROOT
BRANCH   1   2
ATOM      2  C   UNL A   1      40.354  22.853  27.190  1.00  0.00     0.021 C 
BRANCH   2   3
ATOM      3  C   UNL A   1      39.041  23.122  26.464  1.00  0.00     0.116 C 
BRANCH   3   4
ATOM      4  N   UNL A   1      38.583  21.951  25.737  1.00  0.00    -0.356 N 
ATOM      5  C   UNL A   1      37.370  21.649  25.207  1.00  0.00     0.223 C 
ATOM      6  O   UNL A   1      37.237  20.562  24.641  1.00  0.00    -0.275 OA
ATOM      7  H   UNL A   1      39.270  21.257  25.607  1.00  0.00     0.163 HD
BRANCH   5   8
ATOM      8  C   UNL A   1      36.201  22.616  25.285  1.00  0.00     0.081 C 
ATOM      9  N   UNL A   1      33.472  23.439  24.901  1.00  0.00    -0.198 NA
ATOM     10  C   UNL A   1      34.509  23.967  23.987  1.00  0.00     0.103 C 
ATOM     11  C   UNL A   1      33.903  23.014  26.255  1.00  0.00     0.103 C 
ATOM     12  C   UNL A   1      35.706  23.037  23.904  1.00  0.00     0.030 C 
ATOM     13  C   UNL A   1      35.099  22.086  26.201  1.00  0.00     0.030 C 
BRANCH   9  14
ATOM     14  S   UNL A   1      31.937  24.191  24.815  1.00  0.00     0.243 S 
ATOM     15  O   UNL A   1      31.174  23.728  25.954  1.00  0.00    -0.207 OA
ATOM     16  O   UNL A   1      31.442  24.042  23.463  1.00  0.00    -0.207 OA
BRANCH  14  17
ATOM     17  C   UNL A   1      32.189  25.942  25.066  1.00  0.00     0.083 A 
ATOM     18  C   UNL A   1      32.509  28.116  24.042  1.00  0.00     0.083 A 
ATOM     19  C   UNL A   1      32.347  26.728  23.920  1.00  0.00     0.039 A 
ATOM     20  C   UNL A   1      32.432  28.725  25.301  1.00  0.00     0.131 A 
ATOM     21  C   UNL A   1      32.323  27.931  26.440  1.00  0.00     0.048 A 
ATOM     22  C   UNL A   1      32.208  26.547  26.325  1.00  0.00     0.025 A 
BRANCH  18  23
ATOM     23  C   UNL A   1      32.758  28.869  22.799  1.00  0.00     0.254 C 
ATOM     24  C   UNL A   1      30.301  29.389  22.442  1.00  0.00     0.143 C 
ATOM     25  N   UNL A   1      31.707  29.411  22.105  1.00  0.00    -0.355 N 
ATOM     26  H   UNL A   1      31.940  29.876  21.270  1.00  0.00     0.163 HD
ATOM     27  O   UNL A   1      33.913  29.024  22.414  1.00  0.00    -0.269 OA
ENDBRANCH  18  23
BRANCH  20  28
ATOM     28  O   UNL A   1      32.503  30.070  25.535  1.00  0.00    -0.496 OA
ATOM     29  C   UNL A   1      31.907  30.445  26.779  1.00  0.00     0.278 C 
ENDBRANCH  20  28
ENDBRANCH  14  17
ENDBRANCH   9  14
ENDBRANCH   5   8
ENDBRANCH   3   4
ENDBRANCH   2   3
ENDBRANCH   1   2
BRANCH   1  30
ATOM     30  C   UNL A   1      41.578  20.587  26.994  1.00  0.00     0.002 C 
BRANCH  30  31
ATOM     31  C   UNL A   1      41.987  19.506  25.986  1.00  0.00     0.021 C 
BRANCH  31  32
ATOM     32  C   UNL A   1      43.354  18.875  26.231  1.00  0.00     0.116 C 
BRANCH  32  33
ATOM     33  N   UNL A   1      44.085  18.650  24.998  1.00  0.00    -0.352 N 
ATOM     34  C   UNL A   1      44.725  19.541  24.179  1.00  0.00     0.251 C 
ATOM     35  H   UNL A   1      44.127  17.711  24.704  1.00  0.00     0.163 HD
ATOM     36  O   UNL A   1      45.152  19.165  23.090  1.00  0.00    -0.269 OA
BRANCH  34  37
ATOM     37  C   UNL A   1      44.892  20.955  24.581  1.00  0.00     0.039 A 
ATOM     38  C   UNL A   1      45.590  21.226  25.761  1.00  0.00     0.014 A 
ATOM     39  C   UNL A   1      44.333  22.004  23.844  1.00  0.00     0.014 A 
ATOM     40  C   UNL A   1      45.756  22.545  26.184  1.00  0.00     0.010 A 
ATOM     41  C   UNL A   1      44.551  23.326  24.234  1.00  0.00     0.010 A 
ATOM     42  C   UNL A   1      45.253  23.607  25.414  1.00  0.00    -0.014 A 
BRANCH  42  43
ATOM     43  C   UNL A   1      45.467  25.009  25.851  1.00  0.00     0.031 A 
ATOM     44  C   UNL A   1      44.349  25.799  26.473  1.00  0.00     0.074 A 
ATOM     45  C   UNL A   1      46.674  25.576  25.677  1.00  0.00     0.049 A 
ATOM     46  N   UNL A   1      44.376  27.007  26.977  1.00  0.00    -0.248 NA
ATOM     47  C   UNL A   1      43.025  25.159  26.519  1.00  0.00     0.031 C 
ATOM     48  C   UNL A   1      47.827  24.937  25.038  1.00  0.00     0.029 A 
ATOM     49  N   UNL A   1      47.138  26.817  26.036  1.00  0.00    -0.354 N 
ATOM     50  C   UNL A   1      43.077  27.274  27.390  1.00  0.00     0.074 A 
ATOM     51  C   UNL A   1      42.277  26.122  27.037  1.00  0.00     0.031 C 
ATOM     52  C   UNL A   1      48.875  25.774  25.084  1.00  0.00     0.029 A 
ATOM     53  C   UNL A   1      48.464  27.013  25.738  1.00  0.00     0.049 A 
ATOM     54  H   UNL A   1      46.574  27.501  26.463  1.00  0.00     0.167 HD
ATOM     55  C   UNL A   1      42.597  28.371  28.024  1.00  0.00     0.031 A 
ATOM     56  C   UNL A   1      49.266  28.066  25.982  1.00  0.00     0.031 A 
ATOM     57  C   UNL A   1      43.390  29.515  28.384  1.00  0.00     0.049 A 
ATOM     58  C   UNL A   1      48.719  29.256  26.716  1.00  0.00     0.074 A 
ATOM     59  C   UNL A   1      43.006  30.651  29.076  1.00  0.00     0.029 A 
ATOM     60  N   UNL A   1      44.734  29.669  28.079  1.00  0.00    -0.354 N 
ATOM     61  N   UNL A   1      47.507  29.458  27.173  1.00  0.00    -0.248 NA
ATOM     62  C   UNL A   1      49.658  30.352  26.987  1.00  0.00     0.031 C 
ATOM     63  C   UNL A   1      44.109  31.508  29.157  1.00  0.00     0.029 A 
ATOM     64  C   UNL A   1      45.190  30.887  28.556  1.00  0.00     0.049 A 
ATOM     65  H   UNL A   1      45.282  29.009  27.596  1.00  0.00     0.167 HD
ATOM     66  C   UNL A   1      47.544  30.693  27.805  1.00  0.00     0.074 A 
ATOM     67  C   UNL A   1      48.902  31.183  27.690  1.00  0.00     0.031 C 
ATOM     68  C   UNL A   1      46.543  31.362  28.427  1.00  0.00     0.031 A 
BRANCH  55  69
ATOM     69  C   UNL A   1      41.133  28.380  28.368  1.00  0.00    -0.014 A 
ATOM     70  C   UNL A   1      40.668  27.829  29.572  1.00  0.00     0.009 A 
ATOM     71  C   UNL A   1      40.212  28.974  27.491  1.00  0.00     0.009 A 
ATOM     72  C   UNL A   1      39.305  27.840  29.875  1.00  0.00     0.001 A 
ATOM     73  C   UNL A   1      38.853  29.006  27.810  1.00  0.00     0.001 A 
ATOM     74  C   UNL A   1      38.399  28.432  28.997  1.00  0.00     0.000 A 
ENDBRANCH  55  69
BRANCH  56  75
ATOM     75  C   UNL A   1      50.692  28.020  25.572  1.00  0.00    -0.014 A 
ATOM     76  C   UNL A   1      51.686  27.658  26.496  1.00  0.00     0.009 A 
ATOM     77  C   UNL A   1      51.067  28.333  24.257  1.00  0.00     0.009 A 
ATOM     78  C   UNL A   1      53.029  27.637  26.117  1.00  0.00     0.001 A 
ATOM     79  C   UNL A   1      52.409  28.286  23.875  1.00  0.00     0.001 A 
ATOM     80  C   UNL A   1      53.389  27.947  24.806  1.00  0.00     0.000 A 
ENDBRANCH  56  75
BRANCH  68  81
ATOM     81  C   UNL A   1      46.893  32.683  29.049  1.00  0.00    -0.014 A 
ATOM     82  C   UNL A   1      46.776  33.881  28.329  1.00  0.00     0.009 A 
ATOM     83  C   UNL A   1      47.337  32.728  30.380  1.00  0.00     0.009 A 
ATOM     84  C   UNL A   1      47.135  35.096  28.915  1.00  0.00     0.001 A 
ATOM     85  C   UNL A   1      47.671  33.946  30.972  1.00  0.00     0.001 A 
ATOM     86  C   UNL A   1      47.582  35.127  30.237  1.00  0.00     0.000 A 
ENDBRANCH  68  81
ENDBRANCH  42  43
ENDBRANCH  34  37
ENDBRANCH  32  33
ENDBRANCH  31  32
ENDBRANCH  30  31
ENDBRANCH   1  30
TORSDOF 17
ENDMDL
MODEL 2
REMARK VINA RESULT:     -10.6      0.804      5.765
REMARK SMILES CNC(=O)c1cc(S(=O)(=O)N2CCC(C(=O)NCCCCCCNC(=O)c3ccc(-c4c5nc(c(-c6ccccc6)c6ccc([nH]6)c(-c6ccccc6)c6nc(c(-c7ccccc7)c7ccc4[nH]7)C=C6)C=C5)cc3)CC2)ccc1OC
REMARK SMILES IDX 20 1 19 2 18 3 17 4 15 5 16 6 14 8 11 9 12 10 76 11 13 12
REMARK SMILES IDX 75 13 8 14 9 15 10 16 7 17 5 18 6 19 79 20 78 21 77 22 3 23
REMARK SMILES IDX 1 24 2 25 4 27 80 28 81 29 21 30 22 31 23 32 24 33 25 34
REMARK SMILES IDX 26 36 27 37 28 38 74 39 29 40 73 41 30 42 31 43 32 44 67 45
REMARK SMILES IDX 33 46 72 47 66 48 68 49 34 50 71 51 65 52 64 53 35 55 57 56
REMARK SMILES IDX 42 57 56 58 43 59 46 60 55 61 69 62 44 63 45 64 54 66 70 67
REMARK SMILES IDX 47 68 36 69 37 70 41 71 38 72 40 73 39 74 58 75 59 76 63 77
REMARK SMILES IDX 60 78 62 79 61 80 48 81 49 82 53 83 50 84 52 85 51 86
REMARK H PARENT 17 7 2 26 24 35 68 54 46 65
REMARK Flexibility Score: inf
ROOT
ATOM      1  C   UNL A   1      41.079  21.847  26.401  1.00  0.00     0.002 C 
ENDROOT
BRANCH   1   2
ATOM      2  C   UNL A   1      40.111  22.777  27.133  1.00  0.00     0.021 C 
BRANCH   2   3
ATOM      3  C   UNL A   1      38.831  23.075  26.359  1.00  0.00     0.116 C 
BRANCH   3   4
ATOM      4  N   UNL A   1      38.513  22.010  25.425  1.00  0.00    -0.356 N 
ATOM      5  C   UNL A   1      37.349  21.689  24.802  1.00  0.00     0.223 C 
ATOM      6  O   UNL A   1      37.341  20.709  24.054  1.00  0.00    -0.275 OA
ATOM      7  H   UNL A   1      39.270  21.419  25.206  1.00  0.00     0.163 HD
BRANCH   5   8
ATOM      8  C   UNL A   1      36.086  22.510  24.997  1.00  0.00     0.081 C 
ATOM      9  N   UNL A   1      33.253  22.996  24.885  1.00  0.00    -0.198 NA
ATOM     10  C   UNL A   1      34.126  23.637  23.875  1.00  0.00     0.103 C 
ATOM     11  C   UNL A   1      33.862  22.639  26.189  1.00  0.00     0.103 C 
ATOM     12  C   UNL A   1      35.411  22.855  23.672  1.00  0.00     0.030 C 
ATOM     13  C   UNL A   1      35.151  21.860  26.015  1.00  0.00     0.030 C 
BRANCH   9  14
ATOM     14  S   UNL A   1      31.639  23.559  24.952  1.00  0.00     0.243 S 
ATOM     15  O   UNL A   1      31.063  23.050  26.178  1.00  0.00    -0.207 OA
ATOM     16  O   UNL A   1      31.024  23.304  23.667  1.00  0.00    -0.207 OA
BRANCH  14  17
ATOM     17  C   UNL A   1      31.702  25.335  25.134  1.00  0.00     0.083 A 
ATOM     18  C   UNL A   1      31.438  27.497  24.069  1.00  0.00     0.083 A 
ATOM     19  C   UNL A   1      31.444  26.097  23.989  1.00  0.00     0.039 A 
ATOM     20  C   UNL A   1      31.609  28.132  25.306  1.00  0.00     0.131 A 
ATOM     21  C   UNL A   1      31.913  27.369  26.432  1.00  0.00     0.048 A 
ATOM     22  C   UNL A   1      31.964  25.978  26.346  1.00  0.00     0.025 A 
BRANCH  18  23
ATOM     23  C   UNL A   1      31.247  28.235  22.808  1.00  0.00     0.254 C 
ATOM     24  C   UNL A   1      33.653  29.038  22.737  1.00  0.00     0.143 C 
ATOM     25  N   UNL A   1      32.292  28.933  22.259  1.00  0.00    -0.355 N 
ATOM     26  H   UNL A   1      32.089  29.427  21.432  1.00  0.00     0.163 HD
ATOM     27  O   UNL A   1      30.156  28.192  22.248  1.00  0.00    -0.269 OA
ENDBRANCH  18  23
BRANCH  20  28
ATOM     28  O   UNL A   1      31.551  29.481  25.519  1.00  0.00    -0.496 OA
ATOM     29  C   UNL A   1      32.686  29.977  26.231  1.00  0.00     0.278 C 
ENDBRANCH  20  28
ENDBRANCH  14  17
ENDBRANCH   9  14
ENDBRANCH   5   8
ENDBRANCH   3   4
ENDBRANCH   2   3
ENDBRANCH   1   2
BRANCH   1  30
ATOM     30  C   UNL A   1      41.268  20.470  27.046  1.00  0.00     0.002 C 
BRANCH  30  31
ATOM     31  C   UNL A   1      41.724  19.355  26.098  1.00  0.00     0.021 C 
BRANCH  31  32
ATOM     32  C   UNL A   1      43.189  18.952  26.227  1.00  0.00     0.116 C 
BRANCH  32  33
ATOM     33  N   UNL A   1      43.849  18.852  24.939  1.00  0.00    -0.352 N 
ATOM     34  C   UNL A   1      44.428  19.826  24.170  1.00  0.00     0.251 C 
ATOM     35  H   UNL A   1      43.886  17.945  24.559  1.00  0.00     0.163 HD
ATOM     36  O   UNL A   1      44.795  19.558  23.029  1.00  0.00    -0.269 OA
BRANCH  34  37
ATOM     37  C   UNL A   1      44.600  21.200  24.689  1.00  0.00     0.039 A 
ATOM     38  C   UNL A   1      45.085  21.357  25.991  1.00  0.00     0.014 A 
ATOM     39  C   UNL A   1      44.246  22.324  23.935  1.00  0.00     0.014 A 
ATOM     40  C   UNL A   1      45.246  22.636  26.524  1.00  0.00     0.010 A 
ATOM     41  C   UNL A   1      44.465  23.605  24.446  1.00  0.00     0.010 A 
ATOM     42  C   UNL A   1      44.954  23.771  25.749  1.00  0.00    -0.014 A 
BRANCH  42  43
ATOM     43  C   UNL A   1      45.165  25.128  26.310  1.00  0.00     0.031 A 
ATOM     44  C   UNL A   1      46.516  25.785  26.245  1.00  0.00     0.074 A 
ATOM     45  C   UNL A   1      44.134  25.769  26.889  1.00  0.00     0.049 A 
ATOM     46  N   UNL A   1      46.864  26.991  26.618  1.00  0.00    -0.248 NA
ATOM     47  C   UNL A   1      47.625  24.980  25.710  1.00  0.00     0.031 C 
ATOM     48  C   UNL A   1      42.787  25.222  27.065  1.00  0.00     0.029 A 
ATOM     49  N   UNL A   1      44.054  27.029  27.427  1.00  0.00    -0.354 N 
ATOM     50  C   UNL A   1      48.227  27.085  26.373  1.00  0.00     0.074 A 
ATOM     51  C   UNL A   1      48.654  25.800  25.861  1.00  0.00     0.031 C 
ATOM     52  C   UNL A   1      42.005  26.154  27.633  1.00  0.00     0.029 A 
ATOM     53  C   UNL A   1      42.798  27.354  27.877  1.00  0.00     0.049 A 
ATOM     54  H   UNL A   1      44.823  27.640  27.486  1.00  0.00     0.167 HD
ATOM     55  C   UNL A   1      49.048  28.150  26.538  1.00  0.00     0.031 A 
ATOM     56  C   UNL A   1      42.331  28.498  28.410  1.00  0.00     0.031 A 
ATOM     57  C   UNL A   1      48.628  29.431  27.038  1.00  0.00     0.049 A 
ATOM     58  C   UNL A   1      43.253  29.675  28.553  1.00  0.00     0.074 A 
ATOM     59  C   UNL A   1      49.374  30.587  27.191  1.00  0.00     0.029 A 
ATOM     60  N   UNL A   1      47.343  29.725  27.468  1.00  0.00    -0.354 N 
ATOM     61  N   UNL A   1      44.522  29.773  28.239  1.00  0.00    -0.248 NA
ATOM     62  C   UNL A   1      42.669  30.906  29.102  1.00  0.00     0.031 C 
ATOM     63  C   UNL A   1      48.549  31.571  27.748  1.00  0.00     0.029 A 
ATOM     64  C   UNL A   1      47.279  31.040  27.900  1.00  0.00     0.049 A 
ATOM     65  H   UNL A   1      46.589  29.093  27.467  1.00  0.00     0.167 HD
ATOM     66  C   UNL A   1      44.882  31.081  28.531  1.00  0.00     0.074 A 
ATOM     67  C   UNL A   1      43.693  31.744  29.027  1.00  0.00     0.031 C 
ATOM     68  C   UNL A   1      46.090  31.681  28.398  1.00  0.00     0.031 A 
BRANCH  55  69
ATOM     69  C   UNL A   1      50.495  27.967  26.172  1.00  0.00    -0.014 A 
ATOM     70  C   UNL A   1      50.948  28.208  24.866  1.00  0.00     0.009 A 
ATOM     71  C   UNL A   1      51.421  27.576  27.151  1.00  0.00     0.009 A 
ATOM     72  C   UNL A   1      52.294  28.029  24.539  1.00  0.00     0.001 A 
ATOM     73  C   UNL A   1      52.771  27.422  26.827  1.00  0.00     0.001 A 
ATOM     74  C   UNL A   1      53.204  27.640  25.520  1.00  0.00     0.000 A 
ENDBRANCH  55  69
BRANCH  56  75
ATOM     75  C   UNL A   1      40.903  28.603  28.802  1.00  0.00    -0.014 A 
ATOM     76  C   UNL A   1      39.937  29.000  27.864  1.00  0.00     0.009 A 
ATOM     77  C   UNL A   1      40.499  28.305  30.112  1.00  0.00     0.009 A 
ATOM     78  C   UNL A   1      38.598  29.121  28.238  1.00  0.00     0.001 A 
ATOM     79  C   UNL A   1      39.155  28.403  30.475  1.00  0.00     0.001 A 
ATOM     80  C   UNL A   1      38.207  28.819  29.541  1.00  0.00     0.000 A 
ENDBRANCH  56  75
BRANCH  68  81
ATOM     81  C   UNL A   1      46.171  33.133  28.774  1.00  0.00    -0.014 A 
ATOM     82  C   UNL A   1      45.875  34.143  27.847  1.00  0.00     0.009 A 
ATOM     83  C   UNL A   1      46.540  33.493  30.080  1.00  0.00     0.009 A 
ATOM     84  C   UNL A   1      45.986  35.488  28.208  1.00  0.00     0.001 A 
ATOM     85  C   UNL A   1      46.625  34.836  30.446  1.00  0.00     0.001 A 
ATOM     86  C   UNL A   1      46.360  35.832  29.507  1.00  0.00     0.000 A 
ENDBRANCH  68  81
ENDBRANCH  42  43
ENDBRANCH  34  37
ENDBRANCH  32  33
ENDBRANCH  31  32
ENDBRANCH  30  31
ENDBRANCH   1  30
TORSDOF 17
ENDMDL
MODEL 3
REMARK VINA RESULT:     -10.6      4.429      8.015
REMARK SMILES CNC(=O)c1cc(S(=O)(=O)N2CCC(C(=O)NCCCCCCNC(=O)c3ccc(-c4c5nc(c(-c6ccccc6)c6ccc([nH]6)c(-c6ccccc6)c6nc(c(-c7ccccc7)c7ccc4[nH]7)C=C6)C=C5)cc3)CC2)ccc1OC
REMARK SMILES IDX 20 1 19 2 18 3 17 4 15 5 16 6 14 8 11 9 12 10 76 11 13 12
REMARK SMILES IDX 75 13 8 14 9 15 10 16 7 17 5 18 6 19 79 20 78 21 77 22 3 23
REMARK SMILES IDX 1 24 2 25 4 27 80 28 81 29 21 30 22 31 23 32 24 33 25 34
REMARK SMILES IDX 26 36 27 37 28 38 74 39 29 40 73 41 30 42 31 43 32 44 67 45
REMARK SMILES IDX 33 46 72 47 66 48 68 49 34 50 71 51 65 52 64 53 35 55 57 56
REMARK SMILES IDX 42 57 56 58 43 59 46 60 55 61 69 62 44 63 45 64 54 66 70 67
REMARK SMILES IDX 47 68 36 69 37 70 41 71 38 72 40 73 39 74 58 75 59 76 63 77
REMARK SMILES IDX 60 78 62 79 61 80 48 81 49 82 53 83 50 84 52 85 51 86
REMARK H PARENT 17 7 2 26 24 35 68 54 46 65
REMARK Flexibility Score: inf
ROOT
ATOM      1  C   UNL A   1      41.523  19.541  26.060  1.00  0.00     0.002 C 
ENDROOT
BRANCH   1   2
ATOM      2  C   UNL A   1      40.679  20.540  26.853  1.00  0.00     0.021 C 
BRANCH   2   3
ATOM      3  C   UNL A   1      39.515  21.132  26.066  1.00  0.00     0.116 C 
BRANCH   3   4
ATOM      4  N   UNL A   1      39.359  22.551  26.330  1.00  0.00    -0.356 N 
ATOM      5  C   UNL A   1      38.310  23.386  26.117  1.00  0.00     0.223 C 
ATOM      6  O   UNL A   1      38.442  24.574  26.422  1.00  0.00    -0.275 OA
ATOM      7  H   UNL A   1      40.149  22.981  26.732  1.00  0.00     0.163 HD
BRANCH   5   8
ATOM      8  C   UNL A   1      36.999  22.890  25.534  1.00  0.00     0.081 C 
ATOM      9  N   UNL A   1      34.417  23.190  24.300  1.00  0.00    -0.198 NA
ATOM     10  C   UNL A   1      34.483  22.878  25.746  1.00  0.00     0.103 C 
ATOM     11  C   UNL A   1      35.565  22.777  23.457  1.00  0.00     0.103 C 
ATOM     12  C   UNL A   1      35.794  23.339  26.357  1.00  0.00     0.030 C 
ATOM     13  C   UNL A   1      36.888  23.222  24.047  1.00  0.00     0.030 C 
BRANCH   9  14
ATOM     14  S   UNL A   1      32.876  23.056  23.569  1.00  0.00     0.243 S 
ATOM     15  O   UNL A   1      32.000  22.433  24.539  1.00  0.00    -0.207 OA
ATOM     16  O   UNL A   1      33.057  22.496  22.247  1.00  0.00    -0.207 OA
BRANCH  14  17
ATOM     17  C   UNL A   1      32.254  24.714  23.332  1.00  0.00     0.083 A 
ATOM     18  C   UNL A   1      32.782  27.035  22.875  1.00  0.00     0.083 A 
ATOM     19  C   UNL A   1      33.202  25.718  23.108  1.00  0.00     0.039 A 
ATOM     20  C   UNL A   1      31.416  27.332  22.786  1.00  0.00     0.131 A 
ATOM     21  C   UNL A   1      30.480  26.338  23.057  1.00  0.00     0.048 A 
ATOM     22  C   UNL A   1      30.896  25.036  23.334  1.00  0.00     0.025 A 
BRANCH  18  23
ATOM     23  C   UNL A   1      33.837  28.056  22.735  1.00  0.00     0.254 C 
ATOM     24  C   UNL A   1      33.724  28.726  25.179  1.00  0.00     0.143 C 
ATOM     25  N   UNL A   1      34.210  28.807  23.820  1.00  0.00    -0.355 N 
ATOM     26  H   UNL A   1      34.899  29.489  23.651  1.00  0.00     0.163 HD
ATOM     27  O   UNL A   1      34.389  28.201  21.649  1.00  0.00    -0.269 OA
ENDBRANCH  18  23
BRANCH  20  28
ATOM     28  O   UNL A   1      30.891  28.560  22.492  1.00  0.00    -0.496 OA
ATOM     29  C   UNL A   1      30.309  29.198  23.631  1.00  0.00     0.278 C 
ENDBRANCH  20  28
ENDBRANCH  14  17
ENDBRANCH   9  14
ENDBRANCH   5   8
ENDBRANCH   3   4
ENDBRANCH   2   3
ENDBRANCH   1   2
BRANCH   1  30
ATOM     30  C   UNL A   1      42.888  20.066  25.602  1.00  0.00     0.002 C 
BRANCH  30  31
ATOM     31  C   UNL A   1      43.243  21.479  26.077  1.00  0.00     0.021 C 
BRANCH  31  32
ATOM     32  C   UNL A   1      42.985  22.589  25.063  1.00  0.00     0.116 C 
BRANCH  32  33
ATOM     33  N   UNL A   1      44.199  23.292  24.694  1.00  0.00    -0.352 N 
ATOM     34  C   UNL A   1      44.705  24.477  25.158  1.00  0.00     0.251 C 
ATOM     35  H   UNL A   1      44.743  22.849  24.004  1.00  0.00     0.163 HD
ATOM     36  O   UNL A   1      45.674  24.982  24.598  1.00  0.00    -0.269 OA
BRANCH  34  37
ATOM     37  C   UNL A   1      44.088  25.164  26.313  1.00  0.00     0.039 A 
ATOM     38  C   UNL A   1      44.206  26.555  26.392  1.00  0.00     0.014 A 
ATOM     39  C   UNL A   1      43.445  24.459  27.335  1.00  0.00     0.014 A 
ATOM     40  C   UNL A   1      43.652  27.240  27.474  1.00  0.00     0.010 A 
ATOM     41  C   UNL A   1      42.838  25.149  28.386  1.00  0.00     0.010 A 
ATOM     42  C   UNL A   1      42.948  26.544  28.471  1.00  0.00    -0.014 A 
BRANCH  42  43
ATOM     43  C   UNL A   1      42.329  27.284  29.598  1.00  0.00     0.031 A 
ATOM     44  C   UNL A   1      42.992  27.323  30.947  1.00  0.00     0.074 A 
ATOM     45  C   UNL A   1      41.157  27.917  29.407  1.00  0.00     0.049 A 
ATOM     46  N   UNL A   1      42.631  27.978  32.023  1.00  0.00    -0.248 NA
ATOM     47  C   UNL A   1      44.205  26.509  31.119  1.00  0.00     0.031 C 
ATOM     48  C   UNL A   1      40.385  27.911  28.163  1.00  0.00     0.029 A 
ATOM     49  N   UNL A   1      40.416  28.700  30.255  1.00  0.00    -0.354 N 
ATOM     50  C   UNL A   1      43.564  27.648  32.997  1.00  0.00     0.074 A 
ATOM     51  C   UNL A   1      44.481  26.700  32.400  1.00  0.00     0.031 C 
ATOM     52  C   UNL A   1      39.300  28.687  28.316  1.00  0.00     0.029 A 
ATOM     53  C   UNL A   1      39.291  29.227  29.672  1.00  0.00     0.049 A 
ATOM     54  H   UNL A   1      40.667  28.867  31.192  1.00  0.00     0.167 HD
ATOM     55  C   UNL A   1      43.663  28.107  34.268  1.00  0.00     0.031 A 
ATOM     56  C   UNL A   1      38.364  30.068  30.167  1.00  0.00     0.031 A 
ATOM     57  C   UNL A   1      42.759  29.055  34.862  1.00  0.00     0.049 A 
ATOM     58  C   UNL A   1      38.514  30.589  31.567  1.00  0.00     0.074 A 
ATOM     59  C   UNL A   1      42.808  29.621  36.125  1.00  0.00     0.029 A 
ATOM     60  N   UNL A   1      41.640  29.578  34.233  1.00  0.00    -0.354 N 
ATOM     61  N   UNL A   1      39.449  30.331  32.449  1.00  0.00    -0.248 NA
ATOM     62  C   UNL A   1      37.491  31.536  32.030  1.00  0.00     0.031 C 
ATOM     63  C   UNL A   1      41.697  30.459  36.272  1.00  0.00     0.029 A 
ATOM     64  C   UNL A   1      40.982  30.449  35.086  1.00  0.00     0.049 A 
ATOM     65  H   UNL A   1      41.357  29.361  33.316  1.00  0.00     0.167 HD
ATOM     66  C   UNL A   1      39.140  31.100  33.562  1.00  0.00     0.074 A 
ATOM     67  C   UNL A   1      37.943  31.849  33.236  1.00  0.00     0.031 C 
ATOM     68  C   UNL A   1      39.790  31.181  34.748  1.00  0.00     0.031 A 
BRANCH  55  69
ATOM     69  C   UNL A   1      44.797  27.581  35.103  1.00  0.00    -0.014 A 
ATOM     70  C   UNL A   1      44.677  26.375  35.811  1.00  0.00     0.009 A 
ATOM     71  C   UNL A   1      46.011  28.285  35.160  1.00  0.00     0.009 A 
ATOM     72  C   UNL A   1      45.737  25.901  36.586  1.00  0.00     0.001 A 
ATOM     73  C   UNL A   1      47.077  27.795  35.916  1.00  0.00     0.001 A 
ATOM     74  C   UNL A   1      46.937  26.609  36.636  1.00  0.00     0.000 A 
ENDBRANCH  55  69
BRANCH  56  75
ATOM     75  C   UNL A   1      37.236  30.513  29.310  1.00  0.00    -0.014 A 
ATOM     76  C   UNL A   1      37.204  31.820  28.800  1.00  0.00     0.009 A 
ATOM     77  C   UNL A   1      36.189  29.634  28.996  1.00  0.00     0.009 A 
ATOM     78  C   UNL A   1      36.132  32.246  28.013  1.00  0.00     0.001 A 
ATOM     79  C   UNL A   1      35.132  30.056  28.188  1.00  0.00     0.001 A 
ATOM     80  C   UNL A   1      35.100  31.362  27.705  1.00  0.00     0.000 A 
ENDBRANCH  56  75
BRANCH  68  81
ATOM     81  C   UNL A   1      39.228  32.131  35.767  1.00  0.00    -0.014 A 
ATOM     82  C   UNL A   1      38.286  31.708  36.716  1.00  0.00     0.009 A 
ATOM     83  C   UNL A   1      39.658  33.468  35.781  1.00  0.00     0.009 A 
ATOM     84  C   UNL A   1      37.754  32.614  37.635  1.00  0.00     0.001 A 
ATOM     85  C   UNL A   1      39.144  34.365  36.716  1.00  0.00     0.001 A 
ATOM     86  C   UNL A   1      38.184  33.941  37.635  1.00  0.00     0.000 A 
ENDBRANCH  68  81
ENDBRANCH  42  43
ENDBRANCH  34  37
ENDBRANCH  32  33
ENDBRANCH  31  32
ENDBRANCH  30  31
ENDBRANCH   1  30
TORSDOF 17
ENDMDL
