MODEL 1
REMARK VINA RESULT:     -10.8      0.000      0.000
REMARK SMILES CC(C)(C[N@H+]1C[C@@H]2C[NH2+]C[C@H]2C1(C)C)C(=O)NCCCCCCNC(=O)c1ccc(-c2c3nc(c(-c4ccccc4)c4ccc([nH]4)c(-c4ccccc4)c4nc(c(-c5ccccc5)c5ccc2[nH]5)C=C4)C=C3)cc1
REMARK SMILES IDX 20 1 19 2 18 3 17 4 15 5 16 6 2 8 1 9 3 10 4 11 5 12 6 13
REMARK SMILES IDX 12 14 7 16 11 17 13 18 14 19 8 20 10 21 9 22 21 25 22 26
REMARK SMILES IDX 23 27 24 28 25 29 26 31 27 32 28 33 74 34 29 35 73 36 30 37
REMARK SMILES IDX 31 38 32 39 67 40 33 41 72 42 66 43 68 44 34 45 71 46 65 47
REMARK SMILES IDX 64 48 35 50 57 51 42 52 56 53 43 54 46 55 55 56 69 57 44 58
REMARK SMILES IDX 45 59 54 61 70 62 47 63 36 64 37 65 41 66 38 67 40 68 39 69
REMARK SMILES IDX 58 70 59 71 63 72 60 73 62 74 61 75 48 76 49 77 53 78 50 79
REMARK SMILES IDX 52 80 51 81
REMARK H PARENT 17 7 5 15 9 23 9 24 24 30 68 49 46 60
REMARK Flexibility Score: inf
ROOT
ATOM      1  C   UNL A   1      32.415  29.819  27.233  1.00  0.00     0.002 C 
ENDROOT
BRANCH   1   2
ATOM      2  C   UNL A   1      33.869  29.468  26.902  1.00  0.00     0.021 C 
BRANCH   2   3
ATOM      3  C   UNL A   1      34.029  28.204  26.067  1.00  0.00     0.116 C 
BRANCH   3   4
ATOM      4  N   UNL A   1      34.129  28.523  24.662  1.00  0.00    -0.355 N 
ATOM      5  C   UNL A   1      33.541  28.015  23.554  1.00  0.00     0.231 C 
ATOM      6  O   UNL A   1      33.929  28.508  22.487  1.00  0.00    -0.274 OA
ATOM      7  H   UNL A   1      34.754  29.260  24.472  1.00  0.00     0.163 HD
BRANCH   5   8
ATOM      8  C   UNL A   1      32.428  26.951  23.596  1.00  0.00     0.092 C 
ATOM      9  C   UNL A   1      32.061  26.644  22.123  1.00  0.00     0.027 C 
ATOM     10  C   UNL A   1      31.116  27.567  24.151  1.00  0.00     0.027 C 
BRANCH   8  11
ATOM     11  C   UNL A   1      32.804  25.693  24.471  1.00  0.00     0.279 C 
BRANCH  11  12
ATOM     12  N   UNL A   1      33.750  24.644  24.031  1.00  0.00    -0.329 N 
ATOM     13  C   UNL A   1      34.862  24.438  25.029  1.00  0.00     0.272 C 
ATOM     14  C   UNL A   1      33.219  23.280  23.658  1.00  0.00     0.101 C 
ATOM     15  H   UNL A   1      34.064  25.052  23.152  1.00  0.00     0.348 HD
ATOM     16  C   UNL A   1      34.656  23.026  25.512  1.00  0.00     0.114 C 
ATOM     17  C   UNL A   1      34.309  22.353  24.213  1.00  0.00     0.119 C 
ATOM     18  C   UNL A   1      31.857  22.872  24.257  1.00  0.00     0.079 C 
ATOM     19  C   UNL A   1      33.244  23.168  22.124  1.00  0.00     0.079 C 
ATOM     20  C   UNL A   1      35.726  22.096  26.020  1.00  0.00     0.270 C 
ATOM     21  C   UNL A   1      34.137  20.916  24.647  1.00  0.00     0.271 C 
ATOM     22  N   UNL A   1      35.142  20.758  25.731  1.00  0.00    -0.345 N 
ATOM     23  H   UNL A   1      34.692  20.389  26.569  1.00  0.00     0.346 HD
ATOM     24  H   UNL A   1      35.873  20.109  25.443  1.00  0.00     0.346 HD
ENDBRANCH  11  12
ENDBRANCH   8  11
ENDBRANCH   5   8
ENDBRANCH   3   4
ENDBRANCH   2   3
ENDBRANCH   1   2
BRANCH   1  25
ATOM     25  C   UNL A   1      31.711  30.700  26.196  1.00  0.00     0.002 C 
BRANCH  25  26
ATOM     26  C   UNL A   1      31.467  32.145  26.637  1.00  0.00     0.021 C 
BRANCH  26  27
ATOM     27  C   UNL A   1      32.670  32.809  27.294  1.00  0.00     0.116 C 
BRANCH  27  28
ATOM     28  N   UNL A   1      32.410  34.203  27.613  1.00  0.00    -0.352 N 
ATOM     29  C   UNL A   1      32.976  34.988  28.588  1.00  0.00     0.251 C 
ATOM     30  H   UNL A   1      31.733  34.646  27.053  1.00  0.00     0.163 HD
ATOM     31  O   UNL A   1      32.492  36.074  28.871  1.00  0.00    -0.269 OA
BRANCH  29  32
ATOM     32  C   UNL A   1      34.166  34.492  29.309  1.00  0.00     0.039 A 
ATOM     33  C   UNL A   1      33.999  33.909  30.566  1.00  0.00     0.014 A 
ATOM     34  C   UNL A   1      35.435  34.579  28.729  1.00  0.00     0.014 A 
ATOM     35  C   UNL A   1      35.098  33.339  31.209  1.00  0.00     0.010 A 
ATOM     36  C   UNL A   1      36.514  33.949  29.338  1.00  0.00     0.010 A 
ATOM     37  C   UNL A   1      36.353  33.313  30.579  1.00  0.00    -0.014 A 
BRANCH  37  38
ATOM     38  C   UNL A   1      37.498  32.584  31.175  1.00  0.00     0.031 A 
ATOM     39  C   UNL A   1      38.147  33.084  32.435  1.00  0.00     0.074 A 
ATOM     40  C   UNL A   1      38.004  31.513  30.532  1.00  0.00     0.049 A 
ATOM     41  N   UNL A   1      39.204  32.623  33.055  1.00  0.00    -0.248 NA
ATOM     42  C   UNL A   1      37.542  34.265  33.069  1.00  0.00     0.031 C 
ATOM     43  C   UNL A   1      37.482  30.950  29.284  1.00  0.00     0.029 A 
ATOM     44  N   UNL A   1      39.076  30.712  30.834  1.00  0.00    -0.354 N 
ATOM     45  C   UNL A   1      39.397  33.464  34.143  1.00  0.00     0.074 A 
ATOM     46  C   UNL A   1      38.378  34.488  34.073  1.00  0.00     0.031 C 
ATOM     47  C   UNL A   1      38.220  29.883  28.941  1.00  0.00     0.029 A 
ATOM     48  C   UNL A   1      39.297  29.718  29.912  1.00  0.00     0.049 A 
ATOM     49  H   UNL A   1      39.635  30.838  31.635  1.00  0.00     0.167 HD
ATOM     50  C   UNL A   1      40.329  33.380  35.121  1.00  0.00     0.031 A 
ATOM     51  C   UNL A   1      40.268  28.788  29.841  1.00  0.00     0.031 A 
ATOM     52  C   UNL A   1      41.345  32.361  35.185  1.00  0.00     0.049 A 
ATOM     53  C   UNL A   1      41.324  28.751  30.911  1.00  0.00     0.074 A 
ATOM     54  C   UNL A   1      42.301  32.159  36.165  1.00  0.00     0.029 A 
ATOM     55  N   UNL A   1      41.545  31.383  34.223  1.00  0.00    -0.354 N 
ATOM     56  N   UNL A   1      41.448  29.506  31.975  1.00  0.00    -0.248 NA
ATOM     57  C   UNL A   1      42.374  27.732  30.769  1.00  0.00     0.031 C 
ATOM     58  C   UNL A   1      43.122  31.102  35.762  1.00  0.00     0.029 A 
ATOM     59  C   UNL A   1      42.636  30.602  34.564  1.00  0.00     0.049 A 
ATOM     60  H   UNL A   1      40.992  31.262  33.417  1.00  0.00     0.167 HD
ATOM     61  C   UNL A   1      42.575  29.042  32.640  1.00  0.00     0.074 A 
ATOM     62  C   UNL A   1      43.085  27.925  31.871  1.00  0.00     0.031 C 
ATOM     63  C   UNL A   1      43.137  29.500  33.785  1.00  0.00     0.031 A 
BRANCH  50  64
ATOM     64  C   UNL A   1      40.307  34.430  36.198  1.00  0.00    -0.014 A 
ATOM     65  C   UNL A   1      41.089  35.591  36.102  1.00  0.00     0.009 A 
ATOM     66  C   UNL A   1      39.455  34.277  37.303  1.00  0.00     0.009 A 
ATOM     67  C   UNL A   1      41.047  36.560  37.107  1.00  0.00     0.001 A 
ATOM     68  C   UNL A   1      39.390  35.261  38.291  1.00  0.00     0.001 A 
ATOM     69  C   UNL A   1      40.193  36.397  38.197  1.00  0.00     0.000 A 
ENDBRANCH  50  64
BRANCH  51  70
ATOM     70  C   UNL A   1      40.295  27.822  28.712  1.00  0.00    -0.014 A 
ATOM     71  C   UNL A   1      40.937  28.148  27.507  1.00  0.00     0.009 A 
ATOM     72  C   UNL A   1      39.674  26.567  28.830  1.00  0.00     0.009 A 
ATOM     73  C   UNL A   1      40.934  27.249  26.438  1.00  0.00     0.001 A 
ATOM     74  C   UNL A   1      39.701  25.658  27.770  1.00  0.00     0.001 A 
ATOM     75  C   UNL A   1      40.321  26.004  26.572  1.00  0.00     0.000 A 
ENDBRANCH  51  70
BRANCH  63  76
ATOM     76  C   UNL A   1      44.361  28.786  34.285  1.00  0.00    -0.014 A 
ATOM     77  C   UNL A   1      45.650  29.216  33.931  1.00  0.00     0.009 A 
ATOM     78  C   UNL A   1      44.224  27.704  35.170  1.00  0.00     0.009 A 
ATOM     79  C   UNL A   1      46.776  28.559  34.433  1.00  0.00     0.001 A 
ATOM     80  C   UNL A   1      45.352  27.070  35.694  1.00  0.00     0.001 A 
ATOM     81  C   UNL A   1      46.626  27.493  35.319  1.00  0.00     0.000 A 
ENDBRANCH  63  76
ENDBRANCH  37  38
ENDBRANCH  29  32
ENDBRANCH  27  28
ENDBRANCH  26  27
ENDBRANCH  25  26
ENDBRANCH   1  25
TORSDOF 15
ENDMDL
MODEL 2
REMARK VINA RESULT:     -10.8      4.239      9.265
REMARK SMILES CC(C)(C[N@H+]1C[C@@H]2C[NH2+]C[C@H]2C1(C)C)C(=O)NCCCCCCNC(=O)c1ccc(-c2c3nc(c(-c4ccccc4)c4ccc([nH]4)c(-c4ccccc4)c4nc(c(-c5ccccc5)c5ccc2[nH]5)C=C4)C=C3)cc1
REMARK SMILES IDX 20 1 19 2 18 3 17 4 15 5 16 6 2 8 1 9 3 10 4 11 5 12 6 13
REMARK SMILES IDX 12 14 7 16 11 17 13 18 14 19 8 20 10 21 9 22 21 25 22 26
REMARK SMILES IDX 23 27 24 28 25 29 26 31 27 32 28 33 74 34 29 35 73 36 30 37
REMARK SMILES IDX 31 38 32 39 67 40 33 41 72 42 66 43 68 44 34 45 71 46 65 47
REMARK SMILES IDX 64 48 35 50 57 51 42 52 56 53 43 54 46 55 55 56 69 57 44 58
REMARK SMILES IDX 45 59 54 61 70 62 47 63 36 64 37 65 41 66 38 67 40 68 39 69
REMARK SMILES IDX 58 70 59 71 63 72 60 73 62 74 61 75 48 76 49 77 53 78 50 79
REMARK SMILES IDX 52 80 51 81
REMARK H PARENT 17 7 5 15 9 23 9 24 24 30 68 49 46 60
REMARK Flexibility Score: inf
ROOT
ATOM      1  C   UNL A   1      34.953  20.825  24.845  1.00  0.00     0.002 C 
ENDROOT
BRANCH   1   2
ATOM      2  C   UNL A   1      33.716  19.931  24.711  1.00  0.00     0.021 C 
BRANCH   2   3
ATOM      3  C   UNL A   1      32.406  20.625  25.058  1.00  0.00     0.116 C 
BRANCH   3   4
ATOM      4  N   UNL A   1      32.097  21.655  24.093  1.00  0.00    -0.355 N 
ATOM      5  C   UNL A   1      31.645  22.926  24.210  1.00  0.00     0.231 C 
ATOM      6  O   UNL A   1      31.429  23.501  23.136  1.00  0.00    -0.274 OA
ATOM      7  H   UNL A   1      32.243  21.375  23.161  1.00  0.00     0.163 HD
BRANCH   5   8
ATOM      8  C   UNL A   1      31.466  23.642  25.562  1.00  0.00     0.092 C 
ATOM      9  C   UNL A   1      32.848  23.609  26.260  1.00  0.00     0.027 C 
ATOM     10  C   UNL A   1      30.585  22.788  26.511  1.00  0.00     0.027 C 
BRANCH   8  11
ATOM     11  C   UNL A   1      30.818  25.075  25.424  1.00  0.00     0.279 C 
BRANCH  11  12
ATOM     12  N   UNL A   1      31.498  26.223  24.786  1.00  0.00    -0.329 N 
ATOM     13  C   UNL A   1      30.633  26.873  23.736  1.00  0.00     0.272 C 
ATOM     14  C   UNL A   1      32.061  27.323  25.654  1.00  0.00     0.101 C 
ATOM     15  H   UNL A   1      32.315  25.749  24.402  1.00  0.00     0.348 HD
ATOM     16  C   UNL A   1      30.386  28.257  24.278  1.00  0.00     0.114 C 
ATOM     17  C   UNL A   1      31.753  28.574  24.819  1.00  0.00     0.119 C 
ATOM     18  C   UNL A   1      31.444  27.490  27.058  1.00  0.00     0.079 C 
ATOM     19  C   UNL A   1      33.589  27.153  25.698  1.00  0.00     0.079 C 
ATOM     20  C   UNL A   1      30.125  29.497  23.466  1.00  0.00     0.270 C 
ATOM     21  C   UNL A   1      31.562  29.980  25.337  1.00  0.00     0.271 C 
ATOM     22  N   UNL A   1      30.596  30.575  24.376  1.00  0.00    -0.345 N 
ATOM     23  H   UNL A   1      29.804  30.971  24.883  1.00  0.00     0.346 HD
ATOM     24  H   UNL A   1      31.044  31.319  23.841  1.00  0.00     0.346 HD
ENDBRANCH  11  12
ENDBRANCH   8  11
ENDBRANCH   5   8
ENDBRANCH   3   4
ENDBRANCH   2   3
ENDBRANCH   1   2
BRANCH   1  25
ATOM     25  C   UNL A   1      36.280  20.073  24.995  1.00  0.00     0.002 C 
BRANCH  25  26
ATOM     26  C   UNL A   1      37.524  20.884  24.626  1.00  0.00     0.021 C 
BRANCH  26  27
ATOM     27  C   UNL A   1      38.547  21.005  25.749  1.00  0.00     0.116 C 
BRANCH  27  28
ATOM     28  N   UNL A   1      39.484  19.894  25.748  1.00  0.00    -0.352 N 
ATOM     29  C   UNL A   1      40.829  19.896  26.019  1.00  0.00     0.251 C 
ATOM     30  H   UNL A   1      39.099  19.017  25.521  1.00  0.00     0.163 HD
ATOM     31  O   UNL A   1      41.519  18.920  25.762  1.00  0.00    -0.269 OA
BRANCH  29  32
ATOM     32  C   UNL A   1      41.442  21.106  26.607  1.00  0.00     0.039 A 
ATOM     33  C   UNL A   1      42.021  22.049  25.757  1.00  0.00     0.014 A 
ATOM     34  C   UNL A   1      41.416  21.314  27.989  1.00  0.00     0.014 A 
ATOM     35  C   UNL A   1      42.505  23.245  26.288  1.00  0.00     0.010 A 
ATOM     36  C   UNL A   1      41.834  22.536  28.507  1.00  0.00     0.010 A 
ATOM     37  C   UNL A   1      42.372  23.517  27.660  1.00  0.00    -0.014 A 
BRANCH  37  38
ATOM     38  C   UNL A   1      42.742  24.838  28.222  1.00  0.00     0.031 A 
ATOM     39  C   UNL A   1      41.701  25.904  28.409  1.00  0.00     0.074 A 
ATOM     40  C   UNL A   1      44.037  25.100  28.489  1.00  0.00     0.049 A 
ATOM     41  N   UNL A   1      41.853  27.141  28.811  1.00  0.00    -0.248 NA
ATOM     42  C   UNL A   1      40.313  25.542  28.083  1.00  0.00     0.031 C 
ATOM     43  C   UNL A   1      45.145  24.157  28.319  1.00  0.00     0.029 A 
ATOM     44  N   UNL A   1      44.641  26.242  28.951  1.00  0.00    -0.354 N 
ATOM     45  C   UNL A   1      40.585  27.706  28.776  1.00  0.00     0.074 A 
ATOM     46  C   UNL A   1      39.684  26.694  28.269  1.00  0.00     0.031 C 
ATOM     47  C   UNL A   1      46.289  24.751  28.693  1.00  0.00     0.029 A 
ATOM     48  C   UNL A   1      46.005  26.129  29.079  1.00  0.00     0.049 A 
ATOM     49  H   UNL A   1      44.146  27.064  29.170  1.00  0.00     0.167 HD
ATOM     50  C   UNL A   1      40.204  28.951  29.146  1.00  0.00     0.031 A 
ATOM     51  C   UNL A   1      46.928  27.038  29.444  1.00  0.00     0.031 A 
ATOM     52  C   UNL A   1      41.105  29.958  29.646  1.00  0.00     0.049 A 
ATOM     53  C   UNL A   1      46.485  28.430  29.798  1.00  0.00     0.074 A 
ATOM     54  C   UNL A   1      40.806  31.231  30.099  1.00  0.00     0.029 A 
ATOM     55  N   UNL A   1      42.479  29.810  29.743  1.00  0.00    -0.354 N 
ATOM     56  N   UNL A   1      45.272  28.927  29.833  1.00  0.00    -0.248 NA
ATOM     57  C   UNL A   1      47.538  29.387  30.165  1.00  0.00     0.031 C 
ATOM     58  C   UNL A   1      42.007  31.877  30.406  1.00  0.00     0.029 A 
ATOM     59  C   UNL A   1      43.048  30.984  30.208  1.00  0.00     0.049 A 
ATOM     60  H   UNL A   1      42.977  28.992  29.516  1.00  0.00     0.167 HD
ATOM     61  C   UNL A   1      45.413  30.245  30.244  1.00  0.00     0.074 A 
ATOM     62  C   UNL A   1      46.828  30.465  30.468  1.00  0.00     0.031 C 
ATOM     63  C   UNL A   1      44.458  31.190  30.418  1.00  0.00     0.031 A 
BRANCH  50  64
ATOM     64  C   UNL A   1      38.748  29.304  29.010  1.00  0.00    -0.014 A 
ATOM     65  C   UNL A   1      38.219  29.770  27.797  1.00  0.00     0.009 A 
ATOM     66  C   UNL A   1      37.883  29.123  30.101  1.00  0.00     0.009 A 
ATOM     67  C   UNL A   1      36.863  30.083  27.688  1.00  0.00     0.001 A 
ATOM     68  C   UNL A   1      36.521  29.406  29.981  1.00  0.00     0.001 A 
ATOM     69  C   UNL A   1      36.014  29.894  28.778  1.00  0.00     0.000 A 
ENDBRANCH  50  64
BRANCH  51  70
ATOM     70  C   UNL A   1      48.366  26.665  29.484  1.00  0.00    -0.014 A 
ATOM     71  C   UNL A   1      48.914  26.049  30.620  1.00  0.00     0.009 A 
ATOM     72  C   UNL A   1      49.204  26.928  28.388  1.00  0.00     0.009 A 
ATOM     73  C   UNL A   1      50.273  25.728  30.667  1.00  0.00     0.001 A 
ATOM     74  C   UNL A   1      50.555  26.577  28.425  1.00  0.00     0.001 A 
ATOM     75  C   UNL A   1      51.090  25.987  29.567  1.00  0.00     0.000 A 
ENDBRANCH  51  70
BRANCH  63  76
ATOM     76  C   UNL A   1      44.906  32.546  30.889  1.00  0.00    -0.014 A 
ATOM     77  C   UNL A   1      45.230  33.562  29.976  1.00  0.00     0.009 A 
ATOM     78  C   UNL A   1      44.948  32.827  32.264  1.00  0.00     0.009 A 
ATOM     79  C   UNL A   1      45.613  34.824  30.433  1.00  0.00     0.001 A 
ATOM     80  C   UNL A   1      45.301  34.099  32.716  1.00  0.00     0.001 A 
ATOM     81  C   UNL A   1      45.641  35.094  31.801  1.00  0.00     0.000 A 
ENDBRANCH  63  76
ENDBRANCH  37  38
ENDBRANCH  29  32
ENDBRANCH  27  28
ENDBRANCH  26  27
ENDBRANCH  25  26
ENDBRANCH   1  25
TORSDOF 15
ENDMDL
MODEL 3
REMARK VINA RESULT:     -10.8      1.177      6.060
REMARK SMILES CC(C)(C[N@H+]1C[C@@H]2C[NH2+]C[C@H]2C1(C)C)C(=O)NCCCCCCNC(=O)c1ccc(-c2c3nc(c(-c4ccccc4)c4ccc([nH]4)c(-c4ccccc4)c4nc(c(-c5ccccc5)c5ccc2[nH]5)C=C4)C=C3)cc1
REMARK SMILES IDX 20 1 19 2 18 3 17 4 15 5 16 6 2 8 1 9 3 10 4 11 5 12 6 13
REMARK SMILES IDX 12 14 7 16 11 17 13 18 14 19 8 20 10 21 9 22 21 25 22 26
REMARK SMILES IDX 23 27 24 28 25 29 26 31 27 32 28 33 74 34 29 35 73 36 30 37
REMARK SMILES IDX 31 38 32 39 67 40 33 41 72 42 66 43 68 44 34 45 71 46 65 47
REMARK SMILES IDX 64 48 35 50 57 51 42 52 56 53 43 54 46 55 55 56 69 57 44 58
REMARK SMILES IDX 45 59 54 61 70 62 47 63 36 64 37 65 41 66 38 67 40 68 39 69
REMARK SMILES IDX 58 70 59 71 63 72 60 73 62 74 61 75 48 76 49 77 53 78 50 79
REMARK SMILES IDX 52 80 51 81
REMARK H PARENT 17 7 5 15 9 23 9 24 24 30 68 49 46 60
REMARK Flexibility Score: inf
ROOT
ATOM      1  C   UNL A   1      33.361  28.817  27.044  1.00  0.00     0.002 C 
ENDROOT
BRANCH   1   2
ATOM      2  C   UNL A   1      33.774  28.062  25.776  1.00  0.00     0.021 C 
BRANCH   2   3
ATOM      3  C   UNL A   1      33.524  28.829  24.485  1.00  0.00     0.116 C 
BRANCH   3   4
ATOM      4  N   UNL A   1      33.918  28.048  23.335  1.00  0.00    -0.355 N 
ATOM      5  C   UNL A   1      33.356  26.996  22.697  1.00  0.00     0.231 C 
ATOM      6  O   UNL A   1      34.028  26.534  21.765  1.00  0.00    -0.274 OA
ATOM      7  H   UNL A   1      34.769  28.340  22.937  1.00  0.00     0.163 HD
BRANCH   5   8
ATOM      8  C   UNL A   1      31.962  26.439  23.041  1.00  0.00     0.092 C 
ATOM      9  C   UNL A   1      31.396  25.836  21.732  1.00  0.00     0.027 C 
ATOM     10  C   UNL A   1      30.976  27.601  23.334  1.00  0.00     0.027 C 
BRANCH   8  11
ATOM     11  C   UNL A   1      31.973  25.462  24.281  1.00  0.00     0.279 C 
BRANCH  11  12
ATOM     12  N   UNL A   1      33.103  24.565  24.606  1.00  0.00    -0.329 N 
ATOM     13  C   UNL A   1      33.305  24.434  26.094  1.00  0.00     0.272 C 
ATOM     14  C   UNL A   1      33.132  23.173  24.022  1.00  0.00     0.101 C 
ATOM     15  H   UNL A   1      33.859  25.061  24.136  1.00  0.00     0.348 HD
ATOM     16  C   UNL A   1      33.022  22.981  26.371  1.00  0.00     0.114 C 
ATOM     17  C   UNL A   1      33.703  22.351  25.186  1.00  0.00     0.119 C 
ATOM     18  C   UNL A   1      31.780  22.566  23.592  1.00  0.00     0.079 C 
ATOM     19  C   UNL A   1      34.170  23.160  22.886  1.00  0.00     0.079 C 
ATOM     20  C   UNL A   1      33.609  22.157  27.486  1.00  0.00     0.270 C 
ATOM     21  C   UNL A   1      33.480  20.880  25.448  1.00  0.00     0.271 C 
ATOM     22  N   UNL A   1      33.539  20.779  26.930  1.00  0.00    -0.345 N 
ATOM     23  H   UNL A   1      32.704  20.307  27.278  1.00  0.00     0.346 HD
ATOM     24  H   UNL A   1      34.358  20.242  27.214  1.00  0.00     0.346 HD
ENDBRANCH  11  12
ENDBRANCH   8  11
ENDBRANCH   5   8
ENDBRANCH   3   4
ENDBRANCH   2   3
ENDBRANCH   1   2
BRANCH   1  25
ATOM     25  C   UNL A   1      31.901  29.282  27.072  1.00  0.00     0.002 C 
BRANCH  25  26
ATOM     26  C   UNL A   1      31.694  30.773  26.803  1.00  0.00     0.021 C 
BRANCH  26  27
ATOM     27  C   UNL A   1      32.907  31.639  27.121  1.00  0.00     0.116 C 
BRANCH  27  28
ATOM     28  N   UNL A   1      32.528  33.011  27.418  1.00  0.00    -0.352 N 
ATOM     29  C   UNL A   1      33.096  33.893  28.303  1.00  0.00     0.251 C 
ATOM     30  H   UNL A   1      31.756  33.354  26.913  1.00  0.00     0.163 HD
ATOM     31  O   UNL A   1      32.526  34.935  28.597  1.00  0.00    -0.269 OA
BRANCH  29  32
ATOM     32  C   UNL A   1      34.397  33.558  28.918  1.00  0.00     0.039 A 
ATOM     33  C   UNL A   1      34.413  32.840  30.114  1.00  0.00     0.014 A 
ATOM     34  C   UNL A   1      35.592  33.929  28.295  1.00  0.00     0.014 A 
ATOM     35  C   UNL A   1      35.633  32.423  30.648  1.00  0.00     0.010 A 
ATOM     36  C   UNL A   1      36.802  33.452  28.790  1.00  0.00     0.010 A 
ATOM     37  C   UNL A   1      36.832  32.685  29.964  1.00  0.00    -0.014 A 
BRANCH  37  38
ATOM     38  C   UNL A   1      38.122  32.125  30.433  1.00  0.00     0.031 A 
ATOM     39  C   UNL A   1      38.650  30.843  29.857  1.00  0.00     0.074 A 
ATOM     40  C   UNL A   1      38.779  32.737  31.438  1.00  0.00     0.049 A 
ATOM     41  N   UNL A   1      39.716  30.164  30.199  1.00  0.00    -0.248 NA
ATOM     42  C   UNL A   1      37.868  30.232  28.771  1.00  0.00     0.031 C 
ATOM     43  C   UNL A   1      38.352  33.972  32.102  1.00  0.00     0.029 A 
ATOM     44  N   UNL A   1      39.941  32.398  32.085  1.00  0.00    -0.354 N 
ATOM     45  C   UNL A   1      39.727  29.043  29.379  1.00  0.00     0.074 A 
ATOM     46  C   UNL A   1      38.538  29.108  28.557  1.00  0.00     0.031 C 
ATOM     47  C   UNL A   1      39.250  34.297  33.045  1.00  0.00     0.029 A 
ATOM     48  C   UNL A   1      40.286  33.271  33.089  1.00  0.00     0.049 A 
ATOM     49  H   UNL A   1      40.476  31.605  31.853  1.00  0.00     0.167 HD
ATOM     50  C   UNL A   1      40.652  28.057  29.307  1.00  0.00     0.031 A 
ATOM     51  C   UNL A   1      41.310  33.240  33.962  1.00  0.00     0.031 A 
ATOM     52  C   UNL A   1      41.832  27.994  30.130  1.00  0.00     0.049 A 
ATOM     53  C   UNL A   1      42.293  32.105  33.897  1.00  0.00     0.074 A 
ATOM     54  C   UNL A   1      42.857  27.065  30.094  1.00  0.00     0.029 A 
ATOM     55  N   UNL A   1      42.136  28.887  31.145  1.00  0.00    -0.354 N 
ATOM     56  N   UNL A   1      42.331  31.092  33.065  1.00  0.00    -0.248 NA
ATOM     57  C   UNL A   1      43.376  32.109  34.891  1.00  0.00     0.031 C 
ATOM     58  C   UNL A   1      43.746  27.356  31.133  1.00  0.00     0.029 A 
ATOM     59  C   UNL A   1      43.311  28.507  31.772  1.00  0.00     0.049 A 
ATOM     60  H   UNL A   1      41.598  29.676  31.384  1.00  0.00     0.167 HD
ATOM     61  C   UNL A   1      43.450  30.351  33.421  1.00  0.00     0.074 A 
ATOM     62  C   UNL A   1      44.076  31.042  34.530  1.00  0.00     0.031 C 
ATOM     63  C   UNL A   1      43.916  29.200  32.880  1.00  0.00     0.031 A 
BRANCH  50  64
ATOM     64  C   UNL A   1      40.418  26.953  28.313  1.00  0.00    -0.014 A 
ATOM     65  C   UNL A   1      40.993  26.988  27.033  1.00  0.00     0.009 A 
ATOM     66  C   UNL A   1      39.646  25.839  28.678  1.00  0.00     0.009 A 
ATOM     67  C   UNL A   1      40.772  25.948  26.128  1.00  0.00     0.001 A 
ATOM     68  C   UNL A   1      39.452  24.786  27.783  1.00  0.00     0.001 A 
ATOM     69  C   UNL A   1      40.007  24.845  26.506  1.00  0.00     0.000 A 
ENDBRANCH  50  64
BRANCH  51  70
ATOM     70  C   UNL A   1      41.454  34.312  34.981  1.00  0.00    -0.014 A 
ATOM     71  C   UNL A   1      42.188  35.474  34.698  1.00  0.00     0.009 A 
ATOM     72  C   UNL A   1      40.861  34.179  36.248  1.00  0.00     0.009 A 
ATOM     73  C   UNL A   1      42.347  36.466  35.669  1.00  0.00     0.001 A 
ATOM     74  C   UNL A   1      40.994  35.187  37.205  1.00  0.00     0.001 A 
ATOM     75  C   UNL A   1      41.745  36.324  36.919  1.00  0.00     0.000 A 
ENDBRANCH  51  70
BRANCH  63  76
ATOM     76  C   UNL A   1      45.173  28.621  33.467  1.00  0.00    -0.014 A 
ATOM     77  C   UNL A   1      45.123  27.669  34.497  1.00  0.00     0.009 A 
ATOM     78  C   UNL A   1      46.422  28.990  32.942  1.00  0.00     0.009 A 
ATOM     79  C   UNL A   1      46.300  27.118  35.008  1.00  0.00     0.001 A 
ATOM     80  C   UNL A   1      47.595  28.414  33.433  1.00  0.00     0.001 A 
ATOM     81  C   UNL A   1      47.534  27.485  34.470  1.00  0.00     0.000 A 
ENDBRANCH  63  76
ENDBRANCH  37  38
ENDBRANCH  29  32
ENDBRANCH  27  28
ENDBRANCH  26  27
ENDBRANCH  25  26
ENDBRANCH   1  25
TORSDOF 15
ENDMDL
