MODEL 1
REMARK VINA RESULT:     -11.5      0.000      0.000
REMARK SMILES Cc1ccc(NC(=O)C[C@H]2SC[C@H](C(=O)NCCCCCCNC(=O)c3ccc(-c4c5nc(c(-c6ccccc6)c6ccc([nH]6)c(-c6ccccc6)c6nc(c(-c7ccccc7)c7ccc4[nH]7)C=C6)C=C5)cc3)NC2=O)cc1
REMARK SMILES IDX 19 1 18 2 17 3 16 4 14 5 15 6 13 8 10 9 11 10 75 11 12 12
REMARK SMILES IDX 74 13 76 14 9 16 7 17 6 18 8 20 5 21 1 22 2 23 3 24 78 25
REMARK SMILES IDX 4 26 77 27 20 28 21 29 22 30 23 31 24 32 25 34 26 35 27 36
REMARK SMILES IDX 73 37 28 38 72 39 29 40 30 41 31 42 66 43 32 44 71 45 65 46
REMARK SMILES IDX 67 47 33 48 70 49 64 50 63 51 34 53 56 54 41 55 55 56 42 57
REMARK SMILES IDX 45 58 54 59 68 60 43 61 44 62 53 64 69 65 46 66 35 67 36 68
REMARK SMILES IDX 40 69 37 70 39 71 38 72 57 73 58 74 62 75 59 76 61 77 60 78
REMARK SMILES IDX 47 79 48 80 52 81 49 82 51 83 50 84
REMARK H PARENT 16 7 74 15 6 19 23 33 67 52 45 63
REMARK Flexibility Score: inf
ROOT
ATOM      1  C   UNL A   1      33.930  28.389  25.613  1.00  0.00     0.002 C 
ENDROOT
BRANCH   1   2
ATOM      2  C   UNL A   1      33.315  29.402  24.633  1.00  0.00     0.021 C 
BRANCH   2   3
ATOM      3  C   UNL A   1      33.560  29.109  23.149  1.00  0.00     0.116 C 
BRANCH   3   4
ATOM      4  N   UNL A   1      32.314  28.855  22.453  1.00  0.00    -0.354 N 
ATOM      5  C   UNL A   1      31.386  27.870  22.601  1.00  0.00     0.243 C 
ATOM      6  O   UNL A   1      30.426  27.875  21.826  1.00  0.00    -0.273 OA
ATOM      7  H   UNL A   1      32.100  29.511  21.749  1.00  0.00     0.163 HD
BRANCH   5   8
ATOM      8  C   UNL A   1      31.493  26.804  23.704  1.00  0.00     0.181 C 
ATOM      9  C   UNL A   1      30.724  24.031  24.666  1.00  0.00     0.145 C 
ATOM     10  S   UNL A   1      30.368  25.419  25.830  1.00  0.00    -0.145 SA
ATOM     11  C   UNL A   1      31.963  24.358  23.822  1.00  0.00     0.234 C 
ATOM     12  C   UNL A   1      30.259  26.759  24.601  1.00  0.00     0.105 C 
ATOM     13  N   UNL A   1      31.932  25.539  23.120  1.00  0.00    -0.343 N 
ATOM     14  O   UNL A   1      32.913  23.606  23.630  1.00  0.00    -0.274 OA
ATOM     15  H   UNL A   1      32.220  25.533  22.179  1.00  0.00     0.164 HD
BRANCH   9  16
ATOM     16  C   UNL A   1      30.688  22.701  25.430  1.00  0.00     0.124 C 
BRANCH  16  17
ATOM     17  C   UNL A   1      31.061  22.686  26.898  1.00  0.00     0.226 C 
ATOM     18  N   UNL A   1      32.336  22.577  27.352  1.00  0.00    -0.326 N 
ATOM     19  H   UNL A   1      32.412  22.684  28.327  1.00  0.00     0.169 HD
ATOM     20  O   UNL A   1      30.165  22.777  27.747  1.00  0.00    -0.275 OA
BRANCH  18  21
ATOM     21  C   UNL A   1      33.565  22.343  26.724  1.00  0.00     0.041 A 
ATOM     22  C   UNL A   1      37.391  21.955  24.771  1.00  0.00     0.044 C 
ATOM     23  C   UNL A   1      36.073  22.087  25.473  1.00  0.00    -0.051 A 
ATOM     24  C   UNL A   1      35.174  21.014  25.502  1.00  0.00     0.005 A 
ATOM     25  C   UNL A   1      35.716  23.284  26.097  1.00  0.00     0.005 A 
ATOM     26  C   UNL A   1      33.928  21.139  26.130  1.00  0.00     0.026 A 
ATOM     27  C   UNL A   1      34.479  23.402  26.733  1.00  0.00     0.026 A 
ENDBRANCH  18  21
ENDBRANCH  16  17
ENDBRANCH   9  16
ENDBRANCH   5   8
ENDBRANCH   3   4
ENDBRANCH   2   3
ENDBRANCH   1   2
BRANCH   1  28
ATOM     28  C   UNL A   1      34.449  28.948  26.948  1.00  0.00     0.002 C 
BRANCH  28  29
ATOM     29  C   UNL A   1      34.282  30.454  27.158  1.00  0.00     0.021 C 
BRANCH  29  30
ATOM     30  C   UNL A   1      34.519  30.921  28.588  1.00  0.00     0.116 C 
BRANCH  30  31
ATOM     31  N   UNL A   1      35.582  31.907  28.733  1.00  0.00    -0.352 N 
ATOM     32  C   UNL A   1      36.953  31.712  28.797  1.00  0.00     0.251 C 
ATOM     33  H   UNL A   1      35.285  32.844  28.793  1.00  0.00     0.163 HD
ATOM     34  O   UNL A   1      37.705  32.662  28.943  1.00  0.00    -0.269 OA
BRANCH  32  35
ATOM     35  C   UNL A   1      37.509  30.355  28.553  1.00  0.00     0.039 A 
ATOM     36  C   UNL A   1      37.663  29.508  29.655  1.00  0.00     0.014 A 
ATOM     37  C   UNL A   1      38.053  30.003  27.320  1.00  0.00     0.014 A 
ATOM     38  C   UNL A   1      38.571  28.454  29.585  1.00  0.00     0.010 A 
ATOM     39  C   UNL A   1      39.025  29.021  27.273  1.00  0.00     0.010 A 
ATOM     40  C   UNL A   1      39.337  28.301  28.427  1.00  0.00    -0.014 A 
BRANCH  40  41
ATOM     41  C   UNL A   1      40.585  27.546  28.411  1.00  0.00     0.031 A 
ATOM     42  C   UNL A   1      40.592  26.081  28.253  1.00  0.00     0.074 A 
ATOM     43  C   UNL A   1      41.763  28.199  28.542  1.00  0.00     0.049 A 
ATOM     44  N   UNL A   1      41.453  25.303  28.822  1.00  0.00    -0.248 NA
ATOM     45  C   UNL A   1      39.597  25.374  27.455  1.00  0.00     0.031 C 
ATOM     46  C   UNL A   1      43.102  27.646  28.356  1.00  0.00     0.029 A 
ATOM     47  N   UNL A   1      41.992  29.456  29.103  1.00  0.00    -0.354 N 
ATOM     48  C   UNL A   1      41.322  24.069  28.233  1.00  0.00     0.074 A 
ATOM     49  C   UNL A   1      40.097  24.134  27.466  1.00  0.00     0.031 C 
ATOM     50  C   UNL A   1      43.972  28.389  29.060  1.00  0.00     0.029 A 
ATOM     51  C   UNL A   1      43.195  29.358  29.818  1.00  0.00     0.049 A 
ATOM     52  H   UNL A   1      41.422  30.253  29.015  1.00  0.00     0.167 HD
ATOM     53  C   UNL A   1      42.335  23.161  28.295  1.00  0.00     0.031 A 
ATOM     54  C   UNL A   1      43.308  29.597  31.156  1.00  0.00     0.031 A 
ATOM     55  C   UNL A   1      43.491  23.657  29.028  1.00  0.00     0.049 A 
ATOM     56  C   UNL A   1      43.909  28.439  31.921  1.00  0.00     0.074 A 
ATOM     57  C   UNL A   1      44.700  24.197  28.615  1.00  0.00     0.029 A 
ATOM     58  N   UNL A   1      43.392  23.908  30.390  1.00  0.00    -0.354 N 
ATOM     59  N   UNL A   1      43.988  27.225  31.455  1.00  0.00    -0.248 NA
ATOM     60  C   UNL A   1      44.376  28.536  33.303  1.00  0.00     0.031 C 
ATOM     61  C   UNL A   1      45.311  24.815  29.733  1.00  0.00     0.029 A 
ATOM     62  C   UNL A   1      44.481  24.638  30.824  1.00  0.00     0.049 A 
ATOM     63  H   UNL A   1      42.651  23.607  30.965  1.00  0.00     0.167 HD
ATOM     64  C   UNL A   1      44.468  26.390  32.430  1.00  0.00     0.074 A 
ATOM     65  C   UNL A   1      44.711  27.260  33.565  1.00  0.00     0.031 C 
ATOM     66  C   UNL A   1      44.592  25.048  32.215  1.00  0.00     0.031 A 
BRANCH  53  67
ATOM     67  C   UNL A   1      42.370  21.962  27.386  1.00  0.00    -0.014 A 
ATOM     68  C   UNL A   1      41.531  20.863  27.644  1.00  0.00     0.009 A 
ATOM     69  C   UNL A   1      43.246  21.843  26.295  1.00  0.00     0.009 A 
ATOM     70  C   UNL A   1      41.635  19.669  26.921  1.00  0.00     0.001 A 
ATOM     71  C   UNL A   1      43.380  20.638  25.591  1.00  0.00     0.001 A 
ATOM     72  C   UNL A   1      42.583  19.546  25.915  1.00  0.00     0.000 A 
ENDBRANCH  53  67
BRANCH  54  73
ATOM     73  C   UNL A   1      42.260  30.488  31.721  1.00  0.00    -0.014 A 
ATOM     74  C   UNL A   1      42.300  31.862  31.417  1.00  0.00     0.009 A 
ATOM     75  C   UNL A   1      41.077  29.948  32.246  1.00  0.00     0.009 A 
ATOM     76  C   UNL A   1      41.155  32.654  31.547  1.00  0.00     0.001 A 
ATOM     77  C   UNL A   1      39.937  30.748  32.383  1.00  0.00     0.001 A 
ATOM     78  C   UNL A   1      39.968  32.090  32.005  1.00  0.00     0.000 A 
ENDBRANCH  54  73
BRANCH  66  79
ATOM     79  C   UNL A   1      44.890  23.993  33.252  1.00  0.00    -0.014 A 
ATOM     80  C   UNL A   1      43.992  22.997  33.654  1.00  0.00     0.009 A 
ATOM     81  C   UNL A   1      46.203  23.907  33.773  1.00  0.00     0.009 A 
ATOM     82  C   UNL A   1      44.372  21.992  34.555  1.00  0.00     0.001 A 
ATOM     83  C   UNL A   1      46.599  22.882  34.636  1.00  0.00     0.001 A 
ATOM     84  C   UNL A   1      45.677  21.928  35.037  1.00  0.00     0.000 A 
ENDBRANCH  66  79
ENDBRANCH  40  41
ENDBRANCH  32  35
ENDBRANCH  30  31
ENDBRANCH  29  30
ENDBRANCH  28  29
ENDBRANCH   1  28
TORSDOF 16
ENDMDL
MODEL 2
REMARK VINA RESULT:     -11.3      2.421      4.076
REMARK SMILES Cc1ccc(NC(=O)C[C@H]2SC[C@H](C(=O)NCCCCCCNC(=O)c3ccc(-c4c5nc(c(-c6ccccc6)c6ccc([nH]6)c(-c6ccccc6)c6nc(c(-c7ccccc7)c7ccc4[nH]7)C=C6)C=C5)cc3)NC2=O)cc1
REMARK SMILES IDX 19 1 18 2 17 3 16 4 14 5 15 6 13 8 10 9 11 10 75 11 12 12
REMARK SMILES IDX 74 13 76 14 9 16 7 17 6 18 8 20 5 21 1 22 2 23 3 24 78 25
REMARK SMILES IDX 4 26 77 27 20 28 21 29 22 30 23 31 24 32 25 34 26 35 27 36
REMARK SMILES IDX 73 37 28 38 72 39 29 40 30 41 31 42 66 43 32 44 71 45 65 46
REMARK SMILES IDX 67 47 33 48 70 49 64 50 63 51 34 53 56 54 41 55 55 56 42 57
REMARK SMILES IDX 45 58 54 59 68 60 43 61 44 62 53 64 69 65 46 66 35 67 36 68
REMARK SMILES IDX 40 69 37 70 39 71 38 72 57 73 58 74 62 75 59 76 61 77 60 78
REMARK SMILES IDX 47 79 48 80 52 81 49 82 51 83 50 84
REMARK H PARENT 16 7 74 15 6 19 23 33 67 52 45 63
REMARK Flexibility Score: inf
ROOT
ATOM      1  C   UNL A   1      33.685  28.797  26.780  1.00  0.00     0.002 C 
ENDROOT
BRANCH   1   2
ATOM      2  C   UNL A   1      32.970  29.520  25.627  1.00  0.00     0.021 C 
BRANCH   2   3
ATOM      3  C   UNL A   1      33.040  28.816  24.268  1.00  0.00     0.116 C 
BRANCH   3   4
ATOM      4  N   UNL A   1      32.032  29.329  23.361  1.00  0.00    -0.354 N 
ATOM      5  C   UNL A   1      31.006  28.711  22.714  1.00  0.00     0.243 C 
ATOM      6  O   UNL A   1      30.321  29.399  21.953  1.00  0.00    -0.273 OA
ATOM      7  H   UNL A   1      32.101  30.295  23.181  1.00  0.00     0.163 HD
BRANCH   5   8
ATOM      8  C   UNL A   1      30.677  27.225  22.934  1.00  0.00     0.181 C 
ATOM      9  C   UNL A   1      31.150  24.714  24.572  1.00  0.00     0.145 C 
ATOM     10  S   UNL A   1      31.390  24.549  22.748  1.00  0.00    -0.145 SA
ATOM     11  C   UNL A   1      30.074  25.769  24.866  1.00  0.00     0.234 C 
ATOM     12  C   UNL A   1      31.754  26.296  22.381  1.00  0.00     0.105 C 
ATOM     13  N   UNL A   1      30.271  27.015  24.321  1.00  0.00    -0.343 N 
ATOM     14  O   UNL A   1      29.129  25.626  25.635  1.00  0.00    -0.274 OA
ATOM     15  H   UNL A   1      30.133  27.803  24.893  1.00  0.00     0.164 HD
BRANCH   9  16
ATOM     16  C   UNL A   1      31.002  23.322  25.196  1.00  0.00     0.124 C 
BRANCH  16  17
ATOM     17  C   UNL A   1      31.308  23.138  26.668  1.00  0.00     0.226 C 
ATOM     18  N   UNL A   1      32.517  22.742  27.145  1.00  0.00    -0.326 N 
ATOM     19  H   UNL A   1      32.576  22.770  28.126  1.00  0.00     0.169 HD
ATOM     20  O   UNL A   1      30.418  23.358  27.499  1.00  0.00    -0.275 OA
BRANCH  18  21
ATOM     21  C   UNL A   1      33.695  22.301  26.532  1.00  0.00     0.041 A 
ATOM     22  C   UNL A   1      37.423  21.262  24.626  1.00  0.00     0.044 C 
ATOM     23  C   UNL A   1      36.138  21.619  25.312  1.00  0.00    -0.051 A 
ATOM     24  C   UNL A   1      35.071  20.713  25.334  1.00  0.00     0.005 A 
ATOM     25  C   UNL A   1      35.981  22.862  25.927  1.00  0.00     0.005 A 
ATOM     26  C   UNL A   1      33.857  21.050  25.947  1.00  0.00     0.026 A 
ATOM     27  C   UNL A   1      34.775  23.190  26.549  1.00  0.00     0.026 A 
ENDBRANCH  18  21
ENDBRANCH  16  17
ENDBRANCH   9  16
ENDBRANCH   5   8
ENDBRANCH   3   4
ENDBRANCH   2   3
ENDBRANCH   1   2
BRANCH   1  28
ATOM     28  C   UNL A   1      34.980  29.441  27.302  1.00  0.00     0.002 C 
BRANCH  28  29
ATOM     29  C   UNL A   1      34.807  30.603  28.282  1.00  0.00     0.021 C 
BRANCH  29  30
ATOM     30  C   UNL A   1      34.734  31.975  27.626  1.00  0.00     0.116 C 
BRANCH  30  31
ATOM     31  N   UNL A   1      33.887  32.933  28.324  1.00  0.00    -0.352 N 
ATOM     32  C   UNL A   1      34.130  33.615  29.506  1.00  0.00     0.251 C 
ATOM     33  H   UNL A   1      33.021  33.124  27.896  1.00  0.00     0.163 HD
ATOM     34  O   UNL A   1      33.289  34.374  29.964  1.00  0.00    -0.269 OA
BRANCH  32  35
ATOM     35  C   UNL A   1      35.469  33.520  30.142  1.00  0.00     0.039 A 
ATOM     36  C   UNL A   1      36.527  34.204  29.533  1.00  0.00     0.014 A 
ATOM     37  C   UNL A   1      35.720  32.625  31.179  1.00  0.00     0.014 A 
ATOM     38  C   UNL A   1      37.836  33.799  29.784  1.00  0.00     0.010 A 
ATOM     39  C   UNL A   1      37.008  32.154  31.359  1.00  0.00     0.010 A 
ATOM     40  C   UNL A   1      38.052  32.689  30.604  1.00  0.00    -0.014 A 
BRANCH  40  41
ATOM     41  C   UNL A   1      39.297  31.928  30.576  1.00  0.00     0.031 A 
ATOM     42  C   UNL A   1      39.388  30.636  29.875  1.00  0.00     0.074 A 
ATOM     43  C   UNL A   1      40.393  32.415  31.203  1.00  0.00     0.049 A 
ATOM     44  N   UNL A   1      40.124  29.652  30.278  1.00  0.00    -0.248 NA
ATOM     45  C   UNL A   1      38.623  30.342  28.669  1.00  0.00     0.031 C 
ATOM     46  C   UNL A   1      41.757  31.899  31.121  1.00  0.00     0.029 A 
ATOM     47  N   UNL A   1      40.446  33.349  32.239  1.00  0.00    -0.354 N 
ATOM     48  C   UNL A   1      40.171  28.745  29.248  1.00  0.00     0.074 A 
ATOM     49  C   UNL A   1      39.149  29.165  28.314  1.00  0.00     0.031 C 
ATOM     50  C   UNL A   1      42.419  32.269  32.229  1.00  0.00     0.029 A 
ATOM     51  C   UNL A   1      41.460  32.919  33.108  1.00  0.00     0.049 A 
ATOM     52  H   UNL A   1      39.885  34.151  32.339  1.00  0.00     0.167 HD
ATOM     53  C   UNL A   1      41.174  27.826  29.180  1.00  0.00     0.031 A 
ATOM     54  C   UNL A   1      41.260  32.624  34.425  1.00  0.00     0.031 A 
ATOM     55  C   UNL A   1      42.118  27.939  30.283  1.00  0.00     0.049 A 
ATOM     56  C   UNL A   1      41.712  31.230  34.801  1.00  0.00     0.074 A 
ATOM     57  C   UNL A   1      43.369  28.527  30.386  1.00  0.00     0.029 A 
ATOM     58  N   UNL A   1      41.706  27.659  31.578  1.00  0.00    -0.354 N 
ATOM     59  N   UNL A   1      41.935  30.283  33.935  1.00  0.00    -0.248 NA
ATOM     60  C   UNL A   1      41.852  30.769  36.180  1.00  0.00     0.031 C 
ATOM     61  C   UNL A   1      43.691  28.639  31.760  1.00  0.00     0.029 A 
ATOM     62  C   UNL A   1      42.644  28.107  32.488  1.00  0.00     0.049 A 
ATOM     63  H   UNL A   1      40.865  27.204  31.815  1.00  0.00     0.167 HD
ATOM     64  C   UNL A   1      42.210  29.114  34.596  1.00  0.00     0.074 A 
ATOM     65  C   UNL A   1      42.161  29.472  36.001  1.00  0.00     0.031 C 
ATOM     66  C   UNL A   1      42.424  27.951  33.917  1.00  0.00     0.031 A 
BRANCH  53  67
ATOM     67  C   UNL A   1      41.453  27.062  27.913  1.00  0.00    -0.014 A 
ATOM     68  C   UNL A   1      42.284  27.623  26.926  1.00  0.00     0.009 A 
ATOM     69  C   UNL A   1      40.883  25.813  27.620  1.00  0.00     0.009 A 
ATOM     70  C   UNL A   1      42.451  27.022  25.673  1.00  0.00     0.001 A 
ATOM     71  C   UNL A   1      41.015  25.225  26.354  1.00  0.00     0.001 A 
ATOM     72  C   UNL A   1      41.789  25.839  25.376  1.00  0.00     0.000 A 
ENDBRANCH  53  67
BRANCH  54  73
ATOM     73  C   UNL A   1      40.083  33.291  35.042  1.00  0.00    -0.014 A 
ATOM     74  C   UNL A   1      38.842  32.624  35.035  1.00  0.00     0.009 A 
ATOM     75  C   UNL A   1      40.257  34.381  35.907  1.00  0.00     0.009 A 
ATOM     76  C   UNL A   1      37.838  32.980  35.940  1.00  0.00     0.001 A 
ATOM     77  C   UNL A   1      39.244  34.739  36.804  1.00  0.00     0.001 A 
ATOM     78  C   UNL A   1      38.049  34.020  36.841  1.00  0.00     0.000 A 
ENDBRANCH  54  73
BRANCH  66  79
ATOM     79  C   UNL A   1      42.516  26.565  34.509  1.00  0.00    -0.014 A 
ATOM     80  C   UNL A   1      41.527  25.973  35.303  1.00  0.00     0.009 A 
ATOM     81  C   UNL A   1      43.609  25.743  34.144  1.00  0.00     0.009 A 
ATOM     82  C   UNL A   1      41.640  24.645  35.740  1.00  0.00     0.001 A 
ATOM     83  C   UNL A   1      43.704  24.408  34.540  1.00  0.00     0.001 A 
ATOM     84  C   UNL A   1      42.722  23.860  35.350  1.00  0.00     0.000 A 
ENDBRANCH  66  79
ENDBRANCH  40  41
ENDBRANCH  32  35
ENDBRANCH  30  31
ENDBRANCH  29  30
ENDBRANCH  28  29
ENDBRANCH   1  28
TORSDOF 16
ENDMDL
MODEL 3
REMARK VINA RESULT:     -11.1      1.568      2.022
REMARK SMILES Cc1ccc(NC(=O)C[C@H]2SC[C@H](C(=O)NCCCCCCNC(=O)c3ccc(-c4c5nc(c(-c6ccccc6)c6ccc([nH]6)c(-c6ccccc6)c6nc(c(-c7ccccc7)c7ccc4[nH]7)C=C6)C=C5)cc3)NC2=O)cc1
REMARK SMILES IDX 19 1 18 2 17 3 16 4 14 5 15 6 13 8 10 9 11 10 75 11 12 12
REMARK SMILES IDX 74 13 76 14 9 16 7 17 6 18 8 20 5 21 1 22 2 23 3 24 78 25
REMARK SMILES IDX 4 26 77 27 20 28 21 29 22 30 23 31 24 32 25 34 26 35 27 36
REMARK SMILES IDX 73 37 28 38 72 39 29 40 30 41 31 42 66 43 32 44 71 45 65 46
REMARK SMILES IDX 67 47 33 48 70 49 64 50 63 51 34 53 56 54 41 55 55 56 42 57
REMARK SMILES IDX 45 58 54 59 68 60 43 61 44 62 53 64 69 65 46 66 35 67 36 68
REMARK SMILES IDX 40 69 37 70 39 71 38 72 57 73 58 74 62 75 59 76 61 77 60 78
REMARK SMILES IDX 47 79 48 80 52 81 49 82 51 83 50 84
REMARK H PARENT 16 7 74 15 6 19 23 33 67 52 45 63
REMARK Flexibility Score: inf
ROOT
ATOM      1  C   UNL A   1      33.329  28.887  25.638  1.00  0.00     0.002 C 
ENDROOT
BRANCH   1   2
ATOM      2  C   UNL A   1      34.136  28.440  24.408  1.00  0.00     0.021 C 
BRANCH   2   3
ATOM      3  C   UNL A   1      33.340  28.342  23.102  1.00  0.00     0.116 C 
BRANCH   3   4
ATOM      4  N   UNL A   1      32.139  29.152  23.161  1.00  0.00    -0.354 N 
ATOM      5  C   UNL A   1      30.830  28.810  23.313  1.00  0.00     0.243 C 
ATOM      6  O   UNL A   1      29.999  29.721  23.279  1.00  0.00    -0.273 OA
ATOM      7  H   UNL A   1      32.297  30.121  23.076  1.00  0.00     0.163 HD
BRANCH   5   8
ATOM      8  C   UNL A   1      30.387  27.357  23.550  1.00  0.00     0.181 C 
ATOM      9  C   UNL A   1      30.992  24.674  24.832  1.00  0.00     0.145 C 
ATOM     10  S   UNL A   1      30.642  24.645  23.019  1.00  0.00    -0.145 SA
ATOM     11  C   UNL A   1      30.208  25.812  25.500  1.00  0.00     0.234 C 
ATOM     12  C   UNL A   1      31.109  26.365  22.643  1.00  0.00     0.105 C 
ATOM     13  N   UNL A   1      30.397  27.071  24.983  1.00  0.00    -0.343 N 
ATOM     14  O   UNL A   1      29.532  25.709  26.517  1.00  0.00    -0.274 OA
ATOM     15  H   UNL A   1      30.546  27.817  25.608  1.00  0.00     0.164 HD
BRANCH   9  16
ATOM     16  C   UNL A   1      30.855  23.257  25.402  1.00  0.00     0.124 C 
BRANCH  16  17
ATOM     17  C   UNL A   1      31.161  23.019  26.866  1.00  0.00     0.226 C 
ATOM     18  N   UNL A   1      32.415  22.844  27.357  1.00  0.00    -0.326 N 
ATOM     19  H   UNL A   1      32.446  22.801  28.339  1.00  0.00     0.169 HD
ATOM     20  O   UNL A   1      30.227  22.979  27.677  1.00  0.00    -0.275 OA
BRANCH  18  21
ATOM     21  C   UNL A   1      33.673  22.709  26.758  1.00  0.00     0.041 A 
ATOM     22  C   UNL A   1      37.501  22.595  24.774  1.00  0.00     0.044 C 
ATOM     23  C   UNL A   1      36.183  22.644  25.486  1.00  0.00    -0.051 A 
ATOM     24  C   UNL A   1      35.595  21.469  25.970  1.00  0.00     0.005 A 
ATOM     25  C   UNL A   1      35.514  23.857  25.665  1.00  0.00     0.005 A 
ATOM     26  C   UNL A   1      34.348  21.502  26.609  1.00  0.00     0.026 A 
ATOM     27  C   UNL A   1      34.279  23.889  26.313  1.00  0.00     0.026 A 
ENDBRANCH  18  21
ENDBRANCH  16  17
ENDBRANCH   9  16
ENDBRANCH   5   8
ENDBRANCH   3   4
ENDBRANCH   2   3
ENDBRANCH   1   2
BRANCH   1  28
ATOM     28  C   UNL A   1      34.129  29.459  26.819  1.00  0.00     0.002 C 
BRANCH  28  29
ATOM     29  C   UNL A   1      33.450  30.575  27.616  1.00  0.00     0.021 C 
BRANCH  29  30
ATOM     30  C   UNL A   1      34.315  31.809  27.834  1.00  0.00     0.116 C 
BRANCH  30  31
ATOM     31  N   UNL A   1      34.608  32.101  29.231  1.00  0.00    -0.352 N 
ATOM     32  C   UNL A   1      35.507  31.480  30.084  1.00  0.00     0.251 C 
ATOM     33  H   UNL A   1      34.096  32.845  29.625  1.00  0.00     0.163 HD
ATOM     34  O   UNL A   1      35.609  31.846  31.244  1.00  0.00    -0.269 OA
BRANCH  32  35
ATOM     35  C   UNL A   1      36.440  30.458  29.542  1.00  0.00     0.039 A 
ATOM     36  C   UNL A   1      36.703  29.334  30.333  1.00  0.00     0.014 A 
ATOM     37  C   UNL A   1      37.190  30.695  28.393  1.00  0.00     0.014 A 
ATOM     38  C   UNL A   1      37.869  28.604  30.116  1.00  0.00     0.010 A 
ATOM     39  C   UNL A   1      38.396  30.036  28.233  1.00  0.00     0.010 A 
ATOM     40  C   UNL A   1      38.768  29.044  29.142  1.00  0.00    -0.014 A 
BRANCH  40  41
ATOM     41  C   UNL A   1      40.170  28.643  29.136  1.00  0.00     0.031 A 
ATOM     42  C   UNL A   1      40.603  27.381  28.509  1.00  0.00     0.074 A 
ATOM     43  C   UNL A   1      41.097  29.442  29.713  1.00  0.00     0.049 A 
ATOM     44  N   UNL A   1      41.576  26.657  28.955  1.00  0.00    -0.248 NA
ATOM     45  C   UNL A   1      39.942  26.821  27.336  1.00  0.00     0.031 C 
ATOM     46  C   UNL A   1      42.549  29.305  29.636  1.00  0.00     0.029 A 
ATOM     47  N   UNL A   1      40.901  30.418  30.692  1.00  0.00    -0.354 N 
ATOM     48  C   UNL A   1      41.861  25.734  27.979  1.00  0.00     0.074 A 
ATOM     49  C   UNL A   1      40.762  25.808  27.041  1.00  0.00     0.031 C 
ATOM     50  C   UNL A   1      43.091  29.905  30.708  1.00  0.00     0.029 A 
ATOM     51  C   UNL A   1      41.995  30.328  31.565  1.00  0.00     0.049 A 
ATOM     52  H   UNL A   1      40.146  31.045  30.755  1.00  0.00     0.167 HD
ATOM     53  C   UNL A   1      43.074  25.113  27.946  1.00  0.00     0.031 A 
ATOM     54  C   UNL A   1      41.884  30.071  32.901  1.00  0.00     0.031 A 
ATOM     55  C   UNL A   1      43.955  25.542  29.023  1.00  0.00     0.049 A 
ATOM     56  C   UNL A   1      42.693  28.874  33.349  1.00  0.00     0.074 A 
ATOM     57  C   UNL A   1      45.004  26.448  29.068  1.00  0.00     0.029 A 
ATOM     58  N   UNL A   1      43.636  25.241  30.340  1.00  0.00    -0.354 N 
ATOM     59  N   UNL A   1      43.159  27.970  32.536  1.00  0.00    -0.248 NA
ATOM     60  C   UNL A   1      42.955  28.551  34.750  1.00  0.00     0.031 C 
ATOM     61  C   UNL A   1      45.287  26.725  30.428  1.00  0.00     0.029 A 
ATOM     62  C   UNL A   1      44.422  25.978  31.204  1.00  0.00     0.049 A 
ATOM     63  H   UNL A   1      42.948  24.594  30.618  1.00  0.00     0.167 HD
ATOM     64  C   UNL A   1      43.739  26.959  33.258  1.00  0.00     0.074 A 
ATOM     65  C   UNL A   1      43.599  27.376  34.640  1.00  0.00     0.031 C 
ATOM     66  C   UNL A   1      44.255  25.856  32.644  1.00  0.00     0.031 A 
BRANCH  53  67
ATOM     67  C   UNL A   1      43.544  24.377  26.721  1.00  0.00    -0.014 A 
ATOM     68  C   UNL A   1      43.018  23.107  26.421  1.00  0.00     0.009 A 
ATOM     69  C   UNL A   1      44.539  24.865  25.858  1.00  0.00     0.009 A 
ATOM     70  C   UNL A   1      43.531  22.321  25.383  1.00  0.00     0.001 A 
ATOM     71  C   UNL A   1      45.083  24.068  24.841  1.00  0.00     0.001 A 
ATOM     72  C   UNL A   1      44.587  22.789  24.613  1.00  0.00     0.000 A 
ENDBRANCH  53  67
BRANCH  54  73
ATOM     73  C   UNL A   1      40.572  30.436  33.499  1.00  0.00    -0.014 A 
ATOM     74  C   UNL A   1      40.309  31.788  33.789  1.00  0.00     0.009 A 
ATOM     75  C   UNL A   1      39.499  29.535  33.458  1.00  0.00     0.009 A 
ATOM     76  C   UNL A   1      38.996  32.242  33.938  1.00  0.00     0.001 A 
ATOM     77  C   UNL A   1      38.186  29.993  33.618  1.00  0.00     0.001 A 
ATOM     78  C   UNL A   1      37.934  31.349  33.828  1.00  0.00     0.000 A 
ENDBRANCH  54  73
BRANCH  66  79
ATOM     79  C   UNL A   1      44.716  24.584  33.314  1.00  0.00    -0.014 A 
ATOM     80  C   UNL A   1      46.042  24.304  33.663  1.00  0.00     0.009 A 
ATOM     81  C   UNL A   1      43.740  23.653  33.744  1.00  0.00     0.009 A 
ATOM     82  C   UNL A   1      46.382  23.141  34.369  1.00  0.00     0.001 A 
ATOM     83  C   UNL A   1      44.068  22.516  34.486  1.00  0.00     0.001 A 
ATOM     84  C   UNL A   1      45.395  22.254  34.790  1.00  0.00     0.000 A 
ENDBRANCH  66  79
ENDBRANCH  40  41
ENDBRANCH  32  35
ENDBRANCH  30  31
ENDBRANCH  29  30
ENDBRANCH  28  29
ENDBRANCH   1  28
TORSDOF 16
ENDMDL
