MODEL 1
REMARK VINA RESULT:     -10.1      0.000      0.000
REMARK SMILES CC[C@H]1CC[C@](CC(C)(C)O)(C(=O)NCCCCCCNC(=O)c2ccc(-c3c4nc(c(-c5ccccc5)c5ccc([nH]5)c(-c5ccccc5)c5nc(c(-c6ccccc6)c6ccc3[nH]6)C=C5)C=C4)cc2)C1
REMARK SMILES IDX 17 1 16 2 15 3 14 4 12 5 13 6 6 8 3 9 4 10 72 11 5 12 2 13
REMARK SMILES IDX 1 14 7 15 8 16 9 17 10 18 11 19 18 21 19 22 20 23 21 24
REMARK SMILES IDX 22 25 23 27 24 28 25 29 71 30 26 31 70 32 27 33 28 34 29 35
REMARK SMILES IDX 64 36 30 37 69 38 63 39 65 40 31 41 68 42 62 43 61 44 32 46
REMARK SMILES IDX 54 47 39 48 53 49 40 50 43 51 52 52 66 53 41 54 42 55 51 57
REMARK SMILES IDX 67 58 44 59 33 60 34 61 38 62 35 63 37 64 36 65 55 66 56 67
REMARK SMILES IDX 60 68 57 69 59 70 58 71 45 72 46 73 50 74 47 75 49 76 48 77
REMARK H PARENT 14 7 11 20 21 26 65 45 43 56
REMARK Flexibility Score: inf
ROOT
ATOM      1  C   UNL A   1      31.589  27.572  25.321  1.00  0.00     0.002 C 
ENDROOT
BRANCH   1   2
ATOM      2  C   UNL A   1      30.945  26.521  26.234  1.00  0.00     0.021 C 
BRANCH   2   3
ATOM      3  C   UNL A   1      31.198  25.082  25.774  1.00  0.00     0.116 C 
BRANCH   3   4
ATOM      4  N   UNL A   1      31.612  24.277  26.901  1.00  0.00    -0.356 N 
ATOM      5  C   UNL A   1      32.486  23.242  27.014  1.00  0.00     0.226 C 
ATOM      6  O   UNL A   1      32.384  22.623  28.082  1.00  0.00    -0.274 OA
ATOM      7  H   UNL A   1      31.177  24.524  27.748  1.00  0.00     0.163 HD
BRANCH   5   8
ATOM      8  C   UNL A   1      33.668  22.966  26.030  1.00  0.00     0.052 C 
ATOM      9  C   UNL A   1      36.013  23.728  25.790  1.00  0.00    -0.010 C 
ATOM     10  C   UNL A   1      35.184  24.476  24.748  1.00  0.00     0.005 C 
ATOM     11  C   UNL A   1      34.952  23.338  26.823  1.00  0.00     0.020 C 
ATOM     12  C   UNL A   1      33.791  23.836  24.761  1.00  0.00     0.017 C 
BRANCH   9  13
ATOM     13  C   UNL A   1      36.821  22.582  25.158  1.00  0.00     0.000 C 
ATOM     14  C   UNL A   1      38.182  22.356  25.804  1.00  0.00     0.004 C 
ENDBRANCH   9  13
BRANCH   8  15
ATOM     15  C   UNL A   1      33.694  21.415  25.722  1.00  0.00     0.051 C 
BRANCH  15  16
ATOM     16  C   UNL A   1      32.463  20.749  25.053  1.00  0.00     0.060 C 
ATOM     17  C   UNL A   1      32.324  21.138  23.569  1.00  0.00     0.042 C 
ATOM     18  C   UNL A   1      32.608  19.220  25.101  1.00  0.00     0.042 C 
BRANCH  16  19
ATOM     19  O   UNL A   1      31.274  21.110  25.750  1.00  0.00    -0.390 OA
ATOM     20  H   UNL A   1      30.671  20.351  25.779  1.00  0.00     0.211 HD
ENDBRANCH  16  19
ENDBRANCH  15  16
ENDBRANCH   8  15
ENDBRANCH   5   8
ENDBRANCH   3   4
ENDBRANCH   2   3
ENDBRANCH   1   2
BRANCH   1  21
ATOM     21  C   UNL A   1      33.087  27.363  25.066  1.00  0.00     0.002 C 
BRANCH  21  22
ATOM     22  C   UNL A   1      34.008  28.363  25.772  1.00  0.00     0.021 C 
BRANCH  22  23
ATOM     23  C   UNL A   1      33.682  28.584  27.246  1.00  0.00     0.116 C 
BRANCH  23  24
ATOM     24  N   UNL A   1      33.628  30.001  27.570  1.00  0.00    -0.352 N 
ATOM     25  C   UNL A   1      34.540  30.768  28.251  1.00  0.00     0.251 C 
ATOM     26  H   UNL A   1      32.825  30.477  27.258  1.00  0.00     0.163 HD
ATOM     27  O   UNL A   1      34.229  31.878  28.668  1.00  0.00    -0.269 OA
BRANCH  25  28
ATOM     28  C   UNL A   1      35.905  30.250  28.481  1.00  0.00     0.039 A 
ATOM     29  C   UNL A   1      36.831  30.287  27.434  1.00  0.00     0.014 A 
ATOM     30  C   UNL A   1      36.258  29.699  29.715  1.00  0.00     0.014 A 
ATOM     31  C   UNL A   1      38.127  29.810  27.642  1.00  0.00     0.010 A 
ATOM     32  C   UNL A   1      37.566  29.280  29.939  1.00  0.00     0.010 A 
ATOM     33  C   UNL A   1      38.510  29.324  28.902  1.00  0.00    -0.014 A 
BRANCH  33  34
ATOM     34  C   UNL A   1      39.892  28.843  29.154  1.00  0.00     0.031 A 
ATOM     35  C   UNL A   1      40.912  29.770  29.759  1.00  0.00     0.074 A 
ATOM     36  C   UNL A   1      40.246  27.601  28.774  1.00  0.00     0.049 A 
ATOM     37  N   UNL A   1      42.185  29.560  29.985  1.00  0.00    -0.248 NA
ATOM     38  C   UNL A   1      40.451  31.116  30.136  1.00  0.00     0.031 C 
ATOM     39  C   UNL A   1      39.361  26.621  28.141  1.00  0.00     0.029 A 
ATOM     40  N   UNL A   1      41.453  26.953  28.854  1.00  0.00    -0.354 N 
ATOM     41  C   UNL A   1      42.678  30.751  30.502  1.00  0.00     0.074 A 
ATOM     42  C   UNL A   1      41.579  31.691  30.527  1.00  0.00     0.031 C 
ATOM     43  C   UNL A   1      40.050  25.492  27.907  1.00  0.00     0.029 A 
ATOM     44  C   UNL A   1      41.431  25.680  28.338  1.00  0.00     0.049 A 
ATOM     45  H   UNL A   1      42.260  27.362  29.244  1.00  0.00     0.167 HD
ATOM     46  C   UNL A   1      43.931  31.033  30.930  1.00  0.00     0.031 A 
ATOM     47  C   UNL A   1      42.416  24.770  28.217  1.00  0.00     0.031 A 
ATOM     48  C   UNL A   1      45.015  30.088  30.938  1.00  0.00     0.049 A 
ATOM     49  C   UNL A   1      43.796  25.110  28.709  1.00  0.00     0.074 A 
ATOM     50  C   UNL A   1      46.299  30.256  31.431  1.00  0.00     0.029 A 
ATOM     51  N   UNL A   1      44.944  28.802  30.431  1.00  0.00    -0.354 N 
ATOM     52  N   UNL A   1      44.223  26.213  29.273  1.00  0.00    -0.248 NA
ATOM     53  C   UNL A   1      44.826  24.072  28.559  1.00  0.00     0.031 C 
ATOM     54  C   UNL A   1      47.018  29.085  31.179  1.00  0.00     0.029 A 
ATOM     55  C   UNL A   1      46.168  28.172  30.576  1.00  0.00     0.049 A 
ATOM     56  H   UNL A   1      44.143  28.396  30.029  1.00  0.00     0.167 HD
ATOM     57  C   UNL A   1      45.561  25.991  29.573  1.00  0.00     0.074 A 
ATOM     58  C   UNL A   1      45.870  24.644  29.141  1.00  0.00     0.031 C 
ATOM     59  C   UNL A   1      46.454  26.828  30.153  1.00  0.00     0.031 A 
BRANCH  46  60
ATOM     60  C   UNL A   1      44.206  32.424  31.426  1.00  0.00    -0.014 A 
ATOM     61  C   UNL A   1      44.078  32.751  32.785  1.00  0.00     0.009 A 
ATOM     62  C   UNL A   1      44.671  33.401  30.532  1.00  0.00     0.009 A 
ATOM     63  C   UNL A   1      44.386  34.038  33.234  1.00  0.00     0.001 A 
ATOM     64  C   UNL A   1      45.002  34.679  30.987  1.00  0.00     0.001 A 
ATOM     65  C   UNL A   1      44.853  34.997  32.336  1.00  0.00     0.000 A 
ENDBRANCH  46  60
BRANCH  47  66
ATOM     66  C   UNL A   1      42.143  23.441  27.609  1.00  0.00    -0.014 A 
ATOM     67  C   UNL A   1      42.426  23.207  26.255  1.00  0.00     0.009 A 
ATOM     68  C   UNL A   1      41.565  22.413  28.369  1.00  0.00     0.009 A 
ATOM     69  C   UNL A   1      42.100  21.984  25.665  1.00  0.00     0.001 A 
ATOM     70  C   UNL A   1      41.269  21.180  27.784  1.00  0.00     0.001 A 
ATOM     71  C   UNL A   1      41.523  20.971  26.430  1.00  0.00     0.000 A 
ENDBRANCH  47  66
BRANCH  59  72
ATOM     72  C   UNL A   1      47.837  26.295  30.395  1.00  0.00    -0.014 A 
ATOM     73  C   UNL A   1      48.195  25.734  31.629  1.00  0.00     0.009 A 
ATOM     74  C   UNL A   1      48.780  26.320  29.355  1.00  0.00     0.009 A 
ATOM     75  C   UNL A   1      49.484  25.235  31.828  1.00  0.00     0.001 A 
ATOM     76  C   UNL A   1      50.058  25.795  29.549  1.00  0.00     0.001 A 
ATOM     77  C   UNL A   1      50.411  25.262  30.786  1.00  0.00     0.000 A 
ENDBRANCH  59  72
ENDBRANCH  33  34
ENDBRANCH  25  28
ENDBRANCH  23  24
ENDBRANCH  22  23
ENDBRANCH  21  22
ENDBRANCH   1  21
TORSDOF 17
ENDMDL
MODEL 2
REMARK VINA RESULT:      -9.9      2.650      7.801
REMARK SMILES CC[C@H]1CC[C@](CC(C)(C)O)(C(=O)NCCCCCCNC(=O)c2ccc(-c3c4nc(c(-c5ccccc5)c5ccc([nH]5)c(-c5ccccc5)c5nc(c(-c6ccccc6)c6ccc3[nH]6)C=C5)C=C4)cc2)C1
REMARK SMILES IDX 17 1 16 2 15 3 14 4 12 5 13 6 6 8 3 9 4 10 72 11 5 12 2 13
REMARK SMILES IDX 1 14 7 15 8 16 9 17 10 18 11 19 18 21 19 22 20 23 21 24
REMARK SMILES IDX 22 25 23 27 24 28 25 29 71 30 26 31 70 32 27 33 28 34 29 35
REMARK SMILES IDX 64 36 30 37 69 38 63 39 65 40 31 41 68 42 62 43 61 44 32 46
REMARK SMILES IDX 54 47 39 48 53 49 40 50 43 51 52 52 66 53 41 54 42 55 51 57
REMARK SMILES IDX 67 58 44 59 33 60 34 61 38 62 35 63 37 64 36 65 55 66 56 67
REMARK SMILES IDX 60 68 57 69 59 70 58 71 45 72 46 73 50 74 47 75 49 76 48 77
REMARK H PARENT 14 7 11 20 21 26 65 45 43 56
REMARK Flexibility Score: inf
ROOT
ATOM      1  C   UNL A   1      33.412  22.322  23.907  1.00  0.00     0.002 C 
ENDROOT
BRANCH   1   2
ATOM      2  C   UNL A   1      32.394  23.132  24.718  1.00  0.00     0.021 C 
BRANCH   2   3
ATOM      3  C   UNL A   1      31.226  23.656  23.875  1.00  0.00     0.116 C 
BRANCH   3   4
ATOM      4  N   UNL A   1      31.737  24.378  22.732  1.00  0.00    -0.356 N 
ATOM      5  C   UNL A   1      31.977  25.698  22.516  1.00  0.00     0.226 C 
ATOM      6  O   UNL A   1      32.159  25.980  21.324  1.00  0.00    -0.274 OA
ATOM      7  H   UNL A   1      31.952  23.804  21.962  1.00  0.00     0.163 HD
BRANCH   5   8
ATOM      8  C   UNL A   1      32.233  26.750  23.643  1.00  0.00     0.052 C 
ATOM      9  C   UNL A   1      33.707  26.926  25.626  1.00  0.00    -0.010 C 
ATOM     10  C   UNL A   1      32.309  26.574  26.130  1.00  0.00     0.005 C 
ATOM     11  C   UNL A   1      33.658  26.434  24.178  1.00  0.00     0.020 C 
ATOM     12  C   UNL A   1      31.372  26.687  24.922  1.00  0.00     0.017 C 
BRANCH   9  13
ATOM     13  C   UNL A   1      34.033  28.413  25.844  1.00  0.00     0.000 C 
ATOM     14  C   UNL A   1      33.856  28.880  27.283  1.00  0.00     0.004 C 
ENDBRANCH   9  13
BRANCH   8  15
ATOM     15  C   UNL A   1      32.248  28.184  22.977  1.00  0.00     0.051 C 
BRANCH  15  16
ATOM     16  C   UNL A   1      30.929  28.996  22.882  1.00  0.00     0.060 C 
ATOM     17  C   UNL A   1      29.696  28.087  22.716  1.00  0.00     0.042 C 
ATOM     18  C   UNL A   1      30.719  29.801  24.174  1.00  0.00     0.042 C 
BRANCH  16  19
ATOM     19  O   UNL A   1      30.996  29.908  21.789  1.00  0.00    -0.390 OA
ATOM     20  H   UNL A   1      31.491  30.698  22.056  1.00  0.00     0.211 HD
ENDBRANCH  16  19
ENDBRANCH  15  16
ENDBRANCH   8  15
ENDBRANCH   5   8
ENDBRANCH   3   4
ENDBRANCH   2   3
ENDBRANCH   1   2
BRANCH   1  21
ATOM     21  C   UNL A   1      34.792  22.978  23.778  1.00  0.00     0.002 C 
BRANCH  21  22
ATOM     22  C   UNL A   1      35.508  23.242  25.106  1.00  0.00     0.021 C 
BRANCH  22  23
ATOM     23  C   UNL A   1      36.962  23.682  24.958  1.00  0.00     0.116 C 
BRANCH  23  24
ATOM     24  N   UNL A   1      37.877  22.653  25.425  1.00  0.00    -0.352 N 
ATOM     25  C   UNL A   1      39.067  22.792  26.095  1.00  0.00     0.251 C 
ATOM     26  H   UNL A   1      37.605  21.727  25.234  1.00  0.00     0.163 HD
ATOM     27  O   UNL A   1      39.843  21.847  26.184  1.00  0.00    -0.269 OA
BRANCH  25  28
ATOM     28  C   UNL A   1      39.412  24.090  26.711  1.00  0.00     0.039 A 
ATOM     29  C   UNL A   1      38.987  24.357  28.016  1.00  0.00     0.014 A 
ATOM     30  C   UNL A   1      40.123  25.053  25.990  1.00  0.00     0.014 A 
ATOM     31  C   UNL A   1      39.316  25.575  28.613  1.00  0.00     0.010 A 
ATOM     32  C   UNL A   1      40.502  26.241  26.608  1.00  0.00     0.010 A 
ATOM     33  C   UNL A   1      40.094  26.517  27.922  1.00  0.00    -0.014 A 
BRANCH  33  34
ATOM     34  C   UNL A   1      40.484  27.804  28.550  1.00  0.00     0.031 A 
ATOM     35  C   UNL A   1      41.866  27.977  29.118  1.00  0.00     0.074 A 
ATOM     36  C   UNL A   1      39.573  28.789  28.673  1.00  0.00     0.049 A 
ATOM     37  N   UNL A   1      42.368  28.995  29.771  1.00  0.00    -0.248 NA
ATOM     38  C   UNL A   1      42.800  26.851  28.956  1.00  0.00     0.031 C 
ATOM     39  C   UNL A   1      38.188  28.731  28.199  1.00  0.00     0.029 A 
ATOM     40  N   UNL A   1      39.674  30.032  29.247  1.00  0.00    -0.354 N 
ATOM     41  C   UNL A   1      43.660  28.621  30.118  1.00  0.00     0.074 A 
ATOM     42  C   UNL A   1      43.857  27.272  29.636  1.00  0.00     0.031 C 
ATOM     43  C   UNL A   1      37.575  29.891  28.486  1.00  0.00     0.029 A 
ATOM     44  C   UNL A   1      38.509  30.759  29.195  1.00  0.00     0.049 A 
ATOM     45  H   UNL A   1      40.503  30.370  29.658  1.00  0.00     0.167 HD
ATOM     46  C   UNL A   1      44.603  29.341  30.770  1.00  0.00     0.031 A 
ATOM     47  C   UNL A   1      38.224  31.985  29.673  1.00  0.00     0.031 A 
ATOM     48  C   UNL A   1      44.421  30.695  31.219  1.00  0.00     0.049 A 
ATOM     49  C   UNL A   1      39.296  32.763  30.386  1.00  0.00     0.074 A 
ATOM     50  C   UNL A   1      45.346  31.536  31.815  1.00  0.00     0.029 A 
ATOM     51  N   UNL A   1      43.235  31.404  31.124  1.00  0.00    -0.354 N 
ATOM     52  N   UNL A   1      40.538  32.426  30.631  1.00  0.00    -0.248 NA
ATOM     53  C   UNL A   1      38.926  34.099  30.877  1.00  0.00     0.031 C 
ATOM     54  C   UNL A   1      44.706  32.740  32.121  1.00  0.00     0.029 A 
ATOM     55  C   UNL A   1      43.397  32.665  31.672  1.00  0.00     0.049 A 
ATOM     56  H   UNL A   1      42.403  31.063  30.725  1.00  0.00     0.167 HD
ATOM     57  C   UNL A   1      41.106  33.517  31.275  1.00  0.00     0.074 A 
ATOM     58  C   UNL A   1      40.078  34.532  31.370  1.00  0.00     0.031 C 
ATOM     59  C   UNL A   1      42.367  33.666  31.746  1.00  0.00     0.031 A 
BRANCH  46  60
ATOM     60  C   UNL A   1      45.925  28.682  31.043  1.00  0.00    -0.014 A 
ATOM     61  C   UNL A   1      46.995  28.794  30.141  1.00  0.00     0.009 A 
ATOM     62  C   UNL A   1      46.125  28.001  32.254  1.00  0.00     0.009 A 
ATOM     63  C   UNL A   1      48.231  28.214  30.436  1.00  0.00     0.001 A 
ATOM     64  C   UNL A   1      47.369  27.444  32.558  1.00  0.00     0.001 A 
ATOM     65  C   UNL A   1      48.418  27.547  31.646  1.00  0.00     0.000 A 
ENDBRANCH  46  60
BRANCH  47  66
ATOM     66  C   UNL A   1      36.868  32.566  29.495  1.00  0.00    -0.014 A 
ATOM     67  C   UNL A   1      35.891  32.410  30.491  1.00  0.00     0.009 A 
ATOM     68  C   UNL A   1      36.532  33.246  28.315  1.00  0.00     0.009 A 
ATOM     69  C   UNL A   1      34.595  32.891  30.292  1.00  0.00     0.001 A 
ATOM     70  C   UNL A   1      35.242  33.752  28.132  1.00  0.00     0.001 A 
ATOM     71  C   UNL A   1      34.272  33.562  29.114  1.00  0.00     0.000 A 
ENDBRANCH  47  66
BRANCH  59  72
ATOM     72  C   UNL A   1      42.717  34.988  32.366  1.00  0.00    -0.014 A 
ATOM     73  C   UNL A   1      42.417  35.265  33.708  1.00  0.00     0.009 A 
ATOM     74  C   UNL A   1      43.395  35.952  31.604  1.00  0.00     0.009 A 
ATOM     75  C   UNL A   1      42.762  36.498  34.265  1.00  0.00     0.001 A 
ATOM     76  C   UNL A   1      43.763  37.172  32.173  1.00  0.00     0.001 A 
ATOM     77  C   UNL A   1      43.439  37.447  33.499  1.00  0.00     0.000 A 
ENDBRANCH  59  72
ENDBRANCH  33  34
ENDBRANCH  25  28
ENDBRANCH  23  24
ENDBRANCH  22  23
ENDBRANCH  21  22
ENDBRANCH   1  21
TORSDOF 17
ENDMDL
MODEL 3
REMARK VINA RESULT:      -9.6      0.987      6.156
REMARK SMILES CC[C@H]1CC[C@](CC(C)(C)O)(C(=O)NCCCCCCNC(=O)c2ccc(-c3c4nc(c(-c5ccccc5)c5ccc([nH]5)c(-c5ccccc5)c5nc(c(-c6ccccc6)c6ccc3[nH]6)C=C5)C=C4)cc2)C1
REMARK SMILES IDX 17 1 16 2 15 3 14 4 12 5 13 6 6 8 3 9 4 10 72 11 5 12 2 13
REMARK SMILES IDX 1 14 7 15 8 16 9 17 10 18 11 19 18 21 19 22 20 23 21 24
REMARK SMILES IDX 22 25 23 27 24 28 25 29 71 30 26 31 70 32 27 33 28 34 29 35
REMARK SMILES IDX 64 36 30 37 69 38 63 39 65 40 31 41 68 42 62 43 61 44 32 46
REMARK SMILES IDX 54 47 39 48 53 49 40 50 43 51 52 52 66 53 41 54 42 55 51 57
REMARK SMILES IDX 67 58 44 59 33 60 34 61 38 62 35 63 37 64 36 65 55 66 56 67
REMARK SMILES IDX 60 68 57 69 59 70 58 71 45 72 46 73 50 74 47 75 49 76 48 77
REMARK H PARENT 14 7 11 20 21 26 65 45 43 56
REMARK Flexibility Score: inf
ROOT
ATOM      1  C   UNL A   1      31.356  27.630  25.237  1.00  0.00     0.002 C 
ENDROOT
BRANCH   1   2
ATOM      2  C   UNL A   1      30.470  26.429  25.587  1.00  0.00     0.021 C 
BRANCH   2   3
ATOM      3  C   UNL A   1      30.736  25.203  24.708  1.00  0.00     0.116 C 
BRANCH   3   4
ATOM      4  N   UNL A   1      30.495  23.998  25.469  1.00  0.00    -0.356 N 
ATOM      5  C   UNL A   1      31.228  22.867  25.649  1.00  0.00     0.226 C 
ATOM      6  O   UNL A   1      30.585  21.935  26.149  1.00  0.00    -0.274 OA
ATOM      7  H   UNL A   1      29.635  23.994  25.948  1.00  0.00     0.163 HD
BRANCH   5   8
ATOM      8  C   UNL A   1      32.778  22.777  25.473  1.00  0.00     0.052 C 
ATOM      9  C   UNL A   1      34.690  24.347  25.608  1.00  0.00    -0.010 C 
ATOM     10  C   UNL A   1      34.405  24.105  24.126  1.00  0.00     0.005 C 
ATOM     11  C   UNL A   1      33.348  23.995  26.253  1.00  0.00     0.020 C 
ATOM     12  C   UNL A   1      33.375  22.971  24.063  1.00  0.00     0.017 C 
BRANCH   9  13
ATOM     13  C   UNL A   1      35.920  23.557  26.086  1.00  0.00     0.000 C 
ATOM     14  C   UNL A   1      37.002  23.397  25.027  1.00  0.00     0.004 C 
ENDBRANCH   9  13
BRANCH   8  15
ATOM     15  C   UNL A   1      33.272  21.449  26.176  1.00  0.00     0.051 C 
BRANCH  15  16
ATOM     16  C   UNL A   1      33.416  20.150  25.340  1.00  0.00     0.060 C 
ATOM     17  C   UNL A   1      32.587  20.199  24.041  1.00  0.00     0.042 C 
ATOM     18  C   UNL A   1      34.882  19.956  24.926  1.00  0.00     0.042 C 
BRANCH  16  19
ATOM     19  O   UNL A   1      33.014  19.025  26.115  1.00  0.00    -0.390 OA
ATOM     20  H   UNL A   1      32.215  19.247  26.619  1.00  0.00     0.211 HD
ENDBRANCH  16  19
ENDBRANCH  15  16
ENDBRANCH   8  15
ENDBRANCH   5   8
ENDBRANCH   3   4
ENDBRANCH   2   3
ENDBRANCH   1   2
BRANCH   1  21
ATOM     21  C   UNL A   1      32.717  27.264  24.632  1.00  0.00     0.002 C 
BRANCH  21  22
ATOM     22  C   UNL A   1      33.904  28.064  25.178  1.00  0.00     0.021 C 
BRANCH  22  23
ATOM     23  C   UNL A   1      33.874  28.279  26.688  1.00  0.00     0.116 C 
BRANCH  23  24
ATOM     24  N   UNL A   1      33.657  29.678  27.020  1.00  0.00    -0.352 N 
ATOM     25  C   UNL A   1      34.413  30.507  27.811  1.00  0.00     0.251 C 
ATOM     26  H   UNL A   1      32.856  30.088  26.622  1.00  0.00     0.163 HD
ATOM     27  O   UNL A   1      33.958  31.576  28.202  1.00  0.00    -0.269 OA
BRANCH  25  28
ATOM     28  C   UNL A   1      35.784  30.106  28.191  1.00  0.00     0.039 A 
ATOM     29  C   UNL A   1      36.005  29.565  29.461  1.00  0.00     0.014 A 
ATOM     30  C   UNL A   1      36.851  30.298  27.310  1.00  0.00     0.014 A 
ATOM     31  C   UNL A   1      37.294  29.173  29.829  1.00  0.00     0.010 A 
ATOM     32  C   UNL A   1      38.123  29.851  27.655  1.00  0.00     0.010 A 
ATOM     33  C   UNL A   1      38.359  29.293  28.921  1.00  0.00    -0.014 A 
BRANCH  33  34
ATOM     34  C   UNL A   1      39.730  28.852  29.279  1.00  0.00     0.031 A 
ATOM     35  C   UNL A   1      40.231  27.508  28.825  1.00  0.00     0.074 A 
ATOM     36  C   UNL A   1      40.495  29.628  30.070  1.00  0.00     0.049 A 
ATOM     37  N   UNL A   1      41.366  26.915  29.099  1.00  0.00    -0.248 NA
ATOM     38  C   UNL A   1      39.331  26.713  27.973  1.00  0.00     0.031 C 
ATOM     39  C   UNL A   1      40.109  30.935  30.610  1.00  0.00     0.029 A 
ATOM     40  N   UNL A   1      41.756  29.423  30.571  1.00  0.00    -0.354 N 
ATOM     41  C   UNL A   1      41.303  25.674  28.479  1.00  0.00     0.074 A 
ATOM     42  C   UNL A   1      40.009  25.581  27.842  1.00  0.00     0.031 C 
ATOM     43  C   UNL A   1      41.119  31.421  31.350  1.00  0.00     0.029 A 
ATOM     44  C   UNL A   1      42.206  30.448  31.369  1.00  0.00     0.049 A 
ATOM     45  H   UNL A   1      42.289  28.618  30.377  1.00  0.00     0.167 HD
ATOM     46  C   UNL A   1      42.246  24.703  28.434  1.00  0.00     0.031 A 
ATOM     47  C   UNL A   1      43.361  30.583  32.047  1.00  0.00     0.031 A 
ATOM     48  C   UNL A   1      43.547  24.808  29.037  1.00  0.00     0.049 A 
ATOM     49  C   UNL A   1      44.391  29.490  31.969  1.00  0.00     0.074 A 
ATOM     50  C   UNL A   1      44.600  23.911  28.973  1.00  0.00     0.029 A 
ATOM     51  N   UNL A   1      43.972  25.873  29.813  1.00  0.00    -0.354 N 
ATOM     52  N   UNL A   1      44.348  28.360  31.309  1.00  0.00    -0.248 NA
ATOM     53  C   UNL A   1      45.636  29.700  32.723  1.00  0.00     0.031 C 
ATOM     54  C   UNL A   1      45.647  24.413  29.750  1.00  0.00     0.029 A 
ATOM     55  C   UNL A   1      45.263  25.645  30.256  1.00  0.00     0.049 A 
ATOM     56  H   UNL A   1      43.436  26.672  30.018  1.00  0.00     0.167 HD
ATOM     57  C   UNL A   1      45.569  27.739  31.541  1.00  0.00     0.074 A 
ATOM     58  C   UNL A   1      46.335  28.625  32.392  1.00  0.00     0.031 C 
ATOM     59  C   UNL A   1      46.015  26.542  31.091  1.00  0.00     0.031 A 
BRANCH  46  60
ATOM     60  C   UNL A   1      41.908  23.432  27.707  1.00  0.00    -0.014 A 
ATOM     61  C   UNL A   1      41.183  22.406  28.333  1.00  0.00     0.009 A 
ATOM     62  C   UNL A   1      42.258  23.291  26.356  1.00  0.00     0.009 A 
ATOM     63  C   UNL A   1      40.837  21.253  27.624  1.00  0.00     0.001 A 
ATOM     64  C   UNL A   1      41.890  22.148  25.642  1.00  0.00     0.001 A 
ATOM     65  C   UNL A   1      41.184  21.128  26.279  1.00  0.00     0.000 A 
ENDBRANCH  46  60
BRANCH  47  66
ATOM     66  C   UNL A   1      43.620  31.801  32.859  1.00  0.00    -0.014 A 
ATOM     67  C   UNL A   1      43.089  31.919  34.152  1.00  0.00     0.009 A 
ATOM     68  C   UNL A   1      44.366  32.866  32.331  1.00  0.00     0.009 A 
ATOM     69  C   UNL A   1      43.268  33.094  34.886  1.00  0.00     0.001 A 
ATOM     70  C   UNL A   1      44.569  34.028  33.080  1.00  0.00     0.001 A 
ATOM     71  C   UNL A   1      44.009  34.146  34.350  1.00  0.00     0.000 A 
ENDBRANCH  47  66
BRANCH  59  72
ATOM     72  C   UNL A   1      47.411  26.142  31.472  1.00  0.00    -0.014 A 
ATOM     73  C   UNL A   1      48.502  26.420  30.636  1.00  0.00     0.009 A 
ATOM     74  C   UNL A   1      47.638  25.515  32.707  1.00  0.00     0.009 A 
ATOM     75  C   UNL A   1      49.793  26.048  31.017  1.00  0.00     0.001 A 
ATOM     76  C   UNL A   1      48.933  25.169  33.097  1.00  0.00     0.001 A 
ATOM     77  C   UNL A   1      50.007  25.428  32.249  1.00  0.00     0.000 A 
ENDBRANCH  59  72
ENDBRANCH  33  34
ENDBRANCH  25  28
ENDBRANCH  23  24
ENDBRANCH  22  23
ENDBRANCH  21  22
ENDBRANCH   1  21
TORSDOF 17
ENDMDL
