MODEL 1
REMARK VINA RESULT:     -10.9      0.000      0.000
REMARK SMILES [NH3+][C@H]1C=C[C@@H](C(=O)N2CCC(CC(=O)NCCCCCCNC(=O)c3ccc(-c4c5nc(c(-c6ccccc6)c6ccc([nH]6)c(-c6ccccc6)c6nc(c(-c7ccccc7)c7ccc4[nH]7)C=C6)C=C5)cc3)CC2)C1
REMARK SMILES IDX 18 1 17 2 16 3 15 4 13 5 14 6 12 8 11 9 6 10 7 11 8 12 9 13
REMARK SMILES IDX 74 14 10 15 73 16 5 17 2 18 3 19 75 20 4 21 1 22 19 26 20 27
REMARK SMILES IDX 21 28 22 29 23 30 24 32 25 33 26 34 72 35 27 36 71 37 28 38
REMARK SMILES IDX 29 39 30 40 65 41 31 42 70 43 64 44 66 45 32 46 69 47 63 48
REMARK SMILES IDX 62 49 33 51 55 52 40 53 54 54 41 55 44 56 53 57 67 58 42 59
REMARK SMILES IDX 43 60 52 62 68 63 45 64 34 65 35 66 39 67 36 68 38 69 37 70
REMARK SMILES IDX 56 71 57 72 61 73 58 74 60 75 59 76 46 77 47 78 51 79 48 80
REMARK SMILES IDX 50 81 49 82
REMARK H PARENT 15 7 1 23 1 24 1 25 22 31 66 50 44 61
REMARK Flexibility Score: inf
ROOT
ATOM      1  C   UNL A   1      32.293  29.599  26.746  1.00  0.00     0.002 C 
ENDROOT
BRANCH   1   2
ATOM      2  C   UNL A   1      31.502  28.532  27.504  1.00  0.00     0.021 C 
BRANCH   2   3
ATOM      3  C   UNL A   1      31.594  27.127  26.900  1.00  0.00     0.116 C 
BRANCH   3   4
ATOM      4  N   UNL A   1      32.450  27.129  25.726  1.00  0.00    -0.356 N 
ATOM      5  C   UNL A   1      33.324  26.185  25.274  1.00  0.00     0.220 C 
ATOM      6  O   UNL A   1      34.051  26.468  24.319  1.00  0.00    -0.275 OA
ATOM      7  H   UNL A   1      32.390  27.939  25.171  1.00  0.00     0.163 HD
BRANCH   5   8
ATOM      8  C   UNL A   1      33.394  24.816  25.925  1.00  0.00     0.103 C 
BRANCH   8   9
ATOM      9  C   UNL A   1      33.842  23.691  24.973  1.00  0.00     0.002 C 
ATOM     10  C   UNL A   1      33.310  19.818  25.112  1.00  0.00     0.229 C 
ATOM     11  O   UNL A   1      33.085  19.978  26.313  1.00  0.00    -0.274 OA
ATOM     12  N   UNL A   1      33.845  20.836  24.330  1.00  0.00    -0.342 N 
ATOM     13  C   UNL A   1      35.063  21.461  24.809  1.00  0.00     0.120 C 
ATOM     14  C   UNL A   1      32.962  21.726  23.592  1.00  0.00     0.120 C 
ATOM     15  C   UNL A   1      34.767  22.684  25.667  1.00  0.00     0.026 C 
ATOM     16  C   UNL A   1      32.604  22.972  24.406  1.00  0.00     0.026 C 
BRANCH  10  17
ATOM     17  C   UNL A   1      33.260  18.421  24.475  1.00  0.00     0.107 C 
ATOM     18  C   UNL A   1      34.590  16.372  24.830  1.00  0.00     0.205 C 
ATOM     19  C   UNL A   1      33.325  16.357  25.614  1.00  0.00     0.033 C 
ATOM     20  C   UNL A   1      34.600  17.753  24.155  1.00  0.00     0.087 C 
ATOM     21  C   UNL A   1      32.589  17.453  25.407  1.00  0.00    -0.012 C 
BRANCH  18  22
ATOM     22  N   UNL A   1      35.750  16.185  25.683  1.00  0.00    -0.352 N 
ATOM     23  H   UNL A   1      36.399  16.959  25.549  1.00  0.00     0.345 HD
ATOM     24  H   UNL A   1      36.211  15.308  25.441  1.00  0.00     0.345 HD
ATOM     25  H   UNL A   1      35.453  16.154  26.659  1.00  0.00     0.345 HD
ENDBRANCH  18  22
ENDBRANCH  10  17
ENDBRANCH   8   9
ENDBRANCH   5   8
ENDBRANCH   3   4
ENDBRANCH   2   3
ENDBRANCH   1   2
BRANCH   1  26
ATOM     26  C   UNL A   1      31.446  30.708  26.117  1.00  0.00     0.002 C 
BRANCH  26  27
ATOM     27  C   UNL A   1      31.353  32.011  26.919  1.00  0.00     0.021 C 
BRANCH  27  28
ATOM     28  C   UNL A   1      32.620  32.865  26.941  1.00  0.00     0.116 C 
BRANCH  28  29
ATOM     29  N   UNL A   1      32.450  34.084  27.713  1.00  0.00    -0.352 N 
ATOM     30  C   UNL A   1      33.165  34.561  28.781  1.00  0.00     0.251 C 
ATOM     31  H   UNL A   1      31.703  34.658  27.423  1.00  0.00     0.163 HD
ATOM     32  O   UNL A   1      32.744  35.523  29.417  1.00  0.00    -0.269 OA
BRANCH  30  33
ATOM     33  C   UNL A   1      34.437  33.922  29.182  1.00  0.00     0.039 A 
ATOM     34  C   UNL A   1      35.598  34.241  28.471  1.00  0.00     0.014 A 
ATOM     35  C   UNL A   1      34.484  32.973  30.207  1.00  0.00     0.014 A 
ATOM     36  C   UNL A   1      36.811  33.642  28.817  1.00  0.00     0.010 A 
ATOM     37  C   UNL A   1      35.705  32.422  30.592  1.00  0.00     0.010 A 
ATOM     38  C   UNL A   1      36.879  32.743  29.893  1.00  0.00    -0.014 A 
BRANCH  38  39
ATOM     39  C   UNL A   1      38.170  32.124  30.284  1.00  0.00     0.031 A 
ATOM     40  C   UNL A   1      39.069  32.801  31.281  1.00  0.00     0.074 A 
ATOM     41  C   UNL A   1      38.551  30.964  29.714  1.00  0.00     0.049 A 
ATOM     42  N   UNL A   1      40.233  32.414  31.739  1.00  0.00    -0.248 NA
ATOM     43  C   UNL A   1      38.612  34.093  31.819  1.00  0.00     0.031 C 
ATOM     44  C   UNL A   1      37.791  30.227  28.702  1.00  0.00     0.029 A 
ATOM     45  N   UNL A   1      39.678  30.204  29.905  1.00  0.00    -0.354 N 
ATOM     46  C   UNL A   1      40.652  33.418  32.603  1.00  0.00     0.074 A 
ATOM     47  C   UNL A   1      39.640  34.452  32.573  1.00  0.00     0.031 C 
ATOM     48  C   UNL A   1      38.459  29.107  28.384  1.00  0.00     0.029 A 
ATOM     49  C   UNL A   1      39.704  29.061  29.144  1.00  0.00     0.049 A 
ATOM     50  H   UNL A   1      40.398  30.455  30.528  1.00  0.00     0.167 HD
ATOM     51  C   UNL A   1      41.768  33.468  33.368  1.00  0.00     0.031 A 
ATOM     52  C   UNL A   1      40.626  28.083  29.069  1.00  0.00     0.031 A 
ATOM     53  C   UNL A   1      42.770  32.436  33.411  1.00  0.00     0.049 A 
ATOM     54  C   UNL A   1      41.852  28.158  29.934  1.00  0.00     0.074 A 
ATOM     55  C   UNL A   1      43.908  32.371  34.198  1.00  0.00     0.029 A 
ATOM     56  N   UNL A   1      42.754  31.289  32.634  1.00  0.00    -0.354 N 
ATOM     57  N   UNL A   1      42.198  29.080  30.798  1.00  0.00    -0.248 NA
ATOM     58  C   UNL A   1      42.806  27.046  29.823  1.00  0.00     0.031 C 
ATOM     59  C   UNL A   1      44.602  31.202  33.866  1.00  0.00     0.029 A 
ATOM     60  C   UNL A   1      43.871  30.519  32.907  1.00  0.00     0.049 A 
ATOM     61  H   UNL A   1      42.052  31.058  31.984  1.00  0.00     0.167 HD
ATOM     62  C   UNL A   1      43.396  28.649  31.351  1.00  0.00     0.074 A 
ATOM     63  C   UNL A   1      43.708  27.375  30.737  1.00  0.00     0.031 C 
ATOM     64  C   UNL A   1      44.169  29.255  32.287  1.00  0.00     0.031 A 
BRANCH  51  65
ATOM     65  C   UNL A   1      41.966  34.690  34.221  1.00  0.00    -0.014 A 
ATOM     66  C   UNL A   1      42.610  35.832  33.716  1.00  0.00     0.009 A 
ATOM     67  C   UNL A   1      41.473  34.714  35.534  1.00  0.00     0.009 A 
ATOM     68  C   UNL A   1      42.790  36.957  34.523  1.00  0.00     0.001 A 
ATOM     69  C   UNL A   1      41.630  35.851  36.330  1.00  0.00     0.001 A 
ATOM     70  C   UNL A   1      42.297  36.968  35.827  1.00  0.00     0.000 A 
ENDBRANCH  51  65
BRANCH  52  71
ATOM     71  C   UNL A   1      40.410  26.929  28.159  1.00  0.00    -0.014 A 
ATOM     72  C   UNL A   1      40.931  26.946  26.855  1.00  0.00     0.009 A 
ATOM     73  C   UNL A   1      39.683  25.808  28.586  1.00  0.00     0.009 A 
ATOM     74  C   UNL A   1      40.707  25.873  25.991  1.00  0.00     0.001 A 
ATOM     75  C   UNL A   1      39.484  24.726  27.728  1.00  0.00     0.001 A 
ATOM     76  C   UNL A   1      39.987  24.762  26.428  1.00  0.00     0.000 A 
ENDBRANCH  52  71
BRANCH  64  77
ATOM     77  C   UNL A   1      45.410  28.529  32.720  1.00  0.00    -0.014 A 
ATOM     78  C   UNL A   1      46.635  28.728  32.064  1.00  0.00     0.009 A 
ATOM     79  C   UNL A   1      45.357  27.657  33.818  1.00  0.00     0.009 A 
ATOM     80  C   UNL A   1      47.776  28.040  32.481  1.00  0.00     0.001 A 
ATOM     81  C   UNL A   1      46.505  26.991  34.248  1.00  0.00     0.001 A 
ATOM     82  C   UNL A   1      47.711  27.175  33.573  1.00  0.00     0.000 A 
ENDBRANCH  64  77
ENDBRANCH  38  39
ENDBRANCH  30  33
ENDBRANCH  28  29
ENDBRANCH  27  28
ENDBRANCH  26  27
ENDBRANCH   1  26
TORSDOF 16
ENDMDL
MODEL 2
REMARK VINA RESULT:     -10.7      4.112      9.626
REMARK SMILES [NH3+][C@H]1C=C[C@@H](C(=O)N2CCC(CC(=O)NCCCCCCNC(=O)c3ccc(-c4c5nc(c(-c6ccccc6)c6ccc([nH]6)c(-c6ccccc6)c6nc(c(-c7ccccc7)c7ccc4[nH]7)C=C6)C=C5)cc3)CC2)C1
REMARK SMILES IDX 18 1 17 2 16 3 15 4 13 5 14 6 12 8 11 9 6 10 7 11 8 12 9 13
REMARK SMILES IDX 74 14 10 15 73 16 5 17 2 18 3 19 75 20 4 21 1 22 19 26 20 27
REMARK SMILES IDX 21 28 22 29 23 30 24 32 25 33 26 34 72 35 27 36 71 37 28 38
REMARK SMILES IDX 29 39 30 40 65 41 31 42 70 43 64 44 66 45 32 46 69 47 63 48
REMARK SMILES IDX 62 49 33 51 55 52 40 53 54 54 41 55 44 56 53 57 67 58 42 59
REMARK SMILES IDX 43 60 52 62 68 63 45 64 34 65 35 66 39 67 36 68 38 69 37 70
REMARK SMILES IDX 56 71 57 72 61 73 58 74 60 75 59 76 46 77 47 78 51 79 48 80
REMARK SMILES IDX 50 81 49 82
REMARK H PARENT 15 7 1 23 1 24 1 25 22 31 66 50 44 61
REMARK Flexibility Score: inf
ROOT
ATOM      1  C   UNL A   1      39.708  22.675  26.478  1.00  0.00     0.002 C 
ENDROOT
BRANCH   1   2
ATOM      2  C   UNL A   1      38.810  23.860  26.837  1.00  0.00     0.021 C 
BRANCH   2   3
ATOM      3  C   UNL A   1      37.422  23.822  26.190  1.00  0.00     0.116 C 
BRANCH   3   4
ATOM      4  N   UNL A   1      37.519  23.445  24.790  1.00  0.00    -0.356 N 
ATOM      5  C   UNL A   1      36.538  23.193  23.877  1.00  0.00     0.220 C 
ATOM      6  O   UNL A   1      36.864  22.751  22.773  1.00  0.00    -0.275 OA
ATOM      7  H   UNL A   1      38.438  23.357  24.448  1.00  0.00     0.163 HD
BRANCH   5   8
ATOM      8  C   UNL A   1      35.081  23.458  24.209  1.00  0.00     0.103 C 
BRANCH   8   9
ATOM      9  C   UNL A   1      34.629  24.904  23.933  1.00  0.00     0.002 C 
ATOM     10  C   UNL A   1      31.111  26.602  24.154  1.00  0.00     0.229 C 
ATOM     11  O   UNL A   1      30.651  25.461  24.090  1.00  0.00    -0.274 OA
ATOM     12  N   UNL A   1      32.453  26.861  23.896  1.00  0.00    -0.342 N 
ATOM     13  C   UNL A   1      32.988  26.365  22.643  1.00  0.00     0.120 C 
ATOM     14  C   UNL A   1      33.411  26.890  24.990  1.00  0.00     0.120 C 
ATOM     15  C   UNL A   1      33.597  24.978  22.802  1.00  0.00     0.026 C 
ATOM     16  C   UNL A   1      34.049  25.518  25.221  1.00  0.00     0.026 C 
BRANCH  10  17
ATOM     17  C   UNL A   1      30.188  27.824  24.266  1.00  0.00     0.107 C 
ATOM     18  C   UNL A   1      29.855  29.804  22.829  1.00  0.00     0.205 C 
ATOM     19  C   UNL A   1      28.856  28.736  22.546  1.00  0.00     0.033 C 
ATOM     20  C   UNL A   1      30.782  29.183  23.885  1.00  0.00     0.087 C 
ATOM     21  C   UNL A   1      29.017  27.672  23.337  1.00  0.00    -0.012 C 
BRANCH  18  22
ATOM     22  N   UNL A   1      30.584  30.184  21.632  1.00  0.00    -0.352 N 
ATOM     23  H   UNL A   1      30.910  29.346  21.153  1.00  0.00     0.345 HD
ATOM     24  H   UNL A   1      31.384  30.762  21.892  1.00  0.00     0.345 HD
ATOM     25  H   UNL A   1      29.970  30.714  21.013  1.00  0.00     0.345 HD
ENDBRANCH  18  22
ENDBRANCH  10  17
ENDBRANCH   8   9
ENDBRANCH   5   8
ENDBRANCH   3   4
ENDBRANCH   2   3
ENDBRANCH   1   2
BRANCH   1  26
ATOM     26  C   UNL A   1      40.479  22.068  27.652  1.00  0.00     0.002 C 
BRANCH  26  27
ATOM     27  C   UNL A   1      41.112  20.697  27.395  1.00  0.00     0.021 C 
BRANCH  27  28
ATOM     28  C   UNL A   1      41.199  20.273  25.930  1.00  0.00     0.116 C 
BRANCH  28  29
ATOM     29  N   UNL A   1      42.543  19.875  25.549  1.00  0.00    -0.352 N 
ATOM     30  C   UNL A   1      43.689  20.620  25.441  1.00  0.00     0.251 C 
ATOM     31  H   UNL A   1      42.648  18.919  25.337  1.00  0.00     0.163 HD
ATOM     32  O   UNL A   1      44.687  20.133  24.919  1.00  0.00    -0.269 OA
BRANCH  30  33
ATOM     33  C   UNL A   1      43.731  22.013  25.938  1.00  0.00     0.039 A 
ATOM     34  C   UNL A   1      44.136  22.239  27.256  1.00  0.00     0.014 A 
ATOM     35  C   UNL A   1      43.323  23.084  25.139  1.00  0.00     0.014 A 
ATOM     36  C   UNL A   1      44.172  23.541  27.759  1.00  0.00     0.010 A 
ATOM     37  C   UNL A   1      43.417  24.389  25.620  1.00  0.00     0.010 A 
ATOM     38  C   UNL A   1      43.832  24.629  26.939  1.00  0.00    -0.014 A 
BRANCH  38  39
ATOM     39  C   UNL A   1      43.895  26.019  27.458  1.00  0.00     0.031 A 
ATOM     40  C   UNL A   1      45.212  26.737  27.556  1.00  0.00     0.074 A 
ATOM     41  C   UNL A   1      42.766  26.625  27.874  1.00  0.00     0.049 A 
ATOM     42  N   UNL A   1      45.462  27.948  27.987  1.00  0.00    -0.248 NA
ATOM     43  C   UNL A   1      46.409  25.991  27.134  1.00  0.00     0.031 C 
ATOM     44  C   UNL A   1      41.431  26.023  27.872  1.00  0.00     0.029 A 
ATOM     45  N   UNL A   1      42.564  27.883  28.383  1.00  0.00    -0.354 N 
ATOM     46  C   UNL A   1      46.840  28.102  27.903  1.00  0.00     0.074 A 
ATOM     47  C   UNL A   1      47.378  26.848  27.423  1.00  0.00     0.031 C 
ATOM     48  C   UNL A   1      40.545  26.923  28.328  1.00  0.00     0.029 A 
ATOM     49  C   UNL A   1      41.251  28.151  28.683  1.00  0.00     0.049 A 
ATOM     50  H   UNL A   1      43.292  28.532  28.521  1.00  0.00     0.167 HD
ATOM     51  C   UNL A   1      47.591  29.194  28.183  1.00  0.00     0.031 A 
ATOM     52  C   UNL A   1      40.678  29.261  29.182  1.00  0.00     0.031 A 
ATOM     53  C   UNL A   1      47.059  30.448  28.648  1.00  0.00     0.049 A 
ATOM     54  C   UNL A   1      41.531  30.462  29.477  1.00  0.00     0.074 A 
ATOM     55  C   UNL A   1      47.733  31.629  28.904  1.00  0.00     0.029 A 
ATOM     56  N   UNL A   1      45.722  30.681  28.927  1.00  0.00    -0.354 N 
ATOM     57  N   UNL A   1      42.824  30.614  29.325  1.00  0.00    -0.248 NA
ATOM     58  C   UNL A   1      40.840  31.651  29.996  1.00  0.00     0.031 C 
ATOM     59  C   UNL A   1      46.808  32.567  29.378  1.00  0.00     0.029 A 
ATOM     60  C   UNL A   1      45.553  31.981  29.371  1.00  0.00     0.049 A 
ATOM     61  H   UNL A   1      44.999  30.019  28.825  1.00  0.00     0.167 HD
ATOM     62  C   UNL A   1      43.098  31.921  29.706  1.00  0.00     0.074 A 
ATOM     63  C   UNL A   1      41.835  32.523  30.080  1.00  0.00     0.031 C 
ATOM     64  C   UNL A   1      44.290  32.565  29.742  1.00  0.00     0.031 A 
BRANCH  51  65
ATOM     65  C   UNL A   1      49.077  29.075  27.996  1.00  0.00    -0.014 A 
ATOM     66  C   UNL A   1      49.912  28.666  29.049  1.00  0.00     0.009 A 
ATOM     67  C   UNL A   1      49.648  29.345  26.742  1.00  0.00     0.009 A 
ATOM     68  C   UNL A   1      51.292  28.566  28.860  1.00  0.00     0.001 A 
ATOM     69  C   UNL A   1      51.025  29.218  26.550  1.00  0.00     0.001 A 
ATOM     70  C   UNL A   1      51.847  28.838  27.610  1.00  0.00     0.000 A 
ENDBRANCH  51  65
BRANCH  52  71
ATOM     71  C   UNL A   1      39.211  29.300  29.409  1.00  0.00    -0.014 A 
ATOM     72  C   UNL A   1      38.341  29.671  28.372  1.00  0.00     0.009 A 
ATOM     73  C   UNL A   1      38.672  28.970  30.662  1.00  0.00     0.009 A 
ATOM     74  C   UNL A   1      36.964  29.733  28.592  1.00  0.00     0.001 A 
ATOM     75  C   UNL A   1      37.293  29.008  30.871  1.00  0.00     0.001 A 
ATOM     76  C   UNL A   1      36.440  29.398  29.840  1.00  0.00     0.000 A 
ENDBRANCH  52  71
BRANCH  64  77
ATOM     77  C   UNL A   1      44.277  34.003  30.174  1.00  0.00    -0.014 A 
ATOM     78  C   UNL A   1      44.464  34.359  31.519  1.00  0.00     0.009 A 
ATOM     79  C   UNL A   1      44.102  35.014  29.218  1.00  0.00     0.009 A 
ATOM     80  C   UNL A   1      44.443  35.703  31.900  1.00  0.00     0.001 A 
ATOM     81  C   UNL A   1      44.107  36.356  29.599  1.00  0.00     0.001 A 
ATOM     82  C   UNL A   1      44.267  36.699  30.940  1.00  0.00     0.000 A 
ENDBRANCH  64  77
ENDBRANCH  38  39
ENDBRANCH  30  33
ENDBRANCH  28  29
ENDBRANCH  27  28
ENDBRANCH  26  27
ENDBRANCH   1  26
TORSDOF 16
ENDMDL
MODEL 3
REMARK VINA RESULT:     -10.7      4.992     10.639
REMARK SMILES [NH3+][C@H]1C=C[C@@H](C(=O)N2CCC(CC(=O)NCCCCCCNC(=O)c3ccc(-c4c5nc(c(-c6ccccc6)c6ccc([nH]6)c(-c6ccccc6)c6nc(c(-c7ccccc7)c7ccc4[nH]7)C=C6)C=C5)cc3)CC2)C1
REMARK SMILES IDX 18 1 17 2 16 3 15 4 13 5 14 6 12 8 11 9 6 10 7 11 8 12 9 13
REMARK SMILES IDX 74 14 10 15 73 16 5 17 2 18 3 19 75 20 4 21 1 22 19 26 20 27
REMARK SMILES IDX 21 28 22 29 23 30 24 32 25 33 26 34 72 35 27 36 71 37 28 38
REMARK SMILES IDX 29 39 30 40 65 41 31 42 70 43 64 44 66 45 32 46 69 47 63 48
REMARK SMILES IDX 62 49 33 51 55 52 40 53 54 54 41 55 44 56 53 57 67 58 42 59
REMARK SMILES IDX 43 60 52 62 68 63 45 64 34 65 35 66 39 67 36 68 38 69 37 70
REMARK SMILES IDX 56 71 57 72 61 73 58 74 60 75 59 76 46 77 47 78 51 79 48 80
REMARK SMILES IDX 50 81 49 82
REMARK H PARENT 15 7 1 23 1 24 1 25 22 31 66 50 44 61
REMARK Flexibility Score: inf
ROOT
ATOM      1  C   UNL A   1      41.316  21.705  26.490  1.00  0.00     0.002 C 
ENDROOT
BRANCH   1   2
ATOM      2  C   UNL A   1      40.208  22.434  27.252  1.00  0.00     0.021 C 
BRANCH   2   3
ATOM      3  C   UNL A   1      39.089  22.990  26.364  1.00  0.00     0.116 C 
BRANCH   3   4
ATOM      4  N   UNL A   1      38.092  21.967  26.098  1.00  0.00    -0.356 N 
ATOM      5  C   UNL A   1      36.861  22.068  25.520  1.00  0.00     0.220 C 
ATOM      6  O   UNL A   1      36.127  21.078  25.525  1.00  0.00    -0.275 OA
ATOM      7  H   UNL A   1      38.344  21.058  26.380  1.00  0.00     0.163 HD
BRANCH   5   8
ATOM      8  C   UNL A   1      36.409  23.368  24.879  1.00  0.00     0.103 C 
BRANCH   8   9
ATOM      9  C   UNL A   1      34.880  23.541  24.824  1.00  0.00     0.002 C 
ATOM     10  C   UNL A   1      32.632  26.741  24.952  1.00  0.00     0.229 C 
ATOM     11  O   UNL A   1      33.609  27.303  25.448  1.00  0.00    -0.274 OA
ATOM     12  N   UNL A   1      32.586  25.359  24.803  1.00  0.00    -0.342 N 
ATOM     13  C   UNL A   1      32.854  24.562  25.985  1.00  0.00     0.120 C 
ATOM     14  C   UNL A   1      33.014  24.747  23.555  1.00  0.00     0.120 C 
ATOM     15  C   UNL A   1      34.329  24.200  26.095  1.00  0.00     0.026 C 
ATOM     16  C   UNL A   1      34.499  24.375  23.587  1.00  0.00     0.026 C 
BRANCH  10  17
ATOM     17  C   UNL A   1      31.317  27.499  24.712  1.00  0.00     0.107 C 
ATOM     18  C   UNL A   1      30.613  29.122  22.990  1.00  0.00     0.205 C 
ATOM     19  C   UNL A   1      30.191  27.734  22.654  1.00  0.00     0.033 C 
ATOM     20  C   UNL A   1      31.427  28.965  24.284  1.00  0.00     0.087 C 
ATOM     21  C   UNL A   1      30.548  26.855  23.594  1.00  0.00    -0.012 C 
BRANCH  18  22
ATOM     22  N   UNL A   1      31.406  29.712  21.927  1.00  0.00    -0.352 N 
ATOM     23  H   UNL A   1      30.887  30.477  21.500  1.00  0.00     0.345 HD
ATOM     24  H   UNL A   1      31.608  29.002  21.222  1.00  0.00     0.345 HD
ATOM     25  H   UNL A   1      32.282  30.066  22.312  1.00  0.00     0.345 HD
ENDBRANCH  18  22
ENDBRANCH  10  17
ENDBRANCH   8   9
ENDBRANCH   5   8
ENDBRANCH   3   4
ENDBRANCH   2   3
ENDBRANCH   1   2
BRANCH   1  26
ATOM     26  C   UNL A   1      41.733  20.359  27.086  1.00  0.00     0.002 C 
BRANCH  26  27
ATOM     27  C   UNL A   1      42.043  19.251  26.075  1.00  0.00     0.021 C 
BRANCH  27  28
ATOM     28  C   UNL A   1      43.470  18.705  26.108  1.00  0.00     0.116 C 
BRANCH  28  29
ATOM     29  N   UNL A   1      44.072  18.657  24.787  1.00  0.00    -0.352 N 
ATOM     30  C   UNL A   1      44.575  19.666  24.007  1.00  0.00     0.251 C 
ATOM     31  H   UNL A   1      44.129  17.757  24.390  1.00  0.00     0.163 HD
ATOM     32  O   UNL A   1      44.869  19.444  22.836  1.00  0.00    -0.269 OA
BRANCH  30  33
ATOM     33  C   UNL A   1      44.757  21.026  24.559  1.00  0.00     0.039 A 
ATOM     34  C   UNL A   1      44.323  22.118  23.801  1.00  0.00     0.014 A 
ATOM     35  C   UNL A   1      45.401  21.236  25.782  1.00  0.00     0.014 A 
ATOM     36  C   UNL A   1      44.495  23.415  24.288  1.00  0.00     0.010 A 
ATOM     37  C   UNL A   1      45.518  22.527  26.296  1.00  0.00     0.010 A 
ATOM     38  C   UNL A   1      45.076  23.629  25.548  1.00  0.00    -0.014 A 
BRANCH  38  39
ATOM     39  C   UNL A   1      45.236  25.004  26.086  1.00  0.00     0.031 A 
ATOM     40  C   UNL A   1      46.573  25.690  26.038  1.00  0.00     0.074 A 
ATOM     41  C   UNL A   1      44.182  25.624  26.650  1.00  0.00     0.049 A 
ATOM     42  N   UNL A   1      46.904  26.884  26.462  1.00  0.00    -0.248 NA
ATOM     43  C   UNL A   1      47.691  24.928  25.457  1.00  0.00     0.031 C 
ATOM     44  C   UNL A   1      42.842  25.053  26.797  1.00  0.00     0.029 A 
ATOM     45  N   UNL A   1      44.075  26.874  27.207  1.00  0.00    -0.354 N 
ATOM     46  C   UNL A   1      48.265  27.010  26.213  1.00  0.00     0.074 A 
ATOM     47  C   UNL A   1      48.709  25.756  25.644  1.00  0.00     0.031 C 
ATOM     48  C   UNL A   1      42.041  25.961  27.378  1.00  0.00     0.029 A 
ATOM     49  C   UNL A   1      42.815  27.163  27.670  1.00  0.00     0.049 A 
ATOM     50  H   UNL A   1      44.831  27.503  27.269  1.00  0.00     0.167 HD
ATOM     51  C   UNL A   1      49.071  28.077  26.424  1.00  0.00     0.031 A 
ATOM     52  C   UNL A   1      42.335  28.273  28.260  1.00  0.00     0.031 A 
ATOM     53  C   UNL A   1      48.631  29.331  26.977  1.00  0.00     0.049 A 
ATOM     54  C   UNL A   1      43.248  29.447  28.474  1.00  0.00     0.074 A 
ATOM     55  C   UNL A   1      49.362  30.490  27.175  1.00  0.00     0.029 A 
ATOM     56  N   UNL A   1      47.344  29.587  27.422  1.00  0.00    -0.354 N 
ATOM     57  N   UNL A   1      44.515  29.574  28.169  1.00  0.00    -0.248 NA
ATOM     58  C   UNL A   1      42.654  30.638  29.100  1.00  0.00     0.031 C 
ATOM     59  C   UNL A   1      48.525  31.436  27.778  1.00  0.00     0.029 A 
ATOM     60  C   UNL A   1      47.263  30.879  27.912  1.00  0.00     0.049 A 
ATOM     61  H   UNL A   1      46.599  28.944  27.394  1.00  0.00     0.167 HD
ATOM     62  C   UNL A   1      44.867  30.865  28.543  1.00  0.00     0.074 A 
ATOM     63  C   UNL A   1      43.674  31.486  29.081  1.00  0.00     0.031 C 
ATOM     64  C   UNL A   1      46.071  31.481  28.447  1.00  0.00     0.031 A 
BRANCH  51  65
ATOM     65  C   UNL A   1      50.521  27.930  26.054  1.00  0.00    -0.014 A 
ATOM     66  C   UNL A   1      51.465  27.469  26.986  1.00  0.00     0.009 A 
ATOM     67  C   UNL A   1      50.943  28.226  24.748  1.00  0.00     0.009 A 
ATOM     68  C   UNL A   1      52.809  27.343  26.627  1.00  0.00     0.001 A 
ATOM     69  C   UNL A   1      52.283  28.073  24.386  1.00  0.00     0.001 A 
ATOM     70  C   UNL A   1      53.216  27.641  25.328  1.00  0.00     0.000 A 
ENDBRANCH  51  65
BRANCH  52  71
ATOM     71  C   UNL A   1      40.908  28.340  28.665  1.00  0.00    -0.014 A 
ATOM     72  C   UNL A   1      40.504  27.868  29.924  1.00  0.00     0.009 A 
ATOM     73  C   UNL A   1      39.942  28.872  27.798  1.00  0.00     0.009 A 
ATOM     74  C   UNL A   1      39.159  27.906  30.296  1.00  0.00     0.001 A 
ATOM     75  C   UNL A   1      38.602  28.933  28.183  1.00  0.00     0.001 A 
ATOM     76  C   UNL A   1      38.210  28.442  29.427  1.00  0.00     0.000 A 
ENDBRANCH  52  71
BRANCH  64  77
ATOM     77  C   UNL A   1      46.146  32.908  28.909  1.00  0.00    -0.014 A 
ATOM     78  C   UNL A   1      45.875  33.971  28.034  1.00  0.00     0.009 A 
ATOM     79  C   UNL A   1      46.465  33.189  30.246  1.00  0.00     0.009 A 
ATOM     80  C   UNL A   1      45.955  35.291  28.483  1.00  0.00     0.001 A 
ATOM     81  C   UNL A   1      46.519  34.508  30.698  1.00  0.00     0.001 A 
ATOM     82  C   UNL A   1      46.274  35.558  29.814  1.00  0.00     0.000 A 
ENDBRANCH  64  77
ENDBRANCH  38  39
ENDBRANCH  30  33
ENDBRANCH  28  29
ENDBRANCH  27  28
ENDBRANCH  26  27
ENDBRANCH   1  26
TORSDOF 16
ENDMDL
