MODEL 1
REMARK VINA RESULT:     -10.6      0.000      0.000
REMARK SMILES CC1(C)[C@@H](C(=O)NCCCCCCNC(=O)c2ccc(-c3c4nc(c(-c5ccccc5)c5ccc([nH]5)c(-c5ccccc5)c5nc(c(-c6ccccc6)c6ccc3[nH]6)C=C5)C=C4)cc2)[C@@H]1C(=O)N1CC[NH+](CCO)CC1
REMARK SMILES IDX 9 1 8 2 7 3 5 4 6 5 4 7 1 8 2 9 3 10 65 11 66 12 67 13 68 14
REMARK SMILES IDX 69 15 76 16 70 17 75 18 71 19 72 21 73 22 74 23 10 25 11 26
REMARK SMILES IDX 12 27 13 28 14 29 15 30 16 32 17 33 18 34 64 35 19 36 63 37
REMARK SMILES IDX 20 38 21 39 22 40 57 41 23 42 62 43 56 44 58 45 24 46 61 47
REMARK SMILES IDX 55 48 54 49 25 51 47 52 32 53 46 54 33 55 36 56 45 57 59 58
REMARK SMILES IDX 34 59 35 60 44 62 60 63 37 64 26 65 27 66 31 67 28 68 30 69
REMARK SMILES IDX 29 70 48 71 49 72 53 73 50 74 52 75 51 76 38 77 39 78 43 79
REMARK SMILES IDX 40 80 42 81 41 82
REMARK H PARENT 7 6 71 20 74 24 14 31 58 50 36 61
REMARK Flexibility Score: inf
ROOT
ATOM      1  C   UNL A   1      33.564  29.340  27.209  1.00  0.00     0.021 C 
ENDROOT
BRANCH   1   2
ATOM      2  C   UNL A   1      33.986  28.052  26.509  1.00  0.00     0.116 C 
BRANCH   2   3
ATOM      3  N   UNL A   1      34.034  28.209  25.078  1.00  0.00    -0.356 N 
ATOM      4  C   UNL A   1      33.355  27.541  24.100  1.00  0.00     0.224 C 
ATOM      5  O   UNL A   1      33.608  27.791  22.924  1.00  0.00    -0.275 OA
ATOM      6  H   UNL A   1      34.653  28.903  24.756  1.00  0.00     0.163 HD
BRANCH   4   7
ATOM      7  C   UNL A   1      32.354  26.491  24.418  1.00  0.00     0.098 C 
ATOM      8  C   UNL A   1      30.479  28.266  23.875  1.00  0.00     0.013 C 
ATOM      9  C   UNL A   1      30.890  26.834  24.129  1.00  0.00    -0.011 C 
ATOM     10  C   UNL A   1      30.101  25.841  23.306  1.00  0.00     0.013 C 
ATOM     11  C   UNL A   1      31.336  26.482  25.548  1.00  0.00     0.098 C 
BRANCH  11  12
ATOM     12  C   UNL A   1      30.801  25.208  26.122  1.00  0.00     0.227 C 
ATOM     13  O   UNL A   1      29.662  25.190  26.570  1.00  0.00    -0.275 OA
ATOM     14  N   UNL A   1      31.573  24.078  25.955  1.00  0.00    -0.331 N 
ATOM     15  C   UNL A   1      30.925  22.812  25.662  1.00  0.00     0.181 C 
ATOM     16  C   UNL A   1      32.920  23.944  26.479  1.00  0.00     0.181 C 
ATOM     17  C   UNL A   1      31.807  21.953  24.730  1.00  0.00     0.284 C 
ATOM     18  C   UNL A   1      33.815  23.112  25.546  1.00  0.00     0.284 C 
ATOM     19  N   UNL A   1      33.239  21.848  25.067  1.00  0.00    -0.330 N 
ATOM     20  H   UNL A   1      33.698  21.680  24.172  1.00  0.00     0.348 HD
BRANCH  19  21
ATOM     21  C   UNL A   1      33.632  20.648  25.810  1.00  0.00     0.290 C 
BRANCH  21  22
ATOM     22  C   UNL A   1      32.965  19.306  25.477  1.00  0.00     0.217 C 
BRANCH  22  23
ATOM     23  O   UNL A   1      32.832  18.470  26.618  1.00  0.00    -0.391 OA
ATOM     24  H   UNL A   1      33.158  17.581  26.408  1.00  0.00     0.210 HD
ENDBRANCH  22  23
ENDBRANCH  21  22
ENDBRANCH  19  21
ENDBRANCH  11  12
ENDBRANCH   4   7
ENDBRANCH   2   3
ENDBRANCH   1   2
BRANCH   1  25
ATOM     25  C   UNL A   1      32.059  29.624  27.136  1.00  0.00     0.002 C 
BRANCH  25  26
ATOM     26  C   UNL A   1      31.654  30.758  26.187  1.00  0.00     0.002 C 
BRANCH  26  27
ATOM     27  C   UNL A   1      31.431  32.123  26.846  1.00  0.00     0.021 C 
BRANCH  27  28
ATOM     28  C   UNL A   1      32.680  32.991  26.973  1.00  0.00     0.116 C 
BRANCH  28  29
ATOM     29  N   UNL A   1      32.460  34.145  27.827  1.00  0.00    -0.352 N 
ATOM     30  C   UNL A   1      33.157  34.569  28.929  1.00  0.00     0.251 C 
ATOM     31  H   UNL A   1      31.694  34.709  27.575  1.00  0.00     0.163 HD
ATOM     32  O   UNL A   1      32.699  35.466  29.632  1.00  0.00    -0.269 OA
BRANCH  30  33
ATOM     33  C   UNL A   1      34.451  33.950  29.286  1.00  0.00     0.039 A 
ATOM     34  C   UNL A   1      34.510  33.120  30.410  1.00  0.00     0.014 A 
ATOM     35  C   UNL A   1      35.613  34.224  28.558  1.00  0.00     0.014 A 
ATOM     36  C   UNL A   1      35.720  32.531  30.778  1.00  0.00     0.010 A 
ATOM     37  C   UNL A   1      36.810  33.592  28.894  1.00  0.00     0.010 A 
ATOM     38  C   UNL A   1      36.875  32.747  30.011  1.00  0.00    -0.014 A 
BRANCH  38  39
ATOM     39  C   UNL A   1      38.165  32.106  30.375  1.00  0.00     0.031 A 
ATOM     40  C   UNL A   1      39.113  32.792  31.319  1.00  0.00     0.074 A 
ATOM     41  C   UNL A   1      38.505  30.930  29.814  1.00  0.00     0.049 A 
ATOM     42  N   UNL A   1      40.302  32.412  31.713  1.00  0.00    -0.248 NA
ATOM     43  C   UNL A   1      38.677  34.081  31.876  1.00  0.00     0.031 C 
ATOM     44  C   UNL A   1      37.692  30.179  28.856  1.00  0.00     0.029 A 
ATOM     45  N   UNL A   1      39.633  30.164  29.966  1.00  0.00    -0.354 N 
ATOM     46  C   UNL A   1      40.765  33.424  32.546  1.00  0.00     0.074 A 
ATOM     47  C   UNL A   1      39.744  34.450  32.571  1.00  0.00     0.031 C 
ATOM     48  C   UNL A   1      38.339  29.051  28.521  1.00  0.00     0.029 A 
ATOM     49  C   UNL A   1      39.622  29.014  29.216  1.00  0.00     0.049 A 
ATOM     50  H   UNL A   1      40.381  30.417  30.555  1.00  0.00     0.167 HD
ATOM     51  C   UNL A   1      41.926  33.488  33.238  1.00  0.00     0.031 A 
ATOM     52  C   UNL A   1      40.541  28.038  29.102  1.00  0.00     0.031 A 
ATOM     53  C   UNL A   1      42.934  32.463  33.233  1.00  0.00     0.049 A 
ATOM     54  C   UNL A   1      41.815  28.126  29.893  1.00  0.00     0.074 A 
ATOM     55  C   UNL A   1      44.120  32.414  33.946  1.00  0.00     0.029 A 
ATOM     56  N   UNL A   1      42.872  31.302  32.479  1.00  0.00    -0.354 N 
ATOM     57  N   UNL A   1      42.212  29.064  30.718  1.00  0.00    -0.248 NA
ATOM     58  C   UNL A   1      42.762  27.011  29.745  1.00  0.00     0.031 C 
ATOM     59  C   UNL A   1      44.791  31.238  33.598  1.00  0.00     0.029 A 
ATOM     60  C   UNL A   1      44.004  30.536  32.699  1.00  0.00     0.049 A 
ATOM     61  H   UNL A   1      42.132  31.058  31.877  1.00  0.00     0.167 HD
ATOM     62  C   UNL A   1      43.440  28.641  31.207  1.00  0.00     0.074 A 
ATOM     63  C   UNL A   1      43.718  27.357  30.595  1.00  0.00     0.031 C 
ATOM     64  C   UNL A   1      44.265  29.261  32.085  1.00  0.00     0.031 A 
BRANCH  51  65
ATOM     65  C   UNL A   1      42.171  34.723  34.060  1.00  0.00    -0.014 A 
ATOM     66  C   UNL A   1      42.774  35.859  33.499  1.00  0.00     0.009 A 
ATOM     67  C   UNL A   1      41.765  34.760  35.403  1.00  0.00     0.009 A 
ATOM     68  C   UNL A   1      42.995  36.998  34.276  1.00  0.00     0.001 A 
ATOM     69  C   UNL A   1      41.965  35.909  36.170  1.00  0.00     0.001 A 
ATOM     70  C   UNL A   1      42.588  37.023  35.609  1.00  0.00     0.000 A 
ENDBRANCH  51  65
BRANCH  52  71
ATOM     71  C   UNL A   1      40.281  26.875  28.216  1.00  0.00    -0.014 A 
ATOM     72  C   UNL A   1      40.794  26.850  26.911  1.00  0.00     0.009 A 
ATOM     73  C   UNL A   1      39.515  25.790  28.669  1.00  0.00     0.009 A 
ATOM     74  C   UNL A   1      40.527  25.769  26.068  1.00  0.00     0.001 A 
ATOM     75  C   UNL A   1      39.269  24.700  27.831  1.00  0.00     0.001 A 
ATOM     76  C   UNL A   1      39.768  24.694  26.529  1.00  0.00     0.000 A 
ENDBRANCH  52  71
BRANCH  64  77
ATOM     77  C   UNL A   1      45.526  28.542  32.462  1.00  0.00    -0.014 A 
ATOM     78  C   UNL A   1      46.733  28.793  31.792  1.00  0.00     0.009 A 
ATOM     79  C   UNL A   1      45.512  27.623  33.522  1.00  0.00     0.009 A 
ATOM     80  C   UNL A   1      47.896  28.114  32.159  1.00  0.00     0.001 A 
ATOM     81  C   UNL A   1      46.681  26.963  33.902  1.00  0.00     0.001 A 
ATOM     82  C   UNL A   1      47.870  27.202  33.214  1.00  0.00     0.000 A 
ENDBRANCH  64  77
ENDBRANCH  38  39
ENDBRANCH  30  33
ENDBRANCH  28  29
ENDBRANCH  27  28
ENDBRANCH  26  27
ENDBRANCH  25  26
ENDBRANCH   1  25
TORSDOF 17
ENDMDL
MODEL 2
REMARK VINA RESULT:     -10.4      0.627      5.925
REMARK SMILES CC1(C)[C@@H](C(=O)NCCCCCCNC(=O)c2ccc(-c3c4nc(c(-c5ccccc5)c5ccc([nH]5)c(-c5ccccc5)c5nc(c(-c6ccccc6)c6ccc3[nH]6)C=C5)C=C4)cc2)[C@@H]1C(=O)N1CC[NH+](CCO)CC1
REMARK SMILES IDX 9 1 8 2 7 3 5 4 6 5 4 7 1 8 2 9 3 10 65 11 66 12 67 13 68 14
REMARK SMILES IDX 69 15 76 16 70 17 75 18 71 19 72 21 73 22 74 23 10 25 11 26
REMARK SMILES IDX 12 27 13 28 14 29 15 30 16 32 17 33 18 34 64 35 19 36 63 37
REMARK SMILES IDX 20 38 21 39 22 40 57 41 23 42 62 43 56 44 58 45 24 46 61 47
REMARK SMILES IDX 55 48 54 49 25 51 47 52 32 53 46 54 33 55 36 56 45 57 59 58
REMARK SMILES IDX 34 59 35 60 44 62 60 63 37 64 26 65 27 66 31 67 28 68 30 69
REMARK SMILES IDX 29 70 48 71 49 72 53 73 50 74 52 75 51 76 38 77 39 78 43 79
REMARK SMILES IDX 40 80 42 81 41 82
REMARK H PARENT 7 6 71 20 74 24 14 31 58 50 36 61
REMARK Flexibility Score: inf
ROOT
ATOM      1  C   UNL A   1      33.732  29.617  27.010  1.00  0.00     0.021 C 
ENDROOT
BRANCH   1   2
ATOM      2  C   UNL A   1      34.144  28.330  26.301  1.00  0.00     0.116 C 
BRANCH   2   3
ATOM      3  N   UNL A   1      34.120  28.475  24.868  1.00  0.00    -0.356 N 
ATOM      4  C   UNL A   1      33.405  27.789  23.930  1.00  0.00     0.224 C 
ATOM      5  O   UNL A   1      33.596  28.032  22.741  1.00  0.00    -0.275 OA
ATOM      6  H   UNL A   1      34.711  29.176  24.510  1.00  0.00     0.163 HD
BRANCH   4   7
ATOM      7  C   UNL A   1      32.437  26.727  24.305  1.00  0.00     0.098 C 
ATOM      8  C   UNL A   1      30.508  28.436  23.745  1.00  0.00     0.013 C 
ATOM      9  C   UNL A   1      30.959  27.024  24.037  1.00  0.00    -0.011 C 
ATOM     10  C   UNL A   1      30.178  25.985  23.265  1.00  0.00     0.013 C 
ATOM     11  C   UNL A   1      31.444  26.731  25.457  1.00  0.00     0.098 C 
BRANCH  11  12
ATOM     12  C   UNL A   1      30.953  25.465  26.084  1.00  0.00     0.227 C 
ATOM     13  O   UNL A   1      29.849  25.454  26.616  1.00  0.00    -0.275 OA
ATOM     14  N   UNL A   1      31.711  24.332  25.876  1.00  0.00    -0.331 N 
ATOM     15  C   UNL A   1      31.043  23.063  25.647  1.00  0.00     0.181 C 
ATOM     16  C   UNL A   1      33.093  24.204  26.301  1.00  0.00     0.181 C 
ATOM     17  C   UNL A   1      31.854  22.192  24.664  1.00  0.00     0.284 C 
ATOM     18  C   UNL A   1      33.917  23.360  25.315  1.00  0.00     0.284 C 
ATOM     19  N   UNL A   1      33.307  22.090  24.896  1.00  0.00    -0.330 N 
ATOM     20  H   UNL A   1      33.700  21.911  23.972  1.00  0.00     0.348 HD
BRANCH  19  21
ATOM     21  C   UNL A   1      33.754  20.900  25.624  1.00  0.00     0.290 C 
BRANCH  21  22
ATOM     22  C   UNL A   1      32.956  19.595  25.493  1.00  0.00     0.217 C 
BRANCH  22  23
ATOM     23  O   UNL A   1      32.966  18.832  26.691  1.00  0.00    -0.391 OA
ATOM     24  H   UNL A   1      33.854  18.467  26.834  1.00  0.00     0.210 HD
ENDBRANCH  22  23
ENDBRANCH  21  22
ENDBRANCH  19  21
ENDBRANCH  11  12
ENDBRANCH   4   7
ENDBRANCH   2   3
ENDBRANCH   1   2
BRANCH   1  25
ATOM     25  C   UNL A   1      32.224  29.735  27.258  1.00  0.00     0.002 C 
BRANCH  25  26
ATOM     26  C   UNL A   1      31.470  30.645  26.281  1.00  0.00     0.002 C 
BRANCH  26  27
ATOM     27  C   UNL A   1      31.368  32.118  26.694  1.00  0.00     0.021 C 
BRANCH  27  28
ATOM     28  C   UNL A   1      32.693  32.776  27.070  1.00  0.00     0.116 C 
BRANCH  28  29
ATOM     29  N   UNL A   1      32.500  34.055  27.730  1.00  0.00    -0.352 N 
ATOM     30  C   UNL A   1      33.187  34.618  28.774  1.00  0.00     0.251 C 
ATOM     31  H   UNL A   1      31.762  34.601  27.373  1.00  0.00     0.163 HD
ATOM     32  O   UNL A   1      32.750  35.628  29.318  1.00  0.00    -0.269 OA
BRANCH  30  33
ATOM     33  C   UNL A   1      34.447  34.015  29.259  1.00  0.00     0.039 A 
ATOM     34  C   UNL A   1      35.651  34.414  28.670  1.00  0.00     0.014 A 
ATOM     35  C   UNL A   1      34.446  33.023  30.245  1.00  0.00     0.014 A 
ATOM     36  C   UNL A   1      36.856  33.854  29.098  1.00  0.00     0.010 A 
ATOM     37  C   UNL A   1      35.654  32.504  30.711  1.00  0.00     0.010 A 
ATOM     38  C   UNL A   1      36.868  32.909  30.136  1.00  0.00    -0.014 A 
BRANCH  38  39
ATOM     39  C   UNL A   1      38.143  32.323  30.621  1.00  0.00     0.031 A 
ATOM     40  C   UNL A   1      38.664  31.044  30.027  1.00  0.00     0.074 A 
ATOM     41  C   UNL A   1      38.805  32.915  31.632  1.00  0.00     0.049 A 
ATOM     42  N   UNL A   1      39.729  30.357  30.354  1.00  0.00    -0.248 NA
ATOM     43  C   UNL A   1      37.875  30.448  28.938  1.00  0.00     0.031 C 
ATOM     44  C   UNL A   1      38.388  34.139  32.320  1.00  0.00     0.029 A 
ATOM     45  N   UNL A   1      39.970  32.559  32.263  1.00  0.00    -0.354 N 
ATOM     46  C   UNL A   1      39.727  29.240  29.528  1.00  0.00     0.074 A 
ATOM     47  C   UNL A   1      38.536  29.322  28.710  1.00  0.00     0.031 C 
ATOM     48  C   UNL A   1      39.294  34.442  33.263  1.00  0.00     0.029 A 
ATOM     49  C   UNL A   1      40.337  33.421  33.268  1.00  0.00     0.049 A 
ATOM     50  H   UNL A   1      40.493  31.760  32.021  1.00  0.00     0.167 HD
ATOM     51  C   UNL A   1      40.640  28.243  29.446  1.00  0.00     0.031 A 
ATOM     52  C   UNL A   1      41.396  33.393  34.098  1.00  0.00     0.031 A 
ATOM     53  C   UNL A   1      41.835  28.167  30.242  1.00  0.00     0.049 A 
ATOM     54  C   UNL A   1      42.402  32.284  33.977  1.00  0.00     0.074 A 
ATOM     55  C   UNL A   1      42.847  27.224  30.192  1.00  0.00     0.029 A 
ATOM     56  N   UNL A   1      42.181  29.074  31.230  1.00  0.00    -0.354 N 
ATOM     57  N   UNL A   1      42.412  31.266  33.152  1.00  0.00    -0.248 NA
ATOM     58  C   UNL A   1      43.550  32.331  34.894  1.00  0.00     0.031 C 
ATOM     59  C   UNL A   1      43.791  27.542  31.174  1.00  0.00     0.029 A 
ATOM     60  C   UNL A   1      43.386  28.706  31.807  1.00  0.00     0.049 A 
ATOM     61  H   UNL A   1      41.651  29.864  31.485  1.00  0.00     0.167 HD
ATOM     62  C   UNL A   1      43.577  30.566  33.433  1.00  0.00     0.074 A 
ATOM     63  C   UNL A   1      44.254  31.281  34.495  1.00  0.00     0.031 C 
ATOM     64  C   UNL A   1      44.046  29.430  32.861  1.00  0.00     0.031 A 
BRANCH  51  65
ATOM     65  C   UNL A   1      40.372  27.143  28.458  1.00  0.00    -0.014 A 
ATOM     66  C   UNL A   1      39.605  26.022  28.811  1.00  0.00     0.009 A 
ATOM     67  C   UNL A   1      40.866  27.245  27.148  1.00  0.00     0.009 A 
ATOM     68  C   UNL A   1      39.366  25.008  27.881  1.00  0.00     0.001 A 
ATOM     69  C   UNL A   1      40.604  26.241  26.214  1.00  0.00     0.001 A 
ATOM     70  C   UNL A   1      39.862  25.120  26.583  1.00  0.00     0.000 A 
ENDBRANCH  51  65
BRANCH  52  71
ATOM     71  C   UNL A   1      41.573  34.466  35.109  1.00  0.00    -0.014 A 
ATOM     72  C   UNL A   1      41.048  34.316  36.401  1.00  0.00     0.009 A 
ATOM     73  C   UNL A   1      42.262  35.645  34.785  1.00  0.00     0.009 A 
ATOM     74  C   UNL A   1      41.190  35.336  37.344  1.00  0.00     0.001 A 
ATOM     75  C   UNL A   1      42.422  36.654  35.738  1.00  0.00     0.001 A 
ATOM     76  C   UNL A   1      41.879  36.502  37.013  1.00  0.00     0.000 A 
ENDBRANCH  52  71
BRANCH  64  77
ATOM     77  C   UNL A   1      45.368  28.915  33.348  1.00  0.00    -0.014 A 
ATOM     78  C   UNL A   1      46.572  29.344  32.772  1.00  0.00     0.009 A 
ATOM     79  C   UNL A   1      45.408  28.010  34.420  1.00  0.00     0.009 A 
ATOM     80  C   UNL A   1      47.792  28.853  33.240  1.00  0.00     0.001 A 
ATOM     81  C   UNL A   1      46.630  27.538  34.902  1.00  0.00     0.001 A 
ATOM     82  C   UNL A   1      47.820  27.954  34.306  1.00  0.00     0.000 A 
ENDBRANCH  64  77
ENDBRANCH  38  39
ENDBRANCH  30  33
ENDBRANCH  28  29
ENDBRANCH  27  28
ENDBRANCH  26  27
ENDBRANCH  25  26
ENDBRANCH   1  25
TORSDOF 17
ENDMDL
MODEL 3
REMARK VINA RESULT:     -10.3      3.058      8.875
REMARK SMILES CC1(C)[C@@H](C(=O)NCCCCCCNC(=O)c2ccc(-c3c4nc(c(-c5ccccc5)c5ccc([nH]5)c(-c5ccccc5)c5nc(c(-c6ccccc6)c6ccc3[nH]6)C=C5)C=C4)cc2)[C@@H]1C(=O)N1CC[NH+](CCO)CC1
REMARK SMILES IDX 9 1 8 2 7 3 5 4 6 5 4 7 1 8 2 9 3 10 65 11 66 12 67 13 68 14
REMARK SMILES IDX 69 15 76 16 70 17 75 18 71 19 72 21 73 22 74 23 10 25 11 26
REMARK SMILES IDX 12 27 13 28 14 29 15 30 16 32 17 33 18 34 64 35 19 36 63 37
REMARK SMILES IDX 20 38 21 39 22 40 57 41 23 42 62 43 56 44 58 45 24 46 61 47
REMARK SMILES IDX 55 48 54 49 25 51 47 52 32 53 46 54 33 55 36 56 45 57 59 58
REMARK SMILES IDX 34 59 35 60 44 62 60 63 37 64 26 65 27 66 31 67 28 68 30 69
REMARK SMILES IDX 29 70 48 71 49 72 53 73 50 74 52 75 51 76 38 77 39 78 43 79
REMARK SMILES IDX 40 80 42 81 41 82
REMARK H PARENT 7 6 71 20 74 24 14 31 58 50 36 61
REMARK Flexibility Score: inf
ROOT
ATOM      1  C   UNL A   1      33.532  20.148  25.359  1.00  0.00     0.021 C 
ENDROOT
BRANCH   1   2
ATOM      2  C   UNL A   1      32.732  20.958  24.342  1.00  0.00     0.116 C 
BRANCH   2   3
ATOM      3  N   UNL A   1      33.589  21.647  23.411  1.00  0.00    -0.356 N 
ATOM      4  C   UNL A   1      33.829  22.983  23.266  1.00  0.00     0.224 C 
ATOM      5  O   UNL A   1      34.550  23.360  22.346  1.00  0.00    -0.275 OA
ATOM      6  H   UNL A   1      34.074  21.066  22.783  1.00  0.00     0.163 HD
BRANCH   4   7
ATOM      7  C   UNL A   1      33.208  23.993  24.160  1.00  0.00     0.098 C 
ATOM      8  C   UNL A   1      35.193  23.566  25.844  1.00  0.00     0.013 C 
ATOM      9  C   UNL A   1      34.016  24.401  25.394  1.00  0.00    -0.011 C 
ATOM     10  C   UNL A   1      34.224  25.881  25.623  1.00  0.00     0.013 C 
ATOM     11  C   UNL A   1      32.627  23.781  25.549  1.00  0.00     0.098 C 
BRANCH  11  12
ATOM     12  C   UNL A   1      31.556  24.666  26.104  1.00  0.00     0.227 C 
ATOM     13  O   UNL A   1      31.198  24.510  27.265  1.00  0.00    -0.275 OA
ATOM     14  N   UNL A   1      31.154  25.724  25.317  1.00  0.00    -0.331 N 
ATOM     15  C   UNL A   1      30.861  27.002  25.940  1.00  0.00     0.181 C 
ATOM     16  C   UNL A   1      30.570  25.564  23.997  1.00  0.00     0.181 C 
ATOM     17  C   UNL A   1      31.257  28.165  25.006  1.00  0.00     0.284 C 
ATOM     18  C   UNL A   1      30.979  26.704  23.050  1.00  0.00     0.284 C 
ATOM     19  N   UNL A   1      30.849  28.063  23.592  1.00  0.00    -0.330 N 
ATOM     20  H   UNL A   1      31.547  28.608  23.087  1.00  0.00     0.348 HD
BRANCH  19  21
ATOM     21  C   UNL A   1      29.623  28.777  23.230  1.00  0.00     0.290 C 
BRANCH  21  22
ATOM     22  C   UNL A   1      29.634  29.723  22.021  1.00  0.00     0.217 C 
BRANCH  22  23
ATOM     23  O   UNL A   1      30.951  30.009  21.570  1.00  0.00    -0.391 OA
ATOM     24  H   UNL A   1      31.534  30.137  22.334  1.00  0.00     0.210 HD
ENDBRANCH  22  23
ENDBRANCH  21  22
ENDBRANCH  19  21
ENDBRANCH  11  12
ENDBRANCH   4   7
ENDBRANCH   2   3
ENDBRANCH   1   2
BRANCH   1  25
ATOM     25  C   UNL A   1      34.792  19.495  24.781  1.00  0.00     0.002 C 
BRANCH  25  26
ATOM     26  C   UNL A   1      36.090  20.284  24.986  1.00  0.00     0.002 C 
BRANCH  26  27
ATOM     27  C   UNL A   1      37.380  19.457  24.948  1.00  0.00     0.021 C 
BRANCH  27  28
ATOM     28  C   UNL A   1      38.642  20.210  25.361  1.00  0.00     0.116 C 
BRANCH  28  29
ATOM     29  N   UNL A   1      39.748  19.311  25.639  1.00  0.00    -0.352 N 
ATOM     30  C   UNL A   1      41.012  19.586  26.095  1.00  0.00     0.251 C 
ATOM     31  H   UNL A   1      39.561  18.358  25.477  1.00  0.00     0.163 HD
ATOM     32  O   UNL A   1      41.869  18.707  26.086  1.00  0.00    -0.269 OA
BRANCH  30  33
ATOM     33  C   UNL A   1      41.357  20.937  26.589  1.00  0.00     0.039 A 
ATOM     34  C   UNL A   1      41.124  21.238  27.934  1.00  0.00     0.014 A 
ATOM     35  C   UNL A   1      41.853  21.921  25.727  1.00  0.00     0.014 A 
ATOM     36  C   UNL A   1      41.429  22.508  28.427  1.00  0.00     0.010 A 
ATOM     37  C   UNL A   1      42.208  23.171  26.231  1.00  0.00     0.010 A 
ATOM     38  C   UNL A   1      41.992  23.478  27.583  1.00  0.00    -0.014 A 
BRANCH  38  39
ATOM     39  C   UNL A   1      42.346  24.825  28.097  1.00  0.00     0.031 A 
ATOM     40  C   UNL A   1      43.763  25.139  28.489  1.00  0.00     0.074 A 
ATOM     41  C   UNL A   1      41.381  25.750  28.261  1.00  0.00     0.049 A 
ATOM     42  N   UNL A   1      44.252  26.239  29.003  1.00  0.00    -0.248 NA
ATOM     43  C   UNL A   1      44.756  24.071  28.297  1.00  0.00     0.031 C 
ATOM     44  C   UNL A   1      39.962  25.561  27.954  1.00  0.00     0.029 A 
ATOM     45  N   UNL A   1      41.451  27.036  28.735  1.00  0.00    -0.354 N 
ATOM     46  C   UNL A   1      45.602  25.989  29.216  1.00  0.00     0.074 A 
ATOM     47  C   UNL A   1      45.847  24.622  28.810  1.00  0.00     0.031 C 
ATOM     48  C   UNL A   1      39.299  26.696  28.229  1.00  0.00     0.029 A 
ATOM     49  C   UNL A   1      40.238  27.680  28.758  1.00  0.00     0.049 A 
ATOM     50  H   UNL A   1      42.290  27.456  29.032  1.00  0.00     0.167 HD
ATOM     51  C   UNL A   1      46.555  26.825  29.693  1.00  0.00     0.031 A 
ATOM     52  C   UNL A   1      39.918  28.924  29.159  1.00  0.00     0.031 A 
ATOM     53  C   UNL A   1      46.321  28.190  30.078  1.00  0.00     0.049 A 
ATOM     54  C   UNL A   1      40.997  29.836  29.669  1.00  0.00     0.074 A 
ATOM     55  C   UNL A   1      47.235  29.131  30.521  1.00  0.00     0.029 A 
ATOM     56  N   UNL A   1      45.082  28.811  30.062  1.00  0.00    -0.354 N 
ATOM     57  N   UNL A   1      42.278  29.601  29.812  1.00  0.00    -0.248 NA
ATOM     58  C   UNL A   1      40.584  31.192  30.062  1.00  0.00     0.031 C 
ATOM     59  C   UNL A   1      46.542  30.313  30.805  1.00  0.00     0.029 A 
ATOM     60  C   UNL A   1      45.205  30.119  30.500  1.00  0.00     0.049 A 
ATOM     61  H   UNL A   1      44.240  28.386  29.781  1.00  0.00     0.167 HD
ATOM     62  C   UNL A   1      42.828  30.784  30.285  1.00  0.00     0.074 A 
ATOM     63  C   UNL A   1      41.745  31.739  30.395  1.00  0.00     0.031 C 
ATOM     64  C   UNL A   1      44.118  31.056  30.601  1.00  0.00     0.031 A 
BRANCH  51  65
ATOM     65  C   UNL A   1      47.947  26.275  29.829  1.00  0.00    -0.014 A 
ATOM     66  C   UNL A   1      48.389  25.713  31.037  1.00  0.00     0.009 A 
ATOM     67  C   UNL A   1      48.816  26.292  28.728  1.00  0.00     0.009 A 
ATOM     68  C   UNL A   1      49.686  25.207  31.148  1.00  0.00     0.001 A 
ATOM     69  C   UNL A   1      50.104  25.763  28.835  1.00  0.00     0.001 A 
ATOM     70  C   UNL A   1      50.540  25.230  30.047  1.00  0.00     0.000 A 
ENDBRANCH  51  65
BRANCH  52  71
ATOM     71  C   UNL A   1      38.512  29.392  29.072  1.00  0.00    -0.014 A 
ATOM     72  C   UNL A   1      37.657  29.273  30.178  1.00  0.00     0.009 A 
ATOM     73  C   UNL A   1      38.018  29.954  27.885  1.00  0.00     0.009 A 
ATOM     74  C   UNL A   1      36.326  29.687  30.089  1.00  0.00     0.001 A 
ATOM     75  C   UNL A   1      36.693  30.389  27.808  1.00  0.00     0.001 A 
ATOM     76  C   UNL A   1      35.846  30.247  28.906  1.00  0.00     0.000 A 
ENDBRANCH  52  71
BRANCH  64  77
ATOM     77  C   UNL A   1      44.430  32.450  31.059  1.00  0.00    -0.014 A 
ATOM     78  C   UNL A   1      44.418  32.786  32.422  1.00  0.00     0.009 A 
ATOM     79  C   UNL A   1      44.769  33.432  30.117  1.00  0.00     0.009 A 
ATOM     80  C   UNL A   1      44.712  34.089  32.828  1.00  0.00     0.001 A 
ATOM     81  C   UNL A   1      45.086  34.728  30.527  1.00  0.00     0.001 A 
ATOM     82  C   UNL A   1      45.048  35.057  31.881  1.00  0.00     0.000 A 
ENDBRANCH  64  77
ENDBRANCH  38  39
ENDBRANCH  30  33
ENDBRANCH  28  29
ENDBRANCH  27  28
ENDBRANCH  26  27
ENDBRANCH  25  26
ENDBRANCH   1  25
TORSDOF 17
ENDMDL
