MODEL 1
REMARK VINA RESULT:     -10.7      0.000      0.000
REMARK SMILES C[C@H](C(=O)NCCCCCCNC(=O)c1ccc(-c2c3nc(c(-c4ccccc4)c4ccc([nH]4)c(-c4ccccc4)c4nc(c(-c5ccccc5)c5ccc2[nH]5)C=C4)C=C3)cc1)[C@@H](C)Nc1ccccc1Oc1ccccc1
REMARK SMILES IDX 7 1 6 2 5 3 3 4 4 5 2 7 1 8 63 9 64 10 65 11 66 13 67 14
REMARK SMILES IDX 71 15 68 16 70 17 69 18 72 19 73 20 74 21 78 22 75 23 77 24
REMARK SMILES IDX 76 25 8 26 9 27 10 28 11 29 12 30 13 31 14 33 15 34 16 35
REMARK SMILES IDX 62 36 17 37 61 38 18 39 19 40 20 41 55 42 21 43 60 44 54 45
REMARK SMILES IDX 56 46 22 47 59 48 53 49 52 50 23 52 45 53 30 54 44 55 31 56
REMARK SMILES IDX 34 57 43 58 57 59 32 60 33 61 42 63 58 64 35 65 24 66 25 67
REMARK SMILES IDX 29 68 26 69 28 70 27 71 46 72 47 73 51 74 48 75 50 76 49 77
REMARK SMILES IDX 36 78 37 79 41 80 38 81 40 82 39 83
REMARK H PARENT 5 6 65 12 12 32 56 51 34 62
REMARK Flexibility Score: inf
ROOT
ATOM      1  C   UNL A   1      31.158  28.261  24.426  1.00  0.00     0.021 C 
ENDROOT
BRANCH   1   2
ATOM      2  C   UNL A   1      31.071  27.987  22.916  1.00  0.00     0.116 C 
BRANCH   2   3
ATOM      3  N   UNL A   1      32.351  28.305  22.296  1.00  0.00    -0.356 N 
ATOM      4  C   UNL A   1      33.547  27.662  22.210  1.00  0.00     0.224 C 
ATOM      5  O   UNL A   1      34.489  28.349  21.800  1.00  0.00    -0.275 OA
ATOM      6  H   UNL A   1      32.351  29.176  21.839  1.00  0.00     0.163 HD
BRANCH   4   7
ATOM      7  C   UNL A   1      33.719  26.166  22.512  1.00  0.00     0.097 C 
ATOM      8  C   UNL A   1      33.864  26.034  24.041  1.00  0.00     0.020 C 
BRANCH   7   9
ATOM      9  C   UNL A   1      32.559  25.293  21.930  1.00  0.00     0.088 C 
ATOM     10  C   UNL A   1      32.543  25.440  20.399  1.00  0.00     0.031 C 
BRANCH   9  11
ATOM     11  N   UNL A   1      32.740  23.858  22.189  1.00  0.00    -0.379 N 
ATOM     12  H   UNL A   1      32.801  23.307  21.375  1.00  0.00     0.160 HD
BRANCH  11  13
ATOM     13  C   UNL A   1      32.842  23.136  23.370  1.00  0.00     0.078 A 
ATOM     14  C   UNL A   1      31.617  22.920  24.048  1.00  0.00     0.029 A 
ATOM     15  C   UNL A   1      33.970  22.525  23.950  1.00  0.00     0.150 A 
ATOM     16  C   UNL A   1      31.511  22.161  25.221  1.00  0.00     0.002 A 
ATOM     17  C   UNL A   1      33.865  21.757  25.131  1.00  0.00     0.049 A 
ATOM     18  C   UNL A   1      32.642  21.580  25.768  1.00  0.00     0.004 A 
BRANCH  15  19
ATOM     19  O   UNL A   1      35.208  22.452  23.356  1.00  0.00    -0.455 OA
BRANCH  19  20
ATOM     20  C   UNL A   1      36.337  22.495  24.137  1.00  0.00     0.127 A 
ATOM     21  C   UNL A   1      36.517  23.714  24.796  1.00  0.00     0.047 A 
ATOM     22  C   UNL A   1      37.207  21.434  24.387  1.00  0.00     0.047 A 
ATOM     23  C   UNL A   1      37.495  23.843  25.776  1.00  0.00     0.004 A 
ATOM     24  C   UNL A   1      38.177  21.561  25.387  1.00  0.00     0.004 A 
ATOM     25  C   UNL A   1      38.302  22.754  26.097  1.00  0.00     0.000 A 
ENDBRANCH  19  20
ENDBRANCH  15  19
ENDBRANCH  11  13
ENDBRANCH   9  11
ENDBRANCH   7   9
ENDBRANCH   4   7
ENDBRANCH   2   3
ENDBRANCH   1   2
BRANCH   1  26
ATOM     26  C   UNL A   1      30.696  27.125  25.352  1.00  0.00     0.002 C 
BRANCH  26  27
ATOM     27  C   UNL A   1      31.575  26.843  26.579  1.00  0.00     0.002 C 
BRANCH  27  28
ATOM     28  C   UNL A   1      31.915  28.034  27.487  1.00  0.00     0.021 C 
BRANCH  28  29
ATOM     29  C   UNL A   1      33.326  28.615  27.369  1.00  0.00     0.116 C 
BRANCH  29  30
ATOM     30  N   UNL A   1      33.389  30.046  27.595  1.00  0.00    -0.352 N 
ATOM     31  C   UNL A   1      34.393  30.847  28.073  1.00  0.00     0.251 C 
ATOM     32  H   UNL A   1      32.564  30.529  27.363  1.00  0.00     0.163 HD
ATOM     33  O   UNL A   1      34.156  32.042  28.267  1.00  0.00    -0.269 OA
BRANCH  31  34
ATOM     34  C   UNL A   1      35.743  30.329  28.399  1.00  0.00     0.039 A 
ATOM     35  C   UNL A   1      36.703  30.325  27.378  1.00  0.00     0.014 A 
ATOM     36  C   UNL A   1      36.065  29.771  29.640  1.00  0.00     0.014 A 
ATOM     37  C   UNL A   1      37.986  29.821  27.613  1.00  0.00     0.010 A 
ATOM     38  C   UNL A   1      37.365  29.312  29.890  1.00  0.00     0.010 A 
ATOM     39  C   UNL A   1      38.341  29.335  28.880  1.00  0.00    -0.014 A 
BRANCH  39  40
ATOM     40  C   UNL A   1      39.732  28.880  29.150  1.00  0.00     0.031 A 
ATOM     41  C   UNL A   1      40.728  29.779  29.832  1.00  0.00     0.074 A 
ATOM     42  C   UNL A   1      40.113  27.648  28.758  1.00  0.00     0.049 A 
ATOM     43  N   UNL A   1      41.981  29.541  30.136  1.00  0.00    -0.248 NA
ATOM     44  C   UNL A   1      40.262  31.121  30.212  1.00  0.00     0.031 C 
ATOM     45  C   UNL A   1      39.261  26.677  28.069  1.00  0.00     0.029 A 
ATOM     46  N   UNL A   1      41.318  27.000  28.885  1.00  0.00    -0.354 N 
ATOM     47  C   UNL A   1      42.454  30.703  30.734  1.00  0.00     0.074 A 
ATOM     48  C   UNL A   1      41.365  31.656  30.718  1.00  0.00     0.031 C 
ATOM     49  C   UNL A   1      39.961  25.553  27.852  1.00  0.00     0.029 A 
ATOM     50  C   UNL A   1      41.320  25.731  28.357  1.00  0.00     0.049 A 
ATOM     51  H   UNL A   1      42.106  27.406  29.314  1.00  0.00     0.167 HD
ATOM     52  C   UNL A   1      43.679  30.950  31.261  1.00  0.00     0.031 A 
ATOM     53  C   UNL A   1      42.301  24.813  28.281  1.00  0.00     0.031 A 
ATOM     54  C   UNL A   1      44.768  30.009  31.287  1.00  0.00     0.049 A 
ATOM     55  C   UNL A   1      43.656  25.121  28.854  1.00  0.00     0.074 A 
ATOM     56  C   UNL A   1      46.028  30.163  31.840  1.00  0.00     0.029 A 
ATOM     57  N   UNL A   1      44.729  28.739  30.734  1.00  0.00    -0.354 N 
ATOM     58  N   UNL A   1      44.066  26.206  29.465  1.00  0.00    -0.248 NA
ATOM     59  C   UNL A   1      44.679  24.072  28.735  1.00  0.00     0.031 C 
ATOM     60  C   UNL A   1      46.766  29.002  31.585  1.00  0.00     0.029 A 
ATOM     61  C   UNL A   1      45.949  28.108  30.913  1.00  0.00     0.049 A 
ATOM     62  H   UNL A   1      43.950  28.344  30.281  1.00  0.00     0.167 HD
ATOM     63  C   UNL A   1      45.386  25.961  29.822  1.00  0.00     0.074 A 
ATOM     64  C   UNL A   1      45.701  24.620  29.376  1.00  0.00     0.031 C 
ATOM     65  C   UNL A   1      46.257  26.776  30.463  1.00  0.00     0.031 A 
BRANCH  52  66
ATOM     66  C   UNL A   1      43.915  32.311  31.855  1.00  0.00    -0.014 A 
ATOM     67  C   UNL A   1      44.381  33.374  31.065  1.00  0.00     0.009 A 
ATOM     68  C   UNL A   1      43.614  32.548  33.205  1.00  0.00     0.009 A 
ATOM     69  C   UNL A   1      44.569  34.640  31.625  1.00  0.00     0.001 A 
ATOM     70  C   UNL A   1      43.780  33.821  33.755  1.00  0.00     0.001 A 
ATOM     71  C   UNL A   1      44.263  34.864  32.967  1.00  0.00     0.000 A 
ENDBRANCH  52  66
BRANCH  53  72
ATOM     72  C   UNL A   1      42.043  23.500  27.637  1.00  0.00    -0.014 A 
ATOM     73  C   UNL A   1      41.482  22.444  28.372  1.00  0.00     0.009 A 
ATOM     74  C   UNL A   1      42.372  23.291  26.288  1.00  0.00     0.009 A 
ATOM     75  C   UNL A   1      41.282  21.197  27.776  1.00  0.00     0.001 A 
ATOM     76  C   UNL A   1      42.146  22.052  25.689  1.00  0.00     0.001 A 
ATOM     77  C   UNL A   1      41.610  21.003  26.435  1.00  0.00     0.000 A 
ENDBRANCH  53  72
BRANCH  65  78
ATOM     78  C   UNL A   1      47.628  26.229  30.742  1.00  0.00    -0.014 A 
ATOM     79  C   UNL A   1      47.964  25.723  32.007  1.00  0.00     0.009 A 
ATOM     80  C   UNL A   1      48.588  26.201  29.720  1.00  0.00     0.009 A 
ATOM     81  C   UNL A   1      49.247  25.228  32.251  1.00  0.00     0.001 A 
ATOM     82  C   UNL A   1      49.862  25.683  29.959  1.00  0.00     0.001 A 
ATOM     83  C   UNL A   1      50.193  25.206  31.227  1.00  0.00     0.000 A 
ENDBRANCH  65  78
ENDBRANCH  39  40
ENDBRANCH  31  34
ENDBRANCH  29  30
ENDBRANCH  28  29
ENDBRANCH  27  28
ENDBRANCH  26  27
ENDBRANCH   1  26
TORSDOF 18
ENDMDL
MODEL 2
REMARK VINA RESULT:     -10.7      1.546      2.679
REMARK SMILES C[C@H](C(=O)NCCCCCCNC(=O)c1ccc(-c2c3nc(c(-c4ccccc4)c4ccc([nH]4)c(-c4ccccc4)c4nc(c(-c5ccccc5)c5ccc2[nH]5)C=C4)C=C3)cc1)[C@@H](C)Nc1ccccc1Oc1ccccc1
REMARK SMILES IDX 7 1 6 2 5 3 3 4 4 5 2 7 1 8 63 9 64 10 65 11 66 13 67 14
REMARK SMILES IDX 71 15 68 16 70 17 69 18 72 19 73 20 74 21 78 22 75 23 77 24
REMARK SMILES IDX 76 25 8 26 9 27 10 28 11 29 12 30 13 31 14 33 15 34 16 35
REMARK SMILES IDX 62 36 17 37 61 38 18 39 19 40 20 41 55 42 21 43 60 44 54 45
REMARK SMILES IDX 56 46 22 47 59 48 53 49 52 50 23 52 45 53 30 54 44 55 31 56
REMARK SMILES IDX 34 57 43 58 57 59 32 60 33 61 42 63 58 64 35 65 24 66 25 67
REMARK SMILES IDX 29 68 26 69 28 70 27 71 46 72 47 73 51 74 48 75 50 76 49 77
REMARK SMILES IDX 36 78 37 79 41 80 38 81 40 82 39 83
REMARK H PARENT 5 6 65 12 12 32 56 51 34 62
REMARK Flexibility Score: inf
ROOT
ATOM      1  C   UNL A   1      30.873  28.736  24.322  1.00  0.00     0.021 C 
ENDROOT
BRANCH   1   2
ATOM      2  C   UNL A   1      30.227  27.401  23.917  1.00  0.00     0.116 C 
BRANCH   2   3
ATOM      3  N   UNL A   1      30.571  26.383  24.901  1.00  0.00    -0.356 N 
ATOM      4  C   UNL A   1      31.051  25.112  24.822  1.00  0.00     0.224 C 
ATOM      5  O   UNL A   1      30.999  24.460  25.870  1.00  0.00    -0.275 OA
ATOM      6  H   UNL A   1      30.425  26.680  25.829  1.00  0.00     0.163 HD
BRANCH   4   7
ATOM      7  C   UNL A   1      31.696  24.537  23.552  1.00  0.00     0.097 C 
ATOM      8  C   UNL A   1      32.776  25.542  23.107  1.00  0.00     0.020 C 
BRANCH   7   9
ATOM      9  C   UNL A   1      32.254  23.091  23.758  1.00  0.00     0.088 C 
ATOM     10  C   UNL A   1      33.014  22.663  22.490  1.00  0.00     0.031 C 
BRANCH   9  11
ATOM     11  N   UNL A   1      33.230  23.006  24.853  1.00  0.00    -0.379 N 
ATOM     12  H   UNL A   1      32.869  23.264  25.733  1.00  0.00     0.160 HD
BRANCH  11  13
ATOM     13  C   UNL A   1      34.565  22.629  24.877  1.00  0.00     0.078 A 
ATOM     14  C   UNL A   1      35.489  23.683  24.673  1.00  0.00     0.029 A 
ATOM     15  C   UNL A   1      35.133  21.370  25.147  1.00  0.00     0.150 A 
ATOM     16  C   UNL A   1      36.878  23.508  24.725  1.00  0.00     0.002 A 
ATOM     17  C   UNL A   1      36.534  21.191  25.202  1.00  0.00     0.049 A 
ATOM     18  C   UNL A   1      37.404  22.255  24.986  1.00  0.00     0.004 A 
BRANCH  15  19
ATOM     19  O   UNL A   1      34.423  20.266  25.557  1.00  0.00    -0.455 OA
BRANCH  19  20
ATOM     20  C   UNL A   1      34.006  19.345  24.625  1.00  0.00     0.127 A 
ATOM     21  C   UNL A   1      34.838  18.226  24.533  1.00  0.00     0.047 A 
ATOM     22  C   UNL A   1      32.826  19.398  23.885  1.00  0.00     0.047 A 
ATOM     23  C   UNL A   1      34.444  17.120  23.789  1.00  0.00     0.004 A 
ATOM     24  C   UNL A   1      32.423  18.277  23.153  1.00  0.00     0.004 A 
ATOM     25  C   UNL A   1      33.218  17.131  23.127  1.00  0.00     0.000 A 
ENDBRANCH  19  20
ENDBRANCH  15  19
ENDBRANCH  11  13
ENDBRANCH   9  11
ENDBRANCH   7   9
ENDBRANCH   4   7
ENDBRANCH   2   3
ENDBRANCH   1   2
BRANCH   1  26
ATOM     26  C   UNL A   1      32.263  29.026  23.738  1.00  0.00     0.002 C 
BRANCH  26  27
ATOM     27  C   UNL A   1      33.396  29.254  24.749  1.00  0.00     0.002 C 
BRANCH  27  28
ATOM     28  C   UNL A   1      33.669  28.132  25.762  1.00  0.00     0.021 C 
BRANCH  28  29
ATOM     29  C   UNL A   1      33.411  28.450  27.236  1.00  0.00     0.116 C 
BRANCH  29  30
ATOM     30  N   UNL A   1      33.427  29.868  27.539  1.00  0.00    -0.352 N 
ATOM     31  C   UNL A   1      34.399  30.672  28.074  1.00  0.00     0.251 C 
ATOM     32  H   UNL A   1      32.591  30.338  27.319  1.00  0.00     0.163 HD
ATOM     33  O   UNL A   1      34.122  31.848  28.328  1.00  0.00    -0.269 OA
BRANCH  31  34
ATOM     34  C   UNL A   1      35.759  30.178  28.394  1.00  0.00     0.039 A 
ATOM     35  C   UNL A   1      36.714  30.189  27.368  1.00  0.00     0.014 A 
ATOM     36  C   UNL A   1      36.097  29.628  29.634  1.00  0.00     0.014 A 
ATOM     37  C   UNL A   1      38.006  29.708  27.597  1.00  0.00     0.010 A 
ATOM     38  C   UNL A   1      37.406  29.192  29.878  1.00  0.00     0.010 A 
ATOM     39  C   UNL A   1      38.376  29.230  28.863  1.00  0.00    -0.014 A 
BRANCH  39  40
ATOM     40  C   UNL A   1      39.776  28.799  29.126  1.00  0.00     0.031 A 
ATOM     41  C   UNL A   1      40.757  29.713  29.809  1.00  0.00     0.074 A 
ATOM     42  C   UNL A   1      40.179  27.576  28.727  1.00  0.00     0.049 A 
ATOM     43  N   UNL A   1      42.016  29.497  30.108  1.00  0.00    -0.248 NA
ATOM     44  C   UNL A   1      40.269  31.044  30.197  1.00  0.00     0.031 C 
ATOM     45  C   UNL A   1      39.343  26.593  28.035  1.00  0.00     0.029 A 
ATOM     46  N   UNL A   1      41.396  26.950  28.847  1.00  0.00    -0.354 N 
ATOM     47  C   UNL A   1      42.470  30.664  30.711  1.00  0.00     0.074 A 
ATOM     48  C   UNL A   1      41.363  31.597  30.703  1.00  0.00     0.031 C 
ATOM     49  C   UNL A   1      40.063  25.483  27.811  1.00  0.00     0.029 A 
ATOM     50  C   UNL A   1      41.420  25.685  28.312  1.00  0.00     0.049 A 
ATOM     51  H   UNL A   1      42.178  27.369  29.275  1.00  0.00     0.167 HD
ATOM     52  C   UNL A   1      43.691  30.932  31.235  1.00  0.00     0.031 A 
ATOM     53  C   UNL A   1      42.417  24.786  28.228  1.00  0.00     0.031 A 
ATOM     54  C   UNL A   1      44.798  30.011  31.253  1.00  0.00     0.049 A 
ATOM     55  C   UNL A   1      43.768  25.116  28.799  1.00  0.00     0.074 A 
ATOM     56  C   UNL A   1      46.056  30.185  31.803  1.00  0.00     0.029 A 
ATOM     57  N   UNL A   1      44.780  28.744  30.694  1.00  0.00    -0.354 N 
ATOM     58  N   UNL A   1      44.160  26.205  29.414  1.00  0.00    -0.248 NA
ATOM     59  C   UNL A   1      44.810  24.086  28.672  1.00  0.00     0.031 C 
ATOM     60  C   UNL A   1      46.815  29.039  31.539  1.00  0.00     0.029 A 
ATOM     61  C   UNL A   1      46.012  28.134  30.866  1.00  0.00     0.049 A 
ATOM     62  H   UNL A   1      44.007  28.336  30.241  1.00  0.00     0.167 HD
ATOM     63  C   UNL A   1      45.485  25.982  29.766  1.00  0.00     0.074 A 
ATOM     64  C   UNL A   1      45.824  24.650  29.312  1.00  0.00     0.031 C 
ATOM     65  C   UNL A   1      46.343  26.810  30.408  1.00  0.00     0.031 A 
BRANCH  52  66
ATOM     66  C   UNL A   1      43.904  32.294  31.836  1.00  0.00    -0.014 A 
ATOM     67  C   UNL A   1      43.683  32.524  33.203  1.00  0.00     0.009 A 
ATOM     68  C   UNL A   1      44.386  33.344  31.039  1.00  0.00     0.009 A 
ATOM     69  C   UNL A   1      43.913  33.787  33.753  1.00  0.00     0.001 A 
ATOM     70  C   UNL A   1      44.638  34.598  31.597  1.00  0.00     0.001 A 
ATOM     71  C   UNL A   1      44.395  34.821  32.951  1.00  0.00     0.000 A 
ENDBRANCH  52  66
BRANCH  53  72
ATOM     72  C   UNL A   1      42.181  23.470  27.578  1.00  0.00    -0.014 A 
ATOM     73  C   UNL A   1      42.472  23.286  26.218  1.00  0.00     0.009 A 
ATOM     74  C   UNL A   1      41.649  22.399  28.313  1.00  0.00     0.009 A 
ATOM     75  C   UNL A   1      42.208  22.062  25.600  1.00  0.00     0.001 A 
ATOM     76  C   UNL A   1      41.411  21.170  27.697  1.00  0.00     0.001 A 
ATOM     77  C   UNL A   1      41.681  21.005  26.339  1.00  0.00     0.000 A 
ENDBRANCH  53  72
BRANCH  65  78
ATOM     78  C   UNL A   1      47.725  26.287  30.680  1.00  0.00    -0.014 A 
ATOM     79  C   UNL A   1      48.732  26.359  29.707  1.00  0.00     0.009 A 
ATOM     80  C   UNL A   1      48.027  25.736  31.935  1.00  0.00     0.009 A 
ATOM     81  C   UNL A   1      50.009  25.858  29.974  1.00  0.00     0.001 A 
ATOM     82  C   UNL A   1      49.310  25.259  32.208  1.00  0.00     0.001 A 
ATOM     83  C   UNL A   1      50.297  25.312  31.225  1.00  0.00     0.000 A 
ENDBRANCH  65  78
ENDBRANCH  39  40
ENDBRANCH  31  34
ENDBRANCH  29  30
ENDBRANCH  28  29
ENDBRANCH  27  28
ENDBRANCH  26  27
ENDBRANCH   1  26
TORSDOF 18
ENDMDL
MODEL 3
REMARK VINA RESULT:     -10.5      2.521      7.001
REMARK SMILES C[C@H](C(=O)NCCCCCCNC(=O)c1ccc(-c2c3nc(c(-c4ccccc4)c4ccc([nH]4)c(-c4ccccc4)c4nc(c(-c5ccccc5)c5ccc2[nH]5)C=C4)C=C3)cc1)[C@@H](C)Nc1ccccc1Oc1ccccc1
REMARK SMILES IDX 7 1 6 2 5 3 3 4 4 5 2 7 1 8 63 9 64 10 65 11 66 13 67 14
REMARK SMILES IDX 71 15 68 16 70 17 69 18 72 19 73 20 74 21 78 22 75 23 77 24
REMARK SMILES IDX 76 25 8 26 9 27 10 28 11 29 12 30 13 31 14 33 15 34 16 35
REMARK SMILES IDX 62 36 17 37 61 38 18 39 19 40 20 41 55 42 21 43 60 44 54 45
REMARK SMILES IDX 56 46 22 47 59 48 53 49 52 50 23 52 45 53 30 54 44 55 31 56
REMARK SMILES IDX 34 57 43 58 57 59 32 60 33 61 42 63 58 64 35 65 24 66 25 67
REMARK SMILES IDX 29 68 26 69 28 70 27 71 46 72 47 73 51 74 48 75 50 76 49 77
REMARK SMILES IDX 36 78 37 79 41 80 38 81 40 82 39 83
REMARK H PARENT 5 6 65 12 12 32 56 51 34 62
REMARK Flexibility Score: inf
ROOT
ATOM      1  C   UNL A   1      30.262  28.055  23.705  1.00  0.00     0.021 C 
ENDROOT
BRANCH   1   2
ATOM      2  C   UNL A   1      31.300  27.113  24.337  1.00  0.00     0.116 C 
BRANCH   2   3
ATOM      3  N   UNL A   1      30.651  26.295  25.352  1.00  0.00    -0.356 N 
ATOM      4  C   UNL A   1      30.851  25.035  25.825  1.00  0.00     0.224 C 
ATOM      5  O   UNL A   1      29.946  24.584  26.534  1.00  0.00    -0.275 OA
ATOM      6  H   UNL A   1      29.901  26.755  25.794  1.00  0.00     0.163 HD
BRANCH   4   7
ATOM      7  C   UNL A   1      32.145  24.243  25.579  1.00  0.00     0.097 C 
ATOM      8  C   UNL A   1      32.592  23.685  26.944  1.00  0.00     0.020 C 
BRANCH   7   9
ATOM      9  C   UNL A   1      31.978  23.134  24.489  1.00  0.00     0.088 C 
ATOM     10  C   UNL A   1      30.965  23.617  23.436  1.00  0.00     0.031 C 
BRANCH   9  11
ATOM     11  N   UNL A   1      33.221  22.868  23.751  1.00  0.00    -0.379 N 
ATOM     12  H   UNL A   1      33.126  22.918  22.772  1.00  0.00     0.160 HD
BRANCH  11  13
ATOM     13  C   UNL A   1      34.505  22.561  24.180  1.00  0.00     0.078 A 
ATOM     14  C   UNL A   1      35.465  23.583  23.978  1.00  0.00     0.029 A 
ATOM     15  C   UNL A   1      34.972  21.416  24.851  1.00  0.00     0.150 A 
ATOM     16  C   UNL A   1      36.796  23.481  24.401  1.00  0.00     0.002 A 
ATOM     17  C   UNL A   1      36.314  21.312  25.281  1.00  0.00     0.049 A 
ATOM     18  C   UNL A   1      37.225  22.338  25.052  1.00  0.00     0.004 A 
BRANCH  15  19
ATOM     19  O   UNL A   1      34.168  20.399  25.310  1.00  0.00    -0.455 OA
BRANCH  19  20
ATOM     20  C   UNL A   1      33.840  19.363  24.469  1.00  0.00     0.127 A 
ATOM     21  C   UNL A   1      34.718  18.278  24.547  1.00  0.00     0.047 A 
ATOM     22  C   UNL A   1      32.702  19.281  23.669  1.00  0.00     0.047 A 
ATOM     23  C   UNL A   1      34.408  17.080  23.914  1.00  0.00     0.004 A 
ATOM     24  C   UNL A   1      32.383  18.069  23.048  1.00  0.00     0.004 A 
ATOM     25  C   UNL A   1      33.222  16.964  23.193  1.00  0.00     0.000 A 
ENDBRANCH  19  20
ENDBRANCH  15  19
ENDBRANCH  11  13
ENDBRANCH   9  11
ENDBRANCH   7   9
ENDBRANCH   4   7
ENDBRANCH   2   3
ENDBRANCH   1   2
BRANCH   1  26
ATOM     26  C   UNL A   1      30.380  29.543  24.070  1.00  0.00     0.002 C 
BRANCH  26  27
ATOM     27  C   UNL A   1      31.396  29.900  25.164  1.00  0.00     0.002 C 
BRANCH  27  28
ATOM     28  C   UNL A   1      31.176  31.217  25.923  1.00  0.00     0.021 C 
BRANCH  28  29
ATOM     29  C   UNL A   1      32.262  31.635  26.916  1.00  0.00     0.116 C 
BRANCH  29  30
ATOM     30  N   UNL A   1      32.139  33.005  27.374  1.00  0.00    -0.352 N 
ATOM     31  C   UNL A   1      32.981  33.796  28.110  1.00  0.00     0.251 C 
ATOM     32  H   UNL A   1      31.301  33.446  27.108  1.00  0.00     0.163 HD
ATOM     33  O   UNL A   1      32.591  34.915  28.457  1.00  0.00    -0.269 OA
BRANCH  31  34
ATOM     34  C   UNL A   1      34.330  33.351  28.536  1.00  0.00     0.039 A 
ATOM     35  C   UNL A   1      34.426  32.605  29.719  1.00  0.00     0.014 A 
ATOM     36  C   UNL A   1      35.499  33.717  27.863  1.00  0.00     0.014 A 
ATOM     37  C   UNL A   1      35.672  32.182  30.190  1.00  0.00     0.010 A 
ATOM     38  C   UNL A   1      36.744  33.251  28.309  1.00  0.00     0.010 A 
ATOM     39  C   UNL A   1      36.843  32.476  29.476  1.00  0.00    -0.014 A 
BRANCH  39  40
ATOM     40  C   UNL A   1      38.158  31.950  29.934  1.00  0.00     0.031 A 
ATOM     41  C   UNL A   1      38.681  30.626  29.448  1.00  0.00     0.074 A 
ATOM     42  C   UNL A   1      38.884  32.664  30.818  1.00  0.00     0.049 A 
ATOM     43  N   UNL A   1      39.802  30.019  29.754  1.00  0.00    -0.248 NA
ATOM     44  C   UNL A   1      37.833  29.880  28.507  1.00  0.00     0.031 C 
ATOM     45  C   UNL A   1      38.492  33.953  31.390  1.00  0.00     0.029 A 
ATOM     46  N   UNL A   1      40.107  32.405  31.389  1.00  0.00    -0.354 N 
ATOM     47  C   UNL A   1      39.791  28.821  29.050  1.00  0.00     0.074 A 
ATOM     48  C   UNL A   1      38.536  28.770  28.331  1.00  0.00     0.031 C 
ATOM     49  C   UNL A   1      39.462  34.382  32.213  1.00  0.00     0.029 A 
ATOM     50  C   UNL A   1      40.530  33.386  32.253  1.00  0.00     0.049 A 
ATOM     51  H   UNL A   1      40.630  31.594  31.198  1.00  0.00     0.167 HD
ATOM     52  C   UNL A   1      40.742  27.857  28.996  1.00  0.00     0.031 A 
ATOM     53  C   UNL A   1      41.646  33.478  32.999  1.00  0.00     0.031 A 
ATOM     54  C   UNL A   1      41.996  27.898  29.704  1.00  0.00     0.049 A 
ATOM     55  C   UNL A   1      42.675  32.385  32.937  1.00  0.00     0.074 A 
ATOM     56  C   UNL A   1      43.035  26.984  29.672  1.00  0.00     0.029 A 
ATOM     57  N   UNL A   1      42.379  28.906  30.574  1.00  0.00    -0.354 N 
ATOM     58  N   UNL A   1      42.670  31.286  32.223  1.00  0.00    -0.248 NA
ATOM     59  C   UNL A   1      43.870  32.552  33.778  1.00  0.00     0.031 C 
ATOM     60  C   UNL A   1      44.031  27.417  30.554  1.00  0.00     0.029 A 
ATOM     61  C   UNL A   1      43.629  28.625  31.100  1.00  0.00     0.049 A 
ATOM     62  H   UNL A   1      41.844  29.704  30.786  1.00  0.00     0.167 HD
ATOM     63  C   UNL A   1      43.867  30.644  32.510  1.00  0.00     0.074 A 
ATOM     64  C   UNL A   1      44.580  31.482  33.450  1.00  0.00     0.031 C 
ATOM     65  C   UNL A   1      44.331  29.462  32.037  1.00  0.00     0.031 A 
BRANCH  52  66
ATOM     66  C   UNL A   1      40.462  26.653  28.139  1.00  0.00    -0.014 A 
ATOM     67  C   UNL A   1      39.641  25.612  28.600  1.00  0.00     0.009 A 
ATOM     68  C   UNL A   1      40.977  26.586  26.835  1.00  0.00     0.009 A 
ATOM     69  C   UNL A   1      39.366  24.514  27.782  1.00  0.00     0.001 A 
ATOM     70  C   UNL A   1      40.680  25.499  26.012  1.00  0.00     0.001 A 
ATOM     71  C   UNL A   1      39.881  24.461  26.487  1.00  0.00     0.000 A 
ENDBRANCH  52  66
BRANCH  53  72
ATOM     72  C   UNL A   1      41.861  34.658  33.876  1.00  0.00    -0.014 A 
ATOM     73  C   UNL A   1      41.351  34.677  35.183  1.00  0.00     0.009 A 
ATOM     74  C   UNL A   1      42.563  35.778  33.402  1.00  0.00     0.009 A 
ATOM     75  C   UNL A   1      41.517  35.806  35.989  1.00  0.00     0.001 A 
ATOM     76  C   UNL A   1      42.749  36.893  34.220  1.00  0.00     0.001 A 
ATOM     77  C   UNL A   1      42.217  36.910  35.509  1.00  0.00     0.000 A 
ENDBRANCH  53  72
BRANCH  65  78
ATOM     78  C   UNL A   1      45.687  29.021  32.510  1.00  0.00    -0.014 A 
ATOM     79  C   UNL A   1      46.853  29.401  31.828  1.00  0.00     0.009 A 
ATOM     80  C   UNL A   1      45.799  28.233  33.666  1.00  0.00     0.009 A 
ATOM     81  C   UNL A   1      48.105  28.972  32.276  1.00  0.00     0.001 A 
ATOM     82  C   UNL A   1      47.053  27.827  34.126  1.00  0.00     0.001 A 
ATOM     83  C   UNL A   1      48.203  28.188  33.426  1.00  0.00     0.000 A 
ENDBRANCH  65  78
ENDBRANCH  39  40
ENDBRANCH  31  34
ENDBRANCH  29  30
ENDBRANCH  28  29
ENDBRANCH  27  28
ENDBRANCH  26  27
ENDBRANCH   1  26
TORSDOF 18
ENDMDL
