MODEL 1
REMARK VINA RESULT:     -12.1      0.000      0.000
REMARK SMILES CN1C(=O)C[C@@H](C(=O)NCCCCCCNC(=O)c2ccc(-c3c4nc(c(-c5ccccc5)c5ccc([nH]5)c(-c5ccccc5)c5nc(c(-c6ccccc6)c6ccc3[nH]6)C=C5)C=C4)cc2)C12CCN(C(=O)c1ccccc1-n1cccn1)CC2
REMARK SMILES IDX 12 1 11 2 10 3 9 4 7 5 8 6 6 8 1 9 2 10 3 11 67 12 4 13 5 14
REMARK SMILES IDX 68 15 85 16 69 17 84 18 70 19 71 20 72 21 73 22 74 23 78 24
REMARK SMILES IDX 75 25 77 26 76 27 79 28 80 29 83 30 81 31 82 32 13 33 14 34
REMARK SMILES IDX 15 35 16 36 17 37 18 39 19 40 20 41 66 42 21 43 65 44 22 45
REMARK SMILES IDX 23 46 24 47 59 48 25 49 64 50 58 51 60 52 26 53 63 54 57 55
REMARK SMILES IDX 56 56 27 58 49 59 34 60 48 61 35 62 38 63 47 64 61 65 36 66
REMARK SMILES IDX 37 67 46 69 62 70 39 71 28 72 29 73 33 74 30 75 32 76 31 77
REMARK SMILES IDX 50 78 51 79 55 80 52 81 54 82 53 83 40 84 41 85 45 86 42 87
REMARK SMILES IDX 44 88 43 89
REMARK H PARENT 9 7 16 38 60 57 38 68
REMARK Flexibility Score: inf
ROOT
ATOM      1  C   UNL A   1      37.801  22.580  25.324  1.00  0.00     0.002 C 
ENDROOT
BRANCH   1   2
ATOM      2  C   UNL A   1      37.065  21.713  24.306  1.00  0.00     0.021 C 
BRANCH   2   3
ATOM      3  C   UNL A   1      35.840  20.971  24.858  1.00  0.00     0.116 C 
BRANCH   3   4
ATOM      4  N   UNL A   1      35.493  21.355  26.216  1.00  0.00    -0.356 N 
ATOM      5  C   UNL A   1      34.317  21.453  26.887  1.00  0.00     0.226 C 
ATOM      6  O   UNL A   1      34.395  21.817  28.067  1.00  0.00    -0.275 OA
ATOM      7  H   UNL A   1      36.275  21.594  26.765  1.00  0.00     0.163 HD
BRANCH   5   8
ATOM      8  C   UNL A   1      32.927  21.171  26.301  1.00  0.00     0.113 C 
ATOM      9  C   UNL A   1      32.549  21.783  22.629  1.00  0.00     0.147 C 
ATOM     10  N   UNL A   1      32.572  21.275  23.988  1.00  0.00    -0.339 N 
ATOM     11  C   UNL A   1      32.761  19.930  24.265  1.00  0.00     0.223 C 
ATOM     12  C   UNL A   1      32.388  22.107  25.191  1.00  0.00     0.058 C 
ATOM     13  O   UNL A   1      32.905  19.032  23.446  1.00  0.00    -0.275 OA
ATOM     14  C   UNL A   1      32.813  19.748  25.752  1.00  0.00     0.116 C 
ATOM     15  C   UNL A   1      33.121  23.458  25.142  1.00  0.00     0.051 C 
ATOM     16  C   UNL A   1      30.860  22.389  25.338  1.00  0.00     0.051 C 
ATOM     17  C   UNL A   1      32.758  24.381  26.298  1.00  0.00     0.122 C 
ATOM     18  C   UNL A   1      30.504  23.454  26.381  1.00  0.00     0.122 C 
ATOM     19  N   UNL A   1      31.333  24.648  26.230  1.00  0.00    -0.338 N 
ATOM     20  C   UNL A   1      30.743  25.898  26.045  1.00  0.00     0.256 C 
ATOM     21  O   UNL A   1      29.528  26.068  25.975  1.00  0.00    -0.269 OA
BRANCH  20  22
ATOM     22  C   UNL A   1      31.593  27.116  25.983  1.00  0.00     0.065 A 
ATOM     23  C   UNL A   1      31.602  27.903  27.148  1.00  0.00     0.016 A 
ATOM     24  C   UNL A   1      32.412  27.482  24.902  1.00  0.00     0.077 A 
ATOM     25  C   UNL A   1      32.441  29.014  27.251  1.00  0.00     0.001 A 
ATOM     26  C   UNL A   1      33.300  28.566  25.041  1.00  0.00     0.029 A 
ATOM     27  C   UNL A   1      33.302  29.335  26.205  1.00  0.00     0.002 A 
BRANCH  24  28
ATOM     28  N   UNL A   1      32.377  26.828  23.648  1.00  0.00    -0.240 N 
ATOM     29  C   UNL A   1      31.321  26.702  22.773  1.00  0.00     0.115 A 
ATOM     30  N   UNL A   1      33.500  26.238  23.151  1.00  0.00    -0.177 NA
ATOM     31  C   UNL A   1      31.777  25.988  21.689  1.00  0.00     0.042 A 
ATOM     32  C   UNL A   1      33.117  25.707  21.990  1.00  0.00     0.135 A 
ENDBRANCH  24  28
ENDBRANCH  20  22
ENDBRANCH   5   8
ENDBRANCH   3   4
ENDBRANCH   2   3
ENDBRANCH   1   2
BRANCH   1  33
ATOM     33  C   UNL A   1      39.005  21.902  25.976  1.00  0.00     0.002 C 
BRANCH  33  34
ATOM     34  C   UNL A   1      39.306  20.493  25.458  1.00  0.00     0.021 C 
BRANCH  34  35
ATOM     35  C   UNL A   1      40.028  19.590  26.454  1.00  0.00     0.116 C 
BRANCH  35  36
ATOM     36  N   UNL A   1      41.317  19.154  25.949  1.00  0.00    -0.352 N 
ATOM     37  C   UNL A   1      42.461  19.878  25.751  1.00  0.00     0.251 C 
ATOM     38  H   UNL A   1      41.377  18.200  25.714  1.00  0.00     0.163 HD
ATOM     39  O   UNL A   1      43.385  19.403  25.098  1.00  0.00    -0.269 OA
BRANCH  37  40
ATOM     40  C   UNL A   1      42.586  21.235  26.324  1.00  0.00     0.039 A 
ATOM     41  C   UNL A   1      42.758  22.316  25.457  1.00  0.00     0.014 A 
ATOM     42  C   UNL A   1      42.581  21.438  27.708  1.00  0.00     0.014 A 
ATOM     43  C   UNL A   1      42.908  23.600  25.977  1.00  0.00     0.010 A 
ATOM     44  C   UNL A   1      42.646  22.729  28.222  1.00  0.00     0.010 A 
ATOM     45  C   UNL A   1      42.842  23.819  27.363  1.00  0.00    -0.014 A 
BRANCH  45  46
ATOM     46  C   UNL A   1      43.023  25.182  27.923  1.00  0.00     0.031 A 
ATOM     47  C   UNL A   1      44.403  25.692  28.239  1.00  0.00     0.074 A 
ATOM     48  C   UNL A   1      41.946  25.954  28.159  1.00  0.00     0.049 A 
ATOM     49  N   UNL A   1      44.765  26.864  28.697  1.00  0.00    -0.248 NA
ATOM     50  C   UNL A   1      45.521  24.756  28.040  1.00  0.00     0.031 C 
ATOM     51  C   UNL A   1      40.554  25.561  27.927  1.00  0.00     0.029 A 
ATOM     52  N   UNL A   1      41.856  27.237  28.635  1.00  0.00    -0.354 N 
ATOM     53  C   UNL A   1      46.145  26.798  28.854  1.00  0.00     0.074 A 
ATOM     54  C   UNL A   1      46.546  25.455  28.502  1.00  0.00     0.031 C 
ATOM     55  C   UNL A   1      39.753  26.601  28.211  1.00  0.00     0.029 A 
ATOM     56  C   UNL A   1      40.569  27.716  28.680  1.00  0.00     0.049 A 
ATOM     57  H   UNL A   1      42.638  27.764  28.917  1.00  0.00     0.167 HD
ATOM     58  C   UNL A   1      47.005  27.774  29.234  1.00  0.00     0.031 A 
ATOM     59  C   UNL A   1      40.102  28.924  29.047  1.00  0.00     0.031 A 
ATOM     60  C   UNL A   1      46.604  29.111  29.579  1.00  0.00     0.049 A 
ATOM     61  C   UNL A   1      41.075  29.984  29.482  1.00  0.00     0.074 A 
ATOM     62  C   UNL A   1      47.399  30.190  29.921  1.00  0.00     0.029 A 
ATOM     63  N   UNL A   1      45.289  29.551  29.632  1.00  0.00    -0.354 N 
ATOM     64  N   UNL A   1      42.383  29.932  29.549  1.00  0.00    -0.248 NA
ATOM     65  C   UNL A   1      40.501  31.278  29.876  1.00  0.00     0.031 C 
ATOM     66  C   UNL A   1      46.563  31.266  30.240  1.00  0.00     0.029 A 
ATOM     67  C   UNL A   1      45.249  30.876  30.030  1.00  0.00     0.049 A 
ATOM     68  H   UNL A   1      44.501  29.001  29.417  1.00  0.00     0.167 HD
ATOM     69  C   UNL A   1      42.791  31.196  29.955  1.00  0.00     0.074 A 
ATOM     70  C   UNL A   1      41.592  31.994  30.105  1.00  0.00     0.031 C 
ATOM     71  C   UNL A   1      44.047  31.656  30.179  1.00  0.00     0.031 A 
BRANCH  58  72
ATOM     72  C   UNL A   1      48.465  27.412  29.317  1.00  0.00    -0.014 A 
ATOM     73  C   UNL A   1      49.325  27.578  28.218  1.00  0.00     0.009 A 
ATOM     74  C   UNL A   1      48.990  26.907  30.516  1.00  0.00     0.009 A 
ATOM     75  C   UNL A   1      50.666  27.196  28.304  1.00  0.00     0.001 A 
ATOM     76  C   UNL A   1      50.340  26.560  30.610  1.00  0.00     0.001 A 
ATOM     77  C   UNL A   1      51.173  26.691  29.500  1.00  0.00     0.000 A 
ENDBRANCH  58  72
BRANCH  59  78
ATOM     78  C   UNL A   1      38.645  29.213  28.976  1.00  0.00    -0.014 A 
ATOM     79  C   UNL A   1      38.070  29.663  27.777  1.00  0.00     0.009 A 
ATOM     80  C   UNL A   1      37.825  29.049  30.102  1.00  0.00     0.009 A 
ATOM     81  C   UNL A   1      36.709  29.972  27.716  1.00  0.00     0.001 A 
ATOM     82  C   UNL A   1      36.458  29.328  30.030  1.00  0.00     0.001 A 
ATOM     83  C   UNL A   1      35.903  29.800  28.840  1.00  0.00     0.000 A 
ENDBRANCH  59  78
BRANCH  71  84
ATOM     84  C   UNL A   1      44.187  33.104  30.563  1.00  0.00    -0.014 A 
ATOM     85  C   UNL A   1      44.208  33.512  31.906  1.00  0.00     0.009 A 
ATOM     86  C   UNL A   1      44.319  34.075  29.557  1.00  0.00     0.009 A 
ATOM     87  C   UNL A   1      44.309  34.867  32.232  1.00  0.00     0.001 A 
ATOM     88  C   UNL A   1      44.456  35.424  29.886  1.00  0.00     0.001 A 
ATOM     89  C   UNL A   1      44.437  35.820  31.222  1.00  0.00     0.000 A 
ENDBRANCH  71  84
ENDBRANCH  45  46
ENDBRANCH  37  40
ENDBRANCH  35  36
ENDBRANCH  34  35
ENDBRANCH  33  34
ENDBRANCH   1  33
TORSDOF 15
ENDMDL
MODEL 2
REMARK VINA RESULT:     -11.7      0.595      5.608
REMARK SMILES CN1C(=O)C[C@@H](C(=O)NCCCCCCNC(=O)c2ccc(-c3c4nc(c(-c5ccccc5)c5ccc([nH]5)c(-c5ccccc5)c5nc(c(-c6ccccc6)c6ccc3[nH]6)C=C5)C=C4)cc2)C12CCN(C(=O)c1ccccc1-n1cccn1)CC2
REMARK SMILES IDX 12 1 11 2 10 3 9 4 7 5 8 6 6 8 1 9 2 10 3 11 67 12 4 13 5 14
REMARK SMILES IDX 68 15 85 16 69 17 84 18 70 19 71 20 72 21 73 22 74 23 78 24
REMARK SMILES IDX 75 25 77 26 76 27 79 28 80 29 83 30 81 31 82 32 13 33 14 34
REMARK SMILES IDX 15 35 16 36 17 37 18 39 19 40 20 41 66 42 21 43 65 44 22 45
REMARK SMILES IDX 23 46 24 47 59 48 25 49 64 50 58 51 60 52 26 53 63 54 57 55
REMARK SMILES IDX 56 56 27 58 49 59 34 60 48 61 35 62 38 63 47 64 61 65 36 66
REMARK SMILES IDX 37 67 46 69 62 70 39 71 28 72 29 73 33 74 30 75 32 76 31 77
REMARK SMILES IDX 50 78 51 79 55 80 52 81 54 82 53 83 40 84 41 85 45 86 42 87
REMARK SMILES IDX 44 88 43 89
REMARK H PARENT 9 7 16 38 60 57 38 68
REMARK Flexibility Score: inf
ROOT
ATOM      1  C   UNL A   1      37.728  22.764  25.387  1.00  0.00     0.002 C 
ENDROOT
BRANCH   1   2
ATOM      2  C   UNL A   1      37.107  21.802  24.378  1.00  0.00     0.021 C 
BRANCH   2   3
ATOM      3  C   UNL A   1      35.891  21.022  24.895  1.00  0.00     0.116 C 
BRANCH   3   4
ATOM      4  N   UNL A   1      35.519  21.364  26.257  1.00  0.00    -0.356 N 
ATOM      5  C   UNL A   1      34.330  21.443  26.909  1.00  0.00     0.226 C 
ATOM      6  O   UNL A   1      34.387  21.772  28.100  1.00  0.00    -0.275 OA
ATOM      7  H   UNL A   1      36.291  21.585  26.828  1.00  0.00     0.163 HD
BRANCH   5   8
ATOM      8  C   UNL A   1      32.951  21.181  26.288  1.00  0.00     0.113 C 
ATOM      9  C   UNL A   1      32.674  21.796  22.608  1.00  0.00     0.147 C 
ATOM     10  N   UNL A   1      32.656  21.289  23.967  1.00  0.00    -0.339 N 
ATOM     11  C   UNL A   1      32.818  19.942  24.250  1.00  0.00     0.223 C 
ATOM     12  C   UNL A   1      32.454  22.124  25.165  1.00  0.00     0.058 C 
ATOM     13  O   UNL A   1      32.969  19.040  23.435  1.00  0.00    -0.275 OA
ATOM     14  C   UNL A   1      32.831  19.760  25.737  1.00  0.00     0.116 C 
ATOM     15  C   UNL A   1      33.208  23.464  25.133  1.00  0.00     0.051 C 
ATOM     16  C   UNL A   1      30.927  22.429  25.274  1.00  0.00     0.051 C 
ATOM     17  C   UNL A   1      32.830  24.393  26.280  1.00  0.00     0.122 C 
ATOM     18  C   UNL A   1      30.561  23.500  26.307  1.00  0.00     0.122 C 
ATOM     19  N   UNL A   1      31.412  24.681  26.177  1.00  0.00    -0.338 N 
ATOM     20  C   UNL A   1      30.845  25.940  25.976  1.00  0.00     0.256 C 
ATOM     21  O   UNL A   1      29.635  26.128  25.876  1.00  0.00    -0.269 OA
BRANCH  20  22
ATOM     22  C   UNL A   1      31.714  27.146  25.935  1.00  0.00     0.065 A 
ATOM     23  C   UNL A   1      31.754  27.899  27.121  1.00  0.00     0.016 A 
ATOM     24  C   UNL A   1      32.522  27.528  24.852  1.00  0.00     0.077 A 
ATOM     25  C   UNL A   1      32.613  28.993  27.242  1.00  0.00     0.001 A 
ATOM     26  C   UNL A   1      33.430  28.593  25.007  1.00  0.00     0.029 A 
ATOM     27  C   UNL A   1      33.463  29.330  26.192  1.00  0.00     0.002 A 
BRANCH  24  28
ATOM     28  N   UNL A   1      32.457  26.910  23.580  1.00  0.00    -0.240 N 
ATOM     29  C   UNL A   1      33.419  26.165  22.936  1.00  0.00     0.115 A 
ATOM     30  N   UNL A   1      31.318  26.991  22.838  1.00  0.00    -0.177 NA
ATOM     31  C   UNL A   1      32.886  25.774  21.729  1.00  0.00     0.042 A 
ATOM     32  C   UNL A   1      31.601  26.334  21.713  1.00  0.00     0.135 A 
ENDBRANCH  24  28
ENDBRANCH  20  22
ENDBRANCH   5   8
ENDBRANCH   3   4
ENDBRANCH   2   3
ENDBRANCH   1   2
BRANCH   1  33
ATOM     33  C   UNL A   1      38.984  22.230  26.075  1.00  0.00     0.002 C 
BRANCH  33  34
ATOM     34  C   UNL A   1      39.412  20.828  25.631  1.00  0.00     0.021 C 
BRANCH  34  35
ATOM     35  C   UNL A   1      40.289  20.084  26.632  1.00  0.00     0.116 C 
BRANCH  35  36
ATOM     36  N   UNL A   1      41.537  19.646  26.034  1.00  0.00    -0.352 N 
ATOM     37  C   UNL A   1      42.655  20.375  25.729  1.00  0.00     0.251 C 
ATOM     38  H   UNL A   1      41.586  18.688  25.816  1.00  0.00     0.163 HD
ATOM     39  O   UNL A   1      43.527  19.892  25.013  1.00  0.00    -0.269 OA
BRANCH  37  40
ATOM     40  C   UNL A   1      42.814  21.744  26.261  1.00  0.00     0.039 A 
ATOM     41  C   UNL A   1      42.918  22.806  25.359  1.00  0.00     0.014 A 
ATOM     42  C   UNL A   1      42.907  21.978  27.637  1.00  0.00     0.014 A 
ATOM     43  C   UNL A   1      43.098  24.102  25.839  1.00  0.00     0.010 A 
ATOM     44  C   UNL A   1      43.002  23.281  28.116  1.00  0.00     0.010 A 
ATOM     45  C   UNL A   1      43.131  24.352  27.221  1.00  0.00    -0.014 A 
BRANCH  45  46
ATOM     46  C   UNL A   1      43.344  25.728  27.735  1.00  0.00     0.031 A 
ATOM     47  C   UNL A   1      42.166  26.612  28.041  1.00  0.00     0.074 A 
ATOM     48  C   UNL A   1      44.597  26.186  27.914  1.00  0.00     0.049 A 
ATOM     49  N   UNL A   1      42.149  27.826  28.531  1.00  0.00    -0.248 NA
ATOM     50  C   UNL A   1      40.831  26.073  27.733  1.00  0.00     0.031 C 
ATOM     51  C   UNL A   1      45.823  25.438  27.622  1.00  0.00     0.029 A 
ATOM     52  N   UNL A   1      45.047  27.388  28.398  1.00  0.00    -0.354 N 
ATOM     53  C   UNL A   1      40.811  28.198  28.575  1.00  0.00     0.074 A 
ATOM     54  C   UNL A   1      40.052  27.108  28.005  1.00  0.00     0.031 C 
ATOM     55  C   UNL A   1      46.884  26.179  27.983  1.00  0.00     0.029 A 
ATOM     56  C   UNL A   1      46.415  27.463  28.494  1.00  0.00     0.049 A 
ATOM     57  H   UNL A   1      44.447  28.125  28.654  1.00  0.00     0.167 HD
ATOM     58  C   UNL A   1      40.259  29.335  29.065  1.00  0.00     0.031 A 
ATOM     59  C   UNL A   1      47.203  28.453  28.953  1.00  0.00     0.031 A 
ATOM     60  C   UNL A   1      41.016  30.415  29.636  1.00  0.00     0.049 A 
ATOM     61  C   UNL A   1      46.568  29.711  29.476  1.00  0.00     0.074 A 
ATOM     62  C   UNL A   1      40.552  31.584  30.214  1.00  0.00     0.029 A 
ATOM     63  N   UNL A   1      42.401  30.462  29.695  1.00  0.00    -0.354 N 
ATOM     64  N   UNL A   1      45.298  30.016  29.583  1.00  0.00    -0.248 NA
ATOM     65  C   UNL A   1      47.482  30.756  29.957  1.00  0.00     0.031 C 
ATOM     66  C   UNL A   1      41.659  32.365  30.567  1.00  0.00     0.029 A 
ATOM     67  C   UNL A   1      42.810  31.653  30.273  1.00  0.00     0.049 A 
ATOM     68  H   UNL A   1      43.004  29.753  29.375  1.00  0.00     0.167 HD
ATOM     69  C   UNL A   1      45.258  31.270  30.179  1.00  0.00     0.074 A 
ATOM     70  C   UNL A   1      46.632  31.660  30.421  1.00  0.00     0.031 C 
ATOM     71  C   UNL A   1      44.182  32.029  30.503  1.00  0.00     0.031 A 
BRANCH  58  72
ATOM     72  C   UNL A   1      38.761  29.467  28.979  1.00  0.00    -0.014 A 
ATOM     73  C   UNL A   1      38.123  29.818  27.777  1.00  0.00     0.009 A 
ATOM     74  C   UNL A   1      37.975  29.228  30.117  1.00  0.00     0.009 A 
ATOM     75  C   UNL A   1      36.735  29.976  27.732  1.00  0.00     0.001 A 
ATOM     76  C   UNL A   1      36.585  29.351  30.059  1.00  0.00     0.001 A 
ATOM     77  C   UNL A   1      35.968  29.740  28.871  1.00  0.00     0.000 A 
ENDBRANCH  58  72
BRANCH  59  78
ATOM     78  C   UNL A   1      48.680  28.279  28.983  1.00  0.00    -0.014 A 
ATOM     79  C   UNL A   1      49.308  27.762  30.128  1.00  0.00     0.009 A 
ATOM     80  C   UNL A   1      49.467  28.631  27.878  1.00  0.00     0.009 A 
ATOM     81  C   UNL A   1      50.698  27.632  30.174  1.00  0.00     0.001 A 
ATOM     82  C   UNL A   1      50.854  28.471  27.915  1.00  0.00     0.001 A 
ATOM     83  C   UNL A   1      51.470  27.981  29.067  1.00  0.00     0.000 A 
ENDBRANCH  59  78
BRANCH  71  84
ATOM     84  C   UNL A   1      44.449  33.336  31.197  1.00  0.00    -0.014 A 
ATOM     85  C   UNL A   1      44.629  34.529  30.478  1.00  0.00     0.009 A 
ATOM     86  C   UNL A   1      44.504  33.374  32.599  1.00  0.00     0.009 A 
ATOM     87  C   UNL A   1      44.905  35.723  31.150  1.00  0.00     0.001 A 
ATOM     88  C   UNL A   1      44.745  34.575  33.268  1.00  0.00     0.001 A 
ATOM     89  C   UNL A   1      44.958  35.745  32.543  1.00  0.00     0.000 A 
ENDBRANCH  71  84
ENDBRANCH  45  46
ENDBRANCH  37  40
ENDBRANCH  35  36
ENDBRANCH  34  35
ENDBRANCH  33  34
ENDBRANCH   1  33
TORSDOF 15
ENDMDL
MODEL 3
REMARK VINA RESULT:     -11.7      1.480      2.271
REMARK SMILES CN1C(=O)C[C@@H](C(=O)NCCCCCCNC(=O)c2ccc(-c3c4nc(c(-c5ccccc5)c5ccc([nH]5)c(-c5ccccc5)c5nc(c(-c6ccccc6)c6ccc3[nH]6)C=C5)C=C4)cc2)C12CCN(C(=O)c1ccccc1-n1cccn1)CC2
REMARK SMILES IDX 12 1 11 2 10 3 9 4 7 5 8 6 6 8 1 9 2 10 3 11 67 12 4 13 5 14
REMARK SMILES IDX 68 15 85 16 69 17 84 18 70 19 71 20 72 21 73 22 74 23 78 24
REMARK SMILES IDX 75 25 77 26 76 27 79 28 80 29 83 30 81 31 82 32 13 33 14 34
REMARK SMILES IDX 15 35 16 36 17 37 18 39 19 40 20 41 66 42 21 43 65 44 22 45
REMARK SMILES IDX 23 46 24 47 59 48 25 49 64 50 58 51 60 52 26 53 63 54 57 55
REMARK SMILES IDX 56 56 27 58 49 59 34 60 48 61 35 62 38 63 47 64 61 65 36 66
REMARK SMILES IDX 37 67 46 69 62 70 39 71 28 72 29 73 33 74 30 75 32 76 31 77
REMARK SMILES IDX 50 78 51 79 55 80 52 81 54 82 53 83 40 84 41 85 45 86 42 87
REMARK SMILES IDX 44 88 43 89
REMARK H PARENT 9 7 16 38 60 57 38 68
REMARK Flexibility Score: inf
ROOT
ATOM      1  C   UNL A   1      39.584  22.517  26.780  1.00  0.00     0.002 C 
ENDROOT
BRANCH   1   2
ATOM      2  C   UNL A   1      39.084  23.911  26.412  1.00  0.00     0.021 C 
BRANCH   2   3
ATOM      3  C   UNL A   1      37.562  24.030  26.259  1.00  0.00     0.116 C 
BRANCH   3   4
ATOM      4  N   UNL A   1      37.086  23.714  24.923  1.00  0.00    -0.356 N 
ATOM      5  C   UNL A   1      36.035  22.996  24.451  1.00  0.00     0.226 C 
ATOM      6  O   UNL A   1      35.929  22.936  23.220  1.00  0.00    -0.275 OA
ATOM      7  H   UNL A   1      37.644  24.102  24.210  1.00  0.00     0.163 HD
BRANCH   5   8
ATOM      8  C   UNL A   1      35.002  22.253  25.310  1.00  0.00     0.113 C 
ATOM      9  C   UNL A   1      32.171  20.665  23.449  1.00  0.00     0.147 C 
ATOM     10  N   UNL A   1      33.296  21.006  24.299  1.00  0.00    -0.339 N 
ATOM     11  C   UNL A   1      34.276  20.082  24.625  1.00  0.00     0.223 C 
ATOM     12  C   UNL A   1      33.509  22.333  24.906  1.00  0.00     0.058 C 
ATOM     13  O   UNL A   1      34.315  18.909  24.277  1.00  0.00    -0.275 OA
ATOM     14  C   UNL A   1      35.329  20.766  25.443  1.00  0.00     0.116 C 
ATOM     15  C   UNL A   1      33.207  23.512  23.966  1.00  0.00     0.051 C 
ATOM     16  C   UNL A   1      32.561  22.442  26.141  1.00  0.00     0.051 C 
ATOM     17  C   UNL A   1      33.239  24.863  24.668  1.00  0.00     0.122 C 
ATOM     18  C   UNL A   1      32.452  23.848  26.741  1.00  0.00     0.122 C 
ATOM     19  N   UNL A   1      32.225  24.855  25.706  1.00  0.00    -0.338 N 
ATOM     20  C   UNL A   1      31.117  25.699  25.775  1.00  0.00     0.256 C 
ATOM     21  O   UNL A   1      30.275  25.638  26.668  1.00  0.00    -0.269 OA
BRANCH  20  22
ATOM     22  C   UNL A   1      30.944  26.778  24.767  1.00  0.00     0.065 A 
ATOM     23  C   UNL A   1      30.075  26.474  23.704  1.00  0.00     0.016 A 
ATOM     24  C   UNL A   1      31.516  28.058  24.841  1.00  0.00     0.077 A 
ATOM     25  C   UNL A   1      29.750  27.442  22.751  1.00  0.00     0.001 A 
ATOM     26  C   UNL A   1      31.131  29.044  23.911  1.00  0.00     0.029 A 
ATOM     27  C   UNL A   1      30.264  28.730  22.864  1.00  0.00     0.002 A 
BRANCH  24  28
ATOM     28  N   UNL A   1      32.495  28.415  25.798  1.00  0.00    -0.240 N 
ATOM     29  C   UNL A   1      32.316  28.838  27.096  1.00  0.00     0.115 A 
ATOM     30  N   UNL A   1      33.818  28.334  25.485  1.00  0.00    -0.177 NA
ATOM     31  C   UNL A   1      33.566  29.057  27.626  1.00  0.00     0.042 A 
ATOM     32  C   UNL A   1      34.451  28.755  26.581  1.00  0.00     0.135 A 
ENDBRANCH  24  28
ENDBRANCH  20  22
ENDBRANCH   5   8
ENDBRANCH   3   4
ENDBRANCH   2   3
ENDBRANCH   1   2
BRANCH   1  33
ATOM     33  C   UNL A   1      39.255  21.437  25.751  1.00  0.00     0.002 C 
BRANCH  33  34
ATOM     34  C   UNL A   1      39.725  20.029  26.126  1.00  0.00     0.021 C 
BRANCH  34  35
ATOM     35  C   UNL A   1      41.035  19.982  26.906  1.00  0.00     0.116 C 
BRANCH  35  36
ATOM     36  N   UNL A   1      42.171  19.733  26.037  1.00  0.00    -0.352 N 
ATOM     37  C   UNL A   1      43.092  20.615  25.541  1.00  0.00     0.251 C 
ATOM     38  H   UNL A   1      42.295  18.796  25.764  1.00  0.00     0.163 HD
ATOM     39  O   UNL A   1      43.845  20.273  24.634  1.00  0.00    -0.269 OA
BRANCH  37  40
ATOM     40  C   UNL A   1      43.183  21.981  26.097  1.00  0.00     0.039 A 
ATOM     41  C   UNL A   1      42.989  23.067  25.242  1.00  0.00     0.014 A 
ATOM     42  C   UNL A   1      43.503  22.194  27.442  1.00  0.00     0.014 A 
ATOM     43  C   UNL A   1      43.100  24.365  25.739  1.00  0.00     0.010 A 
ATOM     44  C   UNL A   1      43.529  23.487  27.955  1.00  0.00     0.010 A 
ATOM     45  C   UNL A   1      43.360  24.586  27.101  1.00  0.00    -0.014 A 
BRANCH  45  46
ATOM     46  C   UNL A   1      43.500  25.965  27.631  1.00  0.00     0.031 A 
ATOM     47  C   UNL A   1      44.845  26.640  27.636  1.00  0.00     0.074 A 
ATOM     48  C   UNL A   1      42.421  26.604  28.119  1.00  0.00     0.049 A 
ATOM     49  N   UNL A   1      45.160  27.851  28.021  1.00  0.00    -0.248 NA
ATOM     50  C   UNL A   1      45.992  25.843  27.170  1.00  0.00     0.031 C 
ATOM     51  C   UNL A   1      41.069  26.046  28.201  1.00  0.00     0.029 A 
ATOM     52  N   UNL A   1      42.289  27.872  28.627  1.00  0.00    -0.354 N 
ATOM     53  C   UNL A   1      46.537  27.953  27.860  1.00  0.00     0.074 A 
ATOM     54  C   UNL A   1      47.004  26.664  27.401  1.00  0.00     0.031 C 
ATOM     55  C   UNL A   1      40.236  26.985  28.679  1.00  0.00     0.029 A 
ATOM     56  C   UNL A   1      40.999  28.193  28.972  1.00  0.00     0.049 A 
ATOM     57  H   UNL A   1      43.047  28.492  28.734  1.00  0.00     0.167 HD
ATOM     58  C   UNL A   1      47.338  29.028  28.054  1.00  0.00     0.031 A 
ATOM     59  C   UNL A   1      40.487  29.340  29.457  1.00  0.00     0.031 A 
ATOM     60  C   UNL A   1      46.870  30.310  28.504  1.00  0.00     0.049 A 
ATOM     61  C   UNL A   1      41.400  30.513  29.680  1.00  0.00     0.074 A 
ATOM     62  C   UNL A   1      47.589  31.480  28.677  1.00  0.00     0.029 A 
ATOM     63  N   UNL A   1      45.559  30.590  28.862  1.00  0.00    -0.354 N 
ATOM     64  N   UNL A   1      42.686  30.619  29.447  1.00  0.00    -0.248 NA
ATOM     65  C   UNL A   1      40.782  31.732  30.218  1.00  0.00     0.031 C 
ATOM     66  C   UNL A   1      46.725  32.450  29.198  1.00  0.00     0.029 A 
ATOM     67  C   UNL A   1      45.454  31.904  29.283  1.00  0.00     0.049 A 
ATOM     68  H   UNL A   1      44.814  29.947  28.822  1.00  0.00     0.167 HD
ATOM     69  C   UNL A   1      43.023  31.926  29.774  1.00  0.00     0.074 A 
ATOM     70  C   UNL A   1      41.803  32.576  30.206  1.00  0.00     0.031 C 
ATOM     71  C   UNL A   1      44.233  32.536  29.715  1.00  0.00     0.031 A 
BRANCH  58  72
ATOM     72  C   UNL A   1      48.811  28.845  27.796  1.00  0.00    -0.014 A 
ATOM     73  C   UNL A   1      49.697  28.482  28.825  1.00  0.00     0.009 A 
ATOM     74  C   UNL A   1      49.319  29.030  26.501  1.00  0.00     0.009 A 
ATOM     75  C   UNL A   1      51.065  28.360  28.571  1.00  0.00     0.001 A 
ATOM     76  C   UNL A   1      50.683  28.872  26.243  1.00  0.00     0.001 A 
ATOM     77  C   UNL A   1      51.556  28.551  27.281  1.00  0.00     0.000 A 
ENDBRANCH  58  72
BRANCH  59  78
ATOM     78  C   UNL A   1      39.029  29.451  29.724  1.00  0.00    -0.014 A 
ATOM     79  C   UNL A   1      38.165  29.955  28.738  1.00  0.00     0.009 A 
ATOM     80  C   UNL A   1      38.493  29.065  30.961  1.00  0.00     0.009 A 
ATOM     81  C   UNL A   1      36.800  30.097  28.998  1.00  0.00     0.001 A 
ATOM     82  C   UNL A   1      37.123  29.178  31.207  1.00  0.00     0.001 A 
ATOM     83  C   UNL A   1      36.279  29.704  30.229  1.00  0.00     0.000 A 
ENDBRANCH  59  78
BRANCH  71  84
ATOM     84  C   UNL A   1      44.284  33.993  30.085  1.00  0.00    -0.014 A 
ATOM     85  C   UNL A   1      44.554  34.412  31.397  1.00  0.00     0.009 A 
ATOM     86  C   UNL A   1      44.074  34.964  29.092  1.00  0.00     0.009 A 
ATOM     87  C   UNL A   1      44.565  35.773  31.716  1.00  0.00     0.001 A 
ATOM     88  C   UNL A   1      44.121  36.323  29.407  1.00  0.00     0.001 A 
ATOM     89  C   UNL A   1      44.353  36.725  30.720  1.00  0.00     0.000 A 
ENDBRANCH  71  84
ENDBRANCH  45  46
ENDBRANCH  37  40
ENDBRANCH  35  36
ENDBRANCH  34  35
ENDBRANCH  33  34
ENDBRANCH   1  33
TORSDOF 15
ENDMDL
