MODEL 1
REMARK VINA RESULT:      -9.8      0.000      0.000
REMARK SMILES O=C(NCCCCCCNC(=O)[C@]1(O)C[C@@H]2C=C[C@H]1C2)c1ccc(-c2c3nc(c(-c4ccccc4)c4ccc([nH]4)c(-c4ccccc4)c4nc(c(-c5ccccc5)c5ccc2[nH]5)C=C4)C=C3)cc1
REMARK SMILES IDX 6 1 5 2 4 3 3 4 1 5 2 6 21 8 22 9 68 10 23 11 67 12 24 13
REMARK SMILES IDX 25 14 26 15 61 16 27 17 66 18 60 19 62 20 28 21 65 22 59 23
REMARK SMILES IDX 58 24 29 26 51 27 36 28 50 29 37 30 40 31 49 32 63 33 38 34
REMARK SMILES IDX 39 35 48 37 64 38 41 39 30 40 31 41 35 42 32 43 34 44 33 45
REMARK SMILES IDX 52 46 53 47 57 48 54 49 56 50 55 51 42 52 43 53 47 54 44 55
REMARK SMILES IDX 46 56 45 57 7 58 8 59 9 60 10 61 11 62 12 64 13 65 15 66
REMARK SMILES IDX 19 67 16 68 18 69 20 70 17 71 14 72
REMARK H PARENT 3 7 62 25 40 36 10 63 14 73
REMARK Flexibility Score: inf
ROOT
ATOM      1  C   UNL A   1      33.159  27.853  24.932  1.00  0.00     0.002 C 
ENDROOT
BRANCH   1   2
ATOM      2  C   UNL A   1      34.160  28.602  25.811  1.00  0.00     0.021 C 
BRANCH   2   3
ATOM      3  C   UNL A   1      33.711  28.767  27.254  1.00  0.00     0.116 C 
BRANCH   3   4
ATOM      4  N   UNL A   1      33.666  30.167  27.649  1.00  0.00    -0.352 N 
ATOM      5  O   UNL A   1      34.341  32.000  28.784  1.00  0.00    -0.269 OA
ATOM      6  C   UNL A   1      34.605  30.888  28.338  1.00  0.00     0.251 C 
ATOM      7  H   UNL A   1      32.854  30.659  27.387  1.00  0.00     0.163 HD
BRANCH   6   8
ATOM      8  C   UNL A   1      35.945  30.306  28.546  1.00  0.00     0.039 A 
ATOM      9  C   UNL A   1      36.902  30.370  27.527  1.00  0.00     0.014 A 
ATOM     10  C   UNL A   1      36.254  29.710  29.771  1.00  0.00     0.014 A 
ATOM     11  C   UNL A   1      38.133  29.753  27.697  1.00  0.00     0.010 A 
ATOM     12  C   UNL A   1      37.523  29.166  29.971  1.00  0.00     0.010 A 
ATOM     13  C   UNL A   1      38.470  29.184  28.935  1.00  0.00    -0.014 A 
BRANCH  13  14
ATOM     14  C   UNL A   1      39.869  28.756  29.174  1.00  0.00     0.031 A 
ATOM     15  C   UNL A   1      40.890  29.691  29.750  1.00  0.00     0.074 A 
ATOM     16  C   UNL A   1      40.204  27.495  28.835  1.00  0.00     0.049 A 
ATOM     17  N   UNL A   1      42.160  29.471  29.978  1.00  0.00    -0.248 NA
ATOM     18  C   UNL A   1      40.439  31.044  30.111  1.00  0.00     0.031 C 
ATOM     19  C   UNL A   1      39.289  26.505  28.256  1.00  0.00     0.029 A 
ATOM     20  N   UNL A   1      41.398  26.828  28.923  1.00  0.00    -0.354 N 
ATOM     21  C   UNL A   1      42.667  30.661  30.484  1.00  0.00     0.074 A 
ATOM     22  C   UNL A   1      41.569  31.604  30.524  1.00  0.00     0.031 C 
ATOM     23  C   UNL A   1      39.947  25.354  28.065  1.00  0.00     0.029 A 
ATOM     24  C   UNL A   1      41.342  25.545  28.433  1.00  0.00     0.049 A 
ATOM     25  H   UNL A   1      42.214  27.228  29.302  1.00  0.00     0.167 HD
ATOM     26  C   UNL A   1      43.936  30.933  30.872  1.00  0.00     0.031 A 
ATOM     27  C   UNL A   1      42.316  24.634  28.253  1.00  0.00     0.031 A 
ATOM     28  C   UNL A   1      45.017  29.982  30.828  1.00  0.00     0.049 A 
ATOM     29  C   UNL A   1      43.718  24.992  28.644  1.00  0.00     0.074 A 
ATOM     30  C   UNL A   1      46.321  30.145  31.264  1.00  0.00     0.029 A 
ATOM     31  N   UNL A   1      44.928  28.704  30.300  1.00  0.00    -0.354 N 
ATOM     32  N   UNL A   1      44.164  26.092  29.201  1.00  0.00    -0.248 NA
ATOM     33  C   UNL A   1      44.755  23.987  28.377  1.00  0.00     0.031 C 
ATOM     34  C   UNL A   1      47.040  28.994  30.930  1.00  0.00     0.029 A 
ATOM     35  C   UNL A   1      46.167  28.088  30.348  1.00  0.00     0.049 A 
ATOM     36  H   UNL A   1      44.107  28.295  29.943  1.00  0.00     0.167 HD
ATOM     37  C   UNL A   1      45.529  25.907  29.360  1.00  0.00     0.074 A 
ATOM     38  C   UNL A   1      45.833  24.577  28.873  1.00  0.00     0.031 C 
ATOM     39  C   UNL A   1      46.452  26.766  29.855  1.00  0.00     0.031 A 
BRANCH  26  40
ATOM     40  C   UNL A   1      44.254  32.323  31.349  1.00  0.00    -0.014 A 
ATOM     41  C   UNL A   1      44.626  33.338  30.455  1.00  0.00     0.009 A 
ATOM     42  C   UNL A   1      44.073  32.644  32.704  1.00  0.00     0.009 A 
ATOM     43  C   UNL A   1      44.821  34.645  30.914  1.00  0.00     0.001 A 
ATOM     44  C   UNL A   1      44.244  33.954  33.154  1.00  0.00     0.001 A 
ATOM     45  C   UNL A   1      44.622  34.953  32.260  1.00  0.00     0.000 A 
ENDBRANCH  26  40
BRANCH  27  46
ATOM     46  C   UNL A   1      42.008  23.328  27.614  1.00  0.00    -0.014 A 
ATOM     47  C   UNL A   1      42.180  23.142  26.235  1.00  0.00     0.009 A 
ATOM     48  C   UNL A   1      41.514  22.262  28.385  1.00  0.00     0.009 A 
ATOM     49  C   UNL A   1      41.829  21.929  25.637  1.00  0.00     0.001 A 
ATOM     50  C   UNL A   1      41.199  21.039  27.791  1.00  0.00     0.001 A 
ATOM     51  C   UNL A   1      41.343  20.879  26.415  1.00  0.00     0.000 A 
ENDBRANCH  27  46
BRANCH  39  52
ATOM     52  C   UNL A   1      47.874  26.286  29.905  1.00  0.00    -0.014 A 
ATOM     53  C   UNL A   1      48.728  26.438  28.802  1.00  0.00     0.009 A 
ATOM     54  C   UNL A   1      48.376  25.716  31.085  1.00  0.00     0.009 A 
ATOM     55  C   UNL A   1      50.052  26.003  28.872  1.00  0.00     0.001 A 
ATOM     56  C   UNL A   1      49.709  25.311  31.162  1.00  0.00     0.001 A 
ATOM     57  C   UNL A   1      50.543  25.448  30.053  1.00  0.00     0.000 A 
ENDBRANCH  39  52
ENDBRANCH  13  14
ENDBRANCH   6   8
ENDBRANCH   3   4
ENDBRANCH   2   3
ENDBRANCH   1   2
BRANCH   1  58
ATOM     58  C   UNL A   1      33.402  26.343  24.834  1.00  0.00     0.002 C 
BRANCH  58  59
ATOM     59  C   UNL A   1      32.557  25.490  25.791  1.00  0.00     0.021 C 
BRANCH  59  60
ATOM     60  C   UNL A   1      32.595  23.996  25.479  1.00  0.00     0.116 C 
BRANCH  60  61
ATOM     61  N   UNL A   1      33.324  23.278  26.503  1.00  0.00    -0.354 N 
ATOM     62  C   UNL A   1      34.285  22.317  26.363  1.00  0.00     0.252 C 
ATOM     63  H   UNL A   1      33.095  23.515  27.431  1.00  0.00     0.163 HD
ATOM     64  O   UNL A   1      34.606  21.686  27.374  1.00  0.00    -0.272 OA
BRANCH  62  65
ATOM     65  C   UNL A   1      34.958  22.107  24.981  1.00  0.00     0.149 C 
ATOM     66  C   UNL A   1      36.114  21.051  25.017  1.00  0.00     0.053 C 
ATOM     67  C   UNL A   1      35.717  23.399  24.526  1.00  0.00     0.053 C 
ATOM     68  C   UNL A   1      37.355  21.882  24.616  1.00  0.00     0.015 C 
ATOM     69  C   UNL A   1      36.663  23.831  25.626  1.00  0.00    -0.024 C 
ATOM     70  C   UNL A   1      36.763  22.819  23.563  1.00  0.00     0.019 C 
ATOM     71  C   UNL A   1      37.628  22.901  25.698  1.00  0.00    -0.027 C 
BRANCH  65  72
ATOM     72  O   UNL A   1      33.985  21.705  24.009  1.00  0.00    -0.379 OA
ATOM     73  H   UNL A   1      33.415  21.018  24.389  1.00  0.00     0.212 HD
ENDBRANCH  65  72
ENDBRANCH  62  65
ENDBRANCH  60  61
ENDBRANCH  59  60
ENDBRANCH  58  59
ENDBRANCH   1  58
TORSDOF 14
ENDMDL
MODEL 2
REMARK VINA RESULT:      -9.6      2.608      8.136
REMARK SMILES O=C(NCCCCCCNC(=O)[C@]1(O)C[C@@H]2C=C[C@H]1C2)c1ccc(-c2c3nc(c(-c4ccccc4)c4ccc([nH]4)c(-c4ccccc4)c4nc(c(-c5ccccc5)c5ccc2[nH]5)C=C4)C=C3)cc1
REMARK SMILES IDX 6 1 5 2 4 3 3 4 1 5 2 6 21 8 22 9 68 10 23 11 67 12 24 13
REMARK SMILES IDX 25 14 26 15 61 16 27 17 66 18 60 19 62 20 28 21 65 22 59 23
REMARK SMILES IDX 58 24 29 26 51 27 36 28 50 29 37 30 40 31 49 32 63 33 38 34
REMARK SMILES IDX 39 35 48 37 64 38 41 39 30 40 31 41 35 42 32 43 34 44 33 45
REMARK SMILES IDX 52 46 53 47 57 48 54 49 56 50 55 51 42 52 43 53 47 54 44 55
REMARK SMILES IDX 46 56 45 57 7 58 8 59 9 60 10 61 11 62 12 64 13 65 15 66
REMARK SMILES IDX 19 67 16 68 18 69 20 70 17 71 14 72
REMARK H PARENT 3 7 62 25 40 36 10 63 14 73
REMARK Flexibility Score: inf
ROOT
ATOM      1  C   UNL A   1      34.928  23.318  24.391  1.00  0.00     0.002 C 
ENDROOT
BRANCH   1   2
ATOM      2  C   UNL A   1      36.406  23.031  24.128  1.00  0.00     0.021 C 
BRANCH   2   3
ATOM      3  C   UNL A   1      37.341  23.580  25.194  1.00  0.00     0.116 C 
BRANCH   3   4
ATOM      4  N   UNL A   1      38.402  22.639  25.518  1.00  0.00    -0.352 N 
ATOM      5  O   UNL A   1      40.482  22.037  26.166  1.00  0.00    -0.269 OA
ATOM      6  C   UNL A   1      39.594  22.884  26.148  1.00  0.00     0.251 C 
ATOM      7  H   UNL A   1      38.243  21.705  25.250  1.00  0.00     0.163 HD
BRANCH   6   8
ATOM      8  C   UNL A   1      39.803  24.189  26.804  1.00  0.00     0.039 A 
ATOM      9  C   UNL A   1      39.316  24.410  28.096  1.00  0.00     0.014 A 
ATOM     10  C   UNL A   1      40.506  25.192  26.131  1.00  0.00     0.014 A 
ATOM     11  C   UNL A   1      39.445  25.663  28.678  1.00  0.00     0.010 A 
ATOM     12  C   UNL A   1      40.711  26.424  26.753  1.00  0.00     0.010 A 
ATOM     13  C   UNL A   1      40.182  26.667  28.031  1.00  0.00    -0.014 A 
BRANCH  13  14
ATOM     14  C   UNL A   1      40.518  27.905  28.772  1.00  0.00     0.031 A 
ATOM     15  C   UNL A   1      41.813  28.051  29.514  1.00  0.00     0.074 A 
ATOM     16  C   UNL A   1      39.607  28.899  28.777  1.00  0.00     0.049 A 
ATOM     17  N   UNL A   1      42.229  29.057  30.240  1.00  0.00    -0.248 NA
ATOM     18  C   UNL A   1      42.761  26.928  29.443  1.00  0.00     0.031 C 
ATOM     19  C   UNL A   1      38.308  28.856  28.096  1.00  0.00     0.029 A 
ATOM     20  N   UNL A   1      39.627  30.133  29.372  1.00  0.00    -0.354 N 
ATOM     21  C   UNL A   1      43.472  28.683  30.732  1.00  0.00     0.074 A 
ATOM     22  C   UNL A   1      43.742  27.353  30.229  1.00  0.00     0.031 C 
ATOM     23  C   UNL A   1      37.669  30.018  28.291  1.00  0.00     0.029 A 
ATOM     24  C   UNL A   1      38.473  30.854  29.170  1.00  0.00     0.049 A 
ATOM     25  H   UNL A   1      40.392  30.471  29.892  1.00  0.00     0.167 HD
ATOM     26  C   UNL A   1      44.303  29.391  31.535  1.00  0.00     0.031 A 
ATOM     27  C   UNL A   1      38.083  32.038  29.674  1.00  0.00     0.031 A 
ATOM     28  C   UNL A   1      44.019  30.716  32.025  1.00  0.00     0.049 A 
ATOM     29  C   UNL A   1      39.007  32.766  30.604  1.00  0.00     0.074 A 
ATOM     30  C   UNL A   1      44.830  31.539  32.788  1.00  0.00     0.029 A 
ATOM     31  N   UNL A   1      42.831  31.399  31.823  1.00  0.00    -0.354 N 
ATOM     32  N   UNL A   1      40.215  32.437  30.991  1.00  0.00    -0.248 NA
ATOM     33  C   UNL A   1      38.513  34.027  31.173  1.00  0.00     0.031 C 
ATOM     34  C   UNL A   1      44.104  32.689  33.111  1.00  0.00     0.029 A 
ATOM     35  C   UNL A   1      42.866  32.611  32.492  1.00  0.00     0.049 A 
ATOM     36  H   UNL A   1      42.075  31.073  31.283  1.00  0.00     0.167 HD
ATOM     37  C   UNL A   1      40.629  33.453  31.838  1.00  0.00     0.074 A 
ATOM     38  C   UNL A   1      39.558  34.427  31.883  1.00  0.00     0.031 C 
ATOM     39  C   UNL A   1      41.789  33.565  32.529  1.00  0.00     0.031 A 
BRANCH  26  40
ATOM     40  C   UNL A   1      45.588  28.749  31.975  1.00  0.00    -0.014 A 
ATOM     41  C   UNL A   1      45.652  27.943  33.122  1.00  0.00     0.009 A 
ATOM     42  C   UNL A   1      46.730  28.867  31.165  1.00  0.00     0.009 A 
ATOM     43  C   UNL A   1      46.837  27.280  33.454  1.00  0.00     0.001 A 
ATOM     44  C   UNL A   1      47.904  28.184  31.485  1.00  0.00     0.001 A 
ATOM     45  C   UNL A   1      47.958  27.394  32.631  1.00  0.00     0.000 A 
ENDBRANCH  26  40
BRANCH  27  46
ATOM     46  C   UNL A   1      36.730  32.571  29.365  1.00  0.00    -0.014 A 
ATOM     47  C   UNL A   1      36.525  33.430  28.276  1.00  0.00     0.009 A 
ATOM     48  C   UNL A   1      35.635  32.239  30.181  1.00  0.00     0.009 A 
ATOM     49  C   UNL A   1      35.261  33.973  28.033  1.00  0.00     0.001 A 
ATOM     50  C   UNL A   1      34.366  32.753  29.914  1.00  0.00     0.001 A 
ATOM     51  C   UNL A   1      34.183  33.632  28.849  1.00  0.00     0.000 A 
ENDBRANCH  27  46
BRANCH  39  52
ATOM     52  C   UNL A   1      41.962  34.791  33.378  1.00  0.00    -0.014 A 
ATOM     53  C   UNL A   1      41.367  34.882  34.646  1.00  0.00     0.009 A 
ATOM     54  C   UNL A   1      42.766  35.848  32.924  1.00  0.00     0.009 A 
ATOM     55  C   UNL A   1      41.553  36.020  35.432  1.00  0.00     0.001 A 
ATOM     56  C   UNL A   1      42.975  36.971  33.724  1.00  0.00     0.001 A 
ATOM     57  C   UNL A   1      42.362  37.060  34.973  1.00  0.00     0.000 A 
ENDBRANCH  39  52
ENDBRANCH  13  14
ENDBRANCH   6   8
ENDBRANCH   3   4
ENDBRANCH   2   3
ENDBRANCH   1   2
BRANCH   1  58
ATOM     58  C   UNL A   1      34.083  23.518  23.128  1.00  0.00     0.002 C 
BRANCH  58  59
ATOM     59  C   UNL A   1      33.437  24.904  22.996  1.00  0.00     0.021 C 
BRANCH  59  60
ATOM     60  C   UNL A   1      33.635  25.792  24.222  1.00  0.00     0.116 C 
BRANCH  60  61
ATOM     61  N   UNL A   1      33.919  27.155  23.825  1.00  0.00    -0.354 N 
ATOM     62  C   UNL A   1      33.225  28.298  24.110  1.00  0.00     0.252 C 
ATOM     63  H   UNL A   1      34.725  27.277  23.272  1.00  0.00     0.163 HD
ATOM     64  O   UNL A   1      33.528  29.315  23.481  1.00  0.00    -0.272 OA
BRANCH  62  65
ATOM     65  C   UNL A   1      32.151  28.279  25.230  1.00  0.00     0.149 C 
ATOM     66  C   UNL A   1      31.571  29.699  25.545  1.00  0.00     0.053 C 
ATOM     67  C   UNL A   1      32.784  27.877  26.605  1.00  0.00     0.053 C 
ATOM     68  C   UNL A   1      31.977  29.917  27.022  1.00  0.00     0.015 C 
ATOM     69  C   UNL A   1      33.970  28.775  26.887  1.00  0.00    -0.024 C 
ATOM     70  C   UNL A   1      31.798  28.512  27.595  1.00  0.00     0.019 C 
ATOM     71  C   UNL A   1      33.483  30.007  27.105  1.00  0.00    -0.027 C 
BRANCH  65  72
ATOM     72  O   UNL A   1      31.077  27.401  24.874  1.00  0.00    -0.379 OA
ATOM     73  H   UNL A   1      30.470  27.313  25.625  1.00  0.00     0.212 HD
ENDBRANCH  65  72
ENDBRANCH  62  65
ENDBRANCH  60  61
ENDBRANCH  59  60
ENDBRANCH  58  59
ENDBRANCH   1  58
TORSDOF 14
ENDMDL
MODEL 3
REMARK VINA RESULT:      -9.5      2.553      7.501
REMARK SMILES O=C(NCCCCCCNC(=O)[C@]1(O)C[C@@H]2C=C[C@H]1C2)c1ccc(-c2c3nc(c(-c4ccccc4)c4ccc([nH]4)c(-c4ccccc4)c4nc(c(-c5ccccc5)c5ccc2[nH]5)C=C4)C=C3)cc1
REMARK SMILES IDX 6 1 5 2 4 3 3 4 1 5 2 6 21 8 22 9 68 10 23 11 67 12 24 13
REMARK SMILES IDX 25 14 26 15 61 16 27 17 66 18 60 19 62 20 28 21 65 22 59 23
REMARK SMILES IDX 58 24 29 26 51 27 36 28 50 29 37 30 40 31 49 32 63 33 38 34
REMARK SMILES IDX 39 35 48 37 64 38 41 39 30 40 31 41 35 42 32 43 34 44 33 45
REMARK SMILES IDX 52 46 53 47 57 48 54 49 56 50 55 51 42 52 43 53 47 54 44 55
REMARK SMILES IDX 46 56 45 57 7 58 8 59 9 60 10 61 11 62 12 64 13 65 15 66
REMARK SMILES IDX 19 67 16 68 18 69 20 70 17 71 14 72
REMARK H PARENT 3 7 62 25 40 36 10 63 14 73
REMARK Flexibility Score: inf
ROOT
ATOM      1  C   UNL A   1      37.403  20.862  24.609  1.00  0.00     0.002 C 
ENDROOT
BRANCH   1   2
ATOM      2  C   UNL A   1      38.315  19.685  24.956  1.00  0.00     0.021 C 
BRANCH   2   3
ATOM      3  C   UNL A   1      39.417  20.031  25.945  1.00  0.00     0.116 C 
BRANCH   3   4
ATOM      4  N   UNL A   1      40.454  19.011  25.977  1.00  0.00    -0.352 N 
ATOM      5  O   UNL A   1      42.577  18.242  25.897  1.00  0.00    -0.269 OA
ATOM      6  C   UNL A   1      41.808  19.178  26.098  1.00  0.00     0.251 C 
ATOM      7  H   UNL A   1      40.141  18.080  25.901  1.00  0.00     0.163 HD
BRANCH   6   8
ATOM      8  C   UNL A   1      42.337  20.504  26.467  1.00  0.00     0.039 A 
ATOM      9  C   UNL A   1      42.824  21.364  25.477  1.00  0.00     0.014 A 
ATOM     10  C   UNL A   1      42.329  20.900  27.806  1.00  0.00     0.014 A 
ATOM     11  C   UNL A   1      43.394  22.577  25.835  1.00  0.00     0.010 A 
ATOM     12  C   UNL A   1      42.823  22.157  28.156  1.00  0.00     0.010 A 
ATOM     13  C   UNL A   1      43.358  23.004  27.172  1.00  0.00    -0.014 A 
BRANCH  13  14
ATOM     14  C   UNL A   1      43.742  24.398  27.494  1.00  0.00     0.031 A 
ATOM     15  C   UNL A   1      42.721  25.425  27.884  1.00  0.00     0.074 A 
ATOM     16  C   UNL A   1      45.047  24.726  27.404  1.00  0.00     0.049 A 
ATOM     17  N   UNL A   1      42.902  26.693  28.154  1.00  0.00    -0.248 NA
ATOM     18  C   UNL A   1      41.321  24.983  27.977  1.00  0.00     0.031 C 
ATOM     19  C   UNL A   1      46.123  23.804  27.022  1.00  0.00     0.029 A 
ATOM     20  N   UNL A   1      45.693  25.914  27.623  1.00  0.00    -0.354 N 
ATOM     21  C   UNL A   1      41.640  27.207  28.425  1.00  0.00     0.074 A 
ATOM     22  C   UNL A   1      40.700  26.116  28.280  1.00  0.00     0.031 C 
ATOM     23  C   UNL A   1      47.294  24.455  27.057  1.00  0.00     0.029 A 
ATOM     24  C   UNL A   1      47.046  25.851  27.387  1.00  0.00     0.049 A 
ATOM     25  H   UNL A   1      45.233  26.732  27.920  1.00  0.00     0.167 HD
ATOM     26  C   UNL A   1      41.307  28.477  28.759  1.00  0.00     0.031 A 
ATOM     27  C   UNL A   1      47.980  26.818  27.389  1.00  0.00     0.031 A 
ATOM     28  C   UNL A   1      42.257  29.551  28.902  1.00  0.00     0.049 A 
ATOM     29  C   UNL A   1      47.563  28.222  27.709  1.00  0.00     0.074 A 
ATOM     30  C   UNL A   1      42.022  30.856  29.303  1.00  0.00     0.029 A 
ATOM     31  N   UNL A   1      43.611  29.454  28.627  1.00  0.00    -0.354 N 
ATOM     32  N   UNL A   1      46.380  28.674  28.046  1.00  0.00    -0.248 NA
ATOM     33  C   UNL A   1      48.608  29.252  27.643  1.00  0.00     0.031 C 
ATOM     34  C   UNL A   1      43.220  31.567  29.199  1.00  0.00     0.029 A 
ATOM     35  C   UNL A   1      44.215  30.689  28.797  1.00  0.00     0.049 A 
ATOM     36  H   UNL A   1      44.076  28.631  28.353  1.00  0.00     0.167 HD
ATOM     37  C   UNL A   1      46.541  30.037  28.243  1.00  0.00     0.074 A 
ATOM     38  C   UNL A   1      47.941  30.333  28.021  1.00  0.00     0.031 C 
ATOM     39  C   UNL A   1      45.608  30.966  28.568  1.00  0.00     0.031 A 
BRANCH  26  40
ATOM     40  C   UNL A   1      39.854  28.804  28.962  1.00  0.00    -0.014 A 
ATOM     41  C   UNL A   1      39.046  29.247  27.904  1.00  0.00     0.009 A 
ATOM     42  C   UNL A   1      39.262  28.561  30.212  1.00  0.00     0.009 A 
ATOM     43  C   UNL A   1      37.677  29.450  28.098  1.00  0.00     0.001 A 
ATOM     44  C   UNL A   1      37.890  28.740  30.397  1.00  0.00     0.001 A 
ATOM     45  C   UNL A   1      37.099  29.189  29.341  1.00  0.00     0.000 A 
ENDBRANCH  26  40
BRANCH  27  46
ATOM     46  C   UNL A   1      49.382  26.503  27.010  1.00  0.00    -0.014 A 
ATOM     47  C   UNL A   1      49.803  26.576  25.675  1.00  0.00     0.009 A 
ATOM     48  C   UNL A   1      50.306  26.100  27.989  1.00  0.00     0.009 A 
ATOM     49  C   UNL A   1      51.107  26.218  25.324  1.00  0.00     0.001 A 
ATOM     50  C   UNL A   1      51.618  25.778  27.642  1.00  0.00     0.001 A 
ATOM     51  C   UNL A   1      52.013  25.823  26.307  1.00  0.00     0.000 A 
ENDBRANCH  27  46
BRANCH  39  52
ATOM     52  C   UNL A   1      46.079  32.383  28.715  1.00  0.00    -0.014 A 
ATOM     53  C   UNL A   1      46.044  33.274  27.630  1.00  0.00     0.009 A 
ATOM     54  C   UNL A   1      46.522  32.846  29.964  1.00  0.00     0.009 A 
ATOM     55  C   UNL A   1      46.468  34.594  27.788  1.00  0.00     0.001 A 
ATOM     56  C   UNL A   1      46.915  34.174  30.126  1.00  0.00     0.001 A 
ATOM     57  C   UNL A   1      46.896  35.045  29.037  1.00  0.00     0.000 A 
ENDBRANCH  39  52
ENDBRANCH  13  14
ENDBRANCH   6   8
ENDBRANCH   3   4
ENDBRANCH   2   3
ENDBRANCH   1   2
BRANCH   1  58
ATOM     58  C   UNL A   1      37.688  22.144  25.399  1.00  0.00     0.002 C 
BRANCH  58  59
ATOM     59  C   UNL A   1      37.090  23.422  24.792  1.00  0.00     0.021 C 
BRANCH  59  60
ATOM     60  C   UNL A   1      36.060  24.103  25.688  1.00  0.00     0.116 C 
BRANCH  60  61
ATOM     61  N   UNL A   1      35.533  23.171  26.663  1.00  0.00    -0.354 N 
ATOM     62  C   UNL A   1      34.289  22.610  26.735  1.00  0.00     0.252 C 
ATOM     63  H   UNL A   1      36.159  22.903  27.374  1.00  0.00     0.163 HD
ATOM     64  O   UNL A   1      33.995  22.018  27.776  1.00  0.00    -0.272 OA
BRANCH  62  65
ATOM     65  C   UNL A   1      33.344  22.690  25.506  1.00  0.00     0.149 C 
ATOM     66  C   UNL A   1      31.927  22.084  25.784  1.00  0.00     0.053 C 
ATOM     67  C   UNL A   1      33.862  21.778  24.343  1.00  0.00     0.053 C 
ATOM     68  C   UNL A   1      31.850  20.911  24.779  1.00  0.00     0.015 C 
ATOM     69  C   UNL A   1      34.086  20.378  24.872  1.00  0.00    -0.024 C 
ATOM     70  C   UNL A   1      32.566  21.505  23.566  1.00  0.00     0.019 C 
ATOM     71  C   UNL A   1      32.877  19.872  25.163  1.00  0.00    -0.027 C 
BRANCH  65  72
ATOM     72  O   UNL A   1      33.199  24.049  25.078  1.00  0.00    -0.379 OA
ATOM     73  H   UNL A   1      33.722  24.627  25.656  1.00  0.00     0.212 HD
ENDBRANCH  65  72
ENDBRANCH  62  65
ENDBRANCH  60  61
ENDBRANCH  59  60
ENDBRANCH  58  59
ENDBRANCH   1  58
TORSDOF 14
ENDMDL
