MODEL 1
REMARK VINA RESULT:     -11.6      0.000      0.000
REMARK SMILES C[N@@H+]1CC[N@H+](Cc2ccc(C#CC(C)(C)O)s2)C[C@H]1C(=O)NCCCCCCNC(=O)c1ccc(-c2c3nc(c(-c4ccccc4)c4ccc([nH]4)c(-c4ccccc4)c4nc(c(-c5ccccc5)c5ccc2[nH]5)C=C4)C=C3)cc1
REMARK SMILES IDX 24 1 23 2 22 3 20 4 21 5 19 7 1 8 2 9 3 10 4 12 18 13 5 14
REMARK SMILES IDX 6 16 7 17 8 18 17 19 9 20 10 21 11 22 12 23 13 24 14 25
REMARK SMILES IDX 15 26 16 27 25 29 26 30 27 31 28 32 29 33 30 34 31 36 32 37
REMARK SMILES IDX 33 38 79 39 34 40 78 41 35 42 36 43 37 44 72 45 38 46 77 47
REMARK SMILES IDX 71 48 73 49 39 50 76 51 70 52 69 53 40 55 62 56 47 57 61 58
REMARK SMILES IDX 48 59 51 60 60 61 74 62 49 63 50 64 59 66 75 67 52 68 41 69
REMARK SMILES IDX 42 70 46 71 43 72 45 73 44 74 63 75 64 76 68 77 65 78 67 79
REMARK SMILES IDX 66 80 53 81 54 82 58 83 55 84 57 85 56 86
REMARK H PARENT 22 6 2 11 5 15 16 28 29 35 73 54 51 65
REMARK Flexibility Score: inf
ROOT
ATOM      1  C   UNL A   1      32.715  28.251  27.123  1.00  0.00     0.021 C 
ENDROOT
BRANCH   1   2
ATOM      2  C   UNL A   1      32.356  27.110  26.179  1.00  0.00     0.116 C 
BRANCH   2   3
ATOM      3  N   UNL A   1      31.641  26.059  26.872  1.00  0.00    -0.351 N 
ATOM      4  C   UNL A   1      31.621  24.724  26.594  1.00  0.00     0.284 C 
ATOM      5  O   UNL A   1      30.877  24.003  27.263  1.00  0.00    -0.268 OA
ATOM      6  H   UNL A   1      31.099  26.345  27.643  1.00  0.00     0.163 HD
BRANCH   4   7
ATOM      7  C   UNL A   1      32.543  24.144  25.511  1.00  0.00     0.329 C 
ATOM      8  C   UNL A   1      34.013  22.938  27.031  1.00  0.00     0.333 C 
ATOM      9  N   UNL A   1      33.073  22.807  25.910  1.00  0.00    -0.318 N 
ATOM     10  C   UNL A   1      33.718  22.131  24.777  1.00  0.00     0.325 C 
ATOM     11  H   UNL A   1      32.284  22.236  26.212  1.00  0.00     0.348 HD
ATOM     12  C   UNL A   1      32.934  22.179  23.441  1.00  0.00     0.324 C 
ATOM     13  C   UNL A   1      31.768  24.181  24.160  1.00  0.00     0.339 C 
ATOM     14  N   UNL A   1      32.379  23.472  23.024  1.00  0.00    -0.320 N 
ATOM     15  H   UNL A   1      31.628  23.242  22.375  1.00  0.00     0.348 HD
BRANCH  14  16
ATOM     16  C   UNL A   1      33.238  24.304  22.168  1.00  0.00     0.310 C 
BRANCH  16  17
ATOM     17  C   UNL A   1      32.907  25.760  22.189  1.00  0.00     0.060 A 
ATOM     18  C   UNL A   1      33.687  26.825  22.599  1.00  0.00     0.022 A 
ATOM     19  S   UNL A   1      31.366  26.304  21.666  1.00  0.00    -0.126 S 
ATOM     20  C   UNL A   1      32.897  27.987  22.835  1.00  0.00     0.029 A 
ATOM     21  C   UNL A   1      31.586  27.794  22.468  1.00  0.00     0.077 A 
BRANCH  21  22
ATOM     22  C   UNL A   1      30.545  28.744  22.605  1.00  0.00    -0.053 C 
ATOM     23  C   UNL A   1      29.747  29.766  22.473  1.00  0.00    -0.063 C 
BRANCH  23  24
ATOM     24  C   UNL A   1      28.815  30.957  22.319  1.00  0.00     0.120 C 
ATOM     25  C   UNL A   1      28.048  30.847  21.004  1.00  0.00     0.056 C 
ATOM     26  C   UNL A   1      27.864  31.024  23.512  1.00  0.00     0.056 C 
BRANCH  24  27
ATOM     27  O   UNL A   1      29.607  32.140  22.296  1.00  0.00    -0.378 OA
ATOM     28  H   UNL A   1      29.076  32.891  22.606  1.00  0.00     0.212 HD
ENDBRANCH  24  27
ENDBRANCH  23  24
ENDBRANCH  21  22
ENDBRANCH  16  17
ENDBRANCH  14  16
ENDBRANCH   4   7
ENDBRANCH   2   3
ENDBRANCH   1   2
BRANCH   1  29
ATOM     29  C   UNL A   1      32.821  29.609  26.425  1.00  0.00     0.002 C 
BRANCH  29  30
ATOM     30  C   UNL A   1      31.478  30.272  26.080  1.00  0.00     0.002 C 
BRANCH  30  31
ATOM     31  C   UNL A   1      31.383  31.779  26.359  1.00  0.00     0.021 C 
BRANCH  31  32
ATOM     32  C   UNL A   1      32.522  32.304  27.212  1.00  0.00     0.116 C 
BRANCH  32  33
ATOM     33  N   UNL A   1      32.331  33.702  27.581  1.00  0.00    -0.352 N 
ATOM     34  C   UNL A   1      33.027  34.438  28.517  1.00  0.00     0.251 C 
ATOM     35  H   UNL A   1      31.617  34.180  27.101  1.00  0.00     0.163 HD
ATOM     36  O   UNL A   1      32.562  35.462  28.988  1.00  0.00    -0.269 OA
BRANCH  34  37
ATOM     37  C   UNL A   1      34.358  33.962  28.933  1.00  0.00     0.039 A 
ATOM     38  C   UNL A   1      34.545  33.338  30.169  1.00  0.00     0.014 A 
ATOM     39  C   UNL A   1      35.425  34.147  28.056  1.00  0.00     0.014 A 
ATOM     40  C   UNL A   1      35.807  32.843  30.486  1.00  0.00     0.010 A 
ATOM     41  C   UNL A   1      36.625  33.534  28.302  1.00  0.00     0.010 A 
ATOM     42  C   UNL A   1      36.839  32.933  29.537  1.00  0.00    -0.014 A 
BRANCH  42  43
ATOM     43  C   UNL A   1      38.119  32.268  29.754  1.00  0.00     0.031 A 
ATOM     44  C   UNL A   1      38.111  30.833  29.363  1.00  0.00     0.074 A 
ATOM     45  C   UNL A   1      39.250  32.949  30.045  1.00  0.00     0.049 A 
ATOM     46  N   UNL A   1      38.212  29.808  30.141  1.00  0.00    -0.248 NA
ATOM     47  C   UNL A   1      37.791  30.486  27.966  1.00  0.00     0.031 C 
ATOM     48  C   UNL A   1      39.417  34.407  30.142  1.00  0.00     0.029 A 
ATOM     49  N   UNL A   1      40.526  32.499  30.192  1.00  0.00    -0.354 N 
ATOM     50  C   UNL A   1      38.204  28.693  29.306  1.00  0.00     0.074 A 
ATOM     51  C   UNL A   1      37.743  29.154  28.024  1.00  0.00     0.031 C 
ATOM     52  C   UNL A   1      40.731  34.722  30.078  1.00  0.00     0.029 A 
ATOM     53  C   UNL A   1      41.500  33.492  30.116  1.00  0.00     0.049 A 
ATOM     54  H   UNL A   1      40.744  31.549  30.340  1.00  0.00     0.167 HD
ATOM     55  C   UNL A   1      38.879  27.563  29.658  1.00  0.00     0.031 A 
ATOM     56  C   UNL A   1      42.844  33.322  30.074  1.00  0.00     0.031 A 
ATOM     57  C   UNL A   1      39.266  27.610  31.047  1.00  0.00     0.049 A 
ATOM     58  C   UNL A   1      43.124  31.971  30.597  1.00  0.00     0.074 A 
ATOM     59  C   UNL A   1      38.628  27.589  32.266  1.00  0.00     0.029 A 
ATOM     60  N   UNL A   1      40.522  28.124  31.253  1.00  0.00    -0.354 N 
ATOM     61  N   UNL A   1      42.920  31.632  31.837  1.00  0.00    -0.248 NA
ATOM     62  C   UNL A   1      43.258  30.867  29.660  1.00  0.00     0.031 C 
ATOM     63  C   UNL A   1      39.432  28.398  33.127  1.00  0.00     0.029 A 
ATOM     64  C   UNL A   1      40.562  28.824  32.424  1.00  0.00     0.049 A 
ATOM     65  H   UNL A   1      41.285  28.004  30.643  1.00  0.00     0.167 HD
ATOM     66  C   UNL A   1      42.439  30.336  31.762  1.00  0.00     0.074 A 
ATOM     67  C   UNL A   1      42.833  29.866  30.436  1.00  0.00     0.031 C 
ATOM     68  C   UNL A   1      41.510  29.891  32.659  1.00  0.00     0.031 A 
BRANCH  55  69
ATOM     69  C   UNL A   1      39.674  26.719  28.675  1.00  0.00    -0.014 A 
ATOM     70  C   UNL A   1      40.608  27.376  27.847  1.00  0.00     0.009 A 
ATOM     71  C   UNL A   1      39.322  25.409  28.300  1.00  0.00     0.009 A 
ATOM     72  C   UNL A   1      41.073  26.797  26.659  1.00  0.00     0.001 A 
ATOM     73  C   UNL A   1      39.813  24.814  27.133  1.00  0.00     0.001 A 
ATOM     74  C   UNL A   1      40.664  25.520  26.296  1.00  0.00     0.000 A 
ENDBRANCH  55  69
BRANCH  56  75
ATOM     75  C   UNL A   1      43.894  34.135  29.424  1.00  0.00    -0.014 A 
ATOM     76  C   UNL A   1      45.188  34.216  29.965  1.00  0.00     0.009 A 
ATOM     77  C   UNL A   1      43.707  34.592  28.107  1.00  0.00     0.009 A 
ATOM     78  C   UNL A   1      46.263  34.694  29.201  1.00  0.00     0.001 A 
ATOM     79  C   UNL A   1      44.781  35.067  27.344  1.00  0.00     0.001 A 
ATOM     80  C   UNL A   1      46.062  35.104  27.886  1.00  0.00     0.000 A 
ENDBRANCH  56  75
BRANCH  68  81
ATOM     81  C   UNL A   1      41.330  30.691  33.924  1.00  0.00    -0.014 A 
ATOM     82  C   UNL A   1      42.037  30.446  35.113  1.00  0.00     0.009 A 
ATOM     83  C   UNL A   1      40.487  31.809  33.864  1.00  0.00     0.009 A 
ATOM     84  C   UNL A   1      41.879  31.288  36.221  1.00  0.00     0.001 A 
ATOM     85  C   UNL A   1      40.347  32.660  34.960  1.00  0.00     0.001 A 
ATOM     86  C   UNL A   1      41.039  32.396  36.140  1.00  0.00     0.000 A 
ENDBRANCH  68  81
ENDBRANCH  42  43
ENDBRANCH  34  37
ENDBRANCH  32  33
ENDBRANCH  31  32
ENDBRANCH  30  31
ENDBRANCH  29  30
ENDBRANCH   1  29
TORSDOF 18
ENDMDL
MODEL 2
REMARK VINA RESULT:     -11.3      2.690      6.299
REMARK SMILES C[N@@H+]1CC[N@H+](Cc2ccc(C#CC(C)(C)O)s2)C[C@H]1C(=O)NCCCCCCNC(=O)c1ccc(-c2c3nc(c(-c4ccccc4)c4ccc([nH]4)c(-c4ccccc4)c4nc(c(-c5ccccc5)c5ccc2[nH]5)C=C4)C=C3)cc1
REMARK SMILES IDX 24 1 23 2 22 3 20 4 21 5 19 7 1 8 2 9 3 10 4 12 18 13 5 14
REMARK SMILES IDX 6 16 7 17 8 18 17 19 9 20 10 21 11 22 12 23 13 24 14 25
REMARK SMILES IDX 15 26 16 27 25 29 26 30 27 31 28 32 29 33 30 34 31 36 32 37
REMARK SMILES IDX 33 38 79 39 34 40 78 41 35 42 36 43 37 44 72 45 38 46 77 47
REMARK SMILES IDX 71 48 73 49 39 50 76 51 70 52 69 53 40 55 62 56 47 57 61 58
REMARK SMILES IDX 48 59 51 60 60 61 74 62 49 63 50 64 59 66 75 67 52 68 41 69
REMARK SMILES IDX 42 70 46 71 43 72 45 73 44 74 63 75 64 76 68 77 65 78 67 79
REMARK SMILES IDX 66 80 53 81 54 82 58 83 55 84 57 85 56 86
REMARK H PARENT 22 6 2 11 5 15 16 28 29 35 73 54 51 65
REMARK Flexibility Score: inf
ROOT
ATOM      1  C   UNL A   1      31.066  27.163  26.645  1.00  0.00     0.021 C 
ENDROOT
BRANCH   1   2
ATOM      2  C   UNL A   1      31.846  25.859  26.523  1.00  0.00     0.116 C 
BRANCH   2   3
ATOM      3  N   UNL A   1      31.025  24.720  26.873  1.00  0.00    -0.351 N 
ATOM      4  C   UNL A   1      30.965  23.501  26.265  1.00  0.00     0.284 C 
ATOM      5  O   UNL A   1      30.132  22.688  26.674  1.00  0.00    -0.268 OA
ATOM      6  H   UNL A   1      30.433  24.840  27.651  1.00  0.00     0.163 HD
BRANCH   4   7
ATOM      7  C   UNL A   1      31.948  23.148  25.138  1.00  0.00     0.329 C 
ATOM      8  C   UNL A   1      33.159  21.433  26.369  1.00  0.00     0.333 C 
ATOM      9  N   UNL A   1      32.333  21.707  25.187  1.00  0.00    -0.318 N 
ATOM     10  C   UNL A   1      33.039  21.303  23.964  1.00  0.00     0.325 C 
ATOM     11  H   UNL A   1      31.477  21.158  25.253  1.00  0.00     0.348 HD
ATOM     12  C   UNL A   1      32.402  21.792  22.638  1.00  0.00     0.324 C 
ATOM     13  C   UNL A   1      31.321  23.629  23.795  1.00  0.00     0.339 C 
ATOM     14  N   UNL A   1      31.992  23.198  22.558  1.00  0.00    -0.320 N 
ATOM     15  H   UNL A   1      31.297  23.231  21.813  1.00  0.00     0.348 HD
BRANCH  14  16
ATOM     16  C   UNL A   1      32.993  24.142  22.039  1.00  0.00     0.310 C 
BRANCH  16  17
ATOM     17  C   UNL A   1      32.684  25.579  22.300  1.00  0.00     0.060 A 
ATOM     18  C   UNL A   1      33.388  26.499  23.053  1.00  0.00     0.022 A 
ATOM     19  S   UNL A   1      31.272  26.294  21.635  1.00  0.00    -0.126 S 
ATOM     20  C   UNL A   1      32.583  27.629  23.378  1.00  0.00     0.029 A 
ATOM     21  C   UNL A   1      31.360  27.580  22.752  1.00  0.00     0.077 A 
BRANCH  21  22
ATOM     22  C   UNL A   1      30.324  28.534  22.895  1.00  0.00    -0.053 C 
ATOM     23  C   UNL A   1      29.259  29.270  22.742  1.00  0.00    -0.063 C 
BRANCH  23  24
ATOM     24  C   UNL A   1      28.017  30.129  22.564  1.00  0.00     0.120 C 
ATOM     25  C   UNL A   1      28.004  31.241  23.609  1.00  0.00     0.056 C 
ATOM     26  C   UNL A   1      27.985  30.699  21.147  1.00  0.00     0.056 C 
BRANCH  24  27
ATOM     27  O   UNL A   1      26.875  29.301  22.752  1.00  0.00    -0.378 OA
ATOM     28  H   UNL A   1      26.633  28.886  21.909  1.00  0.00     0.212 HD
ENDBRANCH  24  27
ENDBRANCH  23  24
ENDBRANCH  21  22
ENDBRANCH  16  17
ENDBRANCH  14  16
ENDBRANCH   4   7
ENDBRANCH   2   3
ENDBRANCH   1   2
BRANCH   1  29
ATOM     29  C   UNL A   1      31.777  28.222  27.492  1.00  0.00     0.002 C 
BRANCH  29  30
ATOM     30  C   UNL A   1      32.209  29.484  26.729  1.00  0.00     0.002 C 
BRANCH  30  31
ATOM     31  C   UNL A   1      33.650  29.484  26.196  1.00  0.00     0.021 C 
BRANCH  31  32
ATOM     32  C   UNL A   1      34.691  29.652  27.286  1.00  0.00     0.116 C 
BRANCH  32  33
ATOM     33  N   UNL A   1      34.636  30.976  27.897  1.00  0.00    -0.352 N 
ATOM     34  C   UNL A   1      35.328  31.435  28.998  1.00  0.00     0.251 C 
ATOM     35  H   UNL A   1      34.030  31.622  27.469  1.00  0.00     0.163 HD
ATOM     36  O   UNL A   1      34.949  32.412  29.621  1.00  0.00    -0.269 OA
BRANCH  34  37
ATOM     37  C   UNL A   1      36.550  30.719  29.405  1.00  0.00     0.039 A 
ATOM     38  C   UNL A   1      36.496  29.664  30.320  1.00  0.00     0.014 A 
ATOM     39  C   UNL A   1      37.763  31.121  28.847  1.00  0.00     0.014 A 
ATOM     40  C   UNL A   1      37.669  28.974  30.617  1.00  0.00     0.010 A 
ATOM     41  C   UNL A   1      38.884  30.354  29.026  1.00  0.00     0.010 A 
ATOM     42  C   UNL A   1      38.857  29.318  29.952  1.00  0.00    -0.014 A 
BRANCH  42  43
ATOM     43  C   UNL A   1      40.060  28.507  30.097  1.00  0.00     0.031 A 
ATOM     44  C   UNL A   1      40.561  28.441  31.496  1.00  0.00     0.074 A 
ATOM     45  C   UNL A   1      40.520  27.708  29.109  1.00  0.00     0.049 A 
ATOM     46  N   UNL A   1      41.655  28.942  31.962  1.00  0.00    -0.248 NA
ATOM     47  C   UNL A   1      39.668  27.897  32.538  1.00  0.00     0.031 C 
ATOM     48  C   UNL A   1      39.908  27.469  27.792  1.00  0.00     0.029 A 
ATOM     49  N   UNL A   1      41.564  26.834  29.107  1.00  0.00    -0.354 N 
ATOM     50  C   UNL A   1      41.702  28.574  33.305  1.00  0.00     0.074 A 
ATOM     51  C   UNL A   1      40.380  28.120  33.644  1.00  0.00     0.031 C 
ATOM     52  C   UNL A   1      40.435  26.354  27.239  1.00  0.00     0.029 A 
ATOM     53  C   UNL A   1      41.536  25.905  28.070  1.00  0.00     0.049 A 
ATOM     54  H   UNL A   1      42.280  26.857  29.784  1.00  0.00     0.167 HD
ATOM     55  C   UNL A   1      42.900  28.375  33.925  1.00  0.00     0.031 A 
ATOM     56  C   UNL A   1      42.350  24.833  27.907  1.00  0.00     0.031 A 
ATOM     57  C   UNL A   1      43.981  28.895  33.124  1.00  0.00     0.049 A 
ATOM     58  C   UNL A   1      43.553  25.076  28.726  1.00  0.00     0.074 A 
ATOM     59  C   UNL A   1      44.418  30.133  32.711  1.00  0.00     0.029 A 
ATOM     60  N   UNL A   1      44.544  27.964  32.287  1.00  0.00    -0.354 N 
ATOM     61  N   UNL A   1      44.412  26.018  28.467  1.00  0.00    -0.248 NA
ATOM     62  C   UNL A   1      43.607  24.532  30.074  1.00  0.00     0.031 C 
ATOM     63  C   UNL A   1      44.993  29.920  31.420  1.00  0.00     0.029 A 
ATOM     64  C   UNL A   1      44.949  28.555  31.125  1.00  0.00     0.049 A 
ATOM     65  H   UNL A   1      44.642  27.007  32.495  1.00  0.00     0.167 HD
ATOM     66  C   UNL A   1      44.778  26.500  29.712  1.00  0.00     0.074 A 
ATOM     67  C   UNL A   1      44.395  25.446  30.648  1.00  0.00     0.031 C 
ATOM     68  C   UNL A   1      45.068  27.823  29.881  1.00  0.00     0.031 A 
BRANCH  55  69
ATOM     69  C   UNL A   1      43.158  27.252  34.914  1.00  0.00    -0.014 A 
ATOM     70  C   UNL A   1      43.294  25.943  34.405  1.00  0.00     0.009 A 
ATOM     71  C   UNL A   1      42.943  27.361  36.301  1.00  0.00     0.009 A 
ATOM     72  C   UNL A   1      43.117  24.816  35.217  1.00  0.00     0.001 A 
ATOM     73  C   UNL A   1      42.802  26.237  37.121  1.00  0.00     0.001 A 
ATOM     74  C   UNL A   1      42.857  24.964  36.574  1.00  0.00     0.000 A 
ENDBRANCH  55  69
BRANCH  56  75
ATOM     75  C   UNL A   1      42.092  23.520  27.279  1.00  0.00    -0.014 A 
ATOM     76  C   UNL A   1      42.781  23.121  26.121  1.00  0.00     0.009 A 
ATOM     77  C   UNL A   1      41.383  22.534  27.989  1.00  0.00     0.009 A 
ATOM     78  C   UNL A   1      42.797  21.778  25.716  1.00  0.00     0.001 A 
ATOM     79  C   UNL A   1      41.401  21.193  27.585  1.00  0.00     0.001 A 
ATOM     80  C   UNL A   1      42.121  20.813  26.457  1.00  0.00     0.000 A 
ENDBRANCH  56  75
BRANCH  68  81
ATOM     81  C   UNL A   1      45.357  28.634  28.644  1.00  0.00    -0.014 A 
ATOM     82  C   UNL A   1      44.363  29.156  27.799  1.00  0.00     0.009 A 
ATOM     83  C   UNL A   1      46.694  28.974  28.394  1.00  0.00     0.009 A 
ATOM     84  C   UNL A   1      44.706  29.975  26.717  1.00  0.00     0.001 A 
ATOM     85  C   UNL A   1      47.034  29.807  27.329  1.00  0.00     0.001 A 
ATOM     86  C   UNL A   1      46.041  30.303  26.487  1.00  0.00     0.000 A 
ENDBRANCH  68  81
ENDBRANCH  42  43
ENDBRANCH  34  37
ENDBRANCH  32  33
ENDBRANCH  31  32
ENDBRANCH  30  31
ENDBRANCH  29  30
ENDBRANCH   1  29
TORSDOF 18
ENDMDL
MODEL 3
REMARK VINA RESULT:     -11.1      4.000      8.608
REMARK SMILES C[N@@H+]1CC[N@H+](Cc2ccc(C#CC(C)(C)O)s2)C[C@H]1C(=O)NCCCCCCNC(=O)c1ccc(-c2c3nc(c(-c4ccccc4)c4ccc([nH]4)c(-c4ccccc4)c4nc(c(-c5ccccc5)c5ccc2[nH]5)C=C4)C=C3)cc1
REMARK SMILES IDX 24 1 23 2 22 3 20 4 21 5 19 7 1 8 2 9 3 10 4 12 18 13 5 14
REMARK SMILES IDX 6 16 7 17 8 18 17 19 9 20 10 21 11 22 12 23 13 24 14 25
REMARK SMILES IDX 15 26 16 27 25 29 26 30 27 31 28 32 29 33 30 34 31 36 32 37
REMARK SMILES IDX 33 38 79 39 34 40 78 41 35 42 36 43 37 44 72 45 38 46 77 47
REMARK SMILES IDX 71 48 73 49 39 50 76 51 70 52 69 53 40 55 62 56 47 57 61 58
REMARK SMILES IDX 48 59 51 60 60 61 74 62 49 63 50 64 59 66 75 67 52 68 41 69
REMARK SMILES IDX 42 70 46 71 43 72 45 73 44 74 63 75 64 76 68 77 65 78 67 79
REMARK SMILES IDX 66 80 53 81 54 82 58 83 55 84 57 85 56 86
REMARK H PARENT 22 6 2 11 5 15 16 28 29 35 73 54 51 65
REMARK Flexibility Score: inf
ROOT
ATOM      1  C   UNL A   1      34.042  30.532  27.533  1.00  0.00     0.021 C 
ENDROOT
BRANCH   1   2
ATOM      2  C   UNL A   1      33.362  29.498  26.642  1.00  0.00     0.116 C 
BRANCH   2   3
ATOM      3  N   UNL A   1      33.728  29.678  25.253  1.00  0.00    -0.351 N 
ATOM      4  C   UNL A   1      33.363  28.924  24.177  1.00  0.00     0.284 C 
ATOM      5  O   UNL A   1      33.853  29.201  23.081  1.00  0.00    -0.268 OA
ATOM      6  H   UNL A   1      34.316  30.444  25.060  1.00  0.00     0.163 HD
BRANCH   4   7
ATOM      7  C   UNL A   1      32.330  27.797  24.336  1.00  0.00     0.329 C 
ATOM      8  C   UNL A   1      30.387  29.132  23.730  1.00  0.00     0.333 C 
ATOM      9  N   UNL A   1      31.199  27.961  23.376  1.00  0.00    -0.318 N 
ATOM     10  C   UNL A   1      30.364  26.754  23.327  1.00  0.00     0.325 C 
ATOM     11  H   UNL A   1      31.596  28.109  22.449  1.00  0.00     0.348 HD
ATOM     12  C   UNL A   1      31.139  25.414  23.242  1.00  0.00     0.324 C 
ATOM     13  C   UNL A   1      33.092  26.441  24.249  1.00  0.00     0.339 C 
ATOM     14  N   UNL A   1      32.270  25.223  24.156  1.00  0.00    -0.320 N 
ATOM     15  H   UNL A   1      32.847  24.505  23.719  1.00  0.00     0.348 HD
BRANCH  14  16
ATOM     16  C   UNL A   1      31.967  24.584  25.445  1.00  0.00     0.310 C 
BRANCH  16  17
ATOM     17  C   UNL A   1      32.669  23.286  25.673  1.00  0.00     0.060 A 
ATOM     18  C   UNL A   1      34.023  23.038  25.801  1.00  0.00     0.022 A 
ATOM     19  S   UNL A   1      31.771  21.828  25.796  1.00  0.00    -0.126 S 
ATOM     20  C   UNL A   1      34.317  21.656  25.615  1.00  0.00     0.029 A 
ATOM     21  C   UNL A   1      33.172  20.904  25.490  1.00  0.00     0.077 A 
BRANCH  21  22
ATOM     22  C   UNL A   1      33.126  19.507  25.264  1.00  0.00    -0.053 C 
ATOM     23  C   UNL A   1      33.356  18.287  24.866  1.00  0.00    -0.063 C 
BRANCH  23  24
ATOM     24  C   UNL A   1      33.623  16.865  24.402  1.00  0.00     0.120 C 
ATOM     25  C   UNL A   1      33.970  16.863  22.915  1.00  0.00     0.056 C 
ATOM     26  C   UNL A   1      34.748  16.254  25.235  1.00  0.00     0.056 C 
BRANCH  24  27
ATOM     27  O   UNL A   1      32.437  16.103  24.602  1.00  0.00    -0.378 OA
ATOM     28  H   UNL A   1      32.295  15.970  25.553  1.00  0.00     0.212 HD
ENDBRANCH  24  27
ENDBRANCH  23  24
ENDBRANCH  21  22
ENDBRANCH  16  17
ENDBRANCH  14  16
ENDBRANCH   4   7
ENDBRANCH   2   3
ENDBRANCH   1   2
BRANCH   1  29
ATOM     29  C   UNL A   1      35.525  30.244  27.776  1.00  0.00     0.002 C 
BRANCH  29  30
ATOM     30  C   UNL A   1      36.037  30.602  29.181  1.00  0.00     0.002 C 
BRANCH  30  31
ATOM     31  C   UNL A   1      36.221  32.100  29.467  1.00  0.00     0.021 C 
BRANCH  31  32
ATOM     32  C   UNL A   1      37.475  32.679  28.841  1.00  0.00     0.116 C 
BRANCH  32  33
ATOM     33  N   UNL A   1      38.148  33.617  29.732  1.00  0.00    -0.352 N 
ATOM     34  C   UNL A   1      39.023  33.337  30.760  1.00  0.00     0.251 C 
ATOM     35  H   UNL A   1      37.954  34.570  29.579  1.00  0.00     0.163 HD
ATOM     36  O   UNL A   1      39.239  34.148  31.645  1.00  0.00    -0.269 OA
BRANCH  34  37
ATOM     37  C   UNL A   1      39.703  32.030  30.764  1.00  0.00     0.039 A 
ATOM     38  C   UNL A   1      39.116  30.914  31.366  1.00  0.00     0.014 A 
ATOM     39  C   UNL A   1      40.949  31.936  30.145  1.00  0.00     0.014 A 
ATOM     40  C   UNL A   1      39.766  29.686  31.281  1.00  0.00     0.010 A 
ATOM     41  C   UNL A   1      41.515  30.707  29.935  1.00  0.00     0.010 A 
ATOM     42  C   UNL A   1      40.960  29.590  30.548  1.00  0.00    -0.014 A 
BRANCH  42  43
ATOM     43  C   UNL A   1      41.575  28.295  30.281  1.00  0.00     0.031 A 
ATOM     44  C   UNL A   1      42.388  27.783  31.416  1.00  0.00     0.074 A 
ATOM     45  C   UNL A   1      41.236  27.537  29.214  1.00  0.00     0.049 A 
ATOM     46  N   UNL A   1      43.669  27.627  31.455  1.00  0.00    -0.248 NA
ATOM     47  C   UNL A   1      41.726  27.573  32.718  1.00  0.00     0.031 C 
ATOM     48  C   UNL A   1      40.207  27.824  28.203  1.00  0.00     0.029 A 
ATOM     49  N   UNL A   1      41.644  26.285  28.867  1.00  0.00    -0.354 N 
ATOM     50  C   UNL A   1      43.948  27.077  32.705  1.00  0.00     0.074 A 
ATOM     51  C   UNL A   1      42.762  27.257  33.498  1.00  0.00     0.031 C 
ATOM     52  C   UNL A   1      39.903  26.693  27.527  1.00  0.00     0.029 A 
ATOM     53  C   UNL A   1      40.831  25.654  27.929  1.00  0.00     0.049 A 
ATOM     54  H   UNL A   1      42.448  25.861  29.248  1.00  0.00     0.167 HD
ATOM     55  C   UNL A   1      45.013  26.242  32.869  1.00  0.00     0.031 A 
ATOM     56  C   UNL A   1      40.903  24.364  27.517  1.00  0.00     0.031 A 
ATOM     57  C   UNL A   1      45.891  26.305  31.727  1.00  0.00     0.049 A 
ATOM     58  C   UNL A   1      42.255  23.878  27.855  1.00  0.00     0.074 A 
ATOM     59  C   UNL A   1      46.730  27.235  31.157  1.00  0.00     0.029 A 
ATOM     60  N   UNL A   1      45.619  25.361  30.769  1.00  0.00    -0.354 N 
ATOM     61  N   UNL A   1      43.336  24.329  27.287  1.00  0.00    -0.248 NA
ATOM     62  C   UNL A   1      42.455  23.172  29.110  1.00  0.00     0.031 C 
ATOM     63  C   UNL A   1      46.681  26.979  29.752  1.00  0.00     0.029 A 
ATOM     64  C   UNL A   1      45.872  25.862  29.525  1.00  0.00     0.049 A 
ATOM     65  H   UNL A   1      45.288  24.453  30.952  1.00  0.00     0.167 HD
ATOM     66  C   UNL A   1      44.265  24.380  28.312  1.00  0.00     0.074 A 
ATOM     67  C   UNL A   1      43.727  23.503  29.349  1.00  0.00     0.031 C 
ATOM     68  C   UNL A   1      45.211  25.364  28.337  1.00  0.00     0.031 A 
BRANCH  55  69
ATOM     69  C   UNL A   1      44.975  24.992  33.732  1.00  0.00    -0.014 A 
ATOM     70  C   UNL A   1      46.165  24.605  34.383  1.00  0.00     0.009 A 
ATOM     71  C   UNL A   1      43.956  24.024  33.669  1.00  0.00     0.009 A 
ATOM     72  C   UNL A   1      46.359  23.296  34.842  1.00  0.00     0.001 A 
ATOM     73  C   UNL A   1      44.134  22.726  34.159  1.00  0.00     0.001 A 
ATOM     74  C   UNL A   1      45.348  22.353  34.717  1.00  0.00     0.000 A 
ENDBRANCH  55  69
BRANCH  56  75
ATOM     75  C   UNL A   1      39.843  23.445  27.051  1.00  0.00    -0.014 A 
ATOM     76  C   UNL A   1      38.612  23.934  26.585  1.00  0.00     0.009 A 
ATOM     77  C   UNL A   1      40.155  22.100  26.784  1.00  0.00     0.009 A 
ATOM     78  C   UNL A   1      37.745  23.119  25.841  1.00  0.00     0.001 A 
ATOM     79  C   UNL A   1      39.291  21.287  26.040  1.00  0.00     0.001 A 
ATOM     80  C   UNL A   1      38.093  21.802  25.555  1.00  0.00     0.000 A 
ENDBRANCH  56  75
BRANCH  68  81
ATOM     81  C   UNL A   1      45.457  26.122  27.058  1.00  0.00    -0.014 A 
ATOM     82  C   UNL A   1      44.727  27.257  26.667  1.00  0.00     0.009 A 
ATOM     83  C   UNL A   1      46.552  25.729  26.275  1.00  0.00     0.009 A 
ATOM     84  C   UNL A   1      45.072  27.961  25.506  1.00  0.00     0.001 A 
ATOM     85  C   UNL A   1      46.909  26.442  25.132  1.00  0.00     0.001 A 
ATOM     86  C   UNL A   1      46.165  27.555  24.744  1.00  0.00     0.000 A 
ENDBRANCH  68  81
ENDBRANCH  42  43
ENDBRANCH  34  37
ENDBRANCH  32  33
ENDBRANCH  31  32
ENDBRANCH  30  31
ENDBRANCH  29  30
ENDBRANCH   1  29
TORSDOF 18
ENDMDL
