MODEL 1
REMARK VINA RESULT:     -11.1      0.000      0.000
REMARK SMILES O=Cc1ccc2c(c1)C=C(C(=O)NCCCCCCNC(=O)c1ccc(-c3c4nc(c(-c5ccccc5)c5ccc([nH]5)c(-c5ccccc5)c5nc(c(-c6ccccc6)c6ccc3[nH]6)C=C5)C=C4)cc1)[C@H](C(F)(F)F)O2
REMARK SMILES IDX 17 1 16 2 15 3 14 4 13 5 11 6 12 7 10 9 3 10 4 11 8 12 5 13
REMARK SMILES IDX 7 14 6 15 9 16 76 17 71 18 2 19 1 20 72 21 73 22 74 23 75 24
REMARK SMILES IDX 18 25 19 26 20 27 21 28 22 30 23 31 24 32 70 33 25 34 69 35
REMARK SMILES IDX 26 36 27 37 28 38 63 39 29 40 68 41 62 42 64 43 30 44 67 45
REMARK SMILES IDX 61 46 60 47 31 49 53 50 38 51 52 52 39 53 42 54 51 55 65 56
REMARK SMILES IDX 40 57 41 58 50 60 66 61 43 62 32 63 33 64 37 65 34 66 36 67
REMARK SMILES IDX 35 68 54 69 55 70 59 71 56 72 58 73 57 74 44 75 45 76 49 77
REMARK SMILES IDX 46 78 48 79 47 80
REMARK H PARENT 13 8 20 29 64 48 42 59
REMARK Flexibility Score: inf
ROOT
ATOM      1  C   UNL A   1      37.423  21.377  24.485  1.00  0.00     0.002 C 
ENDROOT
BRANCH   1   2
ATOM      2  C   UNL A   1      37.292  22.231  25.751  1.00  0.00     0.002 C 
BRANCH   2   3
ATOM      3  C   UNL A   1      37.133  23.738  25.496  1.00  0.00     0.021 C 
BRANCH   3   4
ATOM      4  C   UNL A   1      35.733  24.126  25.005  1.00  0.00     0.116 C 
BRANCH   4   5
ATOM      5  N   UNL A   1      34.770  23.929  26.075  1.00  0.00    -0.352 N 
ATOM      6  C   UNL A   1      33.673  23.138  26.195  1.00  0.00     0.251 C 
ATOM      7  O   UNL A   1      32.922  23.329  27.147  1.00  0.00    -0.270 OA
ATOM      8  H   UNL A   1      34.949  24.478  26.872  1.00  0.00     0.163 HD
BRANCH   6   9
ATOM      9  C   UNL A   1      33.391  22.006  25.273  1.00  0.00     0.067 C 
ATOM     10  C   UNL A   1      33.646  17.409  23.816  1.00  0.00     0.015 A 
ATOM     11  C   UNL A   1      32.717  17.670  22.806  1.00  0.00     0.015 A 
ATOM     12  C   UNL A   1      34.077  18.433  24.665  1.00  0.00     0.023 A 
ATOM     13  C   UNL A   1      32.201  18.957  22.661  1.00  0.00     0.048 A 
ATOM     14  C   UNL A   1      33.563  19.726  24.510  1.00  0.00     0.018 A 
ATOM     15  C   UNL A   1      32.620  19.979  23.514  1.00  0.00     0.128 A 
ATOM     16  C   UNL A   1      33.936  20.791  25.429  1.00  0.00     0.025 C 
ATOM     17  O   UNL A   1      32.010  21.186  23.351  1.00  0.00    -0.475 OA
ATOM     18  C   UNL A   1      32.568  22.347  24.032  1.00  0.00     0.314 C 
BRANCH  10  19
ATOM     19  C   UNL A   1      34.163  16.040  24.014  1.00  0.00     0.260 C 
ATOM     20  O   UNL A   1      33.627  15.247  24.777  1.00  0.00    -0.298 OA
ENDBRANCH  10  19
BRANCH  18  21
ATOM     21  C   UNL A   1      31.409  23.353  24.233  1.00  0.00     0.429 C 
ATOM     22  F   UNL A   1      31.839  24.618  24.427  1.00  0.00    -0.167 F 
ATOM     23  F   UNL A   1      30.613  23.404  23.132  1.00  0.00    -0.167 F 
ATOM     24  F   UNL A   1      30.611  23.014  25.273  1.00  0.00    -0.167 F 
ENDBRANCH  18  21
ENDBRANCH   6   9
ENDBRANCH   4   5
ENDBRANCH   3   4
ENDBRANCH   2   3
ENDBRANCH   1   2
BRANCH   1  25
ATOM     25  C   UNL A   1      38.033  19.988  24.698  1.00  0.00     0.021 C 
BRANCH  25  26
ATOM     26  C   UNL A   1      38.772  19.809  26.022  1.00  0.00     0.116 C 
BRANCH  26  27
ATOM     27  N   UNL A   1      40.042  19.122  25.845  1.00  0.00    -0.352 N 
ATOM     28  C   UNL A   1      41.322  19.607  25.928  1.00  0.00     0.251 C 
ATOM     29  H   UNL A   1      39.971  18.163  25.633  1.00  0.00     0.163 HD
ATOM     30  O   UNL A   1      42.261  18.924  25.533  1.00  0.00    -0.269 OA
BRANCH  28  31
ATOM     31  C   UNL A   1      41.578  20.955  26.478  1.00  0.00     0.039 A 
ATOM     32  C   UNL A   1      41.413  21.161  27.851  1.00  0.00     0.014 A 
ATOM     33  C   UNL A   1      41.936  22.023  25.649  1.00  0.00     0.014 A 
ATOM     34  C   UNL A   1      41.655  22.422  28.399  1.00  0.00     0.010 A 
ATOM     35  C   UNL A   1      42.238  23.266  26.205  1.00  0.00     0.010 A 
ATOM     36  C   UNL A   1      42.096  23.478  27.584  1.00  0.00    -0.014 A 
BRANCH  36  37
ATOM     37  C   UNL A   1      42.433  24.795  28.178  1.00  0.00     0.031 A 
ATOM     38  C   UNL A   1      43.833  25.105  28.627  1.00  0.00     0.074 A 
ATOM     39  C   UNL A   1      41.456  25.704  28.354  1.00  0.00     0.049 A 
ATOM     40  N   UNL A   1      44.308  26.216  29.132  1.00  0.00    -0.248 NA
ATOM     41  C   UNL A   1      44.821  24.022  28.522  1.00  0.00     0.031 C 
ATOM     42  C   UNL A   1      40.043  25.502  28.025  1.00  0.00     0.029 A 
ATOM     43  N   UNL A   1      41.502  26.981  28.853  1.00  0.00    -0.354 N 
ATOM     44  C   UNL A   1      45.643  25.962  29.418  1.00  0.00     0.074 A 
ATOM     45  C   UNL A   1      45.891  24.578  29.073  1.00  0.00     0.031 C 
ATOM     46  C   UNL A   1      39.363  26.626  28.301  1.00  0.00     0.029 A 
ATOM     47  C   UNL A   1      40.285  27.616  28.846  1.00  0.00     0.049 A 
ATOM     48  H   UNL A   1      42.328  27.401  29.185  1.00  0.00     0.167 HD
ATOM     49  C   UNL A   1      46.583  26.806  29.908  1.00  0.00     0.031 A 
ATOM     50  C   UNL A   1      39.947  28.863  29.225  1.00  0.00     0.031 A 
ATOM     51  C   UNL A   1      46.341  28.185  30.244  1.00  0.00     0.049 A 
ATOM     52  C   UNL A   1      41.012  29.794  29.725  1.00  0.00     0.074 A 
ATOM     53  C   UNL A   1      47.245  29.142  30.669  1.00  0.00     0.029 A 
ATOM     54  N   UNL A   1      45.099  28.800  30.200  1.00  0.00    -0.354 N 
ATOM     55  N   UNL A   1      42.292  29.567  29.895  1.00  0.00    -0.248 NA
ATOM     56  C   UNL A   1      40.587  31.158  30.066  1.00  0.00     0.031 C 
ATOM     57  C   UNL A   1      46.541  30.324  30.930  1.00  0.00     0.029 A 
ATOM     58  C   UNL A   1      45.207  30.116  30.617  1.00  0.00     0.049 A 
ATOM     59  H   UNL A   1      44.263  28.366  29.914  1.00  0.00     0.167 HD
ATOM     60  C   UNL A   1      42.830  30.765  30.349  1.00  0.00     0.074 A 
ATOM     61  C   UNL A   1      41.741  31.719  30.404  1.00  0.00     0.031 C 
ATOM     62  C   UNL A   1      44.111  31.048  30.691  1.00  0.00     0.031 A 
BRANCH  49  63
ATOM     63  C   UNL A   1      47.965  26.249  30.120  1.00  0.00    -0.014 A 
ATOM     64  C   UNL A   1      48.381  25.792  31.382  1.00  0.00     0.009 A 
ATOM     65  C   UNL A   1      48.856  26.163  29.040  1.00  0.00     0.009 A 
ATOM     66  C   UNL A   1      49.675  25.302  31.565  1.00  0.00     0.001 A 
ATOM     67  C   UNL A   1      50.141  25.647  29.220  1.00  0.00     0.001 A 
ATOM     68  C   UNL A   1      50.553  25.227  30.484  1.00  0.00     0.000 A 
ENDBRANCH  49  63
BRANCH  50  69
ATOM     69  C   UNL A   1      38.536  29.308  29.104  1.00  0.00    -0.014 A 
ATOM     70  C   UNL A   1      37.682  29.270  30.217  1.00  0.00     0.009 A 
ATOM     71  C   UNL A   1      38.046  29.797  27.884  1.00  0.00     0.009 A 
ATOM     72  C   UNL A   1      36.357  29.698  30.103  1.00  0.00     0.001 A 
ATOM     73  C   UNL A   1      36.728  30.247  27.781  1.00  0.00     0.001 A 
ATOM     74  C   UNL A   1      35.884  30.192  28.889  1.00  0.00     0.000 A 
ENDBRANCH  50  69
BRANCH  62  75
ATOM     75  C   UNL A   1      44.396  32.449  31.150  1.00  0.00    -0.014 A 
ATOM     76  C   UNL A   1      44.745  33.455  30.235  1.00  0.00     0.009 A 
ATOM     77  C   UNL A   1      44.308  32.770  32.513  1.00  0.00     0.009 A 
ATOM     78  C   UNL A   1      45.040  34.745  30.681  1.00  0.00     0.001 A 
ATOM     79  C   UNL A   1      44.575  34.067  32.954  1.00  0.00     0.001 A 
ATOM     80  C   UNL A   1      44.951  35.050  32.039  1.00  0.00     0.000 A 
ENDBRANCH  62  75
ENDBRANCH  36  37
ENDBRANCH  28  31
ENDBRANCH  26  27
ENDBRANCH  25  26
ENDBRANCH   1  25
TORSDOF 15
ENDMDL
MODEL 2
REMARK VINA RESULT:     -10.9      4.530      9.559
REMARK SMILES O=Cc1ccc2c(c1)C=C(C(=O)NCCCCCCNC(=O)c1ccc(-c3c4nc(c(-c5ccccc5)c5ccc([nH]5)c(-c5ccccc5)c5nc(c(-c6ccccc6)c6ccc3[nH]6)C=C5)C=C4)cc1)[C@H](C(F)(F)F)O2
REMARK SMILES IDX 17 1 16 2 15 3 14 4 13 5 11 6 12 7 10 9 3 10 4 11 8 12 5 13
REMARK SMILES IDX 7 14 6 15 9 16 76 17 71 18 2 19 1 20 72 21 73 22 74 23 75 24
REMARK SMILES IDX 18 25 19 26 20 27 21 28 22 30 23 31 24 32 70 33 25 34 69 35
REMARK SMILES IDX 26 36 27 37 28 38 63 39 29 40 68 41 62 42 64 43 30 44 67 45
REMARK SMILES IDX 61 46 60 47 31 49 53 50 38 51 52 52 39 53 42 54 51 55 65 56
REMARK SMILES IDX 40 57 41 58 50 60 66 61 43 62 32 63 33 64 37 65 34 66 36 67
REMARK SMILES IDX 35 68 54 69 55 70 59 71 56 72 58 73 57 74 44 75 45 76 49 77
REMARK SMILES IDX 46 78 48 79 47 80
REMARK H PARENT 13 8 20 29 64 48 42 59
REMARK Flexibility Score: inf
ROOT
ATOM      1  C   UNL A   1      31.436  30.586  25.769  1.00  0.00     0.002 C 
ENDROOT
BRANCH   1   2
ATOM      2  C   UNL A   1      32.181  29.492  26.542  1.00  0.00     0.002 C 
BRANCH   2   3
ATOM      3  C   UNL A   1      33.506  29.044  25.906  1.00  0.00     0.021 C 
BRANCH   3   4
ATOM      4  C   UNL A   1      33.650  27.520  25.815  1.00  0.00     0.116 C 
BRANCH   4   5
ATOM      5  N   UNL A   1      33.936  27.139  24.442  1.00  0.00    -0.352 N 
ATOM      6  C   UNL A   1      33.152  26.985  23.345  1.00  0.00     0.251 C 
ATOM      7  O   UNL A   1      33.641  26.453  22.353  1.00  0.00    -0.270 OA
ATOM      8  H   UNL A   1      34.890  26.958  24.274  1.00  0.00     0.163 HD
BRANCH   6   9
ATOM      9  C   UNL A   1      31.761  27.505  23.270  1.00  0.00     0.067 C 
ATOM     10  C   UNL A   1      28.338  30.596  21.839  1.00  0.00     0.015 A 
ATOM     11  C   UNL A   1      27.351  29.758  22.362  1.00  0.00     0.015 A 
ATOM     12  C   UNL A   1      29.691  30.264  21.964  1.00  0.00     0.023 A 
ATOM     13  C   UNL A   1      27.721  28.571  22.994  1.00  0.00     0.048 A 
ATOM     14  C   UNL A   1      30.057  29.075  22.607  1.00  0.00     0.018 A 
ATOM     15  C   UNL A   1      29.069  28.231  23.111  1.00  0.00     0.128 A 
ATOM     16  C   UNL A   1      31.453  28.670  22.682  1.00  0.00     0.025 C 
ATOM     17  O   UNL A   1      29.337  27.019  23.674  1.00  0.00    -0.475 OA
ATOM     18  C   UNL A   1      30.711  26.713  24.048  1.00  0.00     0.314 C 
BRANCH  10  19
ATOM     19  C   UNL A   1      27.960  31.831  21.122  1.00  0.00     0.260 C 
ATOM     20  O   UNL A   1      27.508  31.810  19.985  1.00  0.00    -0.298 OA
ENDBRANCH  10  19
BRANCH  18  21
ATOM     21  C   UNL A   1      30.854  25.172  24.020  1.00  0.00     0.429 C 
ATOM     22  F   UNL A   1      29.781  24.535  24.535  1.00  0.00    -0.167 F 
ATOM     23  F   UNL A   1      30.967  24.718  22.742  1.00  0.00    -0.167 F 
ATOM     24  F   UNL A   1      31.956  24.747  24.681  1.00  0.00    -0.167 F 
ENDBRANCH  18  21
ENDBRANCH   6   9
ENDBRANCH   4   5
ENDBRANCH   3   4
ENDBRANCH   2   3
ENDBRANCH   1   2
BRANCH   1  25
ATOM     25  C   UNL A   1      31.293  31.922  26.505  1.00  0.00     0.021 C 
BRANCH  25  26
ATOM     26  C   UNL A   1      32.573  32.428  27.165  1.00  0.00     0.116 C 
BRANCH  26  27
ATOM     27  N   UNL A   1      32.423  33.784  27.670  1.00  0.00    -0.352 N 
ATOM     28  C   UNL A   1      33.165  34.461  28.602  1.00  0.00     0.251 C 
ATOM     29  H   UNL A   1      31.674  34.292  27.282  1.00  0.00     0.163 HD
ATOM     30  O   UNL A   1      32.754  35.524  29.056  1.00  0.00    -0.269 OA
BRANCH  28  31
ATOM     31  C   UNL A   1      34.454  33.913  29.076  1.00  0.00     0.039 A 
ATOM     32  C   UNL A   1      34.457  33.089  30.205  1.00  0.00     0.014 A 
ATOM     33  C   UNL A   1      35.658  34.237  28.443  1.00  0.00     0.014 A 
ATOM     34  C   UNL A   1      35.659  32.551  30.670  1.00  0.00     0.010 A 
ATOM     35  C   UNL A   1      36.849  33.650  28.870  1.00  0.00     0.010 A 
ATOM     36  C   UNL A   1      36.861  32.806  29.989  1.00  0.00    -0.014 A 
BRANCH  36  37
ATOM     37  C   UNL A   1      38.125  32.168  30.433  1.00  0.00     0.031 A 
ATOM     38  C   UNL A   1      38.966  32.787  31.513  1.00  0.00     0.074 A 
ATOM     39  C   UNL A   1      38.539  31.040  29.824  1.00  0.00     0.049 A 
ATOM     40  N   UNL A   1      40.077  32.344  32.048  1.00  0.00    -0.248 NA
ATOM     41  C   UNL A   1      38.518  34.082  32.045  1.00  0.00     0.031 C 
ATOM     42  C   UNL A   1      37.851  30.376  28.715  1.00  0.00     0.029 A 
ATOM     43  N   UNL A   1      39.639  30.254  30.052  1.00  0.00    -0.354 N 
ATOM     44  C   UNL A   1      40.468  33.310  32.965  1.00  0.00     0.074 A 
ATOM     45  C   UNL A   1      39.501  34.384  32.882  1.00  0.00     0.031 C 
ATOM     46  C   UNL A   1      38.528  29.266  28.381  1.00  0.00     0.029 A 
ATOM     47  C   UNL A   1      39.705  29.153  29.235  1.00  0.00     0.049 A 
ATOM     48  H   UNL A   1      40.317  30.459  30.737  1.00  0.00     0.167 HD
ATOM     49  C   UNL A   1      41.526  33.300  33.811  1.00  0.00     0.031 A 
ATOM     50  C   UNL A   1      40.606  28.155  29.183  1.00  0.00     0.031 A 
ATOM     51  C   UNL A   1      42.484  32.229  33.900  1.00  0.00     0.049 A 
ATOM     52  C   UNL A   1      41.748  28.143  30.157  1.00  0.00     0.074 A 
ATOM     53  C   UNL A   1      43.543  32.088  34.780  1.00  0.00     0.029 A 
ATOM     54  N   UNL A   1      42.504  31.118  33.071  1.00  0.00    -0.354 N 
ATOM     55  N   UNL A   1      42.047  29.016  31.088  1.00  0.00    -0.248 NA
ATOM     56  C   UNL A   1      42.662  26.995  30.086  1.00  0.00     0.031 C 
ATOM     57  C   UNL A   1      44.233  30.915  34.451  1.00  0.00     0.029 A 
ATOM     58  C   UNL A   1      43.572  30.300  33.399  1.00  0.00     0.049 A 
ATOM     59  H   UNL A   1      41.854  30.936  32.354  1.00  0.00     0.167 HD
ATOM     60  C   UNL A   1      43.176  28.517  31.724  1.00  0.00     0.074 A 
ATOM     61  C   UNL A   1      43.492  27.254  31.088  1.00  0.00     0.031 C 
ATOM     62  C   UNL A   1      43.889  29.058  32.742  1.00  0.00     0.031 A 
BRANCH  49  63
ATOM     63  C   UNL A   1      41.706  34.498  34.702  1.00  0.00    -0.014 A 
ATOM     64  C   UNL A   1      41.126  34.550  35.981  1.00  0.00     0.009 A 
ATOM     65  C   UNL A   1      42.482  35.583  34.266  1.00  0.00     0.009 A 
ATOM     66  C   UNL A   1      41.284  35.682  36.783  1.00  0.00     0.001 A 
ATOM     67  C   UNL A   1      42.661  36.701  35.082  1.00  0.00     0.001 A 
ATOM     68  C   UNL A   1      42.053  36.755  36.335  1.00  0.00     0.000 A 
ENDBRANCH  49  63
BRANCH  50  69
ATOM     69  C   UNL A   1      40.435  27.065  28.190  1.00  0.00    -0.014 A 
ATOM     70  C   UNL A   1      41.035  27.155  26.925  1.00  0.00     0.009 A 
ATOM     71  C   UNL A   1      39.694  25.918  28.514  1.00  0.00     0.009 A 
ATOM     72  C   UNL A   1      40.880  26.123  25.996  1.00  0.00     0.001 A 
ATOM     73  C   UNL A   1      39.562  24.878  27.592  1.00  0.00     0.001 A 
ATOM     74  C   UNL A   1      40.150  24.984  26.332  1.00  0.00     0.000 A 
ENDBRANCH  50  69
BRANCH  62  75
ATOM     75  C   UNL A   1      45.076  28.277  33.229  1.00  0.00    -0.014 A 
ATOM     76  C   UNL A   1      46.356  28.493  32.694  1.00  0.00     0.009 A 
ATOM     77  C   UNL A   1      44.915  27.319  34.241  1.00  0.00     0.009 A 
ATOM     78  C   UNL A   1      47.443  27.734  33.134  1.00  0.00     0.001 A 
ATOM     79  C   UNL A   1      46.007  26.583  34.700  1.00  0.00     0.001 A 
ATOM     80  C   UNL A   1      47.268  26.783  34.139  1.00  0.00     0.000 A 
ENDBRANCH  62  75
ENDBRANCH  36  37
ENDBRANCH  28  31
ENDBRANCH  26  27
ENDBRANCH  25  26
ENDBRANCH   1  25
TORSDOF 15
ENDMDL
MODEL 3
REMARK VINA RESULT:     -10.8      0.519      5.855
REMARK SMILES O=Cc1ccc2c(c1)C=C(C(=O)NCCCCCCNC(=O)c1ccc(-c3c4nc(c(-c5ccccc5)c5ccc([nH]5)c(-c5ccccc5)c5nc(c(-c6ccccc6)c6ccc3[nH]6)C=C5)C=C4)cc1)[C@H](C(F)(F)F)O2
REMARK SMILES IDX 17 1 16 2 15 3 14 4 13 5 11 6 12 7 10 9 3 10 4 11 8 12 5 13
REMARK SMILES IDX 7 14 6 15 9 16 76 17 71 18 2 19 1 20 72 21 73 22 74 23 75 24
REMARK SMILES IDX 18 25 19 26 20 27 21 28 22 30 23 31 24 32 70 33 25 34 69 35
REMARK SMILES IDX 26 36 27 37 28 38 63 39 29 40 68 41 62 42 64 43 30 44 67 45
REMARK SMILES IDX 61 46 60 47 31 49 53 50 38 51 52 52 39 53 42 54 51 55 65 56
REMARK SMILES IDX 40 57 41 58 50 60 66 61 43 62 32 63 33 64 37 65 34 66 36 67
REMARK SMILES IDX 35 68 54 69 55 70 59 71 56 72 58 73 57 74 44 75 45 76 49 77
REMARK SMILES IDX 46 78 48 79 47 80
REMARK H PARENT 13 8 20 29 64 48 42 59
REMARK Flexibility Score: inf
ROOT
ATOM      1  C   UNL A   1      37.342  21.183  24.555  1.00  0.00     0.002 C 
ENDROOT
BRANCH   1   2
ATOM      2  C   UNL A   1      37.373  22.154  25.741  1.00  0.00     0.002 C 
BRANCH   2   3
ATOM      3  C   UNL A   1      37.240  23.636  25.361  1.00  0.00     0.021 C 
BRANCH   3   4
ATOM      4  C   UNL A   1      35.838  24.011  24.863  1.00  0.00     0.116 C 
BRANCH   4   5
ATOM      5  N   UNL A   1      34.884  23.880  25.950  1.00  0.00    -0.352 N 
ATOM      6  C   UNL A   1      33.776  23.113  26.118  1.00  0.00     0.251 C 
ATOM      7  O   UNL A   1      33.038  23.360  27.068  1.00  0.00    -0.270 OA
ATOM      8  H   UNL A   1      35.079  24.463  26.719  1.00  0.00     0.163 HD
BRANCH   6   9
ATOM      9  C   UNL A   1      33.468  21.943  25.254  1.00  0.00     0.067 C 
ATOM     10  C   UNL A   1      33.623  17.275  24.023  1.00  0.00     0.015 A 
ATOM     11  C   UNL A   1      32.695  17.506  23.004  1.00  0.00     0.015 A 
ATOM     12  C   UNL A   1      34.078  18.331  24.820  1.00  0.00     0.023 A 
ATOM     13  C   UNL A   1      32.206  18.795  22.798  1.00  0.00     0.048 A 
ATOM     14  C   UNL A   1      33.590  19.625  24.603  1.00  0.00     0.018 A 
ATOM     15  C   UNL A   1      32.649  19.848  23.598  1.00  0.00     0.128 A 
ATOM     16  C   UNL A   1      33.989  20.726  25.468  1.00  0.00     0.025 C 
ATOM     17  O   UNL A   1      32.063  21.059  23.378  1.00  0.00    -0.475 OA
ATOM     18  C   UNL A   1      32.647  22.240  24.000  1.00  0.00     0.314 C 
BRANCH  10  19
ATOM     19  C   UNL A   1      34.112  15.907  24.287  1.00  0.00     0.260 C 
ATOM     20  O   UNL A   1      33.410  15.057  24.819  1.00  0.00    -0.298 OA
ENDBRANCH  10  19
BRANCH  18  21
ATOM     21  C   UNL A   1      31.510  23.278  24.154  1.00  0.00     0.429 C 
ATOM     22  F   UNL A   1      30.725  23.041  25.227  1.00  0.00    -0.167 F 
ATOM     23  F   UNL A   1      32.015  24.527  24.342  1.00  0.00    -0.167 F 
ATOM     24  F   UNL A   1      30.720  23.339  23.057  1.00  0.00    -0.167 F 
ENDBRANCH  18  21
ENDBRANCH   6   9
ENDBRANCH   4   5
ENDBRANCH   3   4
ENDBRANCH   2   3
ENDBRANCH   1   2
BRANCH   1  25
ATOM     25  C   UNL A   1      38.228  19.942  24.706  1.00  0.00     0.021 C 
BRANCH  25  26
ATOM     26  C   UNL A   1      38.901  19.799  26.069  1.00  0.00     0.116 C 
BRANCH  26  27
ATOM     27  N   UNL A   1      40.143  19.047  25.983  1.00  0.00    -0.352 N 
ATOM     28  C   UNL A   1      41.440  19.481  26.074  1.00  0.00     0.251 C 
ATOM     29  H   UNL A   1      40.035  18.079  25.838  1.00  0.00     0.163 HD
ATOM     30  O   UNL A   1      42.359  18.732  25.760  1.00  0.00    -0.269 OA
BRANCH  28  31
ATOM     31  C   UNL A   1      41.740  20.853  26.536  1.00  0.00     0.039 A 
ATOM     32  C   UNL A   1      41.752  21.110  27.910  1.00  0.00     0.014 A 
ATOM     33  C   UNL A   1      41.968  21.892  25.628  1.00  0.00     0.014 A 
ATOM     34  C   UNL A   1      42.039  22.395  28.374  1.00  0.00     0.010 A 
ATOM     35  C   UNL A   1      42.316  23.160  26.093  1.00  0.00     0.010 A 
ATOM     36  C   UNL A   1      42.351  23.424  27.469  1.00  0.00    -0.014 A 
BRANCH  36  37
ATOM     37  C   UNL A   1      42.738  24.768  27.965  1.00  0.00     0.031 A 
ATOM     38  C   UNL A   1      41.701  25.823  28.227  1.00  0.00     0.074 A 
ATOM     39  C   UNL A   1      44.042  25.052  28.139  1.00  0.00     0.049 A 
ATOM     40  N   UNL A   1      41.861  27.036  28.697  1.00  0.00    -0.248 NA
ATOM     41  C   UNL A   1      40.309  25.486  27.896  1.00  0.00     0.031 C 
ATOM     42  C   UNL A   1      45.151  24.139  27.854  1.00  0.00     0.029 A 
ATOM     43  N   UNL A   1      44.656  26.190  28.596  1.00  0.00    -0.354 N 
ATOM     44  C   UNL A   1      40.597  27.610  28.703  1.00  0.00     0.074 A 
ATOM     45  C   UNL A   1      39.687  26.630  28.148  1.00  0.00     0.031 C 
ATOM     46  C   UNL A   1      46.308  24.741  28.173  1.00  0.00     0.029 A 
ATOM     47  C   UNL A   1      46.024  26.086  28.662  1.00  0.00     0.049 A 
ATOM     48  H   UNL A   1      44.164  27.003  28.853  1.00  0.00     0.167 HD
ATOM     49  C   UNL A   1      40.222  28.835  29.145  1.00  0.00     0.031 A 
ATOM     50  C   UNL A   1      46.949  26.970  29.081  1.00  0.00     0.031 A 
ATOM     51  C   UNL A   1      41.123  29.808  29.704  1.00  0.00     0.049 A 
ATOM     52  C   UNL A   1      46.507  28.305  29.604  1.00  0.00     0.074 A 
ATOM     53  C   UNL A   1      40.829  31.043  30.254  1.00  0.00     0.029 A 
ATOM     54  N   UNL A   1      42.500  29.656  29.777  1.00  0.00    -0.354 N 
ATOM     55  N   UNL A   1      45.294  28.794  29.697  1.00  0.00    -0.248 NA
ATOM     56  C   UNL A   1      47.561  29.199  30.100  1.00  0.00     0.031 C 
ATOM     57  C   UNL A   1      42.032  31.660  30.614  1.00  0.00     0.029 A 
ATOM     58  C   UNL A   1      43.072  30.786  30.336  1.00  0.00     0.049 A 
ATOM     59  H   UNL A   1      42.997  28.862  29.476  1.00  0.00     0.167 HD
ATOM     60  C   UNL A   1      45.437  30.049  30.275  1.00  0.00     0.074 A 
ATOM     61  C   UNL A   1      46.851  30.233  30.533  1.00  0.00     0.031 C 
ATOM     62  C   UNL A   1      44.483  30.967  30.564  1.00  0.00     0.031 A 
BRANCH  49  63
ATOM     63  C   UNL A   1      38.765  29.193  29.026  1.00  0.00    -0.014 A 
ATOM     64  C   UNL A   1      37.880  29.015  30.102  1.00  0.00     0.009 A 
ATOM     65  C   UNL A   1      38.275  29.734  27.827  1.00  0.00     0.009 A 
ATOM     66  C   UNL A   1      36.527  29.329  29.964  1.00  0.00     0.001 A 
ATOM     67  C   UNL A   1      36.927  30.074  27.702  1.00  0.00     0.001 A 
ATOM     68  C   UNL A   1      36.052  29.861  28.766  1.00  0.00     0.000 A 
ENDBRANCH  49  63
BRANCH  50  69
ATOM     69  C   UNL A   1      48.384  26.595  29.054  1.00  0.00    -0.014 A 
ATOM     70  C   UNL A   1      48.974  25.960  30.157  1.00  0.00     0.009 A 
ATOM     71  C   UNL A   1      49.163  26.845  27.915  1.00  0.00     0.009 A 
ATOM     72  C   UNL A   1      50.323  25.599  30.125  1.00  0.00     0.001 A 
ATOM     73  C   UNL A   1      50.505  26.461  27.876  1.00  0.00     0.001 A 
ATOM     74  C   UNL A   1      51.085  25.843  28.984  1.00  0.00     0.000 A 
ENDBRANCH  50  69
BRANCH  62  75
ATOM     75  C   UNL A   1      44.944  32.248  31.197  1.00  0.00    -0.014 A 
ATOM     76  C   UNL A   1      45.288  33.362  30.414  1.00  0.00     0.009 A 
ATOM     77  C   UNL A   1      45.028  32.348  32.594  1.00  0.00     0.009 A 
ATOM     78  C   UNL A   1      45.747  34.535  31.017  1.00  0.00     0.001 A 
ATOM     79  C   UNL A   1      45.459  33.531  33.196  1.00  0.00     0.001 A 
ATOM     80  C   UNL A   1      45.829  34.619  32.406  1.00  0.00     0.000 A 
ENDBRANCH  62  75
ENDBRANCH  36  37
ENDBRANCH  28  31
ENDBRANCH  26  27
ENDBRANCH  25  26
ENDBRANCH   1  25
TORSDOF 15
ENDMDL
