MODEL 1
REMARK VINA RESULT:     -11.6      0.000      0.000
REMARK SMILES Cc1ccc(NC(=O)N2CCCC[C@@H]2C(=O)NCCCCCCNC(=O)c2ccc(-c3c4nc(c(-c5ccccc5)c5ccc([nH]5)c(-c5ccccc5)c5nc(c(-c6ccccc6)c6ccc3[nH]6)C=C5)C=C4)cc2)cc1
REMARK SMILES IDX 20 1 19 2 18 3 17 4 15 5 16 6 14 8 9 9 10 10 11 11 13 12
REMARK SMILES IDX 12 13 7 14 6 15 8 17 5 18 1 19 2 20 3 21 76 22 4 23 75 24
REMARK SMILES IDX 21 25 22 26 23 27 24 28 25 29 26 31 27 32 28 33 74 34 29 35
REMARK SMILES IDX 73 36 30 37 31 38 32 39 67 40 33 41 72 42 66 43 68 44 34 45
REMARK SMILES IDX 71 46 65 47 64 48 35 50 57 51 42 52 56 53 43 54 46 55 55 56
REMARK SMILES IDX 69 57 44 58 45 59 54 61 70 62 47 63 36 64 37 65 41 66 38 67
REMARK SMILES IDX 40 68 39 69 58 70 59 71 63 72 60 73 62 74 61 75 48 76 49 77
REMARK SMILES IDX 53 78 50 79 52 80 51 81
REMARK H PARENT 17 7 6 16 24 30 68 49 46 60
REMARK Flexibility Score: inf
ROOT
ATOM      1  C   UNL A   1      33.686  28.306  26.927  1.00  0.00     0.002 C 
ENDROOT
BRANCH   1   2
ATOM      2  C   UNL A   1      33.551  26.996  26.138  1.00  0.00     0.021 C 
BRANCH   2   3
ATOM      3  C   UNL A   1      33.718  27.131  24.623  1.00  0.00     0.116 C 
BRANCH   3   4
ATOM      4  N   UNL A   1      32.497  26.757  23.939  1.00  0.00    -0.354 N 
ATOM      5  C   UNL A   1      31.878  25.545  23.857  1.00  0.00     0.242 C 
ATOM      6  O   UNL A   1      31.020  25.419  22.978  1.00  0.00    -0.273 OA
ATOM      7  H   UNL A   1      32.046  27.489  23.462  1.00  0.00     0.163 HD
BRANCH   5   8
ATOM      8  C   UNL A   1      32.338  24.327  24.698  1.00  0.00     0.176 C 
ATOM      9  N   UNL A   1      32.994  23.232  23.930  1.00  0.00    -0.313 N 
ATOM     10  C   UNL A   1      33.042  21.903  24.535  1.00  0.00     0.122 C 
ATOM     11  C   UNL A   1      31.765  21.485  25.240  1.00  0.00     0.022 C 
ATOM     12  C   UNL A   1      31.098  23.859  25.492  1.00  0.00     0.035 C 
ATOM     13  C   UNL A   1      31.332  22.551  26.231  1.00  0.00     0.004 C 
BRANCH   9  14
ATOM     14  C   UNL A   1      33.867  23.414  22.869  1.00  0.00     0.322 C 
ATOM     15  N   UNL A   1      35.164  23.752  23.087  1.00  0.00    -0.308 N 
ATOM     16  H   UNL A   1      35.528  24.416  22.459  1.00  0.00     0.171 HD
ATOM     17  O   UNL A   1      33.467  23.374  21.702  1.00  0.00    -0.248 OA
BRANCH  15  18
ATOM     18  C   UNL A   1      36.069  23.306  24.063  1.00  0.00     0.042 A 
ATOM     19  C   UNL A   1      39.304  22.078  26.608  1.00  0.00     0.044 C 
ATOM     20  C   UNL A   1      38.094  22.440  25.801  1.00  0.00    -0.051 A 
ATOM     21  C   UNL A   1      37.418  23.641  26.044  1.00  0.00     0.005 A 
ATOM     22  C   UNL A   1      37.686  21.636  24.731  1.00  0.00     0.005 A 
ATOM     23  C   UNL A   1      36.391  24.055  25.194  1.00  0.00     0.026 A 
ATOM     24  C   UNL A   1      36.663  22.057  23.878  1.00  0.00     0.026 A 
ENDBRANCH  15  18
ENDBRANCH   9  14
ENDBRANCH   5   8
ENDBRANCH   3   4
ENDBRANCH   2   3
ENDBRANCH   1   2
BRANCH   1  25
ATOM     25  C   UNL A   1      32.413  29.161  27.053  1.00  0.00     0.002 C 
BRANCH  25  26
ATOM     26  C   UNL A   1      32.625  30.656  27.304  1.00  0.00     0.021 C 
BRANCH  26  27
ATOM     27  C   UNL A   1      34.087  31.077  27.375  1.00  0.00     0.116 C 
BRANCH  27  28
ATOM     28  N   UNL A   1      34.472  31.702  28.635  1.00  0.00    -0.352 N 
ATOM     29  C   UNL A   1      35.448  31.308  29.535  1.00  0.00     0.251 C 
ATOM     30  H   UNL A   1      33.972  32.514  28.879  1.00  0.00     0.163 HD
ATOM     31  O   UNL A   1      35.639  31.937  30.565  1.00  0.00    -0.269 OA
BRANCH  29  32
ATOM     32  C   UNL A   1      36.352  30.191  29.168  1.00  0.00     0.039 A 
ATOM     33  C   UNL A   1      36.722  29.299  30.181  1.00  0.00     0.014 A 
ATOM     34  C   UNL A   1      36.997  30.162  27.933  1.00  0.00     0.014 A 
ATOM     35  C   UNL A   1      37.899  28.570  30.046  1.00  0.00     0.010 A 
ATOM     36  C   UNL A   1      38.213  29.514  27.833  1.00  0.00     0.010 A 
ATOM     37  C   UNL A   1      38.699  28.784  28.923  1.00  0.00    -0.014 A 
BRANCH  37  38
ATOM     38  C   UNL A   1      40.104  28.401  28.883  1.00  0.00     0.031 A 
ATOM     39  C   UNL A   1      40.507  27.087  28.352  1.00  0.00     0.074 A 
ATOM     40  C   UNL A   1      41.045  29.253  29.349  1.00  0.00     0.049 A 
ATOM     41  N   UNL A   1      41.523  26.409  28.773  1.00  0.00    -0.248 NA
ATOM     42  C   UNL A   1      39.737  26.405  27.321  1.00  0.00     0.031 C 
ATOM     43  C   UNL A   1      42.494  29.114  29.237  1.00  0.00     0.029 A 
ATOM     44  N   UNL A   1      40.875  30.312  30.244  1.00  0.00    -0.354 N 
ATOM     45  C   UNL A   1      41.723  25.384  27.874  1.00  0.00     0.074 A 
ATOM     46  C   UNL A   1      40.525  25.357  27.066  1.00  0.00     0.031 C 
ATOM     47  C   UNL A   1      43.065  29.804  30.239  1.00  0.00     0.029 A 
ATOM     48  C   UNL A   1      41.993  30.293  31.090  1.00  0.00     0.049 A 
ATOM     49  H   UNL A   1      40.122  30.945  30.273  1.00  0.00     0.167 HD
ATOM     50  C   UNL A   1      42.945  24.783  27.791  1.00  0.00     0.031 A 
ATOM     51  C   UNL A   1      41.914  30.124  32.442  1.00  0.00     0.031 A 
ATOM     52  C   UNL A   1      43.876  25.288  28.799  1.00  0.00     0.049 A 
ATOM     53  C   UNL A   1      42.715  28.939  32.938  1.00  0.00     0.074 A 
ATOM     54  C   UNL A   1      44.917  26.201  28.737  1.00  0.00     0.029 A 
ATOM     55  N   UNL A   1      43.621  25.072  30.148  1.00  0.00    -0.354 N 
ATOM     56  N   UNL A   1      43.143  27.979  32.168  1.00  0.00    -0.248 NA
ATOM     57  C   UNL A   1      43.027  28.704  34.346  1.00  0.00     0.031 C 
ATOM     58  C   UNL A   1      45.238  26.592  30.062  1.00  0.00     0.029 A 
ATOM     59  C   UNL A   1      44.409  25.899  30.926  1.00  0.00     0.049 A 
ATOM     60  H   UNL A   1      42.971  24.422  30.500  1.00  0.00     0.167 HD
ATOM     61  C   UNL A   1      43.762  27.024  32.928  1.00  0.00     0.074 A 
ATOM     62  C   UNL A   1      43.670  27.524  34.287  1.00  0.00     0.031 C 
ATOM     63  C   UNL A   1      44.286  25.893  32.376  1.00  0.00     0.031 A 
BRANCH  50  64
ATOM     64  C   UNL A   1      43.391  23.994  26.576  1.00  0.00    -0.014 A 
ATOM     65  C   UNL A   1      43.173  22.604  26.532  1.00  0.00     0.009 A 
ATOM     66  C   UNL A   1      44.091  24.534  25.485  1.00  0.00     0.009 A 
ATOM     67  C   UNL A   1      43.724  21.791  25.532  1.00  0.00     0.001 A 
ATOM     68  C   UNL A   1      44.681  23.726  24.502  1.00  0.00     0.001 A 
ATOM     69  C   UNL A   1      44.512  22.350  24.536  1.00  0.00     0.000 A 
ENDBRANCH  50  64
BRANCH  51  70
ATOM     70  C   UNL A   1      40.634  30.563  33.056  1.00  0.00    -0.014 A 
ATOM     71  C   UNL A   1      40.294  31.929  33.007  1.00  0.00     0.009 A 
ATOM     72  C   UNL A   1      39.630  29.633  33.362  1.00  0.00     0.009 A 
ATOM     73  C   UNL A   1      38.969  32.343  33.168  1.00  0.00     0.001 A 
ATOM     74  C   UNL A   1      38.305  30.054  33.529  1.00  0.00     0.001 A 
ATOM     75  C   UNL A   1      37.971  31.402  33.402  1.00  0.00     0.000 A 
ENDBRANCH  51  70
BRANCH  63  76
ATOM     76  C   UNL A   1      44.807  24.704  33.137  1.00  0.00    -0.014 A 
ATOM     77  C   UNL A   1      46.006  24.704  33.864  1.00  0.00     0.009 A 
ATOM     78  C   UNL A   1      43.990  23.558  33.252  1.00  0.00     0.009 A 
ATOM     79  C   UNL A   1      46.390  23.594  34.629  1.00  0.00     0.001 A 
ATOM     80  C   UNL A   1      44.351  22.467  34.045  1.00  0.00     0.001 A 
ATOM     81  C   UNL A   1      45.560  22.481  34.727  1.00  0.00     0.000 A 
ENDBRANCH  63  76
ENDBRANCH  37  38
ENDBRANCH  29  32
ENDBRANCH  27  28
ENDBRANCH  26  27
ENDBRANCH  25  26
ENDBRANCH   1  25
TORSDOF 15
ENDMDL
MODEL 2
REMARK VINA RESULT:     -11.5      1.549      2.482
REMARK SMILES Cc1ccc(NC(=O)N2CCCC[C@@H]2C(=O)NCCCCCCNC(=O)c2ccc(-c3c4nc(c(-c5ccccc5)c5ccc([nH]5)c(-c5ccccc5)c5nc(c(-c6ccccc6)c6ccc3[nH]6)C=C5)C=C4)cc2)cc1
REMARK SMILES IDX 20 1 19 2 18 3 17 4 15 5 16 6 14 8 9 9 10 10 11 11 13 12
REMARK SMILES IDX 12 13 7 14 6 15 8 17 5 18 1 19 2 20 3 21 76 22 4 23 75 24
REMARK SMILES IDX 21 25 22 26 23 27 24 28 25 29 26 31 27 32 28 33 74 34 29 35
REMARK SMILES IDX 73 36 30 37 31 38 32 39 67 40 33 41 72 42 66 43 68 44 34 45
REMARK SMILES IDX 71 46 65 47 64 48 35 50 57 51 42 52 56 53 43 54 46 55 55 56
REMARK SMILES IDX 69 57 44 58 45 59 54 61 70 62 47 63 36 64 37 65 41 66 38 67
REMARK SMILES IDX 40 68 39 69 58 70 59 71 63 72 60 73 62 74 61 75 48 76 49 77
REMARK SMILES IDX 53 78 50 79 52 80 51 81
REMARK H PARENT 17 7 6 16 24 30 68 49 46 60
REMARK Flexibility Score: inf
ROOT
ATOM      1  C   UNL A   1      32.557  28.212  26.329  1.00  0.00     0.002 C 
ENDROOT
BRANCH   1   2
ATOM      2  C   UNL A   1      31.776  27.098  27.039  1.00  0.00     0.021 C 
BRANCH   2   3
ATOM      3  C   UNL A   1      31.191  26.026  26.116  1.00  0.00     0.116 C 
BRANCH   3   4
ATOM      4  N   UNL A   1      31.408  24.705  26.667  1.00  0.00    -0.354 N 
ATOM      5  C   UNL A   1      32.298  23.739  26.298  1.00  0.00     0.242 C 
ATOM      6  O   UNL A   1      32.088  22.599  26.724  1.00  0.00    -0.273 OA
ATOM      7  H   UNL A   1      30.825  24.467  27.423  1.00  0.00     0.163 HD
BRANCH   5   8
ATOM      8  C   UNL A   1      33.418  24.005  25.260  1.00  0.00     0.176 C 
ATOM      9  N   UNL A   1      33.281  23.270  23.971  1.00  0.00    -0.313 N 
ATOM     10  C   UNL A   1      34.475  23.104  23.146  1.00  0.00     0.122 C 
ATOM     11  C   UNL A   1      35.735  22.764  23.921  1.00  0.00     0.022 C 
ATOM     12  C   UNL A   1      34.753  23.725  25.985  1.00  0.00     0.035 C 
ATOM     13  C   UNL A   1      35.950  23.760  25.048  1.00  0.00     0.004 C 
BRANCH   9  14
ATOM     14  C   UNL A   1      32.087  23.036  23.309  1.00  0.00     0.322 C 
ATOM     15  N   UNL A   1      31.858  21.853  22.684  1.00  0.00    -0.308 N 
ATOM     16  H   UNL A   1      31.400  21.926  21.816  1.00  0.00     0.171 HD
ATOM     17  O   UNL A   1      31.245  23.930  23.182  1.00  0.00    -0.248 OA
BRANCH  15  18
ATOM     18  C   UNL A   1      32.169  20.542  23.077  1.00  0.00     0.042 A 
ATOM     19  C   UNL A   1      33.676  16.613  23.939  1.00  0.00     0.044 C 
ATOM     20  C   UNL A   1      33.031  17.940  23.677  1.00  0.00    -0.051 A 
ATOM     21  C   UNL A   1      33.026  18.930  24.665  1.00  0.00     0.005 A 
ATOM     22  C   UNL A   1      32.518  18.243  22.411  1.00  0.00     0.005 A 
ATOM     23  C   UNL A   1      32.570  20.215  24.373  1.00  0.00     0.026 A 
ATOM     24  C   UNL A   1      32.069  19.533  22.118  1.00  0.00     0.026 A 
ENDBRANCH  15  18
ENDBRANCH   9  14
ENDBRANCH   5   8
ENDBRANCH   3   4
ENDBRANCH   2   3
ENDBRANCH   1   2
BRANCH   1  25
ATOM     25  C   UNL A   1      31.916  29.610  26.340  1.00  0.00     0.002 C 
BRANCH  25  26
ATOM     26  C   UNL A   1      32.772  30.742  26.914  1.00  0.00     0.021 C 
BRANCH  26  27
ATOM     27  C   UNL A   1      34.118  30.291  27.463  1.00  0.00     0.116 C 
BRANCH  27  28
ATOM     28  N   UNL A   1      34.703  31.200  28.443  1.00  0.00    -0.352 N 
ATOM     29  C   UNL A   1      35.892  31.073  29.141  1.00  0.00     0.251 C 
ATOM     30  H   UNL A   1      34.183  32.014  28.633  1.00  0.00     0.163 HD
ATOM     31  O   UNL A   1      36.237  31.923  29.948  1.00  0.00    -0.269 OA
BRANCH  29  32
ATOM     32  C   UNL A   1      36.809  29.959  28.797  1.00  0.00     0.039 A 
ATOM     33  C   UNL A   1      37.062  29.002  29.785  1.00  0.00     0.014 A 
ATOM     34  C   UNL A   1      37.572  29.989  27.631  1.00  0.00     0.014 A 
ATOM     35  C   UNL A   1      38.234  28.256  29.722  1.00  0.00     0.010 A 
ATOM     36  C   UNL A   1      38.781  29.320  27.612  1.00  0.00     0.010 A 
ATOM     37  C   UNL A   1      39.144  28.517  28.697  1.00  0.00    -0.014 A 
BRANCH  37  38
ATOM     38  C   UNL A   1      40.540  28.105  28.772  1.00  0.00     0.031 A 
ATOM     39  C   UNL A   1      40.962  26.791  28.253  1.00  0.00     0.074 A 
ATOM     40  C   UNL A   1      41.454  28.930  29.332  1.00  0.00     0.049 A 
ATOM     41  N   UNL A   1      41.924  26.086  28.748  1.00  0.00    -0.248 NA
ATOM     42  C   UNL A   1      40.271  26.142  27.148  1.00  0.00     0.031 C 
ATOM     43  C   UNL A   1      42.904  28.762  29.343  1.00  0.00     0.029 A 
ATOM     44  N   UNL A   1      41.228  29.977  30.228  1.00  0.00    -0.354 N 
ATOM     45  C   UNL A   1      42.181  25.072  27.852  1.00  0.00     0.074 A 
ATOM     46  C   UNL A   1      41.058  25.083  26.943  1.00  0.00     0.031 C 
ATOM     47  C   UNL A   1      43.400  29.424  30.402  1.00  0.00     0.029 A 
ATOM     48  C   UNL A   1      42.267  29.922  31.167  1.00  0.00     0.049 A 
ATOM     49  H   UNL A   1      40.487  30.625  30.203  1.00  0.00     0.167 HD
ATOM     50  C   UNL A   1      43.394  24.447  27.863  1.00  0.00     0.031 A 
ATOM     51  C   UNL A   1      42.069  29.732  32.503  1.00  0.00     0.031 A 
ATOM     52  C   UNL A   1      44.244  24.916  28.956  1.00  0.00     0.049 A 
ATOM     53  C   UNL A   1      42.802  28.523  33.045  1.00  0.00     0.074 A 
ATOM     54  C   UNL A   1      45.304  25.807  29.001  1.00  0.00     0.029 A 
ATOM     55  N   UNL A   1      43.870  24.683  30.274  1.00  0.00    -0.354 N 
ATOM     56  N   UNL A   1      43.275  27.567  32.297  1.00  0.00    -0.248 NA
ATOM     57  C   UNL A   1      42.986  28.258  34.470  1.00  0.00     0.031 C 
ATOM     58  C   UNL A   1      45.517  26.170  30.355  1.00  0.00     0.029 A 
ATOM     59  C   UNL A   1      44.603  25.481  31.131  1.00  0.00     0.049 A 
ATOM     60  H   UNL A   1      43.179  24.041  30.557  1.00  0.00     0.167 HD
ATOM     61  C   UNL A   1      43.807  26.586  33.091  1.00  0.00     0.074 A 
ATOM     62  C   UNL A   1      43.608  27.066  34.446  1.00  0.00     0.031 C 
ATOM     63  C   UNL A   1      44.355  25.453  32.565  1.00  0.00     0.031 A 
BRANCH  50  64
ATOM     64  C   UNL A   1      43.928  23.668  26.677  1.00  0.00    -0.014 A 
ATOM     65  C   UNL A   1      45.147  22.976  26.793  1.00  0.00     0.009 A 
ATOM     66  C   UNL A   1      43.328  23.635  25.407  1.00  0.00     0.009 A 
ATOM     67  C   UNL A   1      45.787  22.397  25.687  1.00  0.00     0.001 A 
ATOM     68  C   UNL A   1      43.978  23.096  24.287  1.00  0.00     0.001 A 
ATOM     69  C   UNL A   1      45.218  22.491  24.425  1.00  0.00     0.000 A 
ENDBRANCH  50  64
BRANCH  51  70
ATOM     70  C   UNL A   1      40.749  30.188  33.012  1.00  0.00    -0.014 A 
ATOM     71  C   UNL A   1      40.473  31.568  33.032  1.00  0.00     0.009 A 
ATOM     72  C   UNL A   1      39.681  29.288  33.141  1.00  0.00     0.009 A 
ATOM     73  C   UNL A   1      39.156  32.034  33.086  1.00  0.00     0.001 A 
ATOM     74  C   UNL A   1      38.364  29.759  33.202  1.00  0.00     0.001 A 
ATOM     75  C   UNL A   1      38.101  31.127  33.143  1.00  0.00     0.000 A 
ENDBRANCH  51  70
BRANCH  63  76
ATOM     76  C   UNL A   1      44.786  24.242  33.347  1.00  0.00    -0.014 A 
ATOM     77  C   UNL A   1      46.095  24.025  33.797  1.00  0.00     0.009 A 
ATOM     78  C   UNL A   1      43.801  23.328  33.782  1.00  0.00     0.009 A 
ATOM     79  C   UNL A   1      46.413  22.922  34.601  1.00  0.00     0.001 A 
ATOM     80  C   UNL A   1      44.107  22.250  34.616  1.00  0.00     0.001 A 
ATOM     81  C   UNL A   1      45.419  22.041  35.018  1.00  0.00     0.000 A 
ENDBRANCH  63  76
ENDBRANCH  37  38
ENDBRANCH  29  32
ENDBRANCH  27  28
ENDBRANCH  26  27
ENDBRANCH  25  26
ENDBRANCH   1  25
TORSDOF 15
ENDMDL
MODEL 3
REMARK VINA RESULT:     -11.4      2.860      8.048
REMARK SMILES Cc1ccc(NC(=O)N2CCCC[C@@H]2C(=O)NCCCCCCNC(=O)c2ccc(-c3c4nc(c(-c5ccccc5)c5ccc([nH]5)c(-c5ccccc5)c5nc(c(-c6ccccc6)c6ccc3[nH]6)C=C5)C=C4)cc2)cc1
REMARK SMILES IDX 20 1 19 2 18 3 17 4 15 5 16 6 14 8 9 9 10 10 11 11 13 12
REMARK SMILES IDX 12 13 7 14 6 15 8 17 5 18 1 19 2 20 3 21 76 22 4 23 75 24
REMARK SMILES IDX 21 25 22 26 23 27 24 28 25 29 26 31 27 32 28 33 74 34 29 35
REMARK SMILES IDX 73 36 30 37 31 38 32 39 67 40 33 41 72 42 66 43 68 44 34 45
REMARK SMILES IDX 71 46 65 47 64 48 35 50 57 51 42 52 56 53 43 54 46 55 55 56
REMARK SMILES IDX 69 57 44 58 45 59 54 61 70 62 47 63 36 64 37 65 41 66 38 67
REMARK SMILES IDX 40 68 39 69 58 70 59 71 63 72 60 73 62 74 61 75 48 76 49 77
REMARK SMILES IDX 53 78 50 79 52 80 51 81
REMARK H PARENT 17 7 6 16 24 30 68 49 46 60
REMARK Flexibility Score: inf
ROOT
ATOM      1  C   UNL A   1      36.748  23.584  25.286  1.00  0.00     0.002 C 
ENDROOT
BRANCH   1   2
ATOM      2  C   UNL A   1      35.523  24.079  26.067  1.00  0.00     0.021 C 
BRANCH   2   3
ATOM      3  C   UNL A   1      34.488  24.843  25.235  1.00  0.00     0.116 C 
BRANCH   3   4
ATOM      4  N   UNL A   1      33.497  25.457  26.093  1.00  0.00    -0.354 N 
ATOM      5  C   UNL A   1      32.603  26.451  25.823  1.00  0.00     0.242 C 
ATOM      6  O   UNL A   1      32.074  27.001  26.795  1.00  0.00    -0.273 OA
ATOM      7  H   UNL A   1      33.463  25.104  27.011  1.00  0.00     0.163 HD
BRANCH   5   8
ATOM      8  C   UNL A   1      32.381  26.991  24.388  1.00  0.00     0.176 C 
ATOM      9  N   UNL A   1      31.502  26.158  23.520  1.00  0.00    -0.313 N 
ATOM     10  C   UNL A   1      31.601  26.332  22.073  1.00  0.00     0.122 C 
ATOM     11  C   UNL A   1      33.018  26.485  21.553  1.00  0.00     0.022 C 
ATOM     12  C   UNL A   1      33.788  27.221  23.791  1.00  0.00     0.035 C 
ATOM     13  C   UNL A   1      33.749  27.578  22.314  1.00  0.00     0.004 C 
BRANCH   9  14
ATOM     14  C   UNL A   1      30.361  25.496  23.943  1.00  0.00     0.322 C 
ATOM     15  N   UNL A   1      30.272  24.143  23.864  1.00  0.00    -0.308 N 
ATOM     16  H   UNL A   1      29.395  23.802  23.576  1.00  0.00     0.171 HD
ATOM     17  O   UNL A   1      29.360  26.121  24.305  1.00  0.00    -0.248 OA
BRANCH  15  18
ATOM     18  C   UNL A   1      31.230  23.152  24.128  1.00  0.00     0.042 A 
ATOM     19  C   UNL A   1      34.600  20.608  24.920  1.00  0.00     0.044 C 
ATOM     20  C   UNL A   1      33.356  21.386  24.613  1.00  0.00    -0.051 A 
ATOM     21  C   UNL A   1      32.452  21.701  25.632  1.00  0.00     0.005 A 
ATOM     22  C   UNL A   1      33.135  21.894  23.328  1.00  0.00     0.005 A 
ATOM     23  C   UNL A   1      31.378  22.556  25.381  1.00  0.00     0.026 A 
ATOM     24  C   UNL A   1      32.064  22.757  23.082  1.00  0.00     0.026 A 
ENDBRANCH  15  18
ENDBRANCH   9  14
ENDBRANCH   5   8
ENDBRANCH   3   4
ENDBRANCH   2   3
ENDBRANCH   1   2
BRANCH   1  25
ATOM     25  C   UNL A   1      37.978  23.194  26.123  1.00  0.00     0.002 C 
BRANCH  25  26
ATOM     26  C   UNL A   1      38.709  21.919  25.697  1.00  0.00     0.021 C 
BRANCH  26  27
ATOM     27  C   UNL A   1      39.848  21.512  26.622  1.00  0.00     0.116 C 
BRANCH  27  28
ATOM     28  N   UNL A   1      40.831  20.624  26.012  1.00  0.00    -0.352 N 
ATOM     29  C   UNL A   1      42.211  20.740  25.997  1.00  0.00     0.251 C 
ATOM     30  H   UNL A   1      40.465  19.837  25.550  1.00  0.00     0.163 HD
ATOM     31  O   UNL A   1      42.901  19.911  25.422  1.00  0.00    -0.269 OA
BRANCH  29  32
ATOM     32  C   UNL A   1      42.850  21.808  26.804  1.00  0.00     0.039 A 
ATOM     33  C   UNL A   1      42.704  21.741  28.194  1.00  0.00     0.014 A 
ATOM     34  C   UNL A   1      43.367  22.953  26.203  1.00  0.00     0.014 A 
ATOM     35  C   UNL A   1      42.826  22.906  28.945  1.00  0.00     0.010 A 
ATOM     36  C   UNL A   1      43.398  24.128  26.929  1.00  0.00     0.010 A 
ATOM     37  C   UNL A   1      43.048  24.114  28.283  1.00  0.00    -0.014 A 
BRANCH  37  38
ATOM     38  C   UNL A   1      42.785  25.404  28.907  1.00  0.00     0.031 A 
ATOM     39  C   UNL A   1      41.607  26.199  28.515  1.00  0.00     0.074 A 
ATOM     40  C   UNL A   1      43.633  25.881  29.846  1.00  0.00     0.049 A 
ATOM     41  N   UNL A   1      41.567  27.490  28.506  1.00  0.00    -0.248 NA
ATOM     42  C   UNL A   1      40.381  25.574  28.038  1.00  0.00     0.031 C 
ATOM     43  C   UNL A   1      43.445  27.057  30.689  1.00  0.00     0.029 A 
ATOM     44  N   UNL A   1      44.968  25.525  30.054  1.00  0.00    -0.354 N 
ATOM     45  C   UNL A   1      40.248  27.851  28.340  1.00  0.00     0.074 A 
ATOM     46  C   UNL A   1      39.576  26.635  27.939  1.00  0.00     0.031 C 
ATOM     47  C   UNL A   1      44.654  27.511  31.062  1.00  0.00     0.029 A 
ATOM     48  C   UNL A   1      45.647  26.713  30.359  1.00  0.00     0.049 A 
ATOM     49  H   UNL A   1      45.354  24.621  29.998  1.00  0.00     0.167 HD
ATOM     50  C   UNL A   1      39.829  29.090  28.728  1.00  0.00     0.031 A 
ATOM     51  C   UNL A   1      46.677  27.208  29.614  1.00  0.00     0.031 A 
ATOM     52  C   UNL A   1      40.936  29.923  29.195  1.00  0.00     0.049 A 
ATOM     53  C   UNL A   1      46.421  28.611  29.107  1.00  0.00     0.074 A 
ATOM     54  C   UNL A   1      41.379  30.265  30.463  1.00  0.00     0.029 A 
ATOM     55  N   UNL A   1      41.940  30.302  28.312  1.00  0.00    -0.354 N 
ATOM     56  N   UNL A   1      45.241  29.164  29.067  1.00  0.00    -0.248 NA
ATOM     57  C   UNL A   1      47.456  29.468  28.532  1.00  0.00     0.031 C 
ATOM     58  C   UNL A   1      42.693  30.784  30.345  1.00  0.00     0.029 A 
ATOM     59  C   UNL A   1      43.036  30.779  29.005  1.00  0.00     0.049 A 
ATOM     60  H   UNL A   1      41.880  30.238  27.331  1.00  0.00     0.167 HD
ATOM     61  C   UNL A   1      45.335  30.400  28.485  1.00  0.00     0.074 A 
ATOM     62  C   UNL A   1      46.743  30.549  28.171  1.00  0.00     0.031 C 
ATOM     63  C   UNL A   1      44.240  31.191  28.297  1.00  0.00     0.031 A 
BRANCH  50  64
ATOM     64  C   UNL A   1      38.375  29.416  29.005  1.00  0.00    -0.014 A 
ATOM     65  C   UNL A   1      37.554  29.874  27.957  1.00  0.00     0.009 A 
ATOM     66  C   UNL A   1      37.773  29.369  30.272  1.00  0.00     0.009 A 
ATOM     67  C   UNL A   1      36.262  30.369  28.181  1.00  0.00     0.001 A 
ATOM     68  C   UNL A   1      36.497  29.900  30.515  1.00  0.00     0.001 A 
ATOM     69  C   UNL A   1      35.748  30.417  29.469  1.00  0.00     0.000 A 
ENDBRANCH  50  64
BRANCH  51  70
ATOM     70  C   UNL A   1      47.448  26.189  28.854  1.00  0.00    -0.014 A 
ATOM     71  C   UNL A   1      47.168  26.012  27.486  1.00  0.00     0.009 A 
ATOM     72  C   UNL A   1      48.643  25.666  29.368  1.00  0.00     0.009 A 
ATOM     73  C   UNL A   1      48.101  25.410  26.637  1.00  0.00     0.001 A 
ATOM     74  C   UNL A   1      49.571  25.057  28.515  1.00  0.00     0.001 A 
ATOM     75  C   UNL A   1      49.314  24.957  27.148  1.00  0.00     0.000 A 
ENDBRANCH  51  70
BRANCH  63  76
ATOM     76  C   UNL A   1      44.205  32.467  27.501  1.00  0.00    -0.014 A 
ATOM     77  C   UNL A   1      44.358  32.527  26.109  1.00  0.00     0.009 A 
ATOM     78  C   UNL A   1      43.864  33.670  28.158  1.00  0.00     0.009 A 
ATOM     79  C   UNL A   1      44.222  33.737  25.415  1.00  0.00     0.001 A 
ATOM     80  C   UNL A   1      43.690  34.869  27.465  1.00  0.00     0.001 A 
ATOM     81  C   UNL A   1      43.880  34.905  26.091  1.00  0.00     0.000 A 
ENDBRANCH  63  76
ENDBRANCH  37  38
ENDBRANCH  29  32
ENDBRANCH  27  28
ENDBRANCH  26  27
ENDBRANCH  25  26
ENDBRANCH   1  25
TORSDOF 15
ENDMDL
