MODEL 1
REMARK VINA RESULT:     -11.7      0.000      0.000
REMARK SMILES Cc1nc(-c2ccccc2Cl)sc1C(=O)NC[C@H]1CC[C@@H](C(=O)NCCCCCCNC(=O)c2ccc(-c3c4nc(c(-c5ccccc5)c5ccc([nH]5)c(-c5ccccc5)c5nc(c(-c6ccccc6)c6ccc3[nH]6)C=C5)C=C4)cc2)CC1
REMARK SMILES IDX 26 1 25 2 24 3 22 4 23 5 21 7 18 8 19 9 83 10 20 11 82 12
REMARK SMILES IDX 17 13 16 14 14 15 15 16 13 18 1 19 2 20 3 21 4 22 12 23 5 24
REMARK SMILES IDX 6 25 10 26 7 27 9 28 11 29 8 30 27 31 28 32 29 33 30 34
REMARK SMILES IDX 31 35 32 36 33 38 34 39 35 40 81 41 36 42 80 43 37 44 38 45
REMARK SMILES IDX 39 46 74 47 40 48 79 49 73 50 75 51 41 52 78 53 72 54 71 55
REMARK SMILES IDX 42 57 64 58 49 59 63 60 50 61 53 62 62 63 76 64 51 65 52 66
REMARK SMILES IDX 61 68 77 69 54 70 43 71 44 72 48 73 45 74 47 75 46 76 65 77
REMARK SMILES IDX 66 78 70 79 67 80 69 81 68 82 55 83 56 84 60 85 57 86 59 87
REMARK SMILES IDX 58 88
REMARK H PARENT 24 6 16 17 31 37 75 56 53 67
REMARK Flexibility Score: inf
ROOT
ATOM      1  C   UNL A   1      34.655  32.826  29.428  1.00  0.00     0.021 C 
ENDROOT
BRANCH   1   2
ATOM      2  C   UNL A   1      34.640  31.902  28.209  1.00  0.00     0.116 C 
BRANCH   2   3
ATOM      3  N   UNL A   1      33.368  31.861  27.527  1.00  0.00    -0.356 N 
ATOM      4  C   UNL A   1      32.557  30.849  27.134  1.00  0.00     0.223 C 
ATOM      5  O   UNL A   1      31.427  31.195  26.764  1.00  0.00    -0.275 OA
ATOM      6  H   UNL A   1      33.016  32.753  27.303  1.00  0.00     0.163 HD
BRANCH   4   7
ATOM      7  C   UNL A   1      32.928  29.358  27.082  1.00  0.00     0.078 C 
ATOM      8  C   UNL A   1      32.516  27.777  24.524  1.00  0.00     0.008 C 
ATOM      9  C   UNL A   1      33.816  28.575  24.782  1.00  0.00     0.006 C 
ATOM     10  C   UNL A   1      31.384  28.005  25.548  1.00  0.00     0.006 C 
ATOM     11  C   UNL A   1      34.117  28.933  26.231  1.00  0.00     0.014 C 
ATOM     12  C   UNL A   1      31.767  28.387  26.963  1.00  0.00     0.014 C 
BRANCH   8  13
ATOM     13  C   UNL A   1      32.005  28.053  23.077  1.00  0.00     0.119 C 
BRANCH  13  14
ATOM     14  N   UNL A   1      32.702  27.299  22.069  1.00  0.00    -0.351 N 
ATOM     15  C   UNL A   1      32.720  25.992  21.653  1.00  0.00     0.263 C 
ATOM     16  O   UNL A   1      33.278  25.883  20.551  1.00  0.00    -0.268 OA
ATOM     17  H   UNL A   1      33.322  27.861  21.548  1.00  0.00     0.163 HD
BRANCH  15  18
ATOM     18  C   UNL A   1      32.192  24.832  22.371  1.00  0.00     0.115 A 
ATOM     19  C   UNL A   1      29.941  25.249  23.664  1.00  0.00     0.068 C 
ATOM     20  C   UNL A   1      31.109  24.488  23.180  1.00  0.00     0.062 A 
ATOM     21  N   UNL A   1      31.126  23.198  23.690  1.00  0.00    -0.240 NA
ATOM     22  C   UNL A   1      32.244  22.586  23.398  1.00  0.00     0.125 A 
ATOM     23  S   UNL A   1      33.217  23.402  22.268  1.00  0.00    -0.108 S 
BRANCH  22  24
ATOM     24  C   UNL A   1      32.583  21.271  23.936  1.00  0.00     0.029 A 
ATOM     25  C   UNL A   1      32.343  20.153  23.116  1.00  0.00     0.013 A 
ATOM     26  C   UNL A   1      33.000  21.057  25.258  1.00  0.00     0.051 A 
ATOM     27  C   UNL A   1      32.526  18.856  23.596  1.00  0.00     0.001 A 
ATOM     28  C   UNL A   1      33.186  19.754  25.737  1.00  0.00     0.021 A 
ATOM     29  Cl  UNL A   1      33.228  22.344  26.393  1.00  0.00    -0.084 Cl
ATOM     30  C   UNL A   1      32.948  18.657  24.907  1.00  0.00     0.002 A 
ENDBRANCH  22  24
ENDBRANCH  15  18
ENDBRANCH  13  14
ENDBRANCH   8  13
ENDBRANCH   4   7
ENDBRANCH   2   3
ENDBRANCH   1   2
BRANCH   1  31
ATOM     31  C   UNL A   1      35.347  34.170  29.188  1.00  0.00     0.002 C 
BRANCH  31  32
ATOM     32  C   UNL A   1      34.594  35.152  28.278  1.00  0.00     0.002 C 
BRANCH  32  33
ATOM     33  C   UNL A   1      33.602  36.091  28.971  1.00  0.00     0.021 C 
BRANCH  33  34
ATOM     34  C   UNL A   1      32.523  35.405  29.808  1.00  0.00     0.116 C 
BRANCH  34  35
ATOM     35  N   UNL A   1      32.193  36.157  31.006  1.00  0.00    -0.352 N 
ATOM     36  C   UNL A   1      32.684  36.061  32.283  1.00  0.00     0.251 C 
ATOM     37  H   UNL A   1      31.502  36.848  30.882  1.00  0.00     0.163 HD
ATOM     38  O   UNL A   1      32.123  36.658  33.196  1.00  0.00    -0.269 OA
BRANCH  36  39
ATOM     39  C   UNL A   1      33.879  35.240  32.574  1.00  0.00     0.039 A 
ATOM     40  C   UNL A   1      35.144  35.814  32.412  1.00  0.00     0.014 A 
ATOM     41  C   UNL A   1      33.764  33.898  32.949  1.00  0.00     0.014 A 
ATOM     42  C   UNL A   1      36.290  35.059  32.673  1.00  0.00     0.010 A 
ATOM     43  C   UNL A   1      34.905  33.166  33.273  1.00  0.00     0.010 A 
ATOM     44  C   UNL A   1      36.179  33.736  33.130  1.00  0.00    -0.014 A 
BRANCH  44  45
ATOM     45  C   UNL A   1      37.383  32.933  33.453  1.00  0.00     0.031 A 
ATOM     46  C   UNL A   1      38.134  33.171  34.734  1.00  0.00     0.074 A 
ATOM     47  C   UNL A   1      37.835  32.024  32.567  1.00  0.00     0.049 A 
ATOM     48  N   UNL A   1      39.236  32.611  35.163  1.00  0.00    -0.248 NA
ATOM     49  C   UNL A   1      37.584  34.190  35.643  1.00  0.00     0.031 C 
ATOM     50  C   UNL A   1      37.216  31.718  31.277  1.00  0.00     0.029 A 
ATOM     51  N   UNL A   1      38.926  31.194  32.619  1.00  0.00    -0.354 N 
ATOM     52  C   UNL A   1      39.521  33.218  36.379  1.00  0.00     0.074 A 
ATOM     53  C   UNL A   1      38.500  34.221  36.599  1.00  0.00     0.031 C 
ATOM     54  C   UNL A   1      37.923  30.751  30.670  1.00  0.00     0.029 A 
ATOM     55  C   UNL A   1      39.063  30.398  31.508  1.00  0.00     0.049 A 
ATOM     56  H   UNL A   1      39.551  31.171  33.380  1.00  0.00     0.167 HD
ATOM     57  C   UNL A   1      40.528  32.952  37.244  1.00  0.00     0.031 A 
ATOM     58  C   UNL A   1      40.006  29.489  31.196  1.00  0.00     0.031 A 
ATOM     59  C   UNL A   1      41.535  31.948  37.033  1.00  0.00     0.049 A 
ATOM     60  C   UNL A   1      41.127  29.230  32.164  1.00  0.00     0.074 A 
ATOM     61  C   UNL A   1      42.565  31.567  37.877  1.00  0.00     0.029 A 
ATOM     62  N   UNL A   1      41.641  31.164  35.895  1.00  0.00    -0.354 N 
ATOM     63  N   UNL A   1      41.346  29.768  33.338  1.00  0.00    -0.248 NA
ATOM     64  C   UNL A   1      42.124  28.227  31.763  1.00  0.00     0.031 C 
ATOM     65  C   UNL A   1      43.321  30.584  37.228  1.00  0.00     0.029 A 
ATOM     66  C   UNL A   1      42.731  30.318  36.003  1.00  0.00     0.049 A 
ATOM     67  H   UNL A   1      41.029  31.203  35.124  1.00  0.00     0.167 HD
ATOM     68  C   UNL A   1      42.490  29.152  33.829  1.00  0.00     0.074 A 
ATOM     69  C   UNL A   1      42.909  28.189  32.831  1.00  0.00     0.031 C 
ATOM     70  C   UNL A   1      43.135  29.364  35.002  1.00  0.00     0.031 A 
BRANCH  57  71
ATOM     71  C   UNL A   1      40.593  33.777  38.500  1.00  0.00    -0.014 A 
ATOM     72  C   UNL A   1      40.103  33.283  39.720  1.00  0.00     0.009 A 
ATOM     73  C   UNL A   1      41.174  35.055  38.469  1.00  0.00     0.009 A 
ATOM     74  C   UNL A   1      40.157  34.070  40.873  1.00  0.00     0.001 A 
ATOM     75  C   UNL A   1      41.252  35.826  39.629  1.00  0.00     0.001 A 
ATOM     76  C   UNL A   1      40.734  35.338  40.828  1.00  0.00     0.000 A 
ENDBRANCH  57  71
BRANCH  58  77
ATOM     77  C   UNL A   1      39.921  28.738  29.917  1.00  0.00    -0.014 A 
ATOM     78  C   UNL A   1      39.296  27.482  29.873  1.00  0.00     0.009 A 
ATOM     79  C   UNL A   1      40.464  29.268  28.737  1.00  0.00     0.009 A 
ATOM     80  C   UNL A   1      39.239  26.762  28.678  1.00  0.00     0.001 A 
ATOM     81  C   UNL A   1      40.381  28.558  27.538  1.00  0.00     0.001 A 
ATOM     82  C   UNL A   1      39.777  27.302  27.511  1.00  0.00     0.000 A 
ENDBRANCH  58  77
BRANCH  70  83
ATOM     83  C   UNL A   1      44.339  28.513  35.285  1.00  0.00    -0.014 A 
ATOM     84  C   UNL A   1      44.216  27.265  35.918  1.00  0.00     0.009 A 
ATOM     85  C   UNL A   1      45.610  28.949  34.881  1.00  0.00     0.009 A 
ATOM     86  C   UNL A   1      45.349  26.488  36.168  1.00  0.00     0.001 A 
ATOM     87  C   UNL A   1      46.736  28.158  35.107  1.00  0.00     0.001 A 
ATOM     88  C   UNL A   1      46.606  26.933  35.758  1.00  0.00     0.000 A 
ENDBRANCH  70  83
ENDBRANCH  44  45
ENDBRANCH  36  39
ENDBRANCH  34  35
ENDBRANCH  33  34
ENDBRANCH  32  33
ENDBRANCH  31  32
ENDBRANCH   1  31
TORSDOF 17
ENDMDL
MODEL 2
REMARK VINA RESULT:     -11.6      4.759      9.212
REMARK SMILES Cc1nc(-c2ccccc2Cl)sc1C(=O)NC[C@H]1CC[C@@H](C(=O)NCCCCCCNC(=O)c2ccc(-c3c4nc(c(-c5ccccc5)c5ccc([nH]5)c(-c5ccccc5)c5nc(c(-c6ccccc6)c6ccc3[nH]6)C=C5)C=C4)cc2)CC1
REMARK SMILES IDX 26 1 25 2 24 3 22 4 23 5 21 7 18 8 19 9 83 10 20 11 82 12
REMARK SMILES IDX 17 13 16 14 14 15 15 16 13 18 1 19 2 20 3 21 4 22 12 23 5 24
REMARK SMILES IDX 6 25 10 26 7 27 9 28 11 29 8 30 27 31 28 32 29 33 30 34
REMARK SMILES IDX 31 35 32 36 33 38 34 39 35 40 81 41 36 42 80 43 37 44 38 45
REMARK SMILES IDX 39 46 74 47 40 48 79 49 73 50 75 51 41 52 78 53 72 54 71 55
REMARK SMILES IDX 42 57 64 58 49 59 63 60 50 61 53 62 62 63 76 64 51 65 52 66
REMARK SMILES IDX 61 68 77 69 54 70 43 71 44 72 48 73 45 74 47 75 46 76 65 77
REMARK SMILES IDX 66 78 70 79 67 80 69 81 68 82 55 83 56 84 60 85 57 86 59 87
REMARK SMILES IDX 58 88
REMARK H PARENT 24 6 16 17 31 37 75 56 53 67
REMARK Flexibility Score: inf
ROOT
ATOM      1  C   UNL A   1      34.408  23.983  23.618  1.00  0.00     0.021 C 
ENDROOT
BRANCH   1   2
ATOM      2  C   UNL A   1      32.975  24.001  23.078  1.00  0.00     0.116 C 
BRANCH   2   3
ATOM      3  N   UNL A   1      32.880  24.425  21.701  1.00  0.00    -0.356 N 
ATOM      4  C   UNL A   1      32.772  25.639  21.109  1.00  0.00     0.223 C 
ATOM      5  O   UNL A   1      32.934  25.640  19.881  1.00  0.00    -0.275 OA
ATOM      6  H   UNL A   1      32.898  23.678  21.061  1.00  0.00     0.163 HD
BRANCH   4   7
ATOM      7  C   UNL A   1      32.444  26.966  21.813  1.00  0.00     0.078 C 
ATOM      8  C   UNL A   1      32.364  27.101  24.843  1.00  0.00     0.008 C 
ATOM      9  C   UNL A   1      33.683  27.298  24.059  1.00  0.00     0.006 C 
ATOM     10  C   UNL A   1      31.156  26.635  24.003  1.00  0.00     0.006 C 
ATOM     11  C   UNL A   1      33.550  27.670  22.589  1.00  0.00     0.014 C 
ATOM     12  C   UNL A   1      31.113  27.023  22.539  1.00  0.00     0.014 C 
BRANCH   8  13
ATOM     13  C   UNL A   1      32.602  26.129  26.039  1.00  0.00     0.119 C 
BRANCH  13  14
ATOM     14  N   UNL A   1      31.426  25.390  26.420  1.00  0.00    -0.351 N 
ATOM     15  C   UNL A   1      31.136  24.081  26.707  1.00  0.00     0.263 C 
ATOM     16  O   UNL A   1      30.032  23.981  27.264  1.00  0.00    -0.268 OA
ATOM     17  H   UNL A   1      30.632  25.969  26.492  1.00  0.00     0.163 HD
BRANCH  15  18
ATOM     18  C   UNL A   1      31.958  22.910  26.403  1.00  0.00     0.115 A 
ATOM     19  C   UNL A   1      34.459  23.065  27.201  1.00  0.00     0.068 C 
ATOM     20  C   UNL A   1      33.268  22.462  26.570  1.00  0.00     0.062 A 
ATOM     21  N   UNL A   1      33.560  21.233  25.998  1.00  0.00    -0.240 NA
ATOM     22  C   UNL A   1      32.552  20.782  25.298  1.00  0.00     0.125 A 
ATOM     23  S   UNL A   1      31.108  21.654  25.506  1.00  0.00    -0.108 S 
BRANCH  22  24
ATOM     24  C   UNL A   1      32.644  19.581  24.472  1.00  0.00     0.029 A 
ATOM     25  C   UNL A   1      33.155  18.417  25.075  1.00  0.00     0.013 A 
ATOM     26  C   UNL A   1      32.382  19.564  23.094  1.00  0.00     0.051 A 
ATOM     27  C   UNL A   1      33.386  17.262  24.328  1.00  0.00     0.001 A 
ATOM     28  C   UNL A   1      32.613  18.402  22.347  1.00  0.00     0.021 A 
ATOM     29  Cl  UNL A   1      31.850  20.960  22.219  1.00  0.00    -0.084 Cl
ATOM     30  C   UNL A   1      33.115  17.255  22.963  1.00  0.00     0.002 A 
ENDBRANCH  22  24
ENDBRANCH  15  18
ENDBRANCH  13  14
ENDBRANCH   8  13
ENDBRANCH   4   7
ENDBRANCH   2   3
ENDBRANCH   1   2
BRANCH   1  31
ATOM     31  C   UNL A   1      35.245  22.797  23.135  1.00  0.00     0.002 C 
BRANCH  31  32
ATOM     32  C   UNL A   1      36.720  22.806  23.564  1.00  0.00     0.002 C 
BRANCH  32  33
ATOM     33  C   UNL A   1      37.060  22.022  24.835  1.00  0.00     0.021 C 
BRANCH  33  34
ATOM     34  C   UNL A   1      38.067  22.691  25.769  1.00  0.00     0.116 C 
BRANCH  34  35
ATOM     35  N   UNL A   1      39.289  21.918  25.909  1.00  0.00    -0.352 N 
ATOM     36  C   UNL A   1      40.565  22.315  26.215  1.00  0.00     0.251 C 
ATOM     37  H   UNL A   1      39.183  20.950  25.759  1.00  0.00     0.163 HD
ATOM     38  O   UNL A   1      41.495  21.524  26.084  1.00  0.00    -0.269 OA
BRANCH  36  39
ATOM     39  C   UNL A   1      40.838  23.688  26.692  1.00  0.00     0.039 A 
ATOM     40  C   UNL A   1      41.069  23.891  28.056  1.00  0.00     0.014 A 
ATOM     41  C   UNL A   1      40.810  24.779  25.818  1.00  0.00     0.014 A 
ATOM     42  C   UNL A   1      41.322  25.178  28.536  1.00  0.00     0.010 A 
ATOM     43  C   UNL A   1      41.127  26.053  26.287  1.00  0.00     0.010 A 
ATOM     44  C   UNL A   1      41.377  26.266  27.651  1.00  0.00    -0.014 A 
BRANCH  44  45
ATOM     45  C   UNL A   1      41.686  27.634  28.135  1.00  0.00     0.031 A 
ATOM     46  C   UNL A   1      43.112  28.103  28.227  1.00  0.00     0.074 A 
ATOM     47  C   UNL A   1      40.685  28.437  28.544  1.00  0.00     0.049 A 
ATOM     48  N   UNL A   1      43.581  29.238  28.678  1.00  0.00    -0.248 NA
ATOM     49  C   UNL A   1      44.149  27.162  27.773  1.00  0.00     0.031 C 
ATOM     50  C   UNL A   1      39.263  28.092  28.534  1.00  0.00     0.029 A 
ATOM     51  N   UNL A   1      40.716  29.710  29.055  1.00  0.00    -0.354 N 
ATOM     52  C   UNL A   1      44.962  29.143  28.579  1.00  0.00     0.074 A 
ATOM     53  C   UNL A   1      45.259  27.822  28.066  1.00  0.00     0.031 C 
ATOM     54  C   UNL A   1      38.555  29.136  28.992  1.00  0.00     0.029 A 
ATOM     55  C   UNL A   1      39.473  30.207  29.365  1.00  0.00     0.049 A 
ATOM     56  H   UNL A   1      41.548  30.219  29.187  1.00  0.00     0.167 HD
ATOM     57  C   UNL A   1      45.901  30.076  28.868  1.00  0.00     0.031 A 
ATOM     58  C   UNL A   1      39.113  31.390  29.895  1.00  0.00     0.031 A 
ATOM     59  C   UNL A   1      45.607  31.394  29.366  1.00  0.00     0.049 A 
ATOM     60  C   UNL A   1      40.176  32.400  30.230  1.00  0.00     0.074 A 
ATOM     61  C   UNL A   1      46.486  32.429  29.638  1.00  0.00     0.029 A 
ATOM     62  N   UNL A   1      44.337  31.858  29.668  1.00  0.00    -0.354 N 
ATOM     63  N   UNL A   1      41.474  32.318  30.071  1.00  0.00    -0.248 NA
ATOM     64  C   UNL A   1      39.717  33.672  30.809  1.00  0.00     0.031 C 
ATOM     65  C   UNL A   1      45.749  33.504  30.147  1.00  0.00     0.029 A 
ATOM     66  C   UNL A   1      44.409  33.155  30.145  1.00  0.00     0.049 A 
ATOM     67  H   UNL A   1      43.506  31.340  29.558  1.00  0.00     0.167 HD
ATOM     68  C   UNL A   1      41.986  33.534  30.503  1.00  0.00     0.074 A 
ATOM     69  C   UNL A   1      40.856  34.342  30.917  1.00  0.00     0.031 C 
ATOM     70  C   UNL A   1      43.276  33.946  30.552  1.00  0.00     0.031 A 
BRANCH  57  71
ATOM     71  C   UNL A   1      47.340  29.694  28.662  1.00  0.00    -0.014 A 
ATOM     72  C   UNL A   1      47.975  29.889  27.425  1.00  0.00     0.009 A 
ATOM     73  C   UNL A   1      48.079  29.153  29.726  1.00  0.00     0.009 A 
ATOM     74  C   UNL A   1      49.308  29.513  27.247  1.00  0.00     0.001 A 
ATOM     75  C   UNL A   1      49.420  28.805  29.553  1.00  0.00     0.001 A 
ATOM     76  C   UNL A   1      50.030  28.975  28.311  1.00  0.00     0.000 A 
ENDBRANCH  57  71
BRANCH  58  77
ATOM     77  C   UNL A   1      37.678  31.697  30.126  1.00  0.00    -0.014 A 
ATOM     78  C   UNL A   1      37.071  31.367  31.347  1.00  0.00     0.009 A 
ATOM     79  C   UNL A   1      36.908  32.315  29.129  1.00  0.00     0.009 A 
ATOM     80  C   UNL A   1      35.715  31.629  31.556  1.00  0.00     0.001 A 
ATOM     81  C   UNL A   1      35.560  32.601  29.352  1.00  0.00     0.001 A 
ATOM     82  C   UNL A   1      34.962  32.249  30.561  1.00  0.00     0.000 A 
ENDBRANCH  58  77
BRANCH  70  83
ATOM     83  C   UNL A   1      43.530  35.345  31.036  1.00  0.00    -0.014 A 
ATOM     84  C   UNL A   1      43.721  35.621  32.399  1.00  0.00     0.009 A 
ATOM     85  C   UNL A   1      43.616  36.396  30.110  1.00  0.00     0.009 A 
ATOM     86  C   UNL A   1      43.960  36.929  32.826  1.00  0.00     0.001 A 
ATOM     87  C   UNL A   1      43.881  37.697  30.537  1.00  0.00     0.001 A 
ATOM     88  C   UNL A   1      44.044  37.964  31.895  1.00  0.00     0.000 A 
ENDBRANCH  70  83
ENDBRANCH  44  45
ENDBRANCH  36  39
ENDBRANCH  34  35
ENDBRANCH  33  34
ENDBRANCH  32  33
ENDBRANCH  31  32
ENDBRANCH   1  31
TORSDOF 17
ENDMDL
MODEL 3
REMARK VINA RESULT:     -11.5      6.658     12.147
REMARK SMILES Cc1nc(-c2ccccc2Cl)sc1C(=O)NC[C@H]1CC[C@@H](C(=O)NCCCCCCNC(=O)c2ccc(-c3c4nc(c(-c5ccccc5)c5ccc([nH]5)c(-c5ccccc5)c5nc(c(-c6ccccc6)c6ccc3[nH]6)C=C5)C=C4)cc2)CC1
REMARK SMILES IDX 26 1 25 2 24 3 22 4 23 5 21 7 18 8 19 9 83 10 20 11 82 12
REMARK SMILES IDX 17 13 16 14 14 15 15 16 13 18 1 19 2 20 3 21 4 22 12 23 5 24
REMARK SMILES IDX 6 25 10 26 7 27 9 28 11 29 8 30 27 31 28 32 29 33 30 34
REMARK SMILES IDX 31 35 32 36 33 38 34 39 35 40 81 41 36 42 80 43 37 44 38 45
REMARK SMILES IDX 39 46 74 47 40 48 79 49 73 50 75 51 41 52 78 53 72 54 71 55
REMARK SMILES IDX 42 57 64 58 49 59 63 60 50 61 53 62 62 63 76 64 51 65 52 66
REMARK SMILES IDX 61 68 77 69 54 70 43 71 44 72 48 73 45 74 47 75 46 76 65 77
REMARK SMILES IDX 66 78 70 79 67 80 69 81 68 82 55 83 56 84 60 85 57 86 59 87
REMARK SMILES IDX 58 88
REMARK H PARENT 24 6 16 17 31 37 75 56 53 67
REMARK Flexibility Score: inf
ROOT
ATOM      1  C   UNL A   1      40.784  21.587  27.556  1.00  0.00     0.021 C 
ENDROOT
BRANCH   1   2
ATOM      2  C   UNL A   1      40.137  21.864  26.197  1.00  0.00     0.116 C 
BRANCH   2   3
ATOM      3  N   UNL A   1      39.193  22.956  26.215  1.00  0.00    -0.356 N 
ATOM      4  C   UNL A   1      37.950  23.117  25.702  1.00  0.00     0.223 C 
ATOM      5  O   UNL A   1      37.343  24.119  26.101  1.00  0.00    -0.275 OA
ATOM      6  H   UNL A   1      39.520  23.747  26.703  1.00  0.00     0.163 HD
BRANCH   4   7
ATOM      7  C   UNL A   1      37.268  22.202  24.672  1.00  0.00     0.078 C 
ATOM      8  C   UNL A   1      34.248  21.910  24.660  1.00  0.00     0.008 C 
ATOM      9  C   UNL A   1      34.953  23.047  23.884  1.00  0.00     0.006 C 
ATOM     10  C   UNL A   1      35.156  21.077  25.589  1.00  0.00     0.006 C 
ATOM     11  C   UNL A   1      36.429  22.841  23.572  1.00  0.00     0.014 C 
ATOM     12  C   UNL A   1      36.621  20.944  25.223  1.00  0.00     0.014 C 
BRANCH   8  13
ATOM     13  C   UNL A   1      33.039  22.487  25.458  1.00  0.00     0.119 C 
BRANCH  13  14
ATOM     14  N   UNL A   1      31.871  22.711  24.646  1.00  0.00    -0.351 N 
ATOM     15  C   UNL A   1      31.407  23.723  23.846  1.00  0.00     0.263 C 
ATOM     16  O   UNL A   1      30.477  23.331  23.126  1.00  0.00    -0.268 OA
ATOM     17  H   UNL A   1      31.250  21.947  24.673  1.00  0.00     0.163 HD
BRANCH  15  18
ATOM     18  C   UNL A   1      31.880  25.107  23.813  1.00  0.00     0.115 A 
ATOM     19  C   UNL A   1      32.914  25.878  21.522  1.00  0.00     0.068 C 
ATOM     20  C   UNL A   1      32.484  26.000  22.929  1.00  0.00     0.062 A 
ATOM     21  N   UNL A   1      32.806  27.242  23.455  1.00  0.00    -0.240 NA
ATOM     22  C   UNL A   1      32.579  27.287  24.742  1.00  0.00     0.125 A 
ATOM     23  S   UNL A   1      31.711  25.957  25.348  1.00  0.00    -0.108 S 
BRANCH  22  24
ATOM     24  C   UNL A   1      32.966  28.427  25.569  1.00  0.00     0.029 A 
ATOM     25  C   UNL A   1      34.031  28.242  26.470  1.00  0.00     0.013 A 
ATOM     26  C   UNL A   1      32.253  29.635  25.611  1.00  0.00     0.051 A 
ATOM     27  C   UNL A   1      34.387  29.239  27.378  1.00  0.00     0.001 A 
ATOM     28  C   UNL A   1      32.614  30.635  26.522  1.00  0.00     0.021 A 
ATOM     29  Cl  UNL A   1      30.862  29.940  24.627  1.00  0.00    -0.084 Cl
ATOM     30  C   UNL A   1      33.677  30.436  27.404  1.00  0.00     0.002 A 
ENDBRANCH  22  24
ENDBRANCH  15  18
ENDBRANCH  13  14
ENDBRANCH   8  13
ENDBRANCH   4   7
ENDBRANCH   2   3
ENDBRANCH   1   2
BRANCH   1  31
ATOM     31  C   UNL A   1      42.125  20.855  27.475  1.00  0.00     0.002 C 
BRANCH  31  32
ATOM     32  C   UNL A   1      42.073  19.342  27.733  1.00  0.00     0.002 C 
BRANCH  32  33
ATOM     33  C   UNL A   1      42.729  18.452  26.673  1.00  0.00     0.021 C 
BRANCH  33  34
ATOM     34  C   UNL A   1      42.840  19.064  25.278  1.00  0.00     0.116 C 
BRANCH  34  35
ATOM     35  N   UNL A   1      44.100  18.740  24.631  1.00  0.00    -0.352 N 
ATOM     36  C   UNL A   1      45.141  19.548  24.251  1.00  0.00     0.251 C 
ATOM     37  H   UNL A   1      44.227  17.784  24.432  1.00  0.00     0.163 HD
ATOM     38  O   UNL A   1      46.030  19.097  23.535  1.00  0.00    -0.269 OA
BRANCH  36  39
ATOM     39  C   UNL A   1      45.203  20.960  24.687  1.00  0.00     0.039 A 
ATOM     40  C   UNL A   1      45.540  21.238  26.016  1.00  0.00     0.014 A 
ATOM     41  C   UNL A   1      44.875  22.004  23.817  1.00  0.00     0.014 A 
ATOM     42  C   UNL A   1      45.599  22.562  26.457  1.00  0.00     0.010 A 
ATOM     43  C   UNL A   1      44.998  23.326  24.239  1.00  0.00     0.010 A 
ATOM     44  C   UNL A   1      45.352  23.618  25.565  1.00  0.00    -0.014 A 
BRANCH  44  45
ATOM     45  C   UNL A   1      45.450  25.031  26.004  1.00  0.00     0.031 A 
ATOM     46  C   UNL A   1      46.775  25.743  25.980  1.00  0.00     0.074 A 
ATOM     47  C   UNL A   1      44.357  25.660  26.476  1.00  0.00     0.049 A 
ATOM     48  N   UNL A   1      47.069  26.955  26.378  1.00  0.00    -0.248 NA
ATOM     49  C   UNL A   1      47.925  24.984  25.463  1.00  0.00     0.031 C 
ATOM     50  C   UNL A   1      43.020  25.073  26.579  1.00  0.00     0.029 A 
ATOM     51  N   UNL A   1      44.201  26.933  26.964  1.00  0.00    -0.354 N 
ATOM     52  C   UNL A   1      48.435  27.098  26.174  1.00  0.00     0.074 A 
ATOM     53  C   UNL A   1      48.921  25.835  25.661  1.00  0.00     0.031 C 
ATOM     54  C   UNL A   1      42.175  25.991  27.074  1.00  0.00     0.029 A 
ATOM     55  C   UNL A   1      42.916  27.215  27.360  1.00  0.00     0.049 A 
ATOM     56  H   UNL A   1      44.939  27.582  27.024  1.00  0.00     0.167 HD
ATOM     57  C   UNL A   1      49.214  28.188  26.378  1.00  0.00     0.031 A 
ATOM     58  C   UNL A   1      42.394  28.332  27.898  1.00  0.00     0.031 A 
ATOM     59  C   UNL A   1      48.731  29.448  26.876  1.00  0.00     0.049 A 
ATOM     60  C   UNL A   1      43.284  29.520  28.136  1.00  0.00     0.074 A 
ATOM     61  C   UNL A   1      49.432  30.627  27.065  1.00  0.00     0.029 A 
ATOM     62  N   UNL A   1      47.424  29.692  27.267  1.00  0.00    -0.354 N 
ATOM     63  N   UNL A   1      44.562  29.660  27.880  1.00  0.00    -0.248 NA
ATOM     64  C   UNL A   1      42.653  30.708  28.729  1.00  0.00     0.031 C 
ATOM     65  C   UNL A   1      48.557  31.571  27.613  1.00  0.00     0.029 A 
ATOM     66  C   UNL A   1      47.302  30.996  27.718  1.00  0.00     0.049 A 
ATOM     67  H   UNL A   1      46.691  29.036  27.229  1.00  0.00     0.167 HD
ATOM     68  C   UNL A   1      44.883  30.958  28.254  1.00  0.00     0.074 A 
ATOM     69  C   UNL A   1      43.662  31.569  28.741  1.00  0.00     0.031 C 
ATOM     70  C   UNL A   1      46.081  31.589  28.198  1.00  0.00     0.031 A 
BRANCH  57  71
ATOM     71  C   UNL A   1      50.679  28.055  26.069  1.00  0.00    -0.014 A 
ATOM     72  C   UNL A   1      51.592  27.621  27.044  1.00  0.00     0.009 A 
ATOM     73  C   UNL A   1      51.151  28.344  24.779  1.00  0.00     0.009 A 
ATOM     74  C   UNL A   1      52.952  27.519  26.744  1.00  0.00     0.001 A 
ATOM     75  C   UNL A   1      52.507  28.213  24.474  1.00  0.00     0.001 A 
ATOM     76  C   UNL A   1      53.409  27.811  25.460  1.00  0.00     0.000 A 
ENDBRANCH  57  71
BRANCH  58  77
ATOM     77  C   UNL A   1      40.948  28.391  28.233  1.00  0.00    -0.014 A 
ATOM     78  C   UNL A   1      40.032  28.937  27.320  1.00  0.00     0.009 A 
ATOM     79  C   UNL A   1      40.475  27.907  29.462  1.00  0.00     0.009 A 
ATOM     80  C   UNL A   1      38.675  29.019  27.643  1.00  0.00     0.001 A 
ATOM     81  C   UNL A   1      39.115  27.966  29.770  1.00  0.00     0.001 A 
ATOM     82  C   UNL A   1      38.217  28.530  28.865  1.00  0.00     0.000 A 
ENDBRANCH  58  77
BRANCH  70  83
ATOM     83  C   UNL A   1      46.121  33.023  28.640  1.00  0.00    -0.014 A 
ATOM     84  C   UNL A   1      45.742  34.062  27.776  1.00  0.00     0.009 A 
ATOM     85  C   UNL A   1      46.509  33.336  29.952  1.00  0.00     0.009 A 
ATOM     86  C   UNL A   1      45.782  35.390  28.210  1.00  0.00     0.001 A 
ATOM     87  C   UNL A   1      46.523  34.661  30.391  1.00  0.00     0.001 A 
ATOM     88  C   UNL A   1      46.168  35.686  29.517  1.00  0.00     0.000 A 
ENDBRANCH  70  83
ENDBRANCH  44  45
ENDBRANCH  36  39
ENDBRANCH  34  35
ENDBRANCH  33  34
ENDBRANCH  32  33
ENDBRANCH  31  32
ENDBRANCH   1  31
TORSDOF 17
ENDMDL
