MODEL 1
REMARK VINA RESULT:     -11.2      0.000      0.000
REMARK SMILES O=C(COc1ccccc1Br)Nc1ccc(C(=O)NCCCCCCNC(=O)c2ccc(-c3c4nc(c(-c5ccccc5)c5ccc([nH]5)c(-c5ccccc5)c5nc(c(-c6ccccc6)c6ccc3[nH]6)C=C5)C=C4)cc2)c(O)c1
REMARK SMILES IDX 21 1 20 2 19 3 17 4 18 5 16 7 13 8 14 9 79 10 15 11 77 12
REMARK SMILES IDX 12 13 1 14 2 15 3 17 4 18 5 19 6 20 10 21 7 22 9 23 11 24
REMARK SMILES IDX 8 25 78 26 22 28 23 29 24 30 25 31 26 32 27 33 28 35 29 36
REMARK SMILES IDX 30 37 76 38 31 39 75 40 32 41 33 42 34 43 69 44 35 45 74 46
REMARK SMILES IDX 68 47 70 48 36 49 73 50 67 51 66 52 37 54 59 55 44 56 58 57
REMARK SMILES IDX 45 58 48 59 57 60 71 61 46 62 47 63 56 65 72 66 49 67 38 68
REMARK SMILES IDX 39 69 43 70 40 71 42 72 41 73 60 74 61 75 65 76 62 77 64 78
REMARK SMILES IDX 63 79 50 80 51 81 55 82 52 83 54 84 53 85
REMARK H PARENT 19 6 12 16 78 27 26 34 70 53 48 64
REMARK Flexibility Score: inf
ROOT
ATOM      1  C   UNL A   1      29.868  31.369  24.613  1.00  0.00     0.021 C 
ENDROOT
BRANCH   1   2
ATOM      2  C   UNL A   1      29.255  31.165  23.227  1.00  0.00     0.116 C 
BRANCH   2   3
ATOM      3  N   UNL A   1      27.987  30.457  23.239  1.00  0.00    -0.352 N 
ATOM      4  C   UNL A   1      27.692  29.115  23.197  1.00  0.00     0.255 C 
ATOM      5  O   UNL A   1      26.508  28.785  23.172  1.00  0.00    -0.269 OA
ATOM      6  H   UNL A   1      27.197  31.043  23.285  1.00  0.00     0.163 HD
BRANCH   4   7
ATOM      7  C   UNL A   1      28.734  28.054  23.142  1.00  0.00     0.081 A 
ATOM      8  C   UNL A   1      30.912  26.260  23.055  1.00  0.00     0.045 A 
ATOM      9  C   UNL A   1      30.974  27.465  22.362  1.00  0.00     0.027 A 
ATOM     10  C   UNL A   1      29.722  25.910  23.702  1.00  0.00     0.073 A 
ATOM     11  C   UNL A   1      29.897  28.360  22.417  1.00  0.00     0.020 A 
ATOM     12  C   UNL A   1      28.631  26.783  23.711  1.00  0.00     0.130 A 
BRANCH   8  13
ATOM     13  N   UNL A   1      32.020  25.419  23.264  1.00  0.00    -0.323 N 
ATOM     14  O   UNL A   1      33.280  25.625  21.305  1.00  0.00    -0.271 OA
ATOM     15  C   UNL A   1      33.169  25.333  22.492  1.00  0.00     0.262 C 
ATOM     16  H   UNL A   1      31.975  24.825  24.048  1.00  0.00     0.170 HD
BRANCH  15  17
ATOM     17  C   UNL A   1      34.364  24.824  23.308  1.00  0.00     0.329 C 
BRANCH  17  18
ATOM     18  O   UNL A   1      34.892  23.630  22.711  1.00  0.00    -0.483 OA
BRANCH  18  19
ATOM     19  C   UNL A   1      35.386  22.733  23.622  1.00  0.00     0.134 A 
ATOM     20  C   UNL A   1      36.770  22.743  23.815  1.00  0.00     0.047 A 
ATOM     21  C   UNL A   1      34.616  21.723  24.214  1.00  0.00     0.060 A 
ATOM     22  C   UNL A   1      37.379  21.760  24.598  1.00  0.00     0.004 A 
ATOM     23  C   UNL A   1      35.231  20.742  24.997  1.00  0.00     0.019 A 
ATOM     24  Br  UNL A   1      32.745  21.550  23.991  1.00  0.00    -0.047 Br
ATOM     25  C   UNL A   1      36.611  20.756  25.183  1.00  0.00     0.001 A 
ENDBRANCH  18  19
ENDBRANCH  17  18
ENDBRANCH  15  17
ENDBRANCH   8  13
BRANCH  12  26
ATOM     26  O   UNL A   1      27.487  26.285  24.271  1.00  0.00    -0.507 OA
ATOM     27  H   UNL A   1      26.944  26.838  24.798  1.00  0.00     0.293 HD
ENDBRANCH  12  26
ENDBRANCH   4   7
ENDBRANCH   2   3
ENDBRANCH   1   2
BRANCH   1  28
ATOM     28  C   UNL A   1      30.961  30.380  25.036  1.00  0.00     0.002 C 
BRANCH  28  29
ATOM     29  C   UNL A   1      31.724  30.692  26.326  1.00  0.00     0.002 C 
BRANCH  29  30
ATOM     30  C   UNL A   1      31.436  32.044  26.980  1.00  0.00     0.021 C 
BRANCH  30  31
ATOM     31  C   UNL A   1      32.546  33.084  26.886  1.00  0.00     0.116 C 
BRANCH  31  32
ATOM     32  N   UNL A   1      32.374  34.190  27.812  1.00  0.00    -0.352 N 
ATOM     33  C   UNL A   1      33.140  34.560  28.889  1.00  0.00     0.251 C 
ATOM     34  H   UNL A   1      31.589  34.761  27.641  1.00  0.00     0.163 HD
ATOM     35  O   UNL A   1      32.759  35.460  29.636  1.00  0.00    -0.269 OA
BRANCH  33  36
ATOM     36  C   UNL A   1      34.410  33.858  29.180  1.00  0.00     0.039 A 
ATOM     37  C   UNL A   1      35.561  34.238  28.483  1.00  0.00     0.014 A 
ATOM     38  C   UNL A   1      34.475  32.834  30.129  1.00  0.00     0.014 A 
ATOM     39  C   UNL A   1      36.787  33.643  28.789  1.00  0.00     0.010 A 
ATOM     40  C   UNL A   1      35.710  32.294  30.484  1.00  0.00     0.010 A 
ATOM     41  C   UNL A   1      36.880  32.696  29.822  1.00  0.00    -0.014 A 
BRANCH  41  42
ATOM     42  C   UNL A   1      38.195  32.140  30.238  1.00  0.00     0.031 A 
ATOM     43  C   UNL A   1      38.683  30.833  29.675  1.00  0.00     0.074 A 
ATOM     44  C   UNL A   1      38.923  32.785  31.172  1.00  0.00     0.049 A 
ATOM     45  N   UNL A   1      39.775  30.169  29.963  1.00  0.00    -0.248 NA
ATOM     46  C   UNL A   1      37.827  30.174  28.676  1.00  0.00     0.031 C 
ATOM     47  C   UNL A   1      38.545  34.041  31.824  1.00  0.00     0.029 A 
ATOM     48  N   UNL A   1      40.132  32.468  31.741  1.00  0.00    -0.354 N 
ATOM     49  C   UNL A   1      39.729  29.012  29.194  1.00  0.00     0.074 A 
ATOM     50  C   UNL A   1      38.482  29.042  28.462  1.00  0.00     0.031 C 
ATOM     51  C   UNL A   1      39.512  34.399  32.684  1.00  0.00     0.029 A 
ATOM     52  C   UNL A   1      40.553  33.377  32.683  1.00  0.00     0.049 A 
ATOM     53  H   UNL A   1      40.647  31.664  31.499  1.00  0.00     0.167 HD
ATOM     54  C   UNL A   1      40.648  28.023  29.094  1.00  0.00     0.031 A 
ATOM     55  C   UNL A   1      41.648  33.382  33.467  1.00  0.00     0.031 A 
ATOM     56  C   UNL A   1      41.893  27.997  29.817  1.00  0.00     0.049 A 
ATOM     57  C   UNL A   1      42.638  32.255  33.355  1.00  0.00     0.074 A 
ATOM     58  C   UNL A   1      42.914  27.066  29.735  1.00  0.00     0.029 A 
ATOM     59  N   UNL A   1      42.281  28.937  30.758  1.00  0.00    -0.354 N 
ATOM     60  N   UNL A   1      42.614  31.210  32.565  1.00  0.00    -0.248 NA
ATOM     61  C   UNL A   1      43.811  32.316  34.238  1.00  0.00     0.031 C 
ATOM     62  C   UNL A   1      43.893  27.408  30.673  1.00  0.00     0.029 A 
ATOM     63  C   UNL A   1      43.512  28.590  31.289  1.00  0.00     0.049 A 
ATOM     64  H   UNL A   1      41.761  29.733  31.010  1.00  0.00     0.167 HD
ATOM     65  C   UNL A   1      43.781  30.506  32.834  1.00  0.00     0.074 A 
ATOM     66  C   UNL A   1      44.499  31.253  33.845  1.00  0.00     0.031 C 
ATOM     67  C   UNL A   1      44.217  29.342  32.293  1.00  0.00     0.031 A 
BRANCH  54  68
ATOM     68  C   UNL A   1      40.344  26.873  28.174  1.00  0.00    -0.014 A 
ATOM     69  C   UNL A   1      40.823  26.847  26.856  1.00  0.00     0.009 A 
ATOM     70  C   UNL A   1      39.622  25.768  28.655  1.00  0.00     0.009 A 
ATOM     71  C   UNL A   1      40.562  25.750  26.029  1.00  0.00     0.001 A 
ATOM     72  C   UNL A   1      39.389  24.661  27.838  1.00  0.00     0.001 A 
ATOM     73  C   UNL A   1      39.853  24.657  26.523  1.00  0.00     0.000 A 
ENDBRANCH  54  68
BRANCH  55  74
ATOM     74  C   UNL A   1      41.869  34.485  34.442  1.00  0.00    -0.014 A 
ATOM     75  C   UNL A   1      41.423  34.370  35.768  1.00  0.00     0.009 A 
ATOM     76  C   UNL A   1      42.497  35.675  34.042  1.00  0.00     0.009 A 
ATOM     77  C   UNL A   1      41.569  35.436  36.659  1.00  0.00     0.001 A 
ATOM     78  C   UNL A   1      42.673  36.725  34.945  1.00  0.00     0.001 A 
ATOM     79  C   UNL A   1      42.196  36.611  36.249  1.00  0.00     0.000 A 
ENDBRANCH  55  74
BRANCH  67  80
ATOM     80  C   UNL A   1      45.551  28.824  32.756  1.00  0.00    -0.014 A 
ATOM     81  C   UNL A   1      46.749  29.259  32.169  1.00  0.00     0.009 A 
ATOM     82  C   UNL A   1      45.609  27.917  33.826  1.00  0.00     0.009 A 
ATOM     83  C   UNL A   1      47.976  28.769  32.621  1.00  0.00     0.001 A 
ATOM     84  C   UNL A   1      46.838  27.455  34.299  1.00  0.00     0.001 A 
ATOM     85  C   UNL A   1      48.019  27.873  33.690  1.00  0.00     0.000 A 
ENDBRANCH  67  80
ENDBRANCH  41  42
ENDBRANCH  33  36
ENDBRANCH  31  32
ENDBRANCH  30  31
ENDBRANCH  29  30
ENDBRANCH  28  29
ENDBRANCH   1  28
TORSDOF 18
ENDMDL
MODEL 2
REMARK VINA RESULT:     -11.2      5.188     11.479
REMARK SMILES O=C(COc1ccccc1Br)Nc1ccc(C(=O)NCCCCCCNC(=O)c2ccc(-c3c4nc(c(-c5ccccc5)c5ccc([nH]5)c(-c5ccccc5)c5nc(c(-c6ccccc6)c6ccc3[nH]6)C=C5)C=C4)cc2)c(O)c1
REMARK SMILES IDX 21 1 20 2 19 3 17 4 18 5 16 7 13 8 14 9 79 10 15 11 77 12
REMARK SMILES IDX 12 13 1 14 2 15 3 17 4 18 5 19 6 20 10 21 7 22 9 23 11 24
REMARK SMILES IDX 8 25 78 26 22 28 23 29 24 30 25 31 26 32 27 33 28 35 29 36
REMARK SMILES IDX 30 37 76 38 31 39 75 40 32 41 33 42 34 43 69 44 35 45 74 46
REMARK SMILES IDX 68 47 70 48 36 49 73 50 67 51 66 52 37 54 59 55 44 56 58 57
REMARK SMILES IDX 45 58 48 59 57 60 71 61 46 62 47 63 56 65 72 66 49 67 38 68
REMARK SMILES IDX 39 69 43 70 40 71 42 72 41 73 60 74 61 75 65 76 62 77 64 78
REMARK SMILES IDX 63 79 50 80 51 81 55 82 52 83 54 84 53 85
REMARK H PARENT 19 6 12 16 78 27 26 34 70 53 48 64
REMARK Flexibility Score: inf
ROOT
ATOM      1  C   UNL A   1      44.179  23.816  28.286  1.00  0.00     0.021 C 
ENDROOT
BRANCH   1   2
ATOM      2  C   UNL A   1      45.548  23.335  27.804  1.00  0.00     0.116 C 
BRANCH   2   3
ATOM      3  N   UNL A   1      45.703  23.341  26.360  1.00  0.00    -0.352 N 
ATOM      4  C   UNL A   1      45.729  24.372  25.451  1.00  0.00     0.255 C 
ATOM      5  O   UNL A   1      45.829  24.086  24.258  1.00  0.00    -0.269 OA
ATOM      6  H   UNL A   1      45.810  22.447  25.961  1.00  0.00     0.163 HD
BRANCH   4   7
ATOM      7  C   UNL A   1      45.603  25.803  25.837  1.00  0.00     0.081 A 
ATOM      8  C   UNL A   1      45.093  28.448  26.679  1.00  0.00     0.045 A 
ATOM      9  C   UNL A   1      44.076  27.692  26.103  1.00  0.00     0.027 A 
ATOM     10  C   UNL A   1      46.385  27.915  26.737  1.00  0.00     0.073 A 
ATOM     11  C   UNL A   1      44.328  26.375  25.698  1.00  0.00     0.020 A 
ATOM     12  C   UNL A   1      46.643  26.620  26.284  1.00  0.00     0.130 A 
BRANCH   8  13
ATOM     13  N   UNL A   1      44.881  29.674  27.337  1.00  0.00    -0.323 N 
ATOM     14  O   UNL A   1      45.566  31.286  25.788  1.00  0.00    -0.271 OA
ATOM     15  C   UNL A   1      44.937  30.945  26.785  1.00  0.00     0.262 C 
ATOM     16  H   UNL A   1      44.667  29.623  28.297  1.00  0.00     0.170 HD
BRANCH  15  17
ATOM     17  C   UNL A   1      44.079  31.944  27.573  1.00  0.00     0.329 C 
BRANCH  17  18
ATOM     18  O   UNL A   1      44.768  33.197  27.690  1.00  0.00    -0.483 OA
BRANCH  18  19
ATOM     19  C   UNL A   1      43.950  34.288  27.559  1.00  0.00     0.134 A 
ATOM     20  C   UNL A   1      43.423  34.814  28.742  1.00  0.00     0.047 A 
ATOM     21  C   UNL A   1      43.491  34.773  26.327  1.00  0.00     0.060 A 
ATOM     22  C   UNL A   1      42.454  35.819  28.696  1.00  0.00     0.004 A 
ATOM     23  C   UNL A   1      42.521  35.779  26.288  1.00  0.00     0.019 A 
ATOM     24  Br  UNL A   1      44.069  34.116  24.650  1.00  0.00    -0.047 Br
ATOM     25  C   UNL A   1      41.999  36.297  27.470  1.00  0.00     0.001 A 
ENDBRANCH  18  19
ENDBRANCH  17  18
ENDBRANCH  15  17
ENDBRANCH   8  13
BRANCH  12  26
ATOM     26  O   UNL A   1      47.961  26.252  26.279  1.00  0.00    -0.507 OA
ATOM     27  H   UNL A   1      48.353  25.924  25.494  1.00  0.00     0.293 HD
ENDBRANCH  12  26
ENDBRANCH   4   7
ENDBRANCH   2   3
ENDBRANCH   1   2
BRANCH   1  28
ATOM     28  C   UNL A   1      42.953  23.234  27.571  1.00  0.00     0.002 C 
BRANCH  28  29
ATOM     29  C   UNL A   1      42.021  22.343  28.397  1.00  0.00     0.002 C 
BRANCH  29  30
ATOM     30  C   UNL A   1      41.001  21.513  27.617  1.00  0.00     0.021 C 
BRANCH  30  31
ATOM     31  C   UNL A   1      40.870  21.835  26.133  1.00  0.00     0.116 C 
BRANCH  31  32
ATOM     32  N   UNL A   1      39.505  22.124  25.728  1.00  0.00    -0.352 N 
ATOM     33  C   UNL A   1      38.702  23.190  26.048  1.00  0.00     0.251 C 
ATOM     34  H   UNL A   1      39.093  21.454  25.134  1.00  0.00     0.163 HD
ATOM     35  O   UNL A   1      37.520  23.195  25.707  1.00  0.00    -0.269 OA
BRANCH  33  36
ATOM     36  C   UNL A   1      39.240  24.324  26.833  1.00  0.00     0.039 A 
ATOM     37  C   UNL A   1      40.066  25.251  26.190  1.00  0.00     0.014 A 
ATOM     38  C   UNL A   1      38.940  24.477  28.189  1.00  0.00     0.014 A 
ATOM     39  C   UNL A   1      40.529  26.369  26.888  1.00  0.00     0.010 A 
ATOM     40  C   UNL A   1      39.342  25.629  28.863  1.00  0.00     0.010 A 
ATOM     41  C   UNL A   1      40.136  26.591  28.219  1.00  0.00    -0.014 A 
BRANCH  41  42
ATOM     42  C   UNL A   1      40.525  27.833  28.937  1.00  0.00     0.031 A 
ATOM     43  C   UNL A   1      39.558  28.979  29.059  1.00  0.00     0.074 A 
ATOM     44  C   UNL A   1      41.776  27.953  29.427  1.00  0.00     0.049 A 
ATOM     45  N   UNL A   1      39.742  30.158  29.599  1.00  0.00    -0.248 NA
ATOM     46  C   UNL A   1      38.218  28.786  28.482  1.00  0.00     0.031 C 
ATOM     47  C   UNL A   1      42.821  26.931  29.342  1.00  0.00     0.029 A 
ATOM     48  N   UNL A   1      42.383  28.992  30.088  1.00  0.00    -0.354 N 
ATOM     49  C   UNL A   1      38.550  30.849  29.415  1.00  0.00     0.074 A 
ATOM     50  C   UNL A   1      37.666  29.976  28.675  1.00  0.00     0.031 C 
ATOM     51  C   UNL A   1      43.930  27.384  29.949  1.00  0.00     0.029 A 
ATOM     52  C   UNL A   1      43.693  28.743  30.422  1.00  0.00     0.049 A 
ATOM     53  H   UNL A   1      41.923  29.837  30.302  1.00  0.00     0.167 HD
ATOM     54  C   UNL A   1      38.216  32.091  29.838  1.00  0.00     0.031 A 
ATOM     55  C   UNL A   1      44.607  29.525  31.029  1.00  0.00     0.031 A 
ATOM     56  C   UNL A   1      39.092  32.958  30.582  1.00  0.00     0.049 A 
ATOM     57  C   UNL A   1      44.216  30.912  31.462  1.00  0.00     0.074 A 
ATOM     58  C   UNL A   1      38.821  34.210  31.105  1.00  0.00     0.029 A 
ATOM     59  N   UNL A   1      40.409  32.666  30.900  1.00  0.00    -0.354 N 
ATOM     60  N   UNL A   1      43.059  31.517  31.348  1.00  0.00    -0.248 NA
ATOM     61  C   UNL A   1      45.256  31.717  32.116  1.00  0.00     0.031 C 
ATOM     62  C   UNL A   1      39.994  34.704  31.685  1.00  0.00     0.029 A 
ATOM     63  C   UNL A   1      40.974  33.730  31.583  1.00  0.00     0.049 A 
ATOM     64  H   UNL A   1      40.873  31.828  30.675  1.00  0.00     0.167 HD
ATOM     65  C   UNL A   1      43.225  32.762  31.942  1.00  0.00     0.074 A 
ATOM     66  C   UNL A   1      44.585  32.816  32.433  1.00  0.00     0.031 C 
ATOM     67  C   UNL A   1      42.329  33.772  32.068  1.00  0.00     0.031 A 
BRANCH  54  68
ATOM     68  C   UNL A   1      36.842  32.601  29.500  1.00  0.00    -0.014 A 
ATOM     69  C   UNL A   1      36.594  33.297  28.307  1.00  0.00     0.009 A 
ATOM     70  C   UNL A   1      35.766  32.323  30.358  1.00  0.00     0.009 A 
ATOM     71  C   UNL A   1      35.302  33.727  27.993  1.00  0.00     0.001 A 
ATOM     72  C   UNL A   1      34.471  32.727  30.028  1.00  0.00     0.001 A 
ATOM     73  C   UNL A   1      34.242  33.435  28.850  1.00  0.00     0.000 A 
ENDBRANCH  54  68
BRANCH  55  74
ATOM     74  C   UNL A   1      45.990  29.026  31.257  1.00  0.00    -0.014 A 
ATOM     75  C   UNL A   1      46.320  28.339  32.435  1.00  0.00     0.009 A 
ATOM     76  C   UNL A   1      46.998  29.263  30.309  1.00  0.00     0.009 A 
ATOM     77  C   UNL A   1      47.635  27.936  32.676  1.00  0.00     0.001 A 
ATOM     78  C   UNL A   1      48.305  28.827  30.537  1.00  0.00     0.001 A 
ATOM     79  C   UNL A   1      48.626  28.176  31.726  1.00  0.00     0.000 A 
ENDBRANCH  55  74
BRANCH  67  80
ATOM     80  C   UNL A   1      42.780  35.007  32.797  1.00  0.00    -0.014 A 
ATOM     81  C   UNL A   1      42.486  35.203  34.156  1.00  0.00     0.009 A 
ATOM     82  C   UNL A   1      43.548  35.969  32.123  1.00  0.00     0.009 A 
ATOM     83  C   UNL A   1      42.922  36.355  34.814  1.00  0.00     0.001 A 
ATOM     84  C   UNL A   1      44.012  37.103  32.791  1.00  0.00     0.001 A 
ATOM     85  C   UNL A   1      43.690  37.300  34.133  1.00  0.00     0.000 A 
ENDBRANCH  67  80
ENDBRANCH  41  42
ENDBRANCH  33  36
ENDBRANCH  31  32
ENDBRANCH  30  31
ENDBRANCH  29  30
ENDBRANCH  28  29
ENDBRANCH   1  28
TORSDOF 18
ENDMDL
MODEL 3
REMARK VINA RESULT:     -11.1      1.264      5.954
REMARK SMILES O=C(COc1ccccc1Br)Nc1ccc(C(=O)NCCCCCCNC(=O)c2ccc(-c3c4nc(c(-c5ccccc5)c5ccc([nH]5)c(-c5ccccc5)c5nc(c(-c6ccccc6)c6ccc3[nH]6)C=C5)C=C4)cc2)c(O)c1
REMARK SMILES IDX 21 1 20 2 19 3 17 4 18 5 16 7 13 8 14 9 79 10 15 11 77 12
REMARK SMILES IDX 12 13 1 14 2 15 3 17 4 18 5 19 6 20 10 21 7 22 9 23 11 24
REMARK SMILES IDX 8 25 78 26 22 28 23 29 24 30 25 31 26 32 27 33 28 35 29 36
REMARK SMILES IDX 30 37 76 38 31 39 75 40 32 41 33 42 34 43 69 44 35 45 74 46
REMARK SMILES IDX 68 47 70 48 36 49 73 50 67 51 66 52 37 54 59 55 44 56 58 57
REMARK SMILES IDX 45 58 48 59 57 60 71 61 46 62 47 63 56 65 72 66 49 67 38 68
REMARK SMILES IDX 39 69 43 70 40 71 42 72 41 73 60 74 61 75 65 76 62 77 64 78
REMARK SMILES IDX 63 79 50 80 51 81 55 82 52 83 54 84 53 85
REMARK H PARENT 19 6 12 16 78 27 26 34 70 53 48 64
REMARK Flexibility Score: inf
ROOT
ATOM      1  C   UNL A   1      29.770  31.425  24.473  1.00  0.00     0.021 C 
ENDROOT
BRANCH   1   2
ATOM      2  C   UNL A   1      29.160  31.165  23.095  1.00  0.00     0.116 C 
BRANCH   2   3
ATOM      3  N   UNL A   1      27.903  30.438  23.131  1.00  0.00    -0.352 N 
ATOM      4  C   UNL A   1      27.630  29.091  23.142  1.00  0.00     0.255 C 
ATOM      5  O   UNL A   1      26.450  28.741  23.127  1.00  0.00    -0.269 OA
ATOM      6  H   UNL A   1      27.104  31.012  23.152  1.00  0.00     0.163 HD
BRANCH   4   7
ATOM      7  C   UNL A   1      28.688  28.045  23.132  1.00  0.00     0.081 A 
ATOM      8  C   UNL A   1      30.894  26.284  23.130  1.00  0.00     0.045 A 
ATOM      9  C   UNL A   1      30.954  27.476  22.414  1.00  0.00     0.027 A 
ATOM     10  C   UNL A   1      29.695  25.929  23.758  1.00  0.00     0.073 A 
ATOM     11  C   UNL A   1      29.862  28.355  22.427  1.00  0.00     0.020 A 
ATOM     12  C   UNL A   1      28.592  26.784  23.725  1.00  0.00     0.130 A 
BRANCH   8  13
ATOM     13  N   UNL A   1      32.010  25.464  23.381  1.00  0.00    -0.323 N 
ATOM     14  O   UNL A   1      32.977  25.145  21.276  1.00  0.00    -0.271 OA
ATOM     15  C   UNL A   1      33.034  25.146  22.502  1.00  0.00     0.262 C 
ATOM     16  H   UNL A   1      32.070  25.074  24.283  1.00  0.00     0.170 HD
BRANCH  15  17
ATOM     17  C   UNL A   1      34.327  24.787  23.245  1.00  0.00     0.329 C 
BRANCH  17  18
ATOM     18  O   UNL A   1      34.766  23.476  22.860  1.00  0.00    -0.483 OA
BRANCH  18  19
ATOM     19  C   UNL A   1      34.517  22.514  23.804  1.00  0.00     0.134 A 
ATOM     20  C   UNL A   1      33.285  21.860  23.713  1.00  0.00     0.047 A 
ATOM     21  C   UNL A   1      35.334  22.289  24.920  1.00  0.00     0.060 A 
ATOM     22  C   UNL A   1      32.875  20.985  24.722  1.00  0.00     0.004 A 
ATOM     23  C   UNL A   1      34.919  21.412  25.926  1.00  0.00     0.019 A 
ATOM     24  Br  UNL A   1      36.995  23.147  25.205  1.00  0.00    -0.047 Br
ATOM     25  C   UNL A   1      33.689  20.766  25.830  1.00  0.00     0.001 A 
ENDBRANCH  18  19
ENDBRANCH  17  18
ENDBRANCH  15  17
ENDBRANCH   8  13
BRANCH  12  26
ATOM     26  O   UNL A   1      27.442  26.281  24.269  1.00  0.00    -0.507 OA
ATOM     27  H   UNL A   1      26.829  25.823  23.728  1.00  0.00     0.293 HD
ENDBRANCH  12  26
ENDBRANCH   4   7
ENDBRANCH   2   3
ENDBRANCH   1   2
BRANCH   1  28
ATOM     28  C   UNL A   1      30.833  30.429  24.954  1.00  0.00     0.002 C 
BRANCH  28  29
ATOM     29  C   UNL A   1      31.632  30.810  26.204  1.00  0.00     0.002 C 
BRANCH  29  30
ATOM     30  C   UNL A   1      31.415  32.223  26.748  1.00  0.00     0.021 C 
BRANCH  30  31
ATOM     31  C   UNL A   1      32.664  32.957  27.221  1.00  0.00     0.116 C 
BRANCH  31  32
ATOM     32  N   UNL A   1      32.387  34.292  27.725  1.00  0.00    -0.352 N 
ATOM     33  C   UNL A   1      33.018  35.004  28.714  1.00  0.00     0.251 C 
ATOM     34  H   UNL A   1      31.633  34.755  27.293  1.00  0.00     0.163 HD
ATOM     35  O   UNL A   1      32.555  36.080  29.090  1.00  0.00    -0.269 OA
BRANCH  33  36
ATOM     36  C   UNL A   1      34.239  34.470  29.358  1.00  0.00     0.039 A 
ATOM     37  C   UNL A   1      34.130  33.891  30.626  1.00  0.00     0.014 A 
ATOM     38  C   UNL A   1      35.484  34.537  28.726  1.00  0.00     0.014 A 
ATOM     39  C   UNL A   1      35.251  33.315  31.226  1.00  0.00     0.010 A 
ATOM     40  C   UNL A   1      36.585  33.898  29.293  1.00  0.00     0.010 A 
ATOM     41  C   UNL A   1      36.481  33.275  30.546  1.00  0.00    -0.014 A 
BRANCH  41  42
ATOM     42  C   UNL A   1      37.653  32.564  31.121  1.00  0.00     0.031 A 
ATOM     43  C   UNL A   1      38.320  33.077  32.368  1.00  0.00     0.074 A 
ATOM     44  C   UNL A   1      38.156  31.488  30.482  1.00  0.00     0.049 A 
ATOM     45  N   UNL A   1      39.385  32.620  32.980  1.00  0.00    -0.248 NA
ATOM     46  C   UNL A   1      37.731  34.268  33.000  1.00  0.00     0.031 C 
ATOM     47  C   UNL A   1      37.625  30.912  29.244  1.00  0.00     0.029 A 
ATOM     48  N   UNL A   1      39.233  30.691  30.783  1.00  0.00    -0.354 N 
ATOM     49  C   UNL A   1      39.599  33.474  34.056  1.00  0.00     0.074 A 
ATOM     50  C   UNL A   1      38.583  34.501  33.988  1.00  0.00     0.031 C 
ATOM     51  C   UNL A   1      38.362  29.842  28.906  1.00  0.00     0.029 A 
ATOM     52  C   UNL A   1      39.444  29.683  29.871  1.00  0.00     0.049 A 
ATOM     53  H   UNL A   1      39.800  30.828  31.576  1.00  0.00     0.167 HD
ATOM     54  C   UNL A   1      40.546  33.400  35.021  1.00  0.00     0.031 A 
ATOM     55  C   UNL A   1      40.409  28.745  29.810  1.00  0.00     0.031 A 
ATOM     56  C   UNL A   1      41.552  32.374  35.093  1.00  0.00     0.049 A 
ATOM     57  C   UNL A   1      41.464  28.706  30.881  1.00  0.00     0.074 A 
ATOM     58  C   UNL A   1      42.517  32.184  36.068  1.00  0.00     0.029 A 
ATOM     59  N   UNL A   1      41.730  31.373  34.151  1.00  0.00    -0.354 N 
ATOM     60  N   UNL A   1      41.603  29.474  31.933  1.00  0.00    -0.248 NA
ATOM     61  C   UNL A   1      42.491  27.661  30.758  1.00  0.00     0.031 C 
ATOM     62  C   UNL A   1      43.319  31.105  35.683  1.00  0.00     0.029 A 
ATOM     63  C   UNL A   1      42.811  30.582  34.505  1.00  0.00     0.049 A 
ATOM     64  H   UNL A   1      41.172  31.243  33.352  1.00  0.00     0.167 HD
ATOM     65  C   UNL A   1      42.713  28.988  32.613  1.00  0.00     0.074 A 
ATOM     66  C   UNL A   1      43.196  27.847  31.865  1.00  0.00     0.031 C 
ATOM     67  C   UNL A   1      43.282  29.448  33.754  1.00  0.00     0.031 A 
BRANCH  54  68
ATOM     68  C   UNL A   1      40.550  34.467  36.082  1.00  0.00    -0.014 A 
ATOM     69  C   UNL A   1      39.809  34.322  37.265  1.00  0.00     0.009 A 
ATOM     70  C   UNL A   1      41.359  35.603  35.924  1.00  0.00     0.009 A 
ATOM     71  C   UNL A   1      39.857  35.306  38.256  1.00  0.00     0.001 A 
ATOM     72  C   UNL A   1      41.430  36.569  36.929  1.00  0.00     0.001 A 
ATOM     73  C   UNL A   1      40.673  36.423  38.090  1.00  0.00     0.000 A 
ENDBRANCH  54  68
BRANCH  55  74
ATOM     74  C   UNL A   1      40.435  27.767  28.688  1.00  0.00    -0.014 A 
ATOM     75  C   UNL A   1      41.124  28.057  27.500  1.00  0.00     0.009 A 
ATOM     76  C   UNL A   1      39.743  26.550  28.788  1.00  0.00     0.009 A 
ATOM     77  C   UNL A   1      41.086  27.167  26.424  1.00  0.00     0.001 A 
ATOM     78  C   UNL A   1      39.736  25.646  27.723  1.00  0.00     0.001 A 
ATOM     79  C   UNL A   1      40.396  25.961  26.538  1.00  0.00     0.000 A 
ENDBRANCH  55  74
BRANCH  67  80
ATOM     80  C   UNL A   1      44.469  28.693  34.286  1.00  0.00    -0.014 A 
ATOM     81  C   UNL A   1      45.781  29.072  33.964  1.00  0.00     0.009 A 
ATOM     82  C   UNL A   1      44.269  27.611  35.157  1.00  0.00     0.009 A 
ATOM     83  C   UNL A   1      46.868  28.360  34.476  1.00  0.00     0.001 A 
ATOM     84  C   UNL A   1      45.357  26.922  35.694  1.00  0.00     0.001 A 
ATOM     85  C   UNL A   1      46.654  27.290  35.346  1.00  0.00     0.000 A 
ENDBRANCH  67  80
ENDBRANCH  41  42
ENDBRANCH  33  36
ENDBRANCH  31  32
ENDBRANCH  30  31
ENDBRANCH  29  30
ENDBRANCH  28  29
ENDBRANCH   1  28
TORSDOF 18
ENDMDL
