MODEL 1
REMARK VINA RESULT:     -11.4      0.000      0.000
REMARK SMILES O=C(NCCCCCCNC(=O)c1ccc(-n2cnc3ccccc32)nc1)c1ccc(-c2c3nc(c(-c4ccccc4)c4ccc([nH]4)c(-c4ccccc4)c4nc(c(-c5ccccc5)c5ccc2[nH]5)C=C4)C=C3)cc1
REMARK SMILES IDX 6 1 5 2 4 3 3 4 1 5 2 6 28 8 29 9 75 10 30 11 74 12 31 13
REMARK SMILES IDX 32 14 33 15 68 16 34 17 73 18 67 19 69 20 35 21 72 22 66 23
REMARK SMILES IDX 65 24 36 26 58 27 43 28 57 29 44 30 47 31 56 32 70 33 45 34
REMARK SMILES IDX 46 35 55 37 71 38 48 39 37 40 38 41 42 42 39 43 41 44 40 45
REMARK SMILES IDX 59 46 60 47 64 48 61 49 63 50 62 51 49 52 50 53 54 54 51 55
REMARK SMILES IDX 53 56 52 57 7 58 8 59 9 60 10 61 11 62 12 64 13 65 14 66
REMARK SMILES IDX 27 67 15 68 26 69 16 70 17 71 18 72 25 73 19 74 20 75 24 76
REMARK SMILES IDX 21 77 23 78 22 79
REMARK H PARENT 3 7 69 25 47 36 10 63
REMARK Flexibility Score: inf
ROOT
ATOM      1  C   UNL A   1      35.272  24.375  25.122  1.00  0.00     0.002 C 
ENDROOT
BRANCH   1   2
ATOM      2  C   UNL A   1      36.241  23.579  26.009  1.00  0.00     0.021 C 
BRANCH   2   3
ATOM      3  C   UNL A   1      37.705  23.759  25.653  1.00  0.00     0.116 C 
BRANCH   3   4
ATOM      4  N   UNL A   1      38.544  22.593  25.950  1.00  0.00    -0.352 N 
ATOM      5  O   UNL A   1      40.561  21.635  26.426  1.00  0.00    -0.269 OA
ATOM      6  C   UNL A   1      39.799  22.576  26.554  1.00  0.00     0.251 C 
ATOM      7  H   UNL A   1      38.177  21.717  25.690  1.00  0.00     0.163 HD
BRANCH   6   8
ATOM      8  C   UNL A   1      40.173  23.742  27.378  1.00  0.00     0.039 A 
ATOM      9  C   UNL A   1      41.488  24.156  27.592  1.00  0.00     0.014 A 
ATOM     10  C   UNL A   1      39.115  24.480  27.882  1.00  0.00     0.014 A 
ATOM     11  C   UNL A   1      41.689  25.359  28.273  1.00  0.00     0.010 A 
ATOM     12  C   UNL A   1      39.312  25.787  28.193  1.00  0.00     0.010 A 
ATOM     13  C   UNL A   1      40.580  26.178  28.559  1.00  0.00    -0.014 A 
BRANCH  13  14
ATOM     14  C   UNL A   1      40.689  27.469  29.219  1.00  0.00     0.031 A 
ATOM     15  C   UNL A   1      41.551  28.435  28.513  1.00  0.00     0.074 A 
ATOM     16  C   UNL A   1      39.966  27.823  30.308  1.00  0.00     0.049 A 
ATOM     17  N   UNL A   1      42.729  28.810  28.874  1.00  0.00    -0.248 NA
ATOM     18  C   UNL A   1      41.146  28.905  27.181  1.00  0.00     0.031 C 
ATOM     19  C   UNL A   1      38.865  27.113  30.980  1.00  0.00     0.029 A 
ATOM     20  N   UNL A   1      40.024  28.982  31.014  1.00  0.00    -0.354 N 
ATOM     21  C   UNL A   1      43.153  29.715  27.915  1.00  0.00     0.074 A 
ATOM     22  C   UNL A   1      42.221  29.607  26.819  1.00  0.00     0.031 C 
ATOM     23  C   UNL A   1      38.218  27.950  31.823  1.00  0.00     0.029 A 
ATOM     24  C   UNL A   1      38.977  29.181  31.905  1.00  0.00     0.049 A 
ATOM     25  H   UNL A   1      40.755  29.633  30.902  1.00  0.00     0.167 HD
ATOM     26  C   UNL A   1      44.109  30.637  28.208  1.00  0.00     0.031 A 
ATOM     27  C   UNL A   1      38.761  30.278  32.672  1.00  0.00     0.031 A 
ATOM     28  C   UNL A   1      44.807  30.300  29.427  1.00  0.00     0.049 A 
ATOM     29  C   UNL A   1      40.064  30.969  32.802  1.00  0.00     0.074 A 
ATOM     30  C   UNL A   1      45.584  29.229  29.823  1.00  0.00     0.029 A 
ATOM     31  N   UNL A   1      44.381  30.908  30.586  1.00  0.00    -0.354 N 
ATOM     32  N   UNL A   1      41.081  30.460  33.438  1.00  0.00    -0.248 NA
ATOM     33  C   UNL A   1      40.382  31.998  31.826  1.00  0.00     0.031 C 
ATOM     34  C   UNL A   1      45.185  28.964  31.165  1.00  0.00     0.029 A 
ATOM     35  C   UNL A   1      44.262  29.939  31.551  1.00  0.00     0.049 A 
ATOM     36  H   UNL A   1      44.194  31.867  30.701  1.00  0.00     0.167 HD
ATOM     37  C   UNL A   1      42.177  30.764  32.643  1.00  0.00     0.074 A 
ATOM     38  C   UNL A   1      41.696  31.785  31.711  1.00  0.00     0.031 C 
ATOM     39  C   UNL A   1      43.283  29.962  32.621  1.00  0.00     0.031 A 
BRANCH  26  40
ATOM     40  C   UNL A   1      44.147  32.016  27.610  1.00  0.00    -0.014 A 
ATOM     41  C   UNL A   1      44.296  32.260  26.231  1.00  0.00     0.009 A 
ATOM     42  C   UNL A   1      43.767  33.108  28.407  1.00  0.00     0.009 A 
ATOM     43  C   UNL A   1      44.061  33.517  25.671  1.00  0.00     0.001 A 
ATOM     44  C   UNL A   1      43.493  34.360  27.845  1.00  0.00     0.001 A 
ATOM     45  C   UNL A   1      43.636  34.562  26.476  1.00  0.00     0.000 A 
ENDBRANCH  26  40
BRANCH  27  46
ATOM     46  C   UNL A   1      37.479  30.982  32.908  1.00  0.00    -0.014 A 
ATOM     47  C   UNL A   1      36.435  30.888  31.969  1.00  0.00     0.009 A 
ATOM     48  C   UNL A   1      37.396  31.998  33.876  1.00  0.00     0.009 A 
ATOM     49  C   UNL A   1      35.384  31.812  31.956  1.00  0.00     0.001 A 
ATOM     50  C   UNL A   1      36.342  32.924  33.862  1.00  0.00     0.001 A 
ATOM     51  C   UNL A   1      35.348  32.842  32.890  1.00  0.00     0.000 A 
ENDBRANCH  27  46
BRANCH  39  52
ATOM     52  C   UNL A   1      43.391  28.848  33.644  1.00  0.00    -0.014 A 
ATOM     53  C   UNL A   1      44.300  29.017  34.701  1.00  0.00     0.009 A 
ATOM     54  C   UNL A   1      42.785  27.587  33.491  1.00  0.00     0.009 A 
ATOM     55  C   UNL A   1      44.616  27.961  35.559  1.00  0.00     0.001 A 
ATOM     56  C   UNL A   1      43.082  26.535  34.369  1.00  0.00     0.001 A 
ATOM     57  C   UNL A   1      44.008  26.721  35.393  1.00  0.00     0.000 A 
ENDBRANCH  39  52
ENDBRANCH  13  14
ENDBRANCH   6   8
ENDBRANCH   3   4
ENDBRANCH   2   3
ENDBRANCH   1   2
BRANCH   1  58
ATOM     58  C   UNL A   1      34.903  23.770  23.757  1.00  0.00     0.002 C 
BRANCH  58  59
ATOM     59  C   UNL A   1      33.523  24.133  23.199  1.00  0.00     0.021 C 
BRANCH  59  60
ATOM     60  C   UNL A   1      32.918  25.414  23.764  1.00  0.00     0.116 C 
BRANCH  60  61
ATOM     61  N   UNL A   1      31.797  25.139  24.646  1.00  0.00    -0.352 N 
ATOM     62  C   UNL A   1      31.506  25.712  25.856  1.00  0.00     0.252 C 
ATOM     63  H   UNL A   1      31.163  24.453  24.334  1.00  0.00     0.163 HD
ATOM     64  O   UNL A   1      30.631  25.259  26.583  1.00  0.00    -0.269 OA
BRANCH  62  65
ATOM     65  C   UNL A   1      32.261  26.896  26.275  1.00  0.00     0.058 A 
ATOM     66  C   UNL A   1      33.557  27.120  25.813  1.00  0.00     0.019 A 
ATOM     67  C   UNL A   1      31.689  27.801  27.153  1.00  0.00     0.127 A 
ATOM     68  C   UNL A   1      34.235  28.251  26.248  1.00  0.00     0.048 A 
ATOM     69  N   UNL A   1      32.350  28.883  27.634  1.00  0.00    -0.238 NA
ATOM     70  C   UNL A   1      33.591  29.115  27.134  1.00  0.00     0.138 A 
BRANCH  70  71
ATOM     71  N   UNL A   1      34.245  30.307  27.521  1.00  0.00    -0.283 N 
ATOM     72  C   UNL A   1      33.700  31.566  27.464  1.00  0.00     0.206 A 
ATOM     73  C   UNL A   1      35.547  30.447  27.969  1.00  0.00     0.074 A 
ATOM     74  N   UNL A   1      34.505  32.479  27.963  1.00  0.00    -0.236 NA
ATOM     75  C   UNL A   1      35.668  31.807  28.246  1.00  0.00     0.089 A 
ATOM     76  C   UNL A   1      36.634  29.562  28.073  1.00  0.00     0.029 A 
ATOM     77  C   UNL A   1      36.894  32.307  28.711  1.00  0.00     0.030 A 
ATOM     78  C   UNL A   1      37.853  30.083  28.511  1.00  0.00     0.002 A 
ATOM     79  C   UNL A   1      37.981  31.432  28.837  1.00  0.00     0.002 A 
ENDBRANCH  70  71
ENDBRANCH  62  65
ENDBRANCH  60  61
ENDBRANCH  59  60
ENDBRANCH  58  59
ENDBRANCH   1  58
TORSDOF 14
ENDMDL
MODEL 2
REMARK VINA RESULT:     -11.3      2.007      3.169
REMARK SMILES O=C(NCCCCCCNC(=O)c1ccc(-n2cnc3ccccc32)nc1)c1ccc(-c2c3nc(c(-c4ccccc4)c4ccc([nH]4)c(-c4ccccc4)c4nc(c(-c5ccccc5)c5ccc2[nH]5)C=C4)C=C3)cc1
REMARK SMILES IDX 6 1 5 2 4 3 3 4 1 5 2 6 28 8 29 9 75 10 30 11 74 12 31 13
REMARK SMILES IDX 32 14 33 15 68 16 34 17 73 18 67 19 69 20 35 21 72 22 66 23
REMARK SMILES IDX 65 24 36 26 58 27 43 28 57 29 44 30 47 31 56 32 70 33 45 34
REMARK SMILES IDX 46 35 55 37 71 38 48 39 37 40 38 41 42 42 39 43 41 44 40 45
REMARK SMILES IDX 59 46 60 47 64 48 61 49 63 50 62 51 49 52 50 53 54 54 51 55
REMARK SMILES IDX 53 56 52 57 7 58 8 59 9 60 10 61 11 62 12 64 13 65 14 66
REMARK SMILES IDX 27 67 15 68 26 69 16 70 17 71 18 72 25 73 19 74 20 75 24 76
REMARK SMILES IDX 21 77 23 78 22 79
REMARK H PARENT 3 7 69 25 47 36 10 63
REMARK Flexibility Score: inf
ROOT
ATOM      1  C   UNL A   1      37.886  23.417  25.779  1.00  0.00     0.002 C 
ENDROOT
BRANCH   1   2
ATOM      2  C   UNL A   1      38.686  22.106  25.810  1.00  0.00     0.021 C 
BRANCH   2   3
ATOM      3  C   UNL A   1      39.846  22.105  26.788  1.00  0.00     0.116 C 
BRANCH   3   4
ATOM      4  N   UNL A   1      41.168  22.147  26.154  1.00  0.00    -0.352 N 
ATOM      5  O   UNL A   1      42.854  23.258  25.089  1.00  0.00    -0.269 OA
ATOM      6  C   UNL A   1      41.972  23.262  25.928  1.00  0.00     0.251 C 
ATOM      7  H   UNL A   1      41.532  21.283  25.853  1.00  0.00     0.163 HD
BRANCH   6   8
ATOM      8  C   UNL A   1      41.725  24.458  26.756  1.00  0.00     0.039 A 
ATOM      9  C   UNL A   1      42.357  24.706  27.975  1.00  0.00     0.014 A 
ATOM     10  C   UNL A   1      40.865  25.395  26.209  1.00  0.00     0.014 A 
ATOM     11  C   UNL A   1      42.136  25.944  28.583  1.00  0.00     0.010 A 
ATOM     12  C   UNL A   1      40.962  26.690  26.607  1.00  0.00     0.010 A 
ATOM     13  C   UNL A   1      41.439  26.941  27.874  1.00  0.00    -0.014 A 
BRANCH  13  14
ATOM     14  C   UNL A   1      41.201  28.276  28.397  1.00  0.00     0.031 A 
ATOM     15  C   UNL A   1      42.244  29.256  28.042  1.00  0.00     0.074 A 
ATOM     16  C   UNL A   1      40.066  28.644  29.037  1.00  0.00     0.049 A 
ATOM     17  N   UNL A   1      43.135  29.742  28.834  1.00  0.00    -0.248 NA
ATOM     18  C   UNL A   1      42.433  29.609  26.627  1.00  0.00     0.031 C 
ATOM     19  C   UNL A   1      38.812  27.898  29.237  1.00  0.00     0.029 A 
ATOM     20  N   UNL A   1      39.768  29.848  29.593  1.00  0.00    -0.354 N 
ATOM     21  C   UNL A   1      43.893  30.613  28.070  1.00  0.00     0.074 A 
ATOM     22  C   UNL A   1      43.531  30.364  26.696  1.00  0.00     0.031 C 
ATOM     23  C   UNL A   1      37.832  28.737  29.644  1.00  0.00     0.029 A 
ATOM     24  C   UNL A   1      38.431  30.024  29.930  1.00  0.00     0.049 A 
ATOM     25  H   UNL A   1      40.448  30.543  29.745  1.00  0.00     0.167 HD
ATOM     26  C   UNL A   1      44.593  31.621  28.658  1.00  0.00     0.031 A 
ATOM     27  C   UNL A   1      37.862  31.149  30.429  1.00  0.00     0.031 A 
ATOM     28  C   UNL A   1      44.710  31.416  30.083  1.00  0.00     0.049 A 
ATOM     29  C   UNL A   1      38.953  31.943  31.039  1.00  0.00     0.074 A 
ATOM     30  C   UNL A   1      45.283  30.435  30.867  1.00  0.00     0.029 A 
ATOM     31  N   UNL A   1      43.802  32.064  30.889  1.00  0.00    -0.354 N 
ATOM     32  N   UNL A   1      39.616  31.554  32.091  1.00  0.00    -0.248 NA
ATOM     33  C   UNL A   1      39.618  32.927  30.203  1.00  0.00     0.031 C 
ATOM     34  C   UNL A   1      44.356  30.228  31.930  1.00  0.00     0.029 A 
ATOM     35  C   UNL A   1      43.318  31.154  31.795  1.00  0.00     0.049 A 
ATOM     36  H   UNL A   1      43.545  33.012  30.827  1.00  0.00     0.167 HD
ATOM     37  C   UNL A   1      40.935  31.887  31.815  1.00  0.00     0.074 A 
ATOM     38  C   UNL A   1      40.862  32.808  30.679  1.00  0.00     0.031 C 
ATOM     39  C   UNL A   1      41.974  31.172  32.339  1.00  0.00     0.031 A 
BRANCH  26  40
ATOM     40  C   UNL A   1      44.828  32.957  28.011  1.00  0.00    -0.014 A 
ATOM     41  C   UNL A   1      45.979  33.264  27.260  1.00  0.00     0.009 A 
ATOM     42  C   UNL A   1      43.759  33.864  27.926  1.00  0.00     0.009 A 
ATOM     43  C   UNL A   1      46.058  34.400  26.453  1.00  0.00     0.001 A 
ATOM     44  C   UNL A   1      43.818  34.984  27.088  1.00  0.00     0.001 A 
ATOM     45  C   UNL A   1      44.967  35.248  26.348  1.00  0.00     0.000 A 
ENDBRANCH  26  40
BRANCH  27  46
ATOM     46  C   UNL A   1      36.576  31.768  30.032  1.00  0.00    -0.014 A 
ATOM     47  C   UNL A   1      36.324  32.073  28.681  1.00  0.00     0.009 A 
ATOM     48  C   UNL A   1      35.743  32.356  30.999  1.00  0.00     0.009 A 
ATOM     49  C   UNL A   1      35.322  32.979  28.316  1.00  0.00     0.001 A 
ATOM     50  C   UNL A   1      34.739  33.264  30.633  1.00  0.00     0.001 A 
ATOM     51  C   UNL A   1      34.543  33.590  29.292  1.00  0.00     0.000 A 
ENDBRANCH  27  46
BRANCH  39  52
ATOM     52  C   UNL A   1      41.675  30.137  33.407  1.00  0.00    -0.014 A 
ATOM     53  C   UNL A   1      41.851  30.512  34.749  1.00  0.00     0.009 A 
ATOM     54  C   UNL A   1      41.423  28.781  33.130  1.00  0.00     0.009 A 
ATOM     55  C   UNL A   1      41.807  29.568  35.776  1.00  0.00     0.001 A 
ATOM     56  C   UNL A   1      41.351  27.837  34.164  1.00  0.00     0.001 A 
ATOM     57  C   UNL A   1      41.557  28.230  35.484  1.00  0.00     0.000 A 
ENDBRANCH  39  52
ENDBRANCH  13  14
ENDBRANCH   6   8
ENDBRANCH   3   4
ENDBRANCH   2   3
ENDBRANCH   1   2
BRANCH   1  58
ATOM     58  C   UNL A   1      36.394  23.344  26.142  1.00  0.00     0.002 C 
BRANCH  58  59
ATOM     59  C   UNL A   1      35.717  21.979  25.983  1.00  0.00     0.021 C 
BRANCH  59  60
ATOM     60  C   UNL A   1      35.142  21.704  24.597  1.00  0.00     0.116 C 
BRANCH  60  61
ATOM     61  N   UNL A   1      33.915  20.929  24.665  1.00  0.00    -0.352 N 
ATOM     62  C   UNL A   1      32.649  21.365  24.957  1.00  0.00     0.252 C 
ATOM     63  H   UNL A   1      34.004  19.968  24.475  1.00  0.00     0.163 HD
ATOM     64  O   UNL A   1      31.734  20.577  25.161  1.00  0.00    -0.269 OA
BRANCH  62  65
ATOM     65  C   UNL A   1      32.396  22.807  25.017  1.00  0.00     0.058 A 
ATOM     66  C   UNL A   1      32.085  23.431  26.223  1.00  0.00     0.019 A 
ATOM     67  C   UNL A   1      32.454  23.563  23.859  1.00  0.00     0.127 A 
ATOM     68  C   UNL A   1      31.843  24.798  26.226  1.00  0.00     0.048 A 
ATOM     69  N   UNL A   1      32.169  24.889  23.826  1.00  0.00    -0.238 NA
ATOM     70  C   UNL A   1      31.919  25.491  25.017  1.00  0.00     0.138 A 
BRANCH  70  71
ATOM     71  N   UNL A   1      31.750  26.894  25.023  1.00  0.00    -0.283 N 
ATOM     72  C   UNL A   1      30.842  27.588  24.261  1.00  0.00     0.206 A 
ATOM     73  C   UNL A   1      32.481  27.829  25.736  1.00  0.00     0.074 A 
ATOM     74  N   UNL A   1      30.849  28.875  24.529  1.00  0.00    -0.236 NA
ATOM     75  C   UNL A   1      31.885  29.046  25.414  1.00  0.00     0.089 A 
ATOM     76  C   UNL A   1      33.632  27.747  26.539  1.00  0.00     0.029 A 
ATOM     77  C   UNL A   1      32.402  30.230  25.961  1.00  0.00     0.030 A 
ATOM     78  C   UNL A   1      34.148  28.939  27.051  1.00  0.00     0.002 A 
ATOM     79  C   UNL A   1      33.539  30.162  26.778  1.00  0.00     0.002 A 
ENDBRANCH  70  71
ENDBRANCH  62  65
ENDBRANCH  60  61
ENDBRANCH  59  60
ENDBRANCH  58  59
ENDBRANCH   1  58
TORSDOF 14
ENDMDL
MODEL 3
REMARK VINA RESULT:     -11.2      2.821      6.295
REMARK SMILES O=C(NCCCCCCNC(=O)c1ccc(-n2cnc3ccccc32)nc1)c1ccc(-c2c3nc(c(-c4ccccc4)c4ccc([nH]4)c(-c4ccccc4)c4nc(c(-c5ccccc5)c5ccc2[nH]5)C=C4)C=C3)cc1
REMARK SMILES IDX 6 1 5 2 4 3 3 4 1 5 2 6 28 8 29 9 75 10 30 11 74 12 31 13
REMARK SMILES IDX 32 14 33 15 68 16 34 17 73 18 67 19 69 20 35 21 72 22 66 23
REMARK SMILES IDX 65 24 36 26 58 27 43 28 57 29 44 30 47 31 56 32 70 33 45 34
REMARK SMILES IDX 46 35 55 37 71 38 48 39 37 40 38 41 42 42 39 43 41 44 40 45
REMARK SMILES IDX 59 46 60 47 64 48 61 49 63 50 62 51 49 52 50 53 54 54 51 55
REMARK SMILES IDX 53 56 52 57 7 58 8 59 9 60 10 61 11 62 12 64 13 65 14 66
REMARK SMILES IDX 27 67 15 68 26 69 16 70 17 71 18 72 25 73 19 74 20 75 24 76
REMARK SMILES IDX 21 77 23 78 22 79
REMARK H PARENT 3 7 69 25 47 36 10 63
REMARK Flexibility Score: inf
ROOT
ATOM      1  C   UNL A   1      40.881  20.561  27.318  1.00  0.00     0.002 C 
ENDROOT
BRANCH   1   2
ATOM      2  C   UNL A   1      41.448  19.788  26.118  1.00  0.00     0.021 C 
BRANCH   2   3
ATOM      3  C   UNL A   1      42.853  19.254  26.327  1.00  0.00     0.116 C 
BRANCH   3   4
ATOM      4  N   UNL A   1      43.764  19.498  25.203  1.00  0.00    -0.352 N 
ATOM      5  O   UNL A   1      44.537  20.783  23.482  1.00  0.00    -0.269 OA
ATOM      6  C   UNL A   1      44.081  20.717  24.609  1.00  0.00     0.251 C 
ATOM      7  H   UNL A   1      44.204  18.703  24.823  1.00  0.00     0.163 HD
BRANCH   6   8
ATOM      8  C   UNL A   1      43.856  21.939  25.404  1.00  0.00     0.039 A 
ATOM      9  C   UNL A   1      42.968  22.953  25.042  1.00  0.00     0.014 A 
ATOM     10  C   UNL A   1      44.533  21.999  26.610  1.00  0.00     0.014 A 
ATOM     11  C   UNL A   1      42.748  23.984  25.958  1.00  0.00     0.010 A 
ATOM     12  C   UNL A   1      44.037  22.776  27.608  1.00  0.00     0.010 A 
ATOM     13  C   UNL A   1      43.285  23.874  27.255  1.00  0.00    -0.014 A 
BRANCH  13  14
ATOM     14  C   UNL A   1      43.074  24.868  28.295  1.00  0.00     0.031 A 
ATOM     15  C   UNL A   1      41.907  25.741  28.064  1.00  0.00     0.074 A 
ATOM     16  C   UNL A   1      43.784  24.918  29.447  1.00  0.00     0.049 A 
ATOM     17  N   UNL A   1      41.941  26.978  27.707  1.00  0.00    -0.248 NA
ATOM     18  C   UNL A   1      40.564  25.144  28.057  1.00  0.00     0.031 C 
ATOM     19  C   UNL A   1      44.783  23.977  29.980  1.00  0.00     0.029 A 
ATOM     20  N   UNL A   1      43.687  25.825  30.454  1.00  0.00    -0.354 N 
ATOM     21  C   UNL A   1      40.620  27.384  27.609  1.00  0.00     0.074 A 
ATOM     22  C   UNL A   1      39.823  26.182  27.667  1.00  0.00     0.031 C 
ATOM     23  C   UNL A   1      45.010  24.233  31.288  1.00  0.00     0.029 A 
ATOM     24  C   UNL A   1      44.337  25.470  31.629  1.00  0.00     0.049 A 
ATOM     25  H   UNL A   1      43.193  26.671  30.357  1.00  0.00     0.167 HD
ATOM     26  C   UNL A   1      40.290  28.699  27.715  1.00  0.00     0.031 A 
ATOM     27  C   UNL A   1      44.337  26.158  32.797  1.00  0.00     0.031 A 
ATOM     28  C   UNL A   1      41.453  29.544  27.572  1.00  0.00     0.049 A 
ATOM     29  C   UNL A   1      43.995  27.560  32.464  1.00  0.00     0.074 A 
ATOM     30  C   UNL A   1      42.365  29.757  26.558  1.00  0.00     0.029 A 
ATOM     31  N   UNL A   1      42.062  29.978  28.728  1.00  0.00    -0.354 N 
ATOM     32  N   UNL A   1      44.770  28.335  31.759  1.00  0.00    -0.248 NA
ATOM     33  C   UNL A   1      42.593  27.940  32.506  1.00  0.00     0.031 C 
ATOM     34  C   UNL A   1      43.628  29.844  27.213  1.00  0.00     0.029 A 
ATOM     35  C   UNL A   1      43.414  29.778  28.593  1.00  0.00     0.049 A 
ATOM     36  H   UNL A   1      41.609  30.364  29.511  1.00  0.00     0.167 HD
ATOM     37  C   UNL A   1      43.905  29.018  30.916  1.00  0.00     0.074 A 
ATOM     38  C   UNL A   1      42.573  28.798  31.482  1.00  0.00     0.031 C 
ATOM     39  C   UNL A   1      44.309  29.457  29.687  1.00  0.00     0.031 A 
BRANCH  26  40
ATOM     40  C   UNL A   1      39.005  29.188  28.321  1.00  0.00    -0.014 A 
ATOM     41  C   UNL A   1      37.933  29.698  27.563  1.00  0.00     0.009 A 
ATOM     42  C   UNL A   1      38.742  28.900  29.671  1.00  0.00     0.009 A 
ATOM     43  C   UNL A   1      36.664  29.893  28.110  1.00  0.00     0.001 A 
ATOM     44  C   UNL A   1      37.461  29.057  30.214  1.00  0.00     0.001 A 
ATOM     45  C   UNL A   1      36.422  29.550  29.431  1.00  0.00     0.000 A 
ENDBRANCH  26  40
BRANCH  27  46
ATOM     46  C   UNL A   1      44.171  25.620  34.167  1.00  0.00    -0.014 A 
ATOM     47  C   UNL A   1      43.233  24.602  34.420  1.00  0.00     0.009 A 
ATOM     48  C   UNL A   1      44.685  26.321  35.272  1.00  0.00     0.009 A 
ATOM     49  C   UNL A   1      42.778  24.337  35.716  1.00  0.00     0.001 A 
ATOM     50  C   UNL A   1      44.228  26.056  36.571  1.00  0.00     0.001 A 
ATOM     51  C   UNL A   1      43.261  25.078  36.790  1.00  0.00     0.000 A 
ENDBRANCH  27  46
BRANCH  39  52
ATOM     52  C   UNL A   1      45.783  29.380  29.339  1.00  0.00    -0.014 A 
ATOM     53  C   UNL A   1      46.533  30.565  29.404  1.00  0.00     0.009 A 
ATOM     54  C   UNL A   1      46.392  28.244  28.773  1.00  0.00     0.009 A 
ATOM     55  C   UNL A   1      47.833  30.627  28.898  1.00  0.00     0.001 A 
ATOM     56  C   UNL A   1      47.707  28.299  28.290  1.00  0.00     0.001 A 
ATOM     57  C   UNL A   1      48.420  29.495  28.341  1.00  0.00     0.000 A 
ENDBRANCH  39  52
ENDBRANCH  13  14
ENDBRANCH   6   8
ENDBRANCH   3   4
ENDBRANCH   2   3
ENDBRANCH   1   2
BRANCH   1  58
ATOM     58  C   UNL A   1      40.019  21.798  27.019  1.00  0.00     0.002 C 
BRANCH  58  59
ATOM     59  C   UNL A   1      39.295  21.818  25.669  1.00  0.00     0.021 C 
BRANCH  59  60
ATOM     60  C   UNL A   1      37.780  21.976  25.754  1.00  0.00     0.116 C 
BRANCH  60  61
ATOM     61  N   UNL A   1      37.084  20.840  25.173  1.00  0.00    -0.352 N 
ATOM     62  C   UNL A   1      35.734  20.632  25.071  1.00  0.00     0.252 C 
ATOM     63  H   UNL A   1      37.657  20.129  24.805  1.00  0.00     0.163 HD
ATOM     64  O   UNL A   1      35.280  19.549  24.726  1.00  0.00    -0.269 OA
BRANCH  62  65
ATOM     65  C   UNL A   1      34.825  21.739  25.378  1.00  0.00     0.058 A 
ATOM     66  C   UNL A   1      34.409  21.985  26.685  1.00  0.00     0.019 A 
ATOM     67  C   UNL A   1      34.359  22.549  24.356  1.00  0.00     0.127 A 
ATOM     68  C   UNL A   1      33.538  23.039  26.923  1.00  0.00     0.048 A 
ATOM     69  N   UNL A   1      33.467  23.551  24.555  1.00  0.00    -0.238 NA
ATOM     70  C   UNL A   1      33.112  23.809  25.840  1.00  0.00     0.138 A 
BRANCH  70  71
ATOM     71  N   UNL A   1      32.287  24.931  26.083  1.00  0.00    -0.283 N 
ATOM     72  C   UNL A   1      30.917  24.907  26.164  1.00  0.00     0.206 A 
ATOM     73  C   UNL A   1      32.679  26.251  26.228  1.00  0.00     0.074 A 
ATOM     74  N   UNL A   1      30.416  26.081  26.479  1.00  0.00    -0.236 NA
ATOM     75  C   UNL A   1      31.492  26.933  26.485  1.00  0.00     0.089 A 
ATOM     76  C   UNL A   1      33.908  26.916  26.075  1.00  0.00     0.029 A 
ATOM     77  C   UNL A   1      31.525  28.324  26.668  1.00  0.00     0.030 A 
ATOM     78  C   UNL A   1      33.916  28.304  26.233  1.00  0.00     0.002 A 
ATOM     79  C   UNL A   1      32.747  28.998  26.536  1.00  0.00     0.002 A 
ENDBRANCH  70  71
ENDBRANCH  62  65
ENDBRANCH  60  61
ENDBRANCH  59  60
ENDBRANCH  58  59
ENDBRANCH   1  58
TORSDOF 14
ENDMDL
