MODEL 1
REMARK VINA RESULT:     -12.9      0.000      0.000
REMARK SMILES C[C@@H](NC(=O)[C@H]1CC=CC[C@@H]1C(=O)NCCCCCCNC(=O)c1ccc(-c2c3nc(c(-c4ccccc4)c4ccc([nH]4)c(-c4ccccc4)c4nc(c(-c5ccccc5)c5ccc2[nH]5)C=C4)C=C3)cc1)c1ccc(-n2ccnc2)cc1
REMARK SMILES IDX 16 1 15 2 14 3 12 4 13 5 11 7 6 8 7 9 8 10 10 11 9 12 4 13
REMARK SMILES IDX 3 14 5 16 2 17 1 18 72 19 73 20 82 21 74 22 81 23 75 24
REMARK SMILES IDX 76 25 77 26 80 27 78 28 79 29 17 30 18 31 19 32 20 33 21 34
REMARK SMILES IDX 22 35 23 37 24 38 25 39 71 40 26 41 70 42 27 43 28 44 29 45
REMARK SMILES IDX 64 46 30 47 69 48 63 49 65 50 31 51 68 52 62 53 61 54 32 56
REMARK SMILES IDX 54 57 39 58 53 59 40 60 43 61 52 62 66 63 41 64 42 65 51 67
REMARK SMILES IDX 67 68 44 69 33 70 34 71 38 72 35 73 37 74 36 75 55 76 56 77
REMARK SMILES IDX 60 78 57 79 59 80 58 81 45 82 46 83 50 84 47 85 49 86 48 87
REMARK H PARENT 14 6 3 15 21 36 65 55 43 66
REMARK Flexibility Score: inf
ROOT
ATOM      1  C   UNL A   1      37.921  23.642  26.062  1.00  0.00     0.021 C 
ENDROOT
BRANCH   1   2
ATOM      2  C   UNL A   1      36.434  23.554  25.728  1.00  0.00     0.116 C 
BRANCH   2   3
ATOM      3  N   UNL A   1      35.644  23.072  26.824  1.00  0.00    -0.356 N 
ATOM      4  C   UNL A   1      34.330  22.787  26.892  1.00  0.00     0.224 C 
ATOM      5  O   UNL A   1      33.989  22.030  27.809  1.00  0.00    -0.275 OA
ATOM      6  H   UNL A   1      36.143  22.927  27.661  1.00  0.00     0.163 HD
BRANCH   4   7
ATOM      7  C   UNL A   1      33.258  23.367  25.960  1.00  0.00     0.095 C 
ATOM      8  C   UNL A   1      33.141  23.067  24.035  1.00  0.00     0.095 C 
ATOM      9  C   UNL A   1      33.843  24.373  22.878  1.00  0.00     0.041 C 
ATOM     10  C   UNL A   1      33.928  26.132  23.320  1.00  0.00    -0.030 C 
ATOM     11  C   UNL A   1      33.192  25.324  26.419  1.00  0.00     0.041 C 
ATOM     12  C   UNL A   1      33.656  26.625  24.725  1.00  0.00    -0.030 C 
BRANCH   8  13
ATOM     13  C   UNL A   1      31.475  23.053  23.487  1.00  0.00     0.224 C 
ATOM     14  N   UNL A   1      30.522  24.125  23.649  1.00  0.00    -0.349 N 
ATOM     15  H   UNL A   1      29.777  24.006  23.016  1.00  0.00     0.164 HD
ATOM     16  O   UNL A   1      31.097  22.067  22.841  1.00  0.00    -0.275 OA
BRANCH  14  17
ATOM     17  C   UNL A   1      30.269  25.519  24.576  1.00  0.00     0.109 C 
ATOM     18  C   UNL A   1      29.691  25.075  25.908  1.00  0.00     0.036 C 
BRANCH  17  19
ATOM     19  C   UNL A   1      29.356  26.551  23.913  1.00  0.00    -0.026 A 
ATOM     20  C   UNL A   1      27.709  27.083  23.801  1.00  0.00     0.008 A 
ATOM     21  C   UNL A   1      30.474  27.629  23.351  1.00  0.00     0.008 A 
ATOM     22  C   UNL A   1      27.230  28.643  23.041  1.00  0.00     0.027 A 
ATOM     23  C   UNL A   1      30.114  29.318  22.442  1.00  0.00     0.027 A 
ATOM     24  C   UNL A   1      28.403  29.752  22.298  1.00  0.00     0.046 A 
BRANCH  24  25
ATOM     25  N   UNL A   1      28.108  31.050  21.865  1.00  0.00    -0.306 N 
ATOM     26  C   UNL A   1      27.937  31.439  20.559  1.00  0.00     0.113 A 
ATOM     27  C   UNL A   1      28.079  32.192  22.619  1.00  0.00     0.204 A 
ATOM     28  C   UNL A   1      27.842  32.809  20.589  1.00  0.00     0.131 A 
ATOM     29  N   UNL A   1      27.926  33.269  21.875  1.00  0.00    -0.245 NA
ENDBRANCH  24  25
ENDBRANCH  17  19
ENDBRANCH  14  17
ENDBRANCH   8  13
ENDBRANCH   4   7
ENDBRANCH   2   3
ENDBRANCH   1   2
BRANCH   1  30
ATOM     30  C   UNL A   1      38.652  22.296  26.001  1.00  0.00     0.002 C 
BRANCH  30  31
ATOM     31  C   UNL A   1      37.987  21.271  25.082  1.00  0.00     0.002 C 
BRANCH  31  32
ATOM     32  C   UNL A   1      38.662  19.898  25.098  1.00  0.00     0.021 C 
BRANCH  32  33
ATOM     33  C   UNL A   1      39.543  19.682  26.318  1.00  0.00     0.116 C 
BRANCH  33  34
ATOM     34  N   UNL A   1      40.801  19.071  25.934  1.00  0.00    -0.352 N 
ATOM     35  C   UNL A   1      42.005  19.691  25.733  1.00  0.00     0.251 C 
ATOM     36  H   UNL A   1      40.789  18.095  25.805  1.00  0.00     0.163 HD
ATOM     37  O   UNL A   1      42.887  19.151  25.076  1.00  0.00    -0.269 OA
BRANCH  35  38
ATOM     38  C   UNL A   1      42.222  21.024  26.328  1.00  0.00     0.039 A 
ATOM     39  C   UNL A   1      42.486  22.108  25.494  1.00  0.00     0.014 A 
ATOM     40  C   UNL A   1      42.172  21.188  27.717  1.00  0.00     0.014 A 
ATOM     41  C   UNL A   1      42.689  23.367  26.057  1.00  0.00     0.010 A 
ATOM     42  C   UNL A   1      42.271  22.458  28.267  1.00  0.00     0.010 A 
ATOM     43  C   UNL A   1      42.569  23.552  27.445  1.00  0.00    -0.014 A 
BRANCH  43  44
ATOM     44  C   UNL A   1      42.808  24.879  28.058  1.00  0.00     0.031 A 
ATOM     45  C   UNL A   1      44.191  25.254  28.517  1.00  0.00     0.074 A 
ATOM     46  C   UNL A   1      41.779  25.731  28.222  1.00  0.00     0.049 A 
ATOM     47  N   UNL A   1      44.601  26.366  29.073  1.00  0.00    -0.248 NA
ATOM     48  C   UNL A   1      45.247  24.241  28.355  1.00  0.00     0.031 C 
ATOM     49  C   UNL A   1      40.387  25.460  27.854  1.00  0.00     0.029 A 
ATOM     50  N   UNL A   1      41.747  27.001  28.736  1.00  0.00    -0.354 N 
ATOM     51  C   UNL A   1      45.953  26.178  29.335  1.00  0.00     0.074 A 
ATOM     52  C   UNL A   1      46.279  24.826  28.942  1.00  0.00     0.031 C 
ATOM     53  C   UNL A   1      39.646  26.550  28.114  1.00  0.00     0.029 A 
ATOM     54  C   UNL A   1      40.499  27.574  28.707  1.00  0.00     0.049 A 
ATOM     55  H   UNL A   1      42.543  27.460  29.092  1.00  0.00     0.167 HD
ATOM     56  C   UNL A   1      46.851  27.061  29.832  1.00  0.00     0.031 A 
ATOM     57  C   UNL A   1      40.091  28.789  29.115  1.00  0.00     0.031 A 
ATOM     58  C   UNL A   1      46.522  28.406  30.219  1.00  0.00     0.049 A 
ATOM     59  C   UNL A   1      41.103  29.744  29.687  1.00  0.00     0.074 A 
ATOM     60  C   UNL A   1      47.363  29.397  30.691  1.00  0.00     0.029 A 
ATOM     61  N   UNL A   1      45.245  28.945  30.183  1.00  0.00    -0.354 N 
ATOM     62  N   UNL A   1      42.392  29.577  29.861  1.00  0.00    -0.248 NA
ATOM     63  C   UNL A   1      40.603  31.060  30.101  1.00  0.00     0.031 C 
ATOM     64  C   UNL A   1      46.584  30.516  31.003  1.00  0.00     0.029 A 
ATOM     65  C   UNL A   1      45.271  30.247  30.652  1.00  0.00     0.049 A 
ATOM     66  H   UNL A   1      44.439  28.472  29.871  1.00  0.00     0.167 HD
ATOM     67  C   UNL A   1      42.863  30.779  30.373  1.00  0.00     0.074 A 
ATOM     68  C   UNL A   1      41.724  31.670  30.461  1.00  0.00     0.031 C 
ATOM     69  C   UNL A   1      44.125  31.118  30.736  1.00  0.00     0.031 A 
BRANCH  56  70
ATOM     70  C   UNL A   1      48.271  26.589  29.994  1.00  0.00    -0.014 A 
ATOM     71  C   UNL A   1      48.712  25.994  31.189  1.00  0.00     0.009 A 
ATOM     72  C   UNL A   1      49.176  26.716  28.929  1.00  0.00     0.009 A 
ATOM     73  C   UNL A   1      50.038  25.576  31.326  1.00  0.00     0.001 A 
ATOM     74  C   UNL A   1      50.491  26.265  29.056  1.00  0.00     0.001 A 
ATOM     75  C   UNL A   1      50.924  25.705  30.257  1.00  0.00     0.000 A 
ENDBRANCH  56  70
BRANCH  57  76
ATOM     76  C   UNL A   1      38.661  29.178  28.985  1.00  0.00    -0.014 A 
ATOM     77  C   UNL A   1      38.161  29.681  27.774  1.00  0.00     0.009 A 
ATOM     78  C   UNL A   1      37.789  29.058  30.079  1.00  0.00     0.009 A 
ATOM     79  C   UNL A   1      36.829  30.087  27.671  1.00  0.00     0.001 A 
ATOM     80  C   UNL A   1      36.449  29.431  29.963  1.00  0.00     0.001 A 
ATOM     81  C   UNL A   1      35.973  29.957  28.764  1.00  0.00     0.000 A 
ENDBRANCH  57  76
BRANCH  69  82
ATOM     82  C   UNL A   1      44.346  32.526  31.217  1.00  0.00    -0.014 A 
ATOM     83  C   UNL A   1      44.637  33.572  30.328  1.00  0.00     0.009 A 
ATOM     84  C   UNL A   1      44.231  32.812  32.587  1.00  0.00     0.009 A 
ATOM     85  C   UNL A   1      44.854  34.866  30.807  1.00  0.00     0.001 A 
ATOM     86  C   UNL A   1      44.409  34.112  33.059  1.00  0.00     0.001 A 
ATOM     87  C   UNL A   1      44.735  35.135  32.170  1.00  0.00     0.000 A 
ENDBRANCH  69  82
ENDBRANCH  43  44
ENDBRANCH  35  38
ENDBRANCH  33  34
ENDBRANCH  32  33
ENDBRANCH  31  32
ENDBRANCH  30  31
ENDBRANCH   1  30
TORSDOF 17
ENDMDL
MODEL 2
REMARK VINA RESULT:     -12.5      4.283      9.803
REMARK SMILES C[C@@H](NC(=O)[C@H]1CC=CC[C@@H]1C(=O)NCCCCCCNC(=O)c1ccc(-c2c3nc(c(-c4ccccc4)c4ccc([nH]4)c(-c4ccccc4)c4nc(c(-c5ccccc5)c5ccc2[nH]5)C=C4)C=C3)cc1)c1ccc(-n2ccnc2)cc1
REMARK SMILES IDX 16 1 15 2 14 3 12 4 13 5 11 7 6 8 7 9 8 10 10 11 9 12 4 13
REMARK SMILES IDX 3 14 5 16 2 17 1 18 72 19 73 20 82 21 74 22 81 23 75 24
REMARK SMILES IDX 76 25 77 26 80 27 78 28 79 29 17 30 18 31 19 32 20 33 21 34
REMARK SMILES IDX 22 35 23 37 24 38 25 39 71 40 26 41 70 42 27 43 28 44 29 45
REMARK SMILES IDX 64 46 30 47 69 48 63 49 65 50 31 51 68 52 62 53 61 54 32 56
REMARK SMILES IDX 54 57 39 58 53 59 40 60 43 61 52 62 66 63 41 64 42 65 51 67
REMARK SMILES IDX 67 68 44 69 33 70 34 71 38 72 35 73 37 74 36 75 55 76 56 77
REMARK SMILES IDX 60 78 57 79 59 80 58 81 45 82 46 83 50 84 47 85 49 86 48 87
REMARK H PARENT 14 6 3 15 21 36 65 55 43 66
REMARK Flexibility Score: inf
ROOT
ATOM      1  C   UNL A   1      35.777  30.665  27.626  1.00  0.00     0.021 C 
ENDROOT
BRANCH   1   2
ATOM      2  C   UNL A   1      34.687  29.669  27.239  1.00  0.00     0.116 C 
BRANCH   2   3
ATOM      3  N   UNL A   1      33.581  30.286  26.565  1.00  0.00    -0.356 N 
ATOM      4  C   UNL A   1      32.604  29.743  25.815  1.00  0.00     0.224 C 
ATOM      5  O   UNL A   1      31.580  30.424  25.688  1.00  0.00    -0.275 OA
ATOM      6  H   UNL A   1      33.529  31.264  26.668  1.00  0.00     0.163 HD
BRANCH   4   7
ATOM      7  C   UNL A   1      32.704  28.395  25.089  1.00  0.00     0.095 C 
ATOM      8  C   UNL A   1      32.202  28.063  23.232  1.00  0.00     0.095 C 
ATOM      9  C   UNL A   1      30.509  27.324  22.879  1.00  0.00     0.041 C 
ATOM     10  C   UNL A   1      29.645  26.243  24.053  1.00  0.00    -0.030 C 
ATOM     11  C   UNL A   1      31.848  27.077  26.344  1.00  0.00     0.041 C 
ATOM     12  C   UNL A   1      30.123  26.053  25.477  1.00  0.00    -0.030 C 
BRANCH   8  13
ATOM     13  C   UNL A   1      33.218  26.834  22.501  1.00  0.00     0.224 C 
ATOM     14  N   UNL A   1      33.364  25.474  22.960  1.00  0.00    -0.349 N 
ATOM     15  H   UNL A   1      33.735  24.917  22.238  1.00  0.00     0.164 HD
ATOM     16  O   UNL A   1      33.811  27.135  21.457  1.00  0.00    -0.275 OA
BRANCH  14  17
ATOM     17  C   UNL A   1      33.103  24.525  24.338  1.00  0.00     0.109 C 
ATOM     18  C   UNL A   1      34.372  24.583  25.170  1.00  0.00     0.036 C 
BRANCH  17  19
ATOM     19  C   UNL A   1      32.728  23.074  24.035  1.00  0.00    -0.026 A 
ATOM     20  C   UNL A   1      32.103  22.028  22.800  1.00  0.00     0.008 A 
ATOM     21  C   UNL A   1      33.460  22.301  25.296  1.00  0.00     0.008 A 
ATOM     22  C   UNL A   1      32.153  20.232  22.917  1.00  0.00     0.027 A 
ATOM     23  C   UNL A   1      33.533  20.375  25.602  1.00  0.00     0.027 A 
ATOM     24  C   UNL A   1      32.805  19.377  24.332  1.00  0.00     0.046 A 
BRANCH  24  25
ATOM     25  N   UNL A   1      33.035  17.998  24.393  1.00  0.00    -0.306 N 
ATOM     26  C   UNL A   1      32.531  17.142  25.341  1.00  0.00     0.113 A 
ATOM     27  C   UNL A   1      33.906  17.266  23.631  1.00  0.00     0.204 A 
ATOM     28  C   UNL A   1      33.149  15.936  25.120  1.00  0.00     0.131 A 
ATOM     29  N   UNL A   1      33.999  16.020  24.050  1.00  0.00    -0.245 NA
ENDBRANCH  24  25
ENDBRANCH  17  19
ENDBRANCH  14  17
ENDBRANCH   8  13
ENDBRANCH   4   7
ENDBRANCH   2   3
ENDBRANCH   1   2
BRANCH   1  30
ATOM     30  C   UNL A   1      35.276  31.830  28.486  1.00  0.00     0.002 C 
BRANCH  30  31
ATOM     31  C   UNL A   1      35.785  33.200  28.032  1.00  0.00     0.002 C 
BRANCH  31  32
ATOM     32  C   UNL A   1      34.778  34.332  28.241  1.00  0.00     0.021 C 
BRANCH  32  33
ATOM     33  C   UNL A   1      33.556  33.903  29.037  1.00  0.00     0.116 C 
BRANCH  33  34
ATOM     34  N   UNL A   1      33.340  34.797  30.158  1.00  0.00    -0.352 N 
ATOM     35  C   UNL A   1      33.883  34.712  31.413  1.00  0.00     0.251 C 
ATOM     36  H   UNL A   1      32.732  35.555  30.000  1.00  0.00     0.163 HD
ATOM     37  O   UNL A   1      33.364  35.289  32.361  1.00  0.00    -0.269 OA
BRANCH  35  38
ATOM     38  C   UNL A   1      35.110  33.914  31.599  1.00  0.00     0.039 A 
ATOM     39  C   UNL A   1      35.008  32.605  32.065  1.00  0.00     0.014 A 
ATOM     40  C   UNL A   1      36.361  34.476  31.318  1.00  0.00     0.014 A 
ATOM     41  C   UNL A   1      36.168  31.852  32.239  1.00  0.00     0.010 A 
ATOM     42  C   UNL A   1      37.503  33.693  31.393  1.00  0.00     0.010 A 
ATOM     43  C   UNL A   1      37.420  32.386  31.890  1.00  0.00    -0.014 A 
BRANCH  43  44
ATOM     44  C   UNL A   1      38.663  31.605  32.095  1.00  0.00     0.031 A 
ATOM     45  C   UNL A   1      39.529  31.875  33.295  1.00  0.00     0.074 A 
ATOM     46  C   UNL A   1      39.020  30.674  31.190  1.00  0.00     0.049 A 
ATOM     47  N   UNL A   1      40.649  31.299  33.650  1.00  0.00    -0.248 NA
ATOM     48  C   UNL A   1      39.096  32.952  34.203  1.00  0.00     0.031 C 
ATOM     49  C   UNL A   1      38.281  30.354  29.967  1.00  0.00     0.029 A 
ATOM     50  N   UNL A   1      40.093  29.822  31.165  1.00  0.00    -0.354 N 
ATOM     51  C   UNL A   1      41.055  31.948  34.809  1.00  0.00     0.074 A 
ATOM     52  C   UNL A   1      40.103  33.005  35.061  1.00  0.00     0.031 C 
ATOM     53  C   UNL A   1      38.901  29.345  29.333  1.00  0.00     0.029 A 
ATOM     54  C   UNL A   1      40.100  28.981  30.080  1.00  0.00     0.049 A 
ATOM     55  H   UNL A   1      40.792  29.814  31.859  1.00  0.00     0.167 HD
ATOM     56  C   UNL A   1      42.111  31.673  35.610  1.00  0.00     0.031 A 
ATOM     57  C   UNL A   1      40.977  28.024  29.727  1.00  0.00     0.031 A 
ATOM     58  C   UNL A   1      43.055  30.617  35.356  1.00  0.00     0.049 A 
ATOM     59  C   UNL A   1      42.157  27.752  30.621  1.00  0.00     0.074 A 
ATOM     60  C   UNL A   1      44.134  30.223  36.126  1.00  0.00     0.029 A 
ATOM     61  N   UNL A   1      43.033  29.794  34.241  1.00  0.00    -0.354 N 
ATOM     62  N   UNL A   1      42.487  28.327  31.753  1.00  0.00    -0.248 NA
ATOM     63  C   UNL A   1      43.072  26.687  30.195  1.00  0.00     0.031 C 
ATOM     64  C   UNL A   1      44.804  29.202  35.444  1.00  0.00     0.029 A 
ATOM     65  C   UNL A   1      44.097  28.909  34.289  1.00  0.00     0.049 A 
ATOM     66  H   UNL A   1      42.361  29.831  33.523  1.00  0.00     0.167 HD
ATOM     67  C   UNL A   1      43.631  27.670  32.190  1.00  0.00     0.074 A 
ATOM     68  C   UNL A   1      43.921  26.642  31.212  1.00  0.00     0.031 C 
ATOM     69  C   UNL A   1      44.373  27.894  33.303  1.00  0.00     0.031 A 
BRANCH  56  70
ATOM     70  C   UNL A   1      42.303  32.537  36.828  1.00  0.00    -0.014 A 
ATOM     71  C   UNL A   1      43.082  33.706  36.779  1.00  0.00     0.009 A 
ATOM     72  C   UNL A   1      41.675  32.193  38.034  1.00  0.00     0.009 A 
ATOM     73  C   UNL A   1      43.262  34.486  37.923  1.00  0.00     0.001 A 
ATOM     74  C   UNL A   1      41.826  32.994  39.167  1.00  0.00     0.001 A 
ATOM     75  C   UNL A   1      42.628  34.134  39.114  1.00  0.00     0.000 A 
ENDBRANCH  56  70
BRANCH  57  76
ATOM     76  C   UNL A   1      40.767  27.242  28.480  1.00  0.00    -0.014 A 
ATOM     77  C   UNL A   1      39.990  26.073  28.487  1.00  0.00     0.009 A 
ATOM     78  C   UNL A   1      41.354  27.657  27.273  1.00  0.00     0.009 A 
ATOM     79  C   UNL A   1      39.834  25.318  27.322  1.00  0.00     0.001 A 
ATOM     80  C   UNL A   1      41.167  26.920  26.103  1.00  0.00     0.001 A 
ATOM     81  C   UNL A   1      40.419  25.745  26.130  1.00  0.00     0.000 A 
ENDBRANCH  57  76
BRANCH  69  82
ATOM     82  C   UNL A   1      45.543  26.981  33.544  1.00  0.00    -0.014 A 
ATOM     83  C   UNL A   1      45.373  25.685  34.056  1.00  0.00     0.009 A 
ATOM     84  C   UNL A   1      46.837  27.418  33.220  1.00  0.00     0.009 A 
ATOM     85  C   UNL A   1      46.481  24.866  34.285  1.00  0.00     0.001 A 
ATOM     86  C   UNL A   1      47.938  26.585  33.413  1.00  0.00     0.001 A 
ATOM     87  C   UNL A   1      47.761  25.314  33.958  1.00  0.00     0.000 A 
ENDBRANCH  69  82
ENDBRANCH  43  44
ENDBRANCH  35  38
ENDBRANCH  33  34
ENDBRANCH  32  33
ENDBRANCH  31  32
ENDBRANCH  30  31
ENDBRANCH   1  30
TORSDOF 17
ENDMDL
MODEL 3
REMARK VINA RESULT:     -12.3      4.805     10.220
REMARK SMILES C[C@@H](NC(=O)[C@H]1CC=CC[C@@H]1C(=O)NCCCCCCNC(=O)c1ccc(-c2c3nc(c(-c4ccccc4)c4ccc([nH]4)c(-c4ccccc4)c4nc(c(-c5ccccc5)c5ccc2[nH]5)C=C4)C=C3)cc1)c1ccc(-n2ccnc2)cc1
REMARK SMILES IDX 16 1 15 2 14 3 12 4 13 5 11 7 6 8 7 9 8 10 10 11 9 12 4 13
REMARK SMILES IDX 3 14 5 16 2 17 1 18 72 19 73 20 82 21 74 22 81 23 75 24
REMARK SMILES IDX 76 25 77 26 80 27 78 28 79 29 17 30 18 31 19 32 20 33 21 34
REMARK SMILES IDX 22 35 23 37 24 38 25 39 71 40 26 41 70 42 27 43 28 44 29 45
REMARK SMILES IDX 64 46 30 47 69 48 63 49 65 50 31 51 68 52 62 53 61 54 32 56
REMARK SMILES IDX 54 57 39 58 53 59 40 60 43 61 52 62 66 63 41 64 42 65 51 67
REMARK SMILES IDX 67 68 44 69 33 70 34 71 38 72 35 73 37 74 36 75 55 76 56 77
REMARK SMILES IDX 60 78 57 79 59 80 58 81 45 82 46 83 50 84 47 85 49 86 48 87
REMARK H PARENT 14 6 3 15 21 36 65 55 43 66
REMARK Flexibility Score: inf
ROOT
ATOM      1  C   UNL A   1      35.122  30.735  27.618  1.00  0.00     0.021 C 
ENDROOT
BRANCH   1   2
ATOM      2  C   UNL A   1      33.810  29.955  27.600  1.00  0.00     0.116 C 
BRANCH   2   3
ATOM      3  N   UNL A   1      32.849  30.499  26.684  1.00  0.00    -0.356 N 
ATOM      4  C   UNL A   1      32.100  29.894  25.745  1.00  0.00     0.224 C 
ATOM      5  O   UNL A   1      31.092  30.510  25.379  1.00  0.00    -0.275 OA
ATOM      6  H   UNL A   1      32.718  31.473  26.755  1.00  0.00     0.163 HD
BRANCH   4   7
ATOM      7  C   UNL A   1      32.439  28.551  25.084  1.00  0.00     0.095 C 
ATOM      8  C   UNL A   1      32.143  28.098  23.209  1.00  0.00     0.095 C 
ATOM      9  C   UNL A   1      30.599  27.124  22.755  1.00  0.00     0.041 C 
ATOM     10  C   UNL A   1      29.794  25.970  23.902  1.00  0.00    -0.030 C 
ATOM     11  C   UNL A   1      31.666  27.167  26.322  1.00  0.00     0.041 C 
ATOM     12  C   UNL A   1      30.172  25.891  25.365  1.00  0.00    -0.030 C 
BRANCH   8  13
ATOM     13  C   UNL A   1      33.371  26.998  22.611  1.00  0.00     0.224 C 
ATOM     14  N   UNL A   1      33.634  25.671  23.111  1.00  0.00    -0.349 N 
ATOM     15  H   UNL A   1      34.144  25.158  22.442  1.00  0.00     0.164 HD
ATOM     16  O   UNL A   1      34.027  27.362  21.626  1.00  0.00    -0.275 OA
BRANCH  14  17
ATOM     17  C   UNL A   1      33.351  24.709  24.475  1.00  0.00     0.109 C 
ATOM     18  C   UNL A   1      34.633  24.694  25.289  1.00  0.00     0.036 C 
BRANCH  17  19
ATOM     19  C   UNL A   1      32.906  23.282  24.151  1.00  0.00    -0.026 A 
ATOM     20  C   UNL A   1      32.153  22.302  22.934  1.00  0.00     0.008 A 
ATOM     21  C   UNL A   1      33.711  22.440  25.322  1.00  0.00     0.008 A 
ATOM     22  C   UNL A   1      32.154  20.503  22.982  1.00  0.00     0.027 A 
ATOM     23  C   UNL A   1      33.745  20.502  25.552  1.00  0.00     0.027 A 
ATOM     24  C   UNL A   1      32.887  19.575  24.310  1.00  0.00     0.046 A 
BRANCH  24  25
ATOM     25  N   UNL A   1      33.077  18.189  24.302  1.00  0.00    -0.306 N 
ATOM     26  C   UNL A   1      32.526  17.300  25.193  1.00  0.00     0.113 A 
ATOM     27  C   UNL A   1      33.944  17.472  23.522  1.00  0.00     0.204 A 
ATOM     28  C   UNL A   1      33.115  16.090  24.922  1.00  0.00     0.131 A 
ATOM     29  N   UNL A   1      33.992  16.204  23.877  1.00  0.00    -0.245 NA
ENDBRANCH  24  25
ENDBRANCH  17  19
ENDBRANCH  14  17
ENDBRANCH   8  13
ENDBRANCH   4   7
ENDBRANCH   2   3
ENDBRANCH   1   2
BRANCH   1  30
ATOM     30  C   UNL A   1      35.136  31.903  28.611  1.00  0.00     0.002 C 
BRANCH  30  31
ATOM     31  C   UNL A   1      35.619  33.223  28.008  1.00  0.00     0.002 C 
BRANCH  31  32
ATOM     32  C   UNL A   1      34.556  34.323  28.001  1.00  0.00     0.021 C 
BRANCH  32  33
ATOM     33  C   UNL A   1      33.285  33.928  28.735  1.00  0.00     0.116 C 
BRANCH  33  34
ATOM     34  N   UNL A   1      32.903  34.959  29.681  1.00  0.00    -0.352 N 
ATOM     35  C   UNL A   1      33.273  35.069  30.994  1.00  0.00     0.251 C 
ATOM     36  H   UNL A   1      32.307  35.664  29.338  1.00  0.00     0.163 HD
ATOM     37  O   UNL A   1      32.620  35.751  31.776  1.00  0.00    -0.269 OA
BRANCH  35  38
ATOM     38  C   UNL A   1      34.479  34.353  31.451  1.00  0.00     0.039 A 
ATOM     39  C   UNL A   1      35.728  34.946  31.284  1.00  0.00     0.014 A 
ATOM     40  C   UNL A   1      34.363  33.087  32.036  1.00  0.00     0.014 A 
ATOM     41  C   UNL A   1      36.867  34.269  31.717  1.00  0.00     0.010 A 
ATOM     42  C   UNL A   1      35.486  32.462  32.560  1.00  0.00     0.010 A 
ATOM     43  C   UNL A   1      36.752  33.031  32.371  1.00  0.00    -0.014 A 
BRANCH  43  44
ATOM     44  C   UNL A   1      37.956  32.289  32.813  1.00  0.00     0.031 A 
ATOM     45  C   UNL A   1      38.530  31.205  31.942  1.00  0.00     0.074 A 
ATOM     46  C   UNL A   1      38.514  32.577  34.003  1.00  0.00     0.049 A 
ATOM     47  N   UNL A   1      39.576  30.447  32.152  1.00  0.00    -0.248 NA
ATOM     48  C   UNL A   1      37.823  30.913  30.683  1.00  0.00     0.031 C 
ATOM     49  C   UNL A   1      38.021  33.579  34.951  1.00  0.00     0.029 A 
ATOM     50  N   UNL A   1      39.624  32.056  34.617  1.00  0.00    -0.354 N 
ATOM     51  C   UNL A   1      39.643  29.588  31.062  1.00  0.00     0.074 A 
ATOM     52  C   UNL A   1      38.496  29.869  30.228  1.00  0.00     0.031 C 
ATOM     53  C   UNL A   1      38.851  33.629  36.006  1.00  0.00     0.029 A 
ATOM     54  C   UNL A   1      39.904  32.635  35.830  1.00  0.00     0.049 A 
ATOM     55  H   UNL A   1      40.168  31.335  34.224  1.00  0.00     0.167 HD
ATOM     56  C   UNL A   1      40.588  28.666  30.765  1.00  0.00     0.031 A 
ATOM     57  C   UNL A   1      40.897  32.390  36.702  1.00  0.00     0.031 A 
ATOM     58  C   UNL A   1      41.729  28.392  31.597  1.00  0.00     0.049 A 
ATOM     59  C   UNL A   1      41.923  31.343  36.361  1.00  0.00     0.074 A 
ATOM     60  C   UNL A   1      42.771  27.512  31.369  1.00  0.00     0.029 A 
ATOM     61  N   UNL A   1      41.971  28.994  32.823  1.00  0.00    -0.354 N 
ATOM     62  N   UNL A   1      42.013  30.589  35.291  1.00  0.00    -0.248 NA
ATOM     63  C   UNL A   1      42.993  31.128  37.342  1.00  0.00     0.031 C 
ATOM     64  C   UNL A   1      43.610  27.532  32.487  1.00  0.00     0.029 A 
ATOM     65  C   UNL A   1      43.133  28.482  33.376  1.00  0.00     0.049 A 
ATOM     66  H   UNL A   1      41.402  29.682  33.238  1.00  0.00     0.167 HD
ATOM     67  C   UNL A   1      43.168  29.834  35.456  1.00  0.00     0.074 A 
ATOM     68  C   UNL A   1      43.753  30.238  36.718  1.00  0.00     0.031 C 
ATOM     69  C   UNL A   1      43.699  28.894  34.636  1.00  0.00     0.031 A 
BRANCH  56  70
ATOM     70  C   UNL A   1      40.417  27.880  29.492  1.00  0.00    -0.014 A 
ATOM     71  C   UNL A   1      41.006  28.301  28.288  1.00  0.00     0.009 A 
ATOM     72  C   UNL A   1      39.679  26.687  29.502  1.00  0.00     0.009 A 
ATOM     73  C   UNL A   1      40.823  27.567  27.114  1.00  0.00     0.001 A 
ATOM     74  C   UNL A   1      39.527  25.936  28.336  1.00  0.00     0.001 A 
ATOM     75  C   UNL A   1      40.090  26.381  27.140  1.00  0.00     0.000 A 
ENDBRANCH  56  70
BRANCH  57  76
ATOM     76  C   UNL A   1      40.982  33.157  37.973  1.00  0.00    -0.014 A 
ATOM     77  C   UNL A   1      41.756  34.324  38.057  1.00  0.00     0.009 A 
ATOM     78  C   UNL A   1      40.293  32.717  39.115  1.00  0.00     0.009 A 
ATOM     79  C   UNL A   1      41.867  35.015  39.266  1.00  0.00     0.001 A 
ATOM     80  C   UNL A   1      40.378  33.430  40.313  1.00  0.00     0.001 A 
ATOM     81  C   UNL A   1      41.174  34.569  40.391  1.00  0.00     0.000 A 
ENDBRANCH  57  76
BRANCH  69  82
ATOM     82  C   UNL A   1      45.001  28.272  35.058  1.00  0.00    -0.014 A 
ATOM     83  C   UNL A   1      45.044  27.078  35.794  1.00  0.00     0.009 A 
ATOM     84  C   UNL A   1      46.210  28.882  34.684  1.00  0.00     0.009 A 
ATOM     85  C   UNL A   1      46.269  26.534  36.186  1.00  0.00     0.001 A 
ATOM     86  C   UNL A   1      47.432  28.316  35.043  1.00  0.00     0.001 A 
ATOM     87  C   UNL A   1      47.461  27.150  35.806  1.00  0.00     0.000 A 
ENDBRANCH  69  82
ENDBRANCH  43  44
ENDBRANCH  35  38
ENDBRANCH  33  34
ENDBRANCH  32  33
ENDBRANCH  31  32
ENDBRANCH  30  31
ENDBRANCH   1  30
TORSDOF 17
ENDMDL
