MODEL 1
REMARK VINA RESULT:     -10.9      0.000      0.000
REMARK SMILES O=C(CCNC(=O)CSc1nc2[nH]cnc2c(=O)[nH]1)NCCCCCCNC(=O)c1ccc(-c2c3nc(c(-c4ccccc4)c4ccc([nH]4)c(-c4ccccc4)c4nc(c(-c5ccccc5)c5ccc2[nH]5)C=C4)C=C3)cc1
REMARK SMILES IDX 22 1 21 2 20 3 1 4 2 5 3 7 4 8 5 9 6 10 7 12 8 13 9 14 10 15
REMARK SMILES IDX 11 16 19 17 12 18 17 19 13 21 16 22 18 23 14 24 15 26 23 27
REMARK SMILES IDX 24 28 25 29 26 30 27 31 28 32 29 34 30 35 31 36 77 37 32 38
REMARK SMILES IDX 76 39 33 40 34 41 35 42 70 43 36 44 75 45 69 46 71 47 37 48
REMARK SMILES IDX 74 49 68 50 67 51 38 53 60 54 45 55 59 56 46 57 49 58 58 59
REMARK SMILES IDX 72 60 47 61 48 62 57 64 73 65 50 66 39 67 40 68 44 69 41 70
REMARK SMILES IDX 43 71 42 72 61 73 62 74 66 75 63 76 65 77 64 78 51 79 52 80
REMARK SMILES IDX 56 81 53 82 55 83 54 84
REMARK H PARENT 20 6 5 11 19 20 13 25 27 33 71 52 49 63
REMARK Flexibility Score: inf
ROOT
ATOM      1  C   UNL A   1      35.803  23.684  24.296  1.00  0.00     0.021 C 
ENDROOT
BRANCH   1   2
ATOM      2  C   UNL A   1      35.000  24.524  25.286  1.00  0.00     0.116 C 
BRANCH   2   3
ATOM      3  N   UNL A   1      33.733  24.939  24.720  1.00  0.00    -0.356 N 
ATOM      4  O   UNL A   1      33.067  26.263  26.476  1.00  0.00    -0.275 OA
ATOM      5  C   UNL A   1      32.870  25.797  25.360  1.00  0.00     0.221 C 
ATOM      6  H   UNL A   1      33.477  24.590  23.836  1.00  0.00     0.163 HD
BRANCH   5   7
ATOM      7  C   UNL A   1      31.644  26.140  24.543  1.00  0.00     0.121 C 
BRANCH   7   8
ATOM      8  C   UNL A   1      30.691  24.950  24.471  1.00  0.00     0.125 C 
BRANCH   8   9
ATOM      9  N   UNL A   1      30.269  24.509  25.796  1.00  0.00    -0.355 N 
ATOM     10  C   UNL A   1      30.549  23.349  26.456  1.00  0.00     0.230 C 
ATOM     11  H   UNL A   1      29.696  25.143  26.286  1.00  0.00     0.163 HD
ATOM     12  O   UNL A   1      29.893  23.082  27.466  1.00  0.00    -0.274 OA
BRANCH  10  13
ATOM     13  C   UNL A   1      31.696  22.465  26.011  1.00  0.00     0.178 C 
BRANCH  13  14
ATOM     14  S   UNL A   1      31.677  22.055  24.256  1.00  0.00    -0.078 SA
BRANCH  14  15
ATOM     15  C   UNL A   1      32.183  20.398  24.301  1.00  0.00     0.170 A 
ATOM     16  N   UNL A   1      32.415  19.805  25.435  1.00  0.00    -0.204 NA
ATOM     17  N   UNL A   1      32.219  19.809  23.056  1.00  0.00    -0.299 N 
ATOM     18  C   UNL A   1      32.683  18.490  25.267  1.00  0.00     0.165 A 
ATOM     19  C   UNL A   1      32.501  18.468  22.853  1.00  0.00     0.279 A 
ATOM     20  H   UNL A   1      32.036  20.371  22.269  1.00  0.00     0.172 HD
ATOM     21  N   UNL A   1      32.893  17.582  26.260  1.00  0.00    -0.329 N 
ATOM     22  C   UNL A   1      32.742  17.765  24.097  1.00  0.00     0.172 A 
ATOM     23  O   UNL A   1      32.508  17.970  21.731  1.00  0.00    -0.267 OA
ATOM     24  C   UNL A   1      33.063  16.360  25.659  1.00  0.00     0.199 A 
ATOM     25  H   UNL A   1      32.919  17.766  27.226  1.00  0.00     0.169 HD
ATOM     26  N   UNL A   1      32.983  16.438  24.346  1.00  0.00    -0.229 NA
ENDBRANCH  14  15
ENDBRANCH  13  14
ENDBRANCH  10  13
ENDBRANCH   8   9
ENDBRANCH   7   8
ENDBRANCH   5   7
ENDBRANCH   2   3
ENDBRANCH   1   2
BRANCH   1  27
ATOM     27  C   UNL A   1      35.418  22.198  24.258  1.00  0.00     0.002 C 
BRANCH  27  28
ATOM     28  C   UNL A   1      35.997  21.343  25.390  1.00  0.00     0.002 C 
BRANCH  28  29
ATOM     29  C   UNL A   1      37.197  20.477  25.000  1.00  0.00     0.021 C 
BRANCH  29  30
ATOM     30  C   UNL A   1      38.500  20.828  25.713  1.00  0.00     0.116 C 
BRANCH  30  31
ATOM     31  N   UNL A   1      39.456  19.731  25.703  1.00  0.00    -0.352 N 
ATOM     32  C   UNL A   1      40.800  19.743  25.985  1.00  0.00     0.251 C 
ATOM     33  H   UNL A   1      39.084  18.852  25.460  1.00  0.00     0.163 HD
ATOM     34  O   UNL A   1      41.489  18.752  25.767  1.00  0.00    -0.269 OA
BRANCH  32  35
ATOM     35  C   UNL A   1      41.426  20.969  26.524  1.00  0.00     0.039 A 
ATOM     36  C   UNL A   1      41.973  21.894  25.632  1.00  0.00     0.014 A 
ATOM     37  C   UNL A   1      41.458  21.213  27.900  1.00  0.00     0.014 A 
ATOM     38  C   UNL A   1      42.479  23.104  26.114  1.00  0.00     0.010 A 
ATOM     39  C   UNL A   1      41.895  22.448  28.372  1.00  0.00     0.010 A 
ATOM     40  C   UNL A   1      42.400  23.410  27.483  1.00  0.00    -0.014 A 
BRANCH  40  41
ATOM     41  C   UNL A   1      42.805  24.742  27.996  1.00  0.00     0.031 A 
ATOM     42  C   UNL A   1      41.778  25.811  28.243  1.00  0.00     0.074 A 
ATOM     43  C   UNL A   1      44.113  25.017  28.164  1.00  0.00     0.049 A 
ATOM     44  N   UNL A   1      41.953  27.052  28.625  1.00  0.00    -0.248 NA
ATOM     45  C   UNL A   1      40.372  25.445  28.011  1.00  0.00     0.031 C 
ATOM     46  C   UNL A   1      45.213  24.083  27.915  1.00  0.00     0.029 A 
ATOM     47  N   UNL A   1      44.740  26.169  28.570  1.00  0.00    -0.354 N 
ATOM     48  C   UNL A   1      40.684  27.616  28.666  1.00  0.00     0.074 A 
ATOM     49  C   UNL A   1      39.756  26.599  28.218  1.00  0.00     0.031 C 
ATOM     50  C   UNL A   1      46.377  24.692  28.191  1.00  0.00     0.029 A 
ATOM     51  C   UNL A   1      46.111  26.070  28.589  1.00  0.00     0.049 A 
ATOM     52  H   UNL A   1      44.256  26.987  28.825  1.00  0.00     0.167 HD
ATOM     53  C   UNL A   1      40.322  28.861  29.058  1.00  0.00     0.031 A 
ATOM     54  C   UNL A   1      47.053  26.988  28.875  1.00  0.00     0.031 A 
ATOM     55  C   UNL A   1      41.247  29.875  29.490  1.00  0.00     0.049 A 
ATOM     56  C   UNL A   1      46.630  28.375  29.273  1.00  0.00     0.074 A 
ATOM     57  C   UNL A   1      40.974  31.150  29.954  1.00  0.00     0.029 A 
ATOM     58  N   UNL A   1      42.627  29.735  29.497  1.00  0.00    -0.354 N 
ATOM     59  N   UNL A   1      45.421  28.869  29.383  1.00  0.00    -0.248 NA
ATOM     60  C   UNL A   1      47.703  29.327  29.595  1.00  0.00     0.031 C 
ATOM     61  C   UNL A   1      42.189  31.804  30.179  1.00  0.00     0.029 A 
ATOM     62  C   UNL A   1      43.220  30.913  29.922  1.00  0.00     0.049 A 
ATOM     63  H   UNL A   1      43.113  28.920  29.238  1.00  0.00     0.167 HD
ATOM     64  C   UNL A   1      45.586  30.183  29.806  1.00  0.00     0.074 A 
ATOM     65  C   UNL A   1      47.010  30.400  29.951  1.00  0.00     0.031 C 
ATOM     66  C   UNL A   1      44.640  31.123  30.050  1.00  0.00     0.031 A 
BRANCH  53  67
ATOM     67  C   UNL A   1      38.854  29.195  29.015  1.00  0.00    -0.014 A 
ATOM     68  C   UNL A   1      38.036  29.045  30.147  1.00  0.00     0.009 A 
ATOM     69  C   UNL A   1      38.283  29.682  27.830  1.00  0.00     0.009 A 
ATOM     70  C   UNL A   1      36.670  29.326  30.079  1.00  0.00     0.001 A 
ATOM     71  C   UNL A   1      36.923  29.997  27.773  1.00  0.00     0.001 A 
ATOM     72  C   UNL A   1      36.116  29.805  28.893  1.00  0.00     0.000 A 
ENDBRANCH  53  67
BRANCH  54  73
ATOM     73  C   UNL A   1      48.491  26.623  28.785  1.00  0.00    -0.014 A 
ATOM     74  C   UNL A   1      49.213  26.835  27.601  1.00  0.00     0.009 A 
ATOM     75  C   UNL A   1      49.155  26.075  29.895  1.00  0.00     0.009 A 
ATOM     76  C   UNL A   1      50.563  26.486  27.524  1.00  0.00     0.001 A 
ATOM     77  C   UNL A   1      50.512  25.757  29.825  1.00  0.00     0.001 A 
ATOM     78  C   UNL A   1      51.213  25.954  28.637  1.00  0.00     0.000 A 
ENDBRANCH  54  73
BRANCH  66  79
ATOM     79  C   UNL A   1      45.114  32.471  30.522  1.00  0.00    -0.014 A 
ATOM     80  C   UNL A   1      45.420  33.495  29.613  1.00  0.00     0.009 A 
ATOM     81  C   UNL A   1      45.210  32.731  31.897  1.00  0.00     0.009 A 
ATOM     82  C   UNL A   1      45.843  34.745  30.074  1.00  0.00     0.001 A 
ATOM     83  C   UNL A   1      45.602  33.989  32.356  1.00  0.00     0.001 A 
ATOM     84  C   UNL A   1      45.927  34.992  31.444  1.00  0.00     0.000 A 
ENDBRANCH  66  79
ENDBRANCH  40  41
ENDBRANCH  32  35
ENDBRANCH  30  31
ENDBRANCH  29  30
ENDBRANCH  28  29
ENDBRANCH  27  28
ENDBRANCH   1  27
TORSDOF 18
ENDMDL
MODEL 2
REMARK VINA RESULT:     -10.8      2.065      3.114
REMARK SMILES O=C(CCNC(=O)CSc1nc2[nH]cnc2c(=O)[nH]1)NCCCCCCNC(=O)c1ccc(-c2c3nc(c(-c4ccccc4)c4ccc([nH]4)c(-c4ccccc4)c4nc(c(-c5ccccc5)c5ccc2[nH]5)C=C4)C=C3)cc1
REMARK SMILES IDX 22 1 21 2 20 3 1 4 2 5 3 7 4 8 5 9 6 10 7 12 8 13 9 14 10 15
REMARK SMILES IDX 11 16 19 17 12 18 17 19 13 21 16 22 18 23 14 24 15 26 23 27
REMARK SMILES IDX 24 28 25 29 26 30 27 31 28 32 29 34 30 35 31 36 77 37 32 38
REMARK SMILES IDX 76 39 33 40 34 41 35 42 70 43 36 44 75 45 69 46 71 47 37 48
REMARK SMILES IDX 74 49 68 50 67 51 38 53 60 54 45 55 59 56 46 57 49 58 58 59
REMARK SMILES IDX 72 60 47 61 48 62 57 64 73 65 50 66 39 67 40 68 44 69 41 70
REMARK SMILES IDX 43 71 42 72 61 73 62 74 66 75 63 76 65 77 64 78 51 79 52 80
REMARK SMILES IDX 56 81 53 82 55 83 54 84
REMARK H PARENT 20 6 5 11 19 20 13 25 27 33 71 52 49 63
REMARK Flexibility Score: inf
ROOT
ATOM      1  C   UNL A   1      36.235  23.735  25.669  1.00  0.00     0.021 C 
ENDROOT
BRANCH   1   2
ATOM      2  C   UNL A   1      35.103  24.108  24.716  1.00  0.00     0.116 C 
BRANCH   2   3
ATOM      3  N   UNL A   1      34.432  25.320  25.142  1.00  0.00    -0.356 N 
ATOM      4  O   UNL A   1      33.618  25.924  23.080  1.00  0.00    -0.275 OA
ATOM      5  C   UNL A   1      33.723  26.127  24.284  1.00  0.00     0.221 C 
ATOM      6  H   UNL A   1      34.487  25.578  26.090  1.00  0.00     0.163 HD
BRANCH   5   7
ATOM      7  C   UNL A   1      33.052  27.296  24.970  1.00  0.00     0.121 C 
BRANCH   7   8
ATOM      8  C   UNL A   1      33.114  28.546  24.095  1.00  0.00     0.125 C 
BRANCH   8   9
ATOM      9  N   UNL A   1      31.871  29.306  24.144  1.00  0.00    -0.355 N 
ATOM     10  C   UNL A   1      30.677  29.062  23.529  1.00  0.00     0.230 C 
ATOM     11  H   UNL A   1      31.896  30.117  24.702  1.00  0.00     0.163 HD
ATOM     12  O   UNL A   1      29.835  29.963  23.517  1.00  0.00    -0.274 OA
BRANCH  10  13
ATOM     13  C   UNL A   1      30.367  27.692  22.963  1.00  0.00     0.178 C 
BRANCH  13  14
ATOM     14  S   UNL A   1      29.107  26.782  23.876  1.00  0.00    -0.078 SA
BRANCH  14  15
ATOM     15  C   UNL A   1      29.942  25.298  24.197  1.00  0.00     0.170 A 
ATOM     16  N   UNL A   1      30.398  24.567  23.222  1.00  0.00    -0.204 NA
ATOM     17  N   UNL A   1      30.122  25.058  25.542  1.00  0.00    -0.299 N 
ATOM     18  C   UNL A   1      31.117  23.516  23.678  1.00  0.00     0.165 A 
ATOM     19  C   UNL A   1      30.845  23.985  26.037  1.00  0.00     0.279 A 
ATOM     20  H   UNL A   1      29.714  25.682  26.185  1.00  0.00     0.172 HD
ATOM     21  N   UNL A   1      31.787  22.611  22.911  1.00  0.00    -0.329 N 
ATOM     22  C   UNL A   1      31.391  23.159  24.979  1.00  0.00     0.172 A 
ATOM     23  O   UNL A   1      31.000  23.809  27.242  1.00  0.00    -0.267 OA
ATOM     24  C   UNL A   1      32.434  21.757  23.769  1.00  0.00     0.199 A 
ATOM     25  H   UNL A   1      31.805  22.575  21.928  1.00  0.00     0.169 HD
ATOM     26  N   UNL A   1      32.209  22.059  25.032  1.00  0.00    -0.229 NA
ENDBRANCH  14  15
ENDBRANCH  13  14
ENDBRANCH  10  13
ENDBRANCH   8   9
ENDBRANCH   7   8
ENDBRANCH   5   7
ENDBRANCH   2   3
ENDBRANCH   1   2
BRANCH   1  27
ATOM     27  C   UNL A   1      37.290  22.792  25.072  1.00  0.00     0.002 C 
BRANCH  27  28
ATOM     28  C   UNL A   1      36.754  21.449  24.564  1.00  0.00     0.002 C 
BRANCH  28  29
ATOM     29  C   UNL A   1      37.559  20.223  25.000  1.00  0.00     0.021 C 
BRANCH  29  30
ATOM     30  C   UNL A   1      38.850  20.538  25.752  1.00  0.00     0.116 C 
BRANCH  30  31
ATOM     31  N   UNL A   1      39.773  19.412  25.772  1.00  0.00    -0.352 N 
ATOM     32  C   UNL A   1      41.132  19.403  25.969  1.00  0.00     0.251 C 
ATOM     33  H   UNL A   1      39.362  18.529  25.623  1.00  0.00     0.163 HD
ATOM     34  O   UNL A   1      41.779  18.376  25.791  1.00  0.00    -0.269 OA
BRANCH  32  35
ATOM     35  C   UNL A   1      41.825  20.646  26.368  1.00  0.00     0.039 A 
ATOM     36  C   UNL A   1      42.261  21.523  25.372  1.00  0.00     0.014 A 
ATOM     37  C   UNL A   1      42.027  20.954  27.716  1.00  0.00     0.014 A 
ATOM     38  C   UNL A   1      42.828  22.749  25.730  1.00  0.00     0.010 A 
ATOM     39  C   UNL A   1      42.523  22.206  28.071  1.00  0.00     0.010 A 
ATOM     40  C   UNL A   1      42.919  23.120  27.082  1.00  0.00    -0.014 A 
BRANCH  40  41
ATOM     41  C   UNL A   1      43.389  24.471  27.477  1.00  0.00     0.031 A 
ATOM     42  C   UNL A   1      42.407  25.538  27.868  1.00  0.00     0.074 A 
ATOM     43  C   UNL A   1      44.703  24.761  27.406  1.00  0.00     0.049 A 
ATOM     44  N   UNL A   1      42.629  26.792  28.177  1.00  0.00    -0.248 NA
ATOM     45  C   UNL A   1      40.987  25.154  27.896  1.00  0.00     0.031 C 
ATOM     46  C   UNL A   1      45.755  23.828  26.996  1.00  0.00     0.029 A 
ATOM     47  N   UNL A   1      45.376  25.930  27.663  1.00  0.00    -0.354 N 
ATOM     48  C   UNL A   1      41.380  27.347  28.423  1.00  0.00     0.074 A 
ATOM     49  C   UNL A   1      40.402  26.309  28.174  1.00  0.00     0.031 C 
ATOM     50  C   UNL A   1      46.941  24.455  27.047  1.00  0.00     0.029 A 
ATOM     51  C   UNL A   1      46.730  25.843  27.445  1.00  0.00     0.049 A 
ATOM     52  H   UNL A   1      44.933  26.752  27.974  1.00  0.00     0.167 HD
ATOM     53  C   UNL A   1      41.075  28.601  28.835  1.00  0.00     0.031 A 
ATOM     54  C   UNL A   1      47.695  26.777  27.535  1.00  0.00     0.031 A 
ATOM     55  C   UNL A   1      42.047  29.636  29.069  1.00  0.00     0.049 A 
ATOM     56  C   UNL A   1      47.330  28.172  27.960  1.00  0.00     0.074 A 
ATOM     57  C   UNL A   1      41.843  30.922  29.536  1.00  0.00     0.029 A 
ATOM     58  N   UNL A   1      43.409  29.507  28.839  1.00  0.00    -0.354 N 
ATOM     59  N   UNL A   1      46.152  28.660  28.264  1.00  0.00    -0.248 NA
ATOM     60  C   UNL A   1      48.430  29.143  28.061  1.00  0.00     0.031 C 
ATOM     61  C   UNL A   1      43.070  31.592  29.526  1.00  0.00     0.029 A 
ATOM     62  C   UNL A   1      44.051  30.702  29.119  1.00  0.00     0.049 A 
ATOM     63  H   UNL A   1      43.854  28.687  28.524  1.00  0.00     0.167 HD
ATOM     64  C   UNL A   1      46.370  29.987  28.613  1.00  0.00     0.074 A 
ATOM     65  C   UNL A   1      47.795  30.220  28.502  1.00  0.00     0.031 C 
ATOM     66  C   UNL A   1      45.469  30.927  28.991  1.00  0.00     0.031 A 
BRANCH  53  67
ATOM     67  C   UNL A   1      39.617  28.922  29.039  1.00  0.00    -0.014 A 
ATOM     68  C   UNL A   1      38.834  29.455  28.002  1.00  0.00     0.009 A 
ATOM     69  C   UNL A   1      39.015  28.674  30.282  1.00  0.00     0.009 A 
ATOM     70  C   UNL A   1      37.493  29.779  28.220  1.00  0.00     0.001 A 
ATOM     71  C   UNL A   1      37.665  28.966  30.487  1.00  0.00     0.001 A 
ATOM     72  C   UNL A   1      36.910  29.532  29.461  1.00  0.00     0.000 A 
ENDBRANCH  53  67
BRANCH  54  73
ATOM     73  C   UNL A   1      49.101  26.420  27.207  1.00  0.00    -0.014 A 
ATOM     74  C   UNL A   1      49.597  26.583  25.905  1.00  0.00     0.009 A 
ATOM     75  C   UNL A   1      49.960  25.931  28.203  1.00  0.00     0.009 A 
ATOM     76  C   UNL A   1      50.918  26.242  25.603  1.00  0.00     0.001 A 
ATOM     77  C   UNL A   1      51.289  25.622  27.907  1.00  0.00     0.001 A 
ATOM     78  C   UNL A   1      51.764  25.769  26.605  1.00  0.00     0.000 A 
ENDBRANCH  54  73
BRANCH  66  79
ATOM     79  C   UNL A   1      46.000  32.293  29.333  1.00  0.00    -0.014 A 
ATOM     80  C   UNL A   1      46.437  32.602  30.630  1.00  0.00     0.009 A 
ATOM     81  C   UNL A   1      46.105  33.269  28.330  1.00  0.00     0.009 A 
ATOM     82  C   UNL A   1      46.941  33.872  30.922  1.00  0.00     0.001 A 
ATOM     83  C   UNL A   1      46.638  34.526  28.616  1.00  0.00     0.001 A 
ATOM     84  C   UNL A   1      47.047  34.830  29.914  1.00  0.00     0.000 A 
ENDBRANCH  66  79
ENDBRANCH  40  41
ENDBRANCH  32  35
ENDBRANCH  30  31
ENDBRANCH  29  30
ENDBRANCH  28  29
ENDBRANCH  27  28
ENDBRANCH   1  27
TORSDOF 18
ENDMDL
MODEL 3
REMARK VINA RESULT:     -10.5      2.271      7.294
REMARK SMILES O=C(CCNC(=O)CSc1nc2[nH]cnc2c(=O)[nH]1)NCCCCCCNC(=O)c1ccc(-c2c3nc(c(-c4ccccc4)c4ccc([nH]4)c(-c4ccccc4)c4nc(c(-c5ccccc5)c5ccc2[nH]5)C=C4)C=C3)cc1
REMARK SMILES IDX 22 1 21 2 20 3 1 4 2 5 3 7 4 8 5 9 6 10 7 12 8 13 9 14 10 15
REMARK SMILES IDX 11 16 19 17 12 18 17 19 13 21 16 22 18 23 14 24 15 26 23 27
REMARK SMILES IDX 24 28 25 29 26 30 27 31 28 32 29 34 30 35 31 36 77 37 32 38
REMARK SMILES IDX 76 39 33 40 34 41 35 42 70 43 36 44 75 45 69 46 71 47 37 48
REMARK SMILES IDX 74 49 68 50 67 51 38 53 60 54 45 55 59 56 46 57 49 58 58 59
REMARK SMILES IDX 72 60 47 61 48 62 57 64 73 65 50 66 39 67 40 68 44 69 41 70
REMARK SMILES IDX 43 71 42 72 61 73 62 74 66 75 63 76 65 77 64 78 51 79 52 80
REMARK SMILES IDX 56 81 53 82 55 83 54 84
REMARK H PARENT 20 6 5 11 19 20 13 25 27 33 71 52 49 63
REMARK Flexibility Score: inf
ROOT
ATOM      1  C   UNL A   1      35.144  23.029  26.407  1.00  0.00     0.021 C 
ENDROOT
BRANCH   1   2
ATOM      2  C   UNL A   1      33.703  23.532  26.380  1.00  0.00     0.116 C 
BRANCH   2   3
ATOM      3  N   UNL A   1      33.097  23.330  25.080  1.00  0.00    -0.356 N 
ATOM      4  O   UNL A   1      30.969  23.972  25.664  1.00  0.00    -0.275 OA
ATOM      5  C   UNL A   1      31.771  23.587  24.821  1.00  0.00     0.221 C 
ATOM      6  H   UNL A   1      33.661  22.993  24.347  1.00  0.00     0.163 HD
BRANCH   5   7
ATOM      7  C   UNL A   1      31.385  23.368  23.375  1.00  0.00     0.121 C 
BRANCH   7   8
ATOM      8  C   UNL A   1      32.593  22.925  22.553  1.00  0.00     0.125 C 
BRANCH   8   9
ATOM      9  N   UNL A   1      32.825  23.799  21.409  1.00  0.00    -0.355 N 
ATOM     10  C   UNL A   1      33.055  25.143  21.376  1.00  0.00     0.230 C 
ATOM     11  H   UNL A   1      32.812  23.353  20.531  1.00  0.00     0.163 HD
ATOM     12  O   UNL A   1      32.986  25.717  20.287  1.00  0.00    -0.274 OA
BRANCH  10  13
ATOM     13  C   UNL A   1      33.476  25.886  22.627  1.00  0.00     0.178 C 
BRANCH  13  14
ATOM     14  S   UNL A   1      33.500  27.679  22.452  1.00  0.00    -0.078 SA
BRANCH  14  15
ATOM     15  C   UNL A   1      31.827  28.056  22.700  1.00  0.00     0.170 A 
ATOM     16  N   UNL A   1      31.313  29.147  22.213  1.00  0.00    -0.204 NA
ATOM     17  N   UNL A   1      31.142  27.064  23.368  1.00  0.00    -0.299 N 
ATOM     18  C   UNL A   1      29.976  29.202  22.413  1.00  0.00     0.165 A 
ATOM     19  C   UNL A   1      29.776  27.099  23.595  1.00  0.00     0.279 A 
ATOM     20  H   UNL A   1      31.651  26.290  23.701  1.00  0.00     0.172 HD
ATOM     21  N   UNL A   1      29.137  30.175  21.958  1.00  0.00    -0.329 N 
ATOM     22  C   UNL A   1      29.160  28.290  23.045  1.00  0.00     0.172 A 
ATOM     23  O   UNL A   1      29.193  26.190  24.178  1.00  0.00    -0.267 OA
ATOM     24  C   UNL A   1      27.865  29.812  22.323  1.00  0.00     0.199 A 
ATOM     25  H   UNL A   1      29.394  30.984  21.461  1.00  0.00     0.169 HD
ATOM     26  N   UNL A   1      27.845  28.676  22.991  1.00  0.00    -0.229 NA
ENDBRANCH  14  15
ENDBRANCH  13  14
ENDBRANCH  10  13
ENDBRANCH   8   9
ENDBRANCH   7   8
ENDBRANCH   5   7
ENDBRANCH   2   3
ENDBRANCH   1   2
BRANCH   1  27
ATOM     27  C   UNL A   1      35.331  21.593  25.898  1.00  0.00     0.002 C 
BRANCH  27  28
ATOM     28  C   UNL A   1      36.313  21.435  24.732  1.00  0.00     0.002 C 
BRANCH  28  29
ATOM     29  C   UNL A   1      37.355  20.328  24.908  1.00  0.00     0.021 C 
BRANCH  29  30
ATOM     30  C   UNL A   1      38.609  20.743  25.672  1.00  0.00     0.116 C 
BRANCH  30  31
ATOM     31  N   UNL A   1      39.620  19.697  25.699  1.00  0.00    -0.352 N 
ATOM     32  C   UNL A   1      40.952  19.779  26.021  1.00  0.00     0.251 C 
ATOM     33  H   UNL A   1      39.301  18.798  25.450  1.00  0.00     0.163 HD
ATOM     34  O   UNL A   1      41.698  18.824  25.831  1.00  0.00    -0.269 OA
BRANCH  32  35
ATOM     35  C   UNL A   1      41.499  21.038  26.570  1.00  0.00     0.039 A 
ATOM     36  C   UNL A   1      42.036  21.980  25.690  1.00  0.00     0.014 A 
ATOM     37  C   UNL A   1      41.465  21.296  27.944  1.00  0.00     0.014 A 
ATOM     38  C   UNL A   1      42.465  23.217  26.178  1.00  0.00     0.010 A 
ATOM     39  C   UNL A   1      41.824  22.554  28.419  1.00  0.00     0.010 A 
ATOM     40  C   UNL A   1      42.318  23.531  27.539  1.00  0.00    -0.014 A 
BRANCH  40  41
ATOM     41  C   UNL A   1      42.639  24.886  28.053  1.00  0.00     0.031 A 
ATOM     42  C   UNL A   1      44.029  25.219  28.515  1.00  0.00     0.074 A 
ATOM     43  C   UNL A   1      41.654  25.797  28.177  1.00  0.00     0.049 A 
ATOM     44  N   UNL A   1      44.477  26.325  29.055  1.00  0.00    -0.248 NA
ATOM     45  C   UNL A   1      45.044  24.164  28.373  1.00  0.00     0.031 C 
ATOM     46  C   UNL A   1      40.253  25.585  27.808  1.00  0.00     0.029 A 
ATOM     47  N   UNL A   1      41.679  27.081  28.664  1.00  0.00    -0.354 N 
ATOM     48  C   UNL A   1      45.820  26.095  29.327  1.00  0.00     0.074 A 
ATOM     49  C   UNL A   1      46.099  24.727  28.944  1.00  0.00     0.031 C 
ATOM     50  C   UNL A   1      39.557  26.704  28.064  1.00  0.00     0.029 A 
ATOM     51  C   UNL A   1      40.450  27.694  28.658  1.00  0.00     0.049 A 
ATOM     52  H   UNL A   1      42.499  27.521  28.985  1.00  0.00     0.167 HD
ATOM     53  C   UNL A   1      46.741  26.949  29.833  1.00  0.00     0.031 A 
ATOM     54  C   UNL A   1      40.073  28.909  29.098  1.00  0.00     0.031 A 
ATOM     55  C   UNL A   1      46.460  28.305  30.226  1.00  0.00     0.049 A 
ATOM     56  C   UNL A   1      41.105  29.829  29.690  1.00  0.00     0.074 A 
ATOM     57  C   UNL A   1      47.335  29.265  30.702  1.00  0.00     0.029 A 
ATOM     58  N   UNL A   1      45.202  28.889  30.202  1.00  0.00    -0.354 N 
ATOM     59  N   UNL A   1      42.387  29.624  29.868  1.00  0.00    -0.248 NA
ATOM     60  C   UNL A   1      40.638  31.151  30.132  1.00  0.00     0.031 C 
ATOM     61  C   UNL A   1      46.598  30.407  31.029  1.00  0.00     0.029 A 
ATOM     62  C   UNL A   1      45.273  30.184  30.691  1.00  0.00     0.049 A 
ATOM     63  H   UNL A   1      44.380  28.449  29.886  1.00  0.00     0.167 HD
ATOM     64  C   UNL A   1      42.885  30.796  30.423  1.00  0.00     0.074 A 
ATOM     65  C   UNL A   1      41.770  31.713  30.533  1.00  0.00     0.031 C 
ATOM     66  C   UNL A   1      44.153  31.084  30.808  1.00  0.00     0.031 A 
BRANCH  53  67
ATOM     67  C   UNL A   1      48.143  26.425  30.007  1.00  0.00    -0.014 A 
ATOM     68  C   UNL A   1      49.096  26.533  28.981  1.00  0.00     0.009 A 
ATOM     69  C   UNL A   1      48.519  25.828  31.219  1.00  0.00     0.009 A 
ATOM     70  C   UNL A   1      50.380  26.010  29.147  1.00  0.00     0.001 A 
ATOM     71  C   UNL A   1      49.815  25.337  31.396  1.00  0.00     0.001 A 
ATOM     72  C   UNL A   1      50.739  25.415  30.356  1.00  0.00     0.000 A 
ENDBRANCH  53  67
BRANCH  54  73
ATOM     73  C   UNL A   1      38.648  29.320  29.002  1.00  0.00    -0.014 A 
ATOM     74  C   UNL A   1      38.131  29.843  27.807  1.00  0.00     0.009 A 
ATOM     75  C   UNL A   1      37.791  29.174  30.104  1.00  0.00     0.009 A 
ATOM     76  C   UNL A   1      36.791  30.230  27.726  1.00  0.00     0.001 A 
ATOM     77  C   UNL A   1      36.444  29.531  30.010  1.00  0.00     0.001 A 
ATOM     78  C   UNL A   1      35.948  30.068  28.824  1.00  0.00     0.000 A 
ENDBRANCH  54  73
BRANCH  66  79
ATOM     79  C   UNL A   1      44.408  32.458  31.367  1.00  0.00    -0.014 A 
ATOM     80  C   UNL A   1      44.736  33.536  30.531  1.00  0.00     0.009 A 
ATOM     81  C   UNL A   1      44.274  32.684  32.745  1.00  0.00     0.009 A 
ATOM     82  C   UNL A   1      44.954  34.806  31.069  1.00  0.00     0.001 A 
ATOM     83  C   UNL A   1      44.461  33.960  33.277  1.00  0.00     0.001 A 
ATOM     84  C   UNL A   1      44.810  35.018  32.440  1.00  0.00     0.000 A 
ENDBRANCH  66  79
ENDBRANCH  40  41
ENDBRANCH  32  35
ENDBRANCH  30  31
ENDBRANCH  29  30
ENDBRANCH  28  29
ENDBRANCH  27  28
ENDBRANCH   1  27
TORSDOF 18
ENDMDL
