MODEL 1
REMARK VINA RESULT:      -9.7      0.000      0.000
REMARK SMILES CC[C@H](C)[C@@H](C)[C@](C)(O)C(=O)NCCCCCCNC(=O)c1ccc(-c2c3nc(c(-c4ccccc4)c4ccc([nH]4)c(-c4ccccc4)c4nc(c(-c5ccccc5)c5ccc2[nH]5)C=C4)C=C3)cc1
REMARK SMILES IDX 15 1 14 2 13 3 12 4 10 5 11 6 7 8 8 9 5 10 6 11 3 12 4 13
REMARK SMILES IDX 2 14 1 15 9 16 16 18 17 19 18 20 19 21 20 22 21 24 22 25
REMARK SMILES IDX 23 26 69 27 24 28 68 29 25 30 26 31 27 32 62 33 28 34 67 35
REMARK SMILES IDX 61 36 63 37 29 38 66 39 60 40 59 41 30 43 52 44 37 45 51 46
REMARK SMILES IDX 38 47 41 48 50 49 64 50 39 51 40 52 49 54 65 55 42 56 31 57
REMARK SMILES IDX 32 58 36 59 33 60 35 61 34 62 53 63 54 64 58 65 55 66 57 67
REMARK SMILES IDX 56 68 43 69 44 70 48 71 45 72 47 73 46 74
REMARK H PARENT 12 7 9 17 19 23 63 42 41 53
REMARK Flexibility Score: inf
ROOT
ATOM      1  C   UNL A   1      36.842  22.756  25.220  1.00  0.00     0.002 C 
ENDROOT
BRANCH   1   2
ATOM      2  C   UNL A   1      35.857  23.808  24.695  1.00  0.00     0.021 C 
BRANCH   2   3
ATOM      3  C   UNL A   1      34.737  23.249  23.824  1.00  0.00     0.116 C 
BRANCH   3   4
ATOM      4  N   UNL A   1      33.435  23.636  24.323  1.00  0.00    -0.354 N 
ATOM      5  C   UNL A   1      32.480  22.881  24.937  1.00  0.00     0.251 C 
ATOM      6  O   UNL A   1      31.495  23.488  25.371  1.00  0.00    -0.272 OA
ATOM      7  H   UNL A   1      33.205  24.585  24.202  1.00  0.00     0.163 HD
BRANCH   5   8
ATOM      8  C   UNL A   1      32.646  21.344  25.115  1.00  0.00     0.143 C 
ATOM      9  C   UNL A   1      33.749  21.123  26.173  1.00  0.00     0.053 C 
BRANCH   8  10
ATOM     10  C   UNL A   1      32.892  20.514  23.802  1.00  0.00     0.030 C 
ATOM     11  C   UNL A   1      32.003  21.113  22.677  1.00  0.00     0.011 C 
BRANCH  10  12
ATOM     12  C   UNL A   1      32.703  18.950  23.869  1.00  0.00    -0.008 C 
ATOM     13  C   UNL A   1      32.274  18.399  22.490  1.00  0.00     0.008 C 
BRANCH  12  14
ATOM     14  C   UNL A   1      33.964  18.163  24.295  1.00  0.00     0.000 C 
ATOM     15  C   UNL A   1      34.291  16.995  23.369  1.00  0.00     0.004 C 
ENDBRANCH  12  14
ENDBRANCH  10  12
ENDBRANCH   8  10
BRANCH   8  16
ATOM     16  O   UNL A   1      31.408  20.848  25.679  1.00  0.00    -0.380 OA
ATOM     17  H   UNL A   1      31.596  20.093  26.257  1.00  0.00     0.212 HD
ENDBRANCH   8  16
ENDBRANCH   5   8
ENDBRANCH   3   4
ENDBRANCH   2   3
ENDBRANCH   1   2
BRANCH   1  18
ATOM     18  C   UNL A   1      37.175  21.622  24.244  1.00  0.00     0.002 C 
BRANCH  18  19
ATOM     19  C   UNL A   1      37.712  20.342  24.887  1.00  0.00     0.021 C 
BRANCH  19  20
ATOM     20  C   UNL A   1      38.817  20.548  25.917  1.00  0.00     0.116 C 
BRANCH  20  21
ATOM     21  N   UNL A   1      39.880  19.563  25.809  1.00  0.00    -0.352 N 
ATOM     22  C   UNL A   1      41.228  19.710  26.029  1.00  0.00     0.251 C 
ATOM     23  H   UNL A   1      39.593  18.660  25.539  1.00  0.00     0.163 HD
ATOM     24  O   UNL A   1      42.005  18.806  25.755  1.00  0.00    -0.269 OA
BRANCH  22  25
ATOM     25  C   UNL A   1      41.743  20.988  26.566  1.00  0.00     0.039 A 
ATOM     26  C   UNL A   1      42.183  21.963  25.668  1.00  0.00     0.014 A 
ATOM     27  C   UNL A   1      41.769  21.232  27.942  1.00  0.00     0.014 A 
ATOM     28  C   UNL A   1      42.581  23.212  26.147  1.00  0.00     0.010 A 
ATOM     29  C   UNL A   1      42.094  22.502  28.411  1.00  0.00     0.010 A 
ATOM     30  C   UNL A   1      42.498  23.505  27.518  1.00  0.00    -0.014 A 
BRANCH  30  31
ATOM     31  C   UNL A   1      42.794  24.868  28.026  1.00  0.00     0.031 A 
ATOM     32  C   UNL A   1      44.189  25.248  28.434  1.00  0.00     0.074 A 
ATOM     33  C   UNL A   1      41.786  25.748  28.182  1.00  0.00     0.049 A 
ATOM     34  N   UNL A   1      44.624  26.376  28.936  1.00  0.00    -0.248 NA
ATOM     35  C   UNL A   1      45.227  24.216  28.282  1.00  0.00     0.031 C 
ATOM     36  C   UNL A   1      40.379  25.487  27.869  1.00  0.00     0.029 A 
ATOM     37  N   UNL A   1      41.789  27.037  28.652  1.00  0.00    -0.354 N 
ATOM     38  C   UNL A   1      45.981  26.188  29.165  1.00  0.00     0.074 A 
ATOM     39  C   UNL A   1      46.283  24.820  28.804  1.00  0.00     0.031 C 
ATOM     40  C   UNL A   1      39.660  26.588  28.133  1.00  0.00     0.029 A 
ATOM     41  C   UNL A   1      40.543  27.616  28.675  1.00  0.00     0.049 A 
ATOM     42  H   UNL A   1      42.604  27.503  28.945  1.00  0.00     0.167 HD
ATOM     43  C   UNL A   1      46.897  27.079  29.616  1.00  0.00     0.031 A 
ATOM     44  C   UNL A   1      40.150  28.833  29.094  1.00  0.00     0.031 A 
ATOM     45  C   UNL A   1      46.591  28.435  29.990  1.00  0.00     0.049 A 
ATOM     46  C   UNL A   1      41.175  29.794  29.623  1.00  0.00     0.074 A 
ATOM     47  C   UNL A   1      47.455  29.430  30.411  1.00  0.00     0.029 A 
ATOM     48  N   UNL A   1      45.316  28.982  30.002  1.00  0.00    -0.354 N 
ATOM     49  N   UNL A   1      42.468  29.629  29.758  1.00  0.00    -0.248 NA
ATOM     50  C   UNL A   1      40.687  31.114  30.046  1.00  0.00     0.031 C 
ATOM     51  C   UNL A   1      46.696  30.558  30.741  1.00  0.00     0.029 A 
ATOM     52  C   UNL A   1      45.366  30.289  30.460  1.00  0.00     0.049 A 
ATOM     53  H   UNL A   1      44.497  28.511  29.727  1.00  0.00     0.167 HD
ATOM     54  C   UNL A   1      42.953  30.827  30.268  1.00  0.00     0.074 A 
ATOM     55  C   UNL A   1      41.816  31.717  30.393  1.00  0.00     0.031 C 
ATOM     56  C   UNL A   1      44.225  31.158  30.601  1.00  0.00     0.031 A 
BRANCH  43  57
ATOM     57  C   UNL A   1      48.316  26.596  29.746  1.00  0.00    -0.014 A 
ATOM     58  C   UNL A   1      48.768  25.960  30.915  1.00  0.00     0.009 A 
ATOM     59  C   UNL A   1      49.215  26.770  28.682  1.00  0.00     0.009 A 
ATOM     60  C   UNL A   1      50.101  25.560  31.036  1.00  0.00     0.001 A 
ATOM     61  C   UNL A   1      50.538  26.336  28.792  1.00  0.00     0.001 A 
ATOM     62  C   UNL A   1      50.984  25.746  29.973  1.00  0.00     0.000 A 
ENDBRANCH  43  57
BRANCH  44  63
ATOM     63  C   UNL A   1      38.711  29.202  29.028  1.00  0.00    -0.014 A 
ATOM     64  C   UNL A   1      37.896  29.113  30.166  1.00  0.00     0.009 A 
ATOM     65  C   UNL A   1      38.153  29.672  27.827  1.00  0.00     0.009 A 
ATOM     66  C   UNL A   1      36.548  29.474  30.100  1.00  0.00     0.001 A 
ATOM     67  C   UNL A   1      36.814  30.060  27.773  1.00  0.00     0.001 A 
ATOM     68  C   UNL A   1      36.010  29.954  28.906  1.00  0.00     0.000 A 
ENDBRANCH  44  63
BRANCH  56  69
ATOM     69  C   UNL A   1      44.456  32.548  31.127  1.00  0.00    -0.014 A 
ATOM     70  C   UNL A   1      44.412  32.824  32.503  1.00  0.00     0.009 A 
ATOM     71  C   UNL A   1      44.758  33.590  30.235  1.00  0.00     0.009 A 
ATOM     72  C   UNL A   1      44.635  34.121  32.971  1.00  0.00     0.001 A 
ATOM     73  C   UNL A   1      45.010  34.878  30.708  1.00  0.00     0.001 A 
ATOM     74  C   UNL A   1      44.939  35.145  32.074  1.00  0.00     0.000 A 
ENDBRANCH  56  69
ENDBRANCH  30  31
ENDBRANCH  22  25
ENDBRANCH  20  21
ENDBRANCH  19  20
ENDBRANCH  18  19
ENDBRANCH   1  18
TORSDOF 17
ENDMDL
MODEL 2
REMARK VINA RESULT:      -9.5      3.670      8.786
REMARK SMILES CC[C@H](C)[C@@H](C)[C@](C)(O)C(=O)NCCCCCCNC(=O)c1ccc(-c2c3nc(c(-c4ccccc4)c4ccc([nH]4)c(-c4ccccc4)c4nc(c(-c5ccccc5)c5ccc2[nH]5)C=C4)C=C3)cc1
REMARK SMILES IDX 15 1 14 2 13 3 12 4 10 5 11 6 7 8 8 9 5 10 6 11 3 12 4 13
REMARK SMILES IDX 2 14 1 15 9 16 16 18 17 19 18 20 19 21 20 22 21 24 22 25
REMARK SMILES IDX 23 26 69 27 24 28 68 29 25 30 26 31 27 32 62 33 28 34 67 35
REMARK SMILES IDX 61 36 63 37 29 38 66 39 60 40 59 41 30 43 52 44 37 45 51 46
REMARK SMILES IDX 38 47 41 48 50 49 64 50 39 51 40 52 49 54 65 55 42 56 31 57
REMARK SMILES IDX 32 58 36 59 33 60 35 61 34 62 53 63 54 64 58 65 55 66 57 67
REMARK SMILES IDX 56 68 43 69 44 70 48 71 45 72 47 73 46 74
REMARK H PARENT 12 7 9 17 19 23 63 42 41 53
REMARK Flexibility Score: inf
ROOT
ATOM      1  C   UNL A   1      31.225  29.511  24.508  1.00  0.00     0.002 C 
ENDROOT
BRANCH   1   2
ATOM      2  C   UNL A   1      32.153  28.879  23.462  1.00  0.00     0.021 C 
BRANCH   2   3
ATOM      3  C   UNL A   1      31.889  27.401  23.193  1.00  0.00     0.116 C 
BRANCH   3   4
ATOM      4  N   UNL A   1      32.415  26.995  21.907  1.00  0.00    -0.354 N 
ATOM      5  C   UNL A   1      32.803  25.762  21.476  1.00  0.00     0.251 C 
ATOM      6  O   UNL A   1      33.112  25.668  20.283  1.00  0.00    -0.272 OA
ATOM      7  H   UNL A   1      32.507  27.718  21.245  1.00  0.00     0.163 HD
BRANCH   5   8
ATOM      8  C   UNL A   1      32.815  24.532  22.430  1.00  0.00     0.143 C 
ATOM      9  C   UNL A   1      31.384  24.374  22.989  1.00  0.00     0.053 C 
BRANCH   8  10
ATOM     10  C   UNL A   1      33.909  24.538  23.560  1.00  0.00     0.030 C 
ATOM     11  C   UNL A   1      34.943  23.424  23.238  1.00  0.00     0.011 C 
BRANCH  10  12
ATOM     12  C   UNL A   1      33.428  24.416  25.056  1.00  0.00    -0.008 C 
ATOM     13  C   UNL A   1      34.327  23.426  25.833  1.00  0.00     0.008 C 
BRANCH  12  14
ATOM     14  C   UNL A   1      33.433  25.745  25.848  1.00  0.00     0.000 C 
ATOM     15  C   UNL A   1      32.068  26.113  26.423  1.00  0.00     0.004 C 
ENDBRANCH  12  14
ENDBRANCH  10  12
ENDBRANCH   8  10
BRANCH   8  16
ATOM     16  O   UNL A   1      33.086  23.367  21.614  1.00  0.00    -0.380 OA
ATOM     17  H   UNL A   1      33.004  23.602  20.677  1.00  0.00     0.212 HD
ENDBRANCH   8  16
ENDBRANCH   5   8
ENDBRANCH   3   4
ENDBRANCH   2   3
ENDBRANCH   1   2
BRANCH   1  18
ATOM     18  C   UNL A   1      31.865  29.797  25.869  1.00  0.00     0.002 C 
BRANCH  18  19
ATOM     19  C   UNL A   1      31.556  31.171  26.464  1.00  0.00     0.021 C 
BRANCH  19  20
ATOM     20  C   UNL A   1      32.749  31.896  27.077  1.00  0.00     0.116 C 
BRANCH  20  21
ATOM     21  N   UNL A   1      32.429  33.248  27.505  1.00  0.00    -0.352 N 
ATOM     22  C   UNL A   1      33.116  34.075  28.360  1.00  0.00     0.251 C 
ATOM     23  H   UNL A   1      31.600  33.625  27.128  1.00  0.00     0.163 HD
ATOM     24  O   UNL A   1      32.629  35.137  28.722  1.00  0.00    -0.269 OA
BRANCH  22  25
ATOM     25  C   UNL A   1      34.438  33.655  28.873  1.00  0.00     0.039 A 
ATOM     26  C   UNL A   1      34.498  32.973  30.090  1.00  0.00     0.014 A 
ATOM     27  C   UNL A   1      35.605  33.912  28.149  1.00  0.00     0.014 A 
ATOM     28  C   UNL A   1      35.723  32.482  30.545  1.00  0.00     0.010 A 
ATOM     29  C   UNL A   1      36.812  33.359  28.567  1.00  0.00     0.010 A 
ATOM     30  C   UNL A   1      36.882  32.634  29.766  1.00  0.00    -0.014 A 
BRANCH  30  31
ATOM     31  C   UNL A   1      38.163  32.007  30.174  1.00  0.00     0.031 A 
ATOM     32  C   UNL A   1      39.114  32.728  31.085  1.00  0.00     0.074 A 
ATOM     33  C   UNL A   1      38.502  30.805  29.667  1.00  0.00     0.049 A 
ATOM     34  N   UNL A   1      40.293  32.353  31.514  1.00  0.00    -0.248 NA
ATOM     35  C   UNL A   1      38.696  34.058  31.557  1.00  0.00     0.031 C 
ATOM     36  C   UNL A   1      37.688  30.022  28.733  1.00  0.00     0.029 A 
ATOM     37  N   UNL A   1      39.623  30.037  29.858  1.00  0.00    -0.354 N 
ATOM     38  C   UNL A   1      40.759  33.400  32.299  1.00  0.00     0.074 A 
ATOM     39  C   UNL A   1      39.764  34.448  32.237  1.00  0.00     0.031 C 
ATOM     40  C   UNL A   1      38.326  28.875  28.453  1.00  0.00     0.029 A 
ATOM     41  C   UNL A   1      39.609  28.861  29.147  1.00  0.00     0.049 A 
ATOM     42  H   UNL A   1      40.364  30.302  30.447  1.00  0.00     0.167 HD
ATOM     43  C   UNL A   1      41.903  33.474  33.021  1.00  0.00     0.031 A 
ATOM     44  C   UNL A   1      40.530  27.884  29.054  1.00  0.00     0.031 A 
ATOM     45  C   UNL A   1      42.900  32.437  33.068  1.00  0.00     0.049 A 
ATOM     46  C   UNL A   1      41.807  28.001  29.836  1.00  0.00     0.074 A 
ATOM     47  C   UNL A   1      44.068  32.395  33.808  1.00  0.00     0.029 A 
ATOM     48  N   UNL A   1      42.852  31.262  32.331  1.00  0.00    -0.354 N 
ATOM     49  N   UNL A   1      42.199  28.961  30.637  1.00  0.00    -0.248 NA
ATOM     50  C   UNL A   1      42.764  26.892  29.709  1.00  0.00     0.031 C 
ATOM     51  C   UNL A   1      44.759  31.226  33.469  1.00  0.00     0.029 A 
ATOM     52  C   UNL A   1      43.988  30.506  32.570  1.00  0.00     0.049 A 
ATOM     53  H   UNL A   1      42.119  31.003  31.728  1.00  0.00     0.167 HD
ATOM     54  C   UNL A   1      43.440  28.569  31.122  1.00  0.00     0.074 A 
ATOM     55  C   UNL A   1      43.722  27.271  30.543  1.00  0.00     0.031 C 
ATOM     56  C   UNL A   1      44.269  29.226  31.971  1.00  0.00     0.031 A 
BRANCH  43  57
ATOM     57  C   UNL A   1      42.138  34.739  33.803  1.00  0.00    -0.014 A 
ATOM     58  C   UNL A   1      42.793  35.842  33.229  1.00  0.00     0.009 A 
ATOM     59  C   UNL A   1      41.693  34.834  35.131  1.00  0.00     0.009 A 
ATOM     60  C   UNL A   1      43.045  36.990  33.983  1.00  0.00     0.001 A 
ATOM     61  C   UNL A   1      41.914  35.997  35.872  1.00  0.00     0.001 A 
ATOM     62  C   UNL A   1      42.602  37.067  35.303  1.00  0.00     0.000 A 
ENDBRANCH  43  57
BRANCH  44  63
ATOM     63  C   UNL A   1      40.268  26.710  28.181  1.00  0.00    -0.014 A 
ATOM     64  C   UNL A   1      39.478  25.643  28.632  1.00  0.00     0.009 A 
ATOM     65  C   UNL A   1      40.787  26.666  26.876  1.00  0.00     0.009 A 
ATOM     66  C   UNL A   1      39.225  24.549  27.802  1.00  0.00     0.001 A 
ATOM     67  C   UNL A   1      40.507  25.586  26.038  1.00  0.00     0.001 A 
ATOM     68  C   UNL A   1      39.732  24.525  26.503  1.00  0.00     0.000 A 
ENDBRANCH  44  63
BRANCH  56  69
ATOM     69  C   UNL A   1      45.560  28.544  32.332  1.00  0.00    -0.014 A 
ATOM     70  C   UNL A   1      45.638  27.658  33.418  1.00  0.00     0.009 A 
ATOM     71  C   UNL A   1      46.707  28.763  31.551  1.00  0.00     0.009 A 
ATOM     72  C   UNL A   1      46.845  27.031  33.734  1.00  0.00     0.001 A 
ATOM     73  C   UNL A   1      47.904  28.111  31.850  1.00  0.00     0.001 A 
ATOM     74  C   UNL A   1      47.975  27.254  32.946  1.00  0.00     0.000 A 
ENDBRANCH  56  69
ENDBRANCH  30  31
ENDBRANCH  22  25
ENDBRANCH  20  21
ENDBRANCH  19  20
ENDBRANCH  18  19
ENDBRANCH   1  18
TORSDOF 17
ENDMDL
MODEL 3
REMARK VINA RESULT:      -9.5      1.587      6.846
REMARK SMILES CC[C@H](C)[C@@H](C)[C@](C)(O)C(=O)NCCCCCCNC(=O)c1ccc(-c2c3nc(c(-c4ccccc4)c4ccc([nH]4)c(-c4ccccc4)c4nc(c(-c5ccccc5)c5ccc2[nH]5)C=C4)C=C3)cc1
REMARK SMILES IDX 15 1 14 2 13 3 12 4 10 5 11 6 7 8 8 9 5 10 6 11 3 12 4 13
REMARK SMILES IDX 2 14 1 15 9 16 16 18 17 19 18 20 19 21 20 22 21 24 22 25
REMARK SMILES IDX 23 26 69 27 24 28 68 29 25 30 26 31 27 32 62 33 28 34 67 35
REMARK SMILES IDX 61 36 63 37 29 38 66 39 60 40 59 41 30 43 52 44 37 45 51 46
REMARK SMILES IDX 38 47 41 48 50 49 64 50 39 51 40 52 49 54 65 55 42 56 31 57
REMARK SMILES IDX 32 58 36 59 33 60 35 61 34 62 53 63 54 64 58 65 55 66 57 67
REMARK SMILES IDX 56 68 43 69 44 70 48 71 45 72 47 73 46 74
REMARK H PARENT 12 7 9 17 19 23 63 42 41 53
REMARK Flexibility Score: inf
ROOT
ATOM      1  C   UNL A   1      36.802  23.125  25.080  1.00  0.00     0.002 C 
ENDROOT
BRANCH   1   2
ATOM      2  C   UNL A   1      35.737  23.409  26.148  1.00  0.00     0.021 C 
BRANCH   2   3
ATOM      3  C   UNL A   1      34.385  23.847  25.594  1.00  0.00     0.116 C 
BRANCH   3   4
ATOM      4  N   UNL A   1      33.332  23.677  26.571  1.00  0.00    -0.354 N 
ATOM      5  C   UNL A   1      32.016  24.024  26.500  1.00  0.00     0.251 C 
ATOM      6  O   UNL A   1      31.300  23.659  27.439  1.00  0.00    -0.272 OA
ATOM      7  H   UNL A   1      33.607  23.244  27.412  1.00  0.00     0.163 HD
BRANCH   5   8
ATOM      8  C   UNL A   1      31.443  24.804  25.281  1.00  0.00     0.143 C 
ATOM      9  C   UNL A   1      31.923  24.074  24.007  1.00  0.00     0.053 C 
BRANCH   8  10
ATOM     10  C   UNL A   1      31.737  26.349  25.242  1.00  0.00     0.030 C 
ATOM     11  C   UNL A   1      32.572  26.650  23.967  1.00  0.00     0.011 C 
BRANCH  10  12
ATOM     12  C   UNL A   1      32.417  27.005  26.504  1.00  0.00    -0.008 C 
ATOM     13  C   UNL A   1      33.828  27.526  26.146  1.00  0.00     0.008 C 
BRANCH  12  14
ATOM     14  C   UNL A   1      31.639  28.194  27.113  1.00  0.00     0.000 C 
ATOM     15  C   UNL A   1      32.485  29.455  27.271  1.00  0.00     0.004 C 
ENDBRANCH  12  14
ENDBRANCH  10  12
ENDBRANCH   8  10
BRANCH   8  16
ATOM     16  O   UNL A   1      30.002  24.670  25.333  1.00  0.00    -0.380 OA
ATOM     17  H   UNL A   1      29.660  24.511  24.440  1.00  0.00     0.212 HD
ENDBRANCH   8  16
ENDBRANCH   5   8
ENDBRANCH   3   4
ENDBRANCH   2   3
ENDBRANCH   1   2
BRANCH   1  18
ATOM     18  C   UNL A   1      36.592  21.846  24.265  1.00  0.00     0.002 C 
BRANCH  18  19
ATOM     19  C   UNL A   1      37.328  20.610  24.785  1.00  0.00     0.021 C 
BRANCH  19  20
ATOM     20  C   UNL A   1      38.545  20.899  25.657  1.00  0.00     0.116 C 
BRANCH  20  21
ATOM     21  N   UNL A   1      39.512  19.814  25.654  1.00  0.00    -0.352 N 
ATOM     22  C   UNL A   1      40.839  19.830  26.009  1.00  0.00     0.251 C 
ATOM     23  H   UNL A   1      39.166  18.941  25.355  1.00  0.00     0.163 HD
ATOM     24  O   UNL A   1      41.547  18.853  25.812  1.00  0.00    -0.269 OA
BRANCH  22  25
ATOM     25  C   UNL A   1      41.420  21.056  26.598  1.00  0.00     0.039 A 
ATOM     26  C   UNL A   1      41.992  22.003  25.745  1.00  0.00     0.014 A 
ATOM     27  C   UNL A   1      41.379  21.281  27.977  1.00  0.00     0.014 A 
ATOM     28  C   UNL A   1      42.458  23.210  26.268  1.00  0.00     0.010 A 
ATOM     29  C   UNL A   1      41.775  22.514  28.486  1.00  0.00     0.010 A 
ATOM     30  C   UNL A   1      42.313  23.493  27.637  1.00  0.00    -0.014 A 
BRANCH  30  31
ATOM     31  C   UNL A   1      42.685  24.820  28.185  1.00  0.00     0.031 A 
ATOM     32  C   UNL A   1      41.648  25.890  28.373  1.00  0.00     0.074 A 
ATOM     33  C   UNL A   1      43.979  25.086  28.452  1.00  0.00     0.049 A 
ATOM     34  N   UNL A   1      41.797  27.119  28.801  1.00  0.00    -0.248 NA
ATOM     35  C   UNL A   1      40.265  25.541  28.012  1.00  0.00     0.031 C 
ATOM     36  C   UNL A   1      45.091  24.150  28.266  1.00  0.00     0.029 A 
ATOM     37  N   UNL A   1      44.579  26.225  28.928  1.00  0.00    -0.354 N 
ATOM     38  C   UNL A   1      40.531  27.690  28.753  1.00  0.00     0.074 A 
ATOM     39  C   UNL A   1      39.640  26.694  28.199  1.00  0.00     0.031 C 
ATOM     40  C   UNL A   1      46.231  24.744  28.646  1.00  0.00     0.029 A 
ATOM     41  C   UNL A   1      45.942  26.113  29.059  1.00  0.00     0.049 A 
ATOM     42  H   UNL A   1      44.081  27.042  29.155  1.00  0.00     0.167 HD
ATOM     43  C   UNL A   1      40.142  28.925  29.151  1.00  0.00     0.031 A 
ATOM     44  C   UNL A   1      46.860  27.014  29.456  1.00  0.00     0.031 A 
ATOM     45  C   UNL A   1      41.034  29.921  29.687  1.00  0.00     0.049 A 
ATOM     46  C   UNL A   1      46.413  28.388  29.862  1.00  0.00     0.074 A 
ATOM     47  C   UNL A   1      40.730  31.183  30.165  1.00  0.00     0.029 A 
ATOM     48  N   UNL A   1      42.408  29.771  29.800  1.00  0.00    -0.354 N 
ATOM     49  N   UNL A   1      45.202  28.888  29.887  1.00  0.00    -0.248 NA
ATOM     50  C   UNL A   1      47.460  29.320  30.306  1.00  0.00     0.031 C 
ATOM     51  C   UNL A   1      41.928  31.821  30.507  1.00  0.00     0.029 A 
ATOM     52  C   UNL A   1      42.971  30.932  30.306  1.00  0.00     0.049 A 
ATOM     53  H   UNL A   1      42.910  28.960  29.557  1.00  0.00     0.167 HD
ATOM     54  C   UNL A   1      45.336  30.187  30.362  1.00  0.00     0.074 A 
ATOM     55  C   UNL A   1      46.745  30.387  30.635  1.00  0.00     0.031 C 
ATOM     56  C   UNL A   1      44.378  31.127  30.553  1.00  0.00     0.031 A 
BRANCH  43  57
ATOM     57  C   UNL A   1      38.685  29.266  28.999  1.00  0.00    -0.014 A 
ATOM     58  C   UNL A   1      37.785  29.123  30.069  1.00  0.00     0.009 A 
ATOM     59  C   UNL A   1      38.202  29.745  27.771  1.00  0.00     0.009 A 
ATOM     60  C   UNL A   1      36.427  29.399  29.897  1.00  0.00     0.001 A 
ATOM     61  C   UNL A   1      36.850  30.055  27.612  1.00  0.00     0.001 A 
ATOM     62  C   UNL A   1      35.961  29.868  28.669  1.00  0.00     0.000 A 
ENDBRANCH  43  57
BRANCH  44  63
ATOM     63  C   UNL A   1      48.296  26.632  29.485  1.00  0.00    -0.014 A 
ATOM     64  C   UNL A   1      49.126  26.882  28.382  1.00  0.00     0.009 A 
ATOM     65  C   UNL A   1      48.851  26.039  30.631  1.00  0.00     0.009 A 
ATOM     66  C   UNL A   1      50.478  26.533  28.419  1.00  0.00     0.001 A 
ATOM     67  C   UNL A   1      50.209  25.719  30.677  1.00  0.00     0.001 A 
ATOM     68  C   UNL A   1      51.020  25.960  29.569  1.00  0.00     0.000 A 
ENDBRANCH  44  63
BRANCH  56  69
ATOM     69  C   UNL A   1      44.822  32.458  31.093  1.00  0.00    -0.014 A 
ATOM     70  C   UNL A   1      45.168  33.515  30.236  1.00  0.00     0.009 A 
ATOM     71  C   UNL A   1      44.860  32.670  32.481  1.00  0.00     0.009 A 
ATOM     72  C   UNL A   1      45.573  34.745  30.758  1.00  0.00     0.001 A 
ATOM     73  C   UNL A   1      45.235  33.911  33.000  1.00  0.00     0.001 A 
ATOM     74  C   UNL A   1      45.601  34.944  32.138  1.00  0.00     0.000 A 
ENDBRANCH  56  69
ENDBRANCH  30  31
ENDBRANCH  22  25
ENDBRANCH  20  21
ENDBRANCH  19  20
ENDBRANCH  18  19
ENDBRANCH   1  18
TORSDOF 17
ENDMDL
