MODEL 1
REMARK VINA RESULT:     -10.2      0.000      0.000
REMARK SMILES CCOc1cccc(OCC)c1-c1ccc([C@@H](C)C(=O)NCCCCCCNC(=O)c2ccc(-c3c4nc(c(-c5ccccc5)c5ccc([nH]5)c(-c5ccccc5)c5nc(c(-c6ccccc6)c6ccc3[nH]6)C=C5)C=C4)cc2)cc1F
REMARK SMILES IDX 23 1 22 2 21 3 19 4 20 5 17 7 18 8 16 9 13 10 14 11 80 12
REMARK SMILES IDX 15 13 79 14 81 15 12 16 4 17 5 18 6 19 8 20 7 21 3 22 2 23
REMARK SMILES IDX 1 24 9 25 10 26 11 27 24 28 25 29 26 30 27 31 28 32 29 33
REMARK SMILES IDX 30 35 31 36 32 37 78 38 33 39 77 40 34 41 35 42 36 43 71 44
REMARK SMILES IDX 37 45 76 46 70 47 72 48 38 49 75 50 69 51 68 52 39 54 61 55
REMARK SMILES IDX 46 56 60 57 47 58 50 59 59 60 73 61 48 62 49 63 58 65 74 66
REMARK SMILES IDX 51 67 40 68 41 69 45 70 42 71 44 72 43 73 62 74 63 75 67 76
REMARK SMILES IDX 64 77 66 78 65 79 52 80 53 81 57 82 54 83 56 84 55 85
REMARK H PARENT 21 6 28 34 72 53 50 64
REMARK Flexibility Score: inf
ROOT
ATOM      1  C   UNL A   1      39.258  21.463  25.963  1.00  0.00     0.021 C 
ENDROOT
BRANCH   1   2
ATOM      2  C   UNL A   1      38.139  22.502  25.748  1.00  0.00     0.116 C 
BRANCH   2   3
ATOM      3  N   UNL A   1      36.981  21.909  25.092  1.00  0.00    -0.356 N 
ATOM      4  C   UNL A   1      35.653  21.819  25.380  1.00  0.00     0.227 C 
ATOM      5  O   UNL A   1      34.992  21.129  24.591  1.00  0.00    -0.274 OA
ATOM      6  H   UNL A   1      37.214  21.472  24.240  1.00  0.00     0.163 HD
BRANCH   4   7
ATOM      7  C   UNL A   1      34.932  22.490  26.573  1.00  0.00     0.105 C 
ATOM      8  C   UNL A   1      34.237  21.519  27.521  1.00  0.00     0.023 C 
BRANCH   7   9
ATOM      9  C   UNL A   1      34.061  23.677  26.196  1.00  0.00    -0.033 A 
ATOM     10  C   UNL A   1      32.559  26.000  25.525  1.00  0.00     0.025 A 
ATOM     11  C   UNL A   1      33.916  25.903  25.239  1.00  0.00     0.012 A 
ATOM     12  C   UNL A   1      31.964  24.917  26.186  1.00  0.00     0.131 A 
ATOM     13  C   UNL A   1      34.605  24.729  25.473  1.00  0.00     0.005 A 
ATOM     14  C   UNL A   1      32.708  23.780  26.546  1.00  0.00     0.044 A 
ATOM     15  F   UNL A   1      30.662  24.954  26.510  1.00  0.00    -0.206 F 
BRANCH  10  16
ATOM     16  C   UNL A   1      31.892  27.261  25.188  1.00  0.00     0.069 A 
ATOM     17  C   UNL A   1      32.076  28.349  26.083  1.00  0.00     0.130 A 
ATOM     18  C   UNL A   1      31.621  29.637  25.796  1.00  0.00     0.047 A 
ATOM     19  C   UNL A   1      30.987  29.879  24.587  1.00  0.00     0.008 A 
ATOM     20  C   UNL A   1      31.229  27.519  23.964  1.00  0.00     0.130 A 
ATOM     21  C   UNL A   1      30.784  28.829  23.695  1.00  0.00     0.047 A 
BRANCH  17  22
ATOM     22  O   UNL A   1      32.656  28.121  27.309  1.00  0.00    -0.493 OA
BRANCH  22  23
ATOM     23  C   UNL A   1      33.627  29.109  27.673  1.00  0.00     0.226 C 
ATOM     24  C   UNL A   1      34.798  29.030  26.704  1.00  0.00     0.049 C 
ENDBRANCH  22  23
ENDBRANCH  17  22
BRANCH  20  25
ATOM     25  O   UNL A   1      30.888  26.696  22.924  1.00  0.00    -0.493 OA
BRANCH  25  26
ATOM     26  C   UNL A   1      31.758  25.759  22.307  1.00  0.00     0.226 C 
ATOM     27  C   UNL A   1      32.891  26.475  21.581  1.00  0.00     0.049 C 
ENDBRANCH  25  26
ENDBRANCH  20  25
ENDBRANCH  10  16
ENDBRANCH   7   9
ENDBRANCH   4   7
ENDBRANCH   2   3
ENDBRANCH   1   2
BRANCH   1  28
ATOM     28  C   UNL A   1      40.394  21.896  26.885  1.00  0.00     0.002 C 
BRANCH  28  29
ATOM     29  C   UNL A   1      41.774  21.351  26.507  1.00  0.00     0.002 C 
BRANCH  29  30
ATOM     30  C   UNL A   1      41.792  19.955  25.873  1.00  0.00     0.021 C 
BRANCH  30  31
ATOM     31  C   UNL A   1      42.971  19.069  26.272  1.00  0.00     0.116 C 
BRANCH  31  32
ATOM     32  N   UNL A   1      43.855  18.800  25.147  1.00  0.00    -0.352 N 
ATOM     33  C   UNL A   1      44.594  19.663  24.382  1.00  0.00     0.251 C 
ATOM     34  H   UNL A   1      43.933  17.850  24.897  1.00  0.00     0.163 HD
ATOM     35  O   UNL A   1      45.093  19.274  23.326  1.00  0.00    -0.269 OA
BRANCH  33  36
ATOM     36  C   UNL A   1      44.796  21.063  24.809  1.00  0.00     0.039 A 
ATOM     37  C   UNL A   1      44.352  22.096  23.977  1.00  0.00     0.014 A 
ATOM     38  C   UNL A   1      45.457  21.363  26.002  1.00  0.00     0.014 A 
ATOM     39  C   UNL A   1      44.521  23.426  24.370  1.00  0.00     0.010 A 
ATOM     40  C   UNL A   1      45.568  22.687  26.423  1.00  0.00     0.010 A 
ATOM     41  C   UNL A   1      45.103  23.732  25.610  1.00  0.00    -0.014 A 
BRANCH  41  42
ATOM     42  C   UNL A   1      45.229  25.137  26.075  1.00  0.00     0.031 A 
ATOM     43  C   UNL A   1      46.563  25.832  26.040  1.00  0.00     0.074 A 
ATOM     44  C   UNL A   1      44.154  25.768  26.586  1.00  0.00     0.049 A 
ATOM     45  N   UNL A   1      46.881  27.029  26.465  1.00  0.00    -0.248 NA
ATOM     46  C   UNL A   1      47.691  25.076  25.473  1.00  0.00     0.031 C 
ATOM     47  C   UNL A   1      42.812  25.194  26.708  1.00  0.00     0.029 A 
ATOM     48  N   UNL A   1      44.024  27.031  27.108  1.00  0.00    -0.354 N 
ATOM     49  C   UNL A   1      48.243  27.165  26.229  1.00  0.00     0.074 A 
ATOM     50  C   UNL A   1      48.702  25.911  25.668  1.00  0.00     0.031 C 
ATOM     51  C   UNL A   1      41.992  26.108  27.251  1.00  0.00     0.029 A 
ATOM     52  C   UNL A   1      42.754  27.316  27.552  1.00  0.00     0.049 A 
ATOM     53  H   UNL A   1      44.769  27.673  27.159  1.00  0.00     0.167 HD
ATOM     54  C   UNL A   1      49.039  28.240  26.440  1.00  0.00     0.031 A 
ATOM     55  C   UNL A   1      42.262  28.420  28.143  1.00  0.00     0.031 A 
ATOM     56  C   UNL A   1      48.585  29.489  26.991  1.00  0.00     0.049 A 
ATOM     57  C   UNL A   1      43.171  29.592  28.385  1.00  0.00     0.074 A 
ATOM     58  C   UNL A   1      49.306  30.650  27.204  1.00  0.00     0.029 A 
ATOM     59  N   UNL A   1      47.290  29.738  27.417  1.00  0.00    -0.354 N 
ATOM     60  N   UNL A   1      44.444  29.724  28.101  1.00  0.00    -0.248 NA
ATOM     61  C   UNL A   1      42.570  30.774  29.019  1.00  0.00     0.031 C 
ATOM     62  C   UNL A   1      48.458  31.589  27.802  1.00  0.00     0.029 A 
ATOM     63  C   UNL A   1      47.196  31.029  27.910  1.00  0.00     0.049 A 
ATOM     64  H   UNL A   1      46.547  29.093  27.376  1.00  0.00     0.167 HD
ATOM     65  C   UNL A   1      44.789  31.009  28.494  1.00  0.00     0.074 A 
ATOM     66  C   UNL A   1      43.588  31.624  29.021  1.00  0.00     0.031 C 
ATOM     67  C   UNL A   1      45.993  31.627  28.428  1.00  0.00     0.031 A 
BRANCH  54  68
ATOM     68  C   UNL A   1      50.491  28.112  26.072  1.00  0.00    -0.014 A 
ATOM     69  C   UNL A   1      50.939  28.410  24.775  1.00  0.00     0.009 A 
ATOM     70  C   UNL A   1      51.431  27.735  27.045  1.00  0.00     0.009 A 
ATOM     71  C   UNL A   1      52.293  28.301  24.451  1.00  0.00     0.001 A 
ATOM     72  C   UNL A   1      52.788  27.654  26.725  1.00  0.00     0.001 A 
ATOM     73  C   UNL A   1      53.216  27.930  25.428  1.00  0.00     0.000 A 
ENDBRANCH  54  68
BRANCH  55  74
ATOM     74  C   UNL A   1      40.833  28.475  28.549  1.00  0.00    -0.014 A 
ATOM     75  C   UNL A   1      39.869  29.026  27.692  1.00  0.00     0.009 A 
ATOM     76  C   UNL A   1      40.430  27.995  29.805  1.00  0.00     0.009 A 
ATOM     77  C   UNL A   1      38.535  29.123  28.096  1.00  0.00     0.001 A 
ATOM     78  C   UNL A   1      39.090  28.065  30.194  1.00  0.00     0.001 A 
ATOM     79  C   UNL A   1      38.147  28.639  29.345  1.00  0.00     0.000 A 
ENDBRANCH  55  74
BRANCH  67  80
ATOM     80  C   UNL A   1      46.063  33.051  28.902  1.00  0.00    -0.014 A 
ATOM     81  C   UNL A   1      46.388  33.362  30.231  1.00  0.00     0.009 A 
ATOM     82  C   UNL A   1      45.835  34.096  27.993  1.00  0.00     0.009 A 
ATOM     83  C   UNL A   1      46.451  34.693  30.648  1.00  0.00     0.001 A 
ATOM     84  C   UNL A   1      45.927  35.425  28.406  1.00  0.00     0.001 A 
ATOM     85  C   UNL A   1      46.226  35.722  29.735  1.00  0.00     0.000 A 
ENDBRANCH  67  80
ENDBRANCH  41  42
ENDBRANCH  33  36
ENDBRANCH  31  32
ENDBRANCH  30  31
ENDBRANCH  29  30
ENDBRANCH  28  29
ENDBRANCH   1  28
TORSDOF 19
ENDMDL
MODEL 2
REMARK VINA RESULT:     -10.1      5.688     11.131
REMARK SMILES CCOc1cccc(OCC)c1-c1ccc([C@@H](C)C(=O)NCCCCCCNC(=O)c2ccc(-c3c4nc(c(-c5ccccc5)c5ccc([nH]5)c(-c5ccccc5)c5nc(c(-c6ccccc6)c6ccc3[nH]6)C=C5)C=C4)cc2)cc1F
REMARK SMILES IDX 23 1 22 2 21 3 19 4 20 5 17 7 18 8 16 9 13 10 14 11 80 12
REMARK SMILES IDX 15 13 79 14 81 15 12 16 4 17 5 18 6 19 8 20 7 21 3 22 2 23
REMARK SMILES IDX 1 24 9 25 10 26 11 27 24 28 25 29 26 30 27 31 28 32 29 33
REMARK SMILES IDX 30 35 31 36 32 37 78 38 33 39 77 40 34 41 35 42 36 43 71 44
REMARK SMILES IDX 37 45 76 46 70 47 72 48 38 49 75 50 69 51 68 52 39 54 61 55
REMARK SMILES IDX 46 56 60 57 47 58 50 59 59 60 73 61 48 62 49 63 58 65 74 66
REMARK SMILES IDX 51 67 40 68 41 69 45 70 42 71 44 72 43 73 62 74 63 75 67 76
REMARK SMILES IDX 64 77 66 78 65 79 52 80 53 81 57 82 54 83 56 84 55 85
REMARK H PARENT 21 6 28 34 72 53 50 64
REMARK Flexibility Score: inf
ROOT
ATOM      1  C   UNL A   1      34.478  28.940  26.952  1.00  0.00     0.021 C 
ENDROOT
BRANCH   1   2
ATOM      2  C   UNL A   1      32.966  28.796  27.219  1.00  0.00     0.116 C 
BRANCH   2   3
ATOM      3  N   UNL A   1      32.191  28.950  25.995  1.00  0.00    -0.356 N 
ATOM      4  C   UNL A   1      32.418  28.701  24.675  1.00  0.00     0.227 C 
ATOM      5  O   UNL A   1      31.515  29.070  23.911  1.00  0.00    -0.274 OA
ATOM      6  H   UNL A   1      31.294  29.320  26.161  1.00  0.00     0.163 HD
BRANCH   4   7
ATOM      7  C   UNL A   1      33.670  28.017  24.078  1.00  0.00     0.105 C 
ATOM      8  C   UNL A   1      34.088  28.542  22.709  1.00  0.00     0.023 C 
BRANCH   7   9
ATOM      9  C   UNL A   1      33.654  26.499  24.152  1.00  0.00    -0.033 A 
ATOM     10  C   UNL A   1      33.744  23.665  24.405  1.00  0.00     0.025 A 
ATOM     11  C   UNL A   1      33.930  24.500  25.501  1.00  0.00     0.012 A 
ATOM     12  C   UNL A   1      33.540  24.276  23.160  1.00  0.00     0.131 A 
ATOM     13  C   UNL A   1      33.776  25.867  25.382  1.00  0.00     0.005 A 
ATOM     14  C   UNL A   1      33.525  25.676  23.025  1.00  0.00     0.044 A 
ATOM     15  F   UNL A   1      33.375  23.529  22.058  1.00  0.00    -0.206 F 
BRANCH  10  16
ATOM     16  C   UNL A   1      33.866  22.222  24.634  1.00  0.00     0.069 A 
ATOM     17  C   UNL A   1      32.659  21.484  24.764  1.00  0.00     0.130 A 
ATOM     18  C   UNL A   1      32.641  20.090  24.832  1.00  0.00     0.047 A 
ATOM     19  C   UNL A   1      33.834  19.390  24.749  1.00  0.00     0.008 A 
ATOM     20  C   UNL A   1      35.079  21.496  24.566  1.00  0.00     0.130 A 
ATOM     21  C   UNL A   1      35.033  20.089  24.631  1.00  0.00     0.047 A 
BRANCH  17  22
ATOM     22  O   UNL A   1      31.468  22.159  24.901  1.00  0.00    -0.493 OA
BRANCH  22  23
ATOM     23  C   UNL A   1      30.993  22.210  26.251  1.00  0.00     0.226 C 
ATOM     24  C   UNL A   1      30.291  23.541  26.477  1.00  0.00     0.049 C 
ENDBRANCH  22  23
ENDBRANCH  17  22
BRANCH  20  25
ATOM     25  O   UNL A   1      36.381  21.908  24.462  1.00  0.00    -0.493 OA
BRANCH  25  26
ATOM     26  C   UNL A   1      37.159  22.428  25.530  1.00  0.00     0.226 C 
ATOM     27  C   UNL A   1      38.405  21.578  25.751  1.00  0.00     0.049 C 
ENDBRANCH  25  26
ENDBRANCH  20  25
ENDBRANCH  10  16
ENDBRANCH   7   9
ENDBRANCH   4   7
ENDBRANCH   2   3
ENDBRANCH   1   2
BRANCH   1  28
ATOM     28  C   UNL A   1      35.092  30.282  27.339  1.00  0.00     0.002 C 
BRANCH  28  29
ATOM     29  C   UNL A   1      34.138  31.249  28.045  1.00  0.00     0.002 C 
BRANCH  29  30
ATOM     30  C   UNL A   1      33.728  32.489  27.242  1.00  0.00     0.021 C 
BRANCH  30  31
ATOM     31  C   UNL A   1      32.387  33.109  27.634  1.00  0.00     0.116 C 
BRANCH  31  32
ATOM     32  N   UNL A   1      32.493  34.544  27.854  1.00  0.00    -0.352 N 
ATOM     33  C   UNL A   1      33.267  35.243  28.743  1.00  0.00     0.251 C 
ATOM     34  H   UNL A   1      31.920  35.098  27.276  1.00  0.00     0.163 HD
ATOM     35  O   UNL A   1      33.044  36.437  28.944  1.00  0.00    -0.269 OA
BRANCH  33  36
ATOM     36  C   UNL A   1      34.368  34.576  29.470  1.00  0.00     0.039 A 
ATOM     37  C   UNL A   1      34.095  33.957  30.694  1.00  0.00     0.014 A 
ATOM     38  C   UNL A   1      35.673  34.597  28.973  1.00  0.00     0.014 A 
ATOM     39  C   UNL A   1      35.119  33.310  31.389  1.00  0.00     0.010 A 
ATOM     40  C   UNL A   1      36.680  33.897  29.635  1.00  0.00     0.010 A 
ATOM     41  C   UNL A   1      36.414  33.248  30.850  1.00  0.00    -0.014 A 
BRANCH  41  42
ATOM     42  C   UNL A   1      37.500  32.506  31.541  1.00  0.00     0.031 A 
ATOM     43  C   UNL A   1      38.029  32.992  32.863  1.00  0.00     0.074 A 
ATOM     44  C   UNL A   1      38.051  31.429  30.950  1.00  0.00     0.049 A 
ATOM     45  N   UNL A   1      39.016  32.517  33.580  1.00  0.00    -0.248 NA
ATOM     46  C   UNL A   1      37.381  34.178  33.443  1.00  0.00     0.031 C 
ATOM     47  C   UNL A   1      37.652  30.876  29.652  1.00  0.00     0.029 A 
ATOM     48  N   UNL A   1      39.074  30.610  31.358  1.00  0.00    -0.354 N 
ATOM     49  C   UNL A   1      39.114  33.350  34.688  1.00  0.00     0.074 A 
ATOM     50  C   UNL A   1      38.119  34.389  34.524  1.00  0.00     0.031 C 
ATOM     51  C   UNL A   1      38.408  29.800  29.383  1.00  0.00     0.029 A 
ATOM     52  C   UNL A   1      39.370  29.609  30.464  1.00  0.00     0.049 A 
ATOM     53  H   UNL A   1      39.551  30.728  32.212  1.00  0.00     0.167 HD
ATOM     54  C   UNL A   1      39.942  33.251  35.755  1.00  0.00     0.031 A 
ATOM     55  C   UNL A   1      40.315  28.652  30.504  1.00  0.00     0.031 A 
ATOM     56  C   UNL A   1      40.928  32.217  35.923  1.00  0.00     0.049 A 
ATOM     57  C   UNL A   1      41.235  28.576  31.691  1.00  0.00     0.074 A 
ATOM     58  C   UNL A   1      41.784  32.008  36.990  1.00  0.00     0.029 A 
ATOM     59  N   UNL A   1      41.187  31.217  34.999  1.00  0.00    -0.354 N 
ATOM     60  N   UNL A   1      41.274  29.338  32.756  1.00  0.00    -0.248 NA
ATOM     61  C   UNL A   1      42.236  27.499  31.684  1.00  0.00     0.031 C 
ATOM     62  C   UNL A   1      42.596  30.908  36.690  1.00  0.00     0.029 A 
ATOM     63  C   UNL A   1      42.204  30.400  35.463  1.00  0.00     0.049 A 
ATOM     64  H   UNL A   1      40.718  31.105  34.141  1.00  0.00     0.167 HD
ATOM     65  C   UNL A   1      42.280  28.817  33.559  1.00  0.00     0.074 A 
ATOM     66  C   UNL A   1      42.815  27.664  32.865  1.00  0.00     0.031 C 
ATOM     67  C   UNL A   1      42.724  29.254  34.762  1.00  0.00     0.031 A 
BRANCH  54  68
ATOM     68  C   UNL A   1      39.817  34.296  36.829  1.00  0.00    -0.014 A 
ATOM     69  C   UNL A   1      39.010  34.081  37.958  1.00  0.00     0.009 A 
ATOM     70  C   UNL A   1      40.552  35.488  36.737  1.00  0.00     0.009 A 
ATOM     71  C   UNL A   1      38.916  35.054  38.955  1.00  0.00     0.001 A 
ATOM     72  C   UNL A   1      40.477  36.447  37.749  1.00  0.00     0.001 A 
ATOM     73  C   UNL A   1      39.654  36.232  38.853  1.00  0.00     0.000 A 
ENDBRANCH  54  68
BRANCH  55  74
ATOM     74  C   UNL A   1      40.443  27.681  29.386  1.00  0.00    -0.014 A 
ATOM     75  C   UNL A   1      39.646  26.527  29.349  1.00  0.00     0.009 A 
ATOM     76  C   UNL A   1      41.377  27.893  28.360  1.00  0.00     0.009 A 
ATOM     77  C   UNL A   1      39.802  25.591  28.324  1.00  0.00     0.001 A 
ATOM     78  C   UNL A   1      41.511  26.970  27.320  1.00  0.00     0.001 A 
ATOM     79  C   UNL A   1      40.732  25.815  27.310  1.00  0.00     0.000 A 
ENDBRANCH  55  74
BRANCH  67  80
ATOM     80  C   UNL A   1      43.816  28.461  35.421  1.00  0.00    -0.014 A 
ATOM     81  C   UNL A   1      43.522  27.391  36.281  1.00  0.00     0.009 A 
ATOM     82  C   UNL A   1      45.159  28.767  35.148  1.00  0.00     0.009 A 
ATOM     83  C   UNL A   1      44.554  26.665  36.879  1.00  0.00     0.001 A 
ATOM     84  C   UNL A   1      46.186  28.021  35.725  1.00  0.00     0.001 A 
ATOM     85  C   UNL A   1      45.883  26.977  36.597  1.00  0.00     0.000 A 
ENDBRANCH  67  80
ENDBRANCH  41  42
ENDBRANCH  33  36
ENDBRANCH  31  32
ENDBRANCH  30  31
ENDBRANCH  29  30
ENDBRANCH  28  29
ENDBRANCH   1  28
TORSDOF 19
ENDMDL
MODEL 3
REMARK VINA RESULT:     -10.1      5.660     10.605
REMARK SMILES CCOc1cccc(OCC)c1-c1ccc([C@@H](C)C(=O)NCCCCCCNC(=O)c2ccc(-c3c4nc(c(-c5ccccc5)c5ccc([nH]5)c(-c5ccccc5)c5nc(c(-c6ccccc6)c6ccc3[nH]6)C=C5)C=C4)cc2)cc1F
REMARK SMILES IDX 23 1 22 2 21 3 19 4 20 5 17 7 18 8 16 9 13 10 14 11 80 12
REMARK SMILES IDX 15 13 79 14 81 15 12 16 4 17 5 18 6 19 8 20 7 21 3 22 2 23
REMARK SMILES IDX 1 24 9 25 10 26 11 27 24 28 25 29 26 30 27 31 28 32 29 33
REMARK SMILES IDX 30 35 31 36 32 37 78 38 33 39 77 40 34 41 35 42 36 43 71 44
REMARK SMILES IDX 37 45 76 46 70 47 72 48 38 49 75 50 69 51 68 52 39 54 61 55
REMARK SMILES IDX 46 56 60 57 47 58 50 59 59 60 73 61 48 62 49 63 58 65 74 66
REMARK SMILES IDX 51 67 40 68 41 69 45 70 42 71 44 72 43 73 62 74 63 75 67 76
REMARK SMILES IDX 64 77 66 78 65 79 52 80 53 81 57 82 54 83 56 84 55 85
REMARK H PARENT 21 6 28 34 72 53 50 64
REMARK Flexibility Score: inf
ROOT
ATOM      1  C   UNL A   1      34.560  29.129  26.885  1.00  0.00     0.021 C 
ENDROOT
BRANCH   1   2
ATOM      2  C   UNL A   1      33.063  28.840  27.115  1.00  0.00     0.116 C 
BRANCH   2   3
ATOM      3  N   UNL A   1      32.289  29.043  25.897  1.00  0.00    -0.356 N 
ATOM      4  C   UNL A   1      32.499  28.808  24.572  1.00  0.00     0.227 C 
ATOM      5  O   UNL A   1      31.607  29.222  23.819  1.00  0.00    -0.274 OA
ATOM      6  H   UNL A   1      31.406  29.444  26.075  1.00  0.00     0.163 HD
BRANCH   4   7
ATOM      7  C   UNL A   1      33.722  28.087  23.958  1.00  0.00     0.105 C 
ATOM      8  C   UNL A   1      34.102  28.563  22.560  1.00  0.00     0.023 C 
BRANCH   7   9
ATOM      9  C   UNL A   1      33.687  26.572  24.080  1.00  0.00    -0.033 A 
ATOM     10  C   UNL A   1      33.757  23.745  24.403  1.00  0.00     0.025 A 
ATOM     11  C   UNL A   1      34.111  24.605  25.436  1.00  0.00     0.012 A 
ATOM     12  C   UNL A   1      33.391  24.327  23.181  1.00  0.00     0.131 A 
ATOM     13  C   UNL A   1      33.968  25.972  25.298  1.00  0.00     0.005 A 
ATOM     14  C   UNL A   1      33.384  25.722  23.007  1.00  0.00     0.044 A 
ATOM     15  F   UNL A   1      33.058  23.553  22.137  1.00  0.00    -0.206 F 
BRANCH  10  16
ATOM     16  C   UNL A   1      33.882  22.307  24.657  1.00  0.00     0.069 A 
ATOM     17  C   UNL A   1      32.677  21.566  24.788  1.00  0.00     0.130 A 
ATOM     18  C   UNL A   1      32.662  20.174  24.879  1.00  0.00     0.047 A 
ATOM     19  C   UNL A   1      33.859  19.477  24.818  1.00  0.00     0.008 A 
ATOM     20  C   UNL A   1      35.098  21.584  24.611  1.00  0.00     0.130 A 
ATOM     21  C   UNL A   1      35.056  20.178  24.699  1.00  0.00     0.047 A 
BRANCH  17  22
ATOM     22  O   UNL A   1      31.482  22.239  24.903  1.00  0.00    -0.493 OA
BRANCH  22  23
ATOM     23  C   UNL A   1      31.086  22.472  26.260  1.00  0.00     0.226 C 
ATOM     24  C   UNL A   1      30.579  23.900  26.387  1.00  0.00     0.049 C 
ENDBRANCH  22  23
ENDBRANCH  17  22
BRANCH  20  25
ATOM     25  O   UNL A   1      36.399  21.999  24.513  1.00  0.00    -0.493 OA
BRANCH  25  26
ATOM     26  C   UNL A   1      37.203  22.426  25.603  1.00  0.00     0.226 C 
ATOM     27  C   UNL A   1      38.473  21.588  25.693  1.00  0.00     0.049 C 
ENDBRANCH  25  26
ENDBRANCH  20  25
ENDBRANCH  10  16
ENDBRANCH   7   9
ENDBRANCH   4   7
ENDBRANCH   2   3
ENDBRANCH   1   2
BRANCH   1  28
ATOM     28  C   UNL A   1      35.041  30.510  27.321  1.00  0.00     0.002 C 
BRANCH  28  29
ATOM     29  C   UNL A   1      33.979  31.376  28.005  1.00  0.00     0.002 C 
BRANCH  29  30
ATOM     30  C   UNL A   1      33.472  32.576  27.196  1.00  0.00     0.021 C 
BRANCH  30  31
ATOM     31  C   UNL A   1      32.193  33.226  27.720  1.00  0.00     0.116 C 
BRANCH  31  32
ATOM     32  N   UNL A   1      32.357  34.656  27.935  1.00  0.00    -0.352 N 
ATOM     33  C   UNL A   1      33.224  35.330  28.754  1.00  0.00     0.251 C 
ATOM     34  H   UNL A   1      31.750  35.229  27.411  1.00  0.00     0.163 HD
ATOM     35  O   UNL A   1      33.051  36.528  28.979  1.00  0.00    -0.269 OA
BRANCH  33  36
ATOM     36  C   UNL A   1      34.366  34.630  29.380  1.00  0.00     0.039 A 
ATOM     37  C   UNL A   1      35.624  34.709  28.775  1.00  0.00     0.014 A 
ATOM     38  C   UNL A   1      34.192  33.862  30.535  1.00  0.00     0.014 A 
ATOM     39  C   UNL A   1      36.717  34.067  29.359  1.00  0.00     0.010 A 
ATOM     40  C   UNL A   1      35.295  33.275  31.151  1.00  0.00     0.010 A 
ATOM     41  C   UNL A   1      36.569  33.370  30.569  1.00  0.00    -0.014 A 
BRANCH  41  42
ATOM     42  C   UNL A   1      37.733  32.738  31.241  1.00  0.00     0.031 A 
ATOM     43  C   UNL A   1      38.381  31.516  30.648  1.00  0.00     0.074 A 
ATOM     44  C   UNL A   1      38.170  33.228  32.417  1.00  0.00     0.049 A 
ATOM     45  N   UNL A   1      39.361  30.789  31.124  1.00  0.00    -0.248 NA
ATOM     46  C   UNL A   1      37.846  31.036  29.364  1.00  0.00     0.031 C 
ATOM     47  C   UNL A   1      37.606  34.386  33.115  1.00  0.00     0.029 A 
ATOM     48  N   UNL A   1      39.184  32.806  33.239  1.00  0.00    -0.354 N 
ATOM     49  C   UNL A   1      39.550  29.763  30.207  1.00  0.00     0.074 A 
ATOM     50  C   UNL A   1      38.553  29.932  29.171  1.00  0.00     0.031 C 
ATOM     51  C   UNL A   1      38.295  34.593  34.249  1.00  0.00     0.029 A 
ATOM     52  C   UNL A   1      39.320  33.562  34.380  1.00  0.00     0.049 A 
ATOM     53  H   UNL A   1      39.761  32.036  33.033  1.00  0.00     0.167 HD
ATOM     54  C   UNL A   1      40.481  28.779  30.214  1.00  0.00     0.031 A 
ATOM     55  C   UNL A   1      40.167  33.434  35.418  1.00  0.00     0.031 A 
ATOM     56  C   UNL A   1      41.476  28.611  31.238  1.00  0.00     0.049 A 
ATOM     57  C   UNL A   1      41.177  32.321  35.410  1.00  0.00     0.074 A 
ATOM     58  C   UNL A   1      42.488  27.671  31.311  1.00  0.00     0.029 A 
ATOM     59  N   UNL A   1      41.585  29.405  32.369  1.00  0.00    -0.354 N 
ATOM     60  N   UNL A   1      41.379  31.395  34.506  1.00  0.00    -0.248 NA
ATOM     61  C   UNL A   1      42.084  32.244  36.565  1.00  0.00     0.031 C 
ATOM     62  C   UNL A   1      43.182  27.865  32.510  1.00  0.00     0.029 A 
ATOM     63  C   UNL A   1      42.635  28.962  33.155  1.00  0.00     0.049 A 
ATOM     64  H   UNL A   1      41.002  30.168  32.582  1.00  0.00     0.167 HD
ATOM     65  C   UNL A   1      42.452  30.643  34.966  1.00  0.00     0.074 A 
ATOM     66  C   UNL A   1      42.869  31.233  36.221  1.00  0.00     0.031 C 
ATOM     67  C   UNL A   1      43.040  29.561  34.401  1.00  0.00     0.031 A 
BRANCH  54  68
ATOM     68  C   UNL A   1      40.464  27.801  29.071  1.00  0.00    -0.014 A 
ATOM     69  C   UNL A   1      41.183  28.052  27.892  1.00  0.00     0.009 A 
ATOM     70  C   UNL A   1      39.762  26.591  29.194  1.00  0.00     0.009 A 
ATOM     71  C   UNL A   1      41.171  27.128  26.845  1.00  0.00     0.001 A 
ATOM     72  C   UNL A   1      39.775  25.657  28.156  1.00  0.00     0.001 A 
ATOM     73  C   UNL A   1      40.473  25.929  26.981  1.00  0.00     0.000 A 
ENDBRANCH  54  68
BRANCH  55  74
ATOM     74  C   UNL A   1      40.101  34.387  36.557  1.00  0.00    -0.014 A 
ATOM     75  C   UNL A   1      39.268  34.129  37.656  1.00  0.00     0.009 A 
ATOM     76  C   UNL A   1      40.857  35.570  36.541  1.00  0.00     0.009 A 
ATOM     77  C   UNL A   1      39.169  35.050  38.702  1.00  0.00     0.001 A 
ATOM     78  C   UNL A   1      40.779  36.475  37.603  1.00  0.00     0.001 A 
ATOM     79  C   UNL A   1      39.928  36.220  38.676  1.00  0.00     0.000 A 
ENDBRANCH  55  74
BRANCH  67  80
ATOM     80  C   UNL A   1      44.220  28.968  35.117  1.00  0.00    -0.014 A 
ATOM     81  C   UNL A   1      45.524  29.429  34.878  1.00  0.00     0.009 A 
ATOM     82  C   UNL A   1      44.017  27.958  36.071  1.00  0.00     0.009 A 
ATOM     83  C   UNL A   1      46.606  28.865  35.558  1.00  0.00     0.001 A 
ATOM     84  C   UNL A   1      45.097  27.418  36.769  1.00  0.00     0.001 A 
ATOM     85  C   UNL A   1      46.390  27.865  36.506  1.00  0.00     0.000 A 
ENDBRANCH  67  80
ENDBRANCH  41  42
ENDBRANCH  33  36
ENDBRANCH  31  32
ENDBRANCH  30  31
ENDBRANCH  29  30
ENDBRANCH  28  29
ENDBRANCH   1  28
TORSDOF 19
ENDMDL
