MODEL 1
REMARK VINA RESULT:     -10.5      0.000      0.000
REMARK SMILES CC[C@H](NC(=O)Cc1c(C)c2cc(Cl)c(OC)cc2oc1=O)C(=O)NCCCCCCNC(=O)c1ccc(-c2c3nc(c(-c4ccccc4)c4ccc([nH]4)c(-c4ccccc4)c4nc(c(-c5ccccc5)c5ccc2[nH]5)C=C4)C=C3)cc1
REMARK SMILES IDX 27 1 26 2 25 3 23 4 24 5 3 7 2 8 1 9 4 10 5 11 6 13 7 14
REMARK SMILES IDX 8 15 9 16 21 17 10 18 11 19 20 20 22 21 12 22 19 23 13 24
REMARK SMILES IDX 18 25 14 26 15 27 16 28 17 29 28 30 29 31 30 32 31 33 32 34
REMARK SMILES IDX 33 35 34 37 35 38 36 39 82 40 37 41 81 42 38 43 39 44 40 45
REMARK SMILES IDX 75 46 41 47 80 48 74 49 76 50 42 51 79 52 73 53 72 54 43 56
REMARK SMILES IDX 65 57 50 58 64 59 51 60 54 61 63 62 77 63 52 64 53 65 62 67
REMARK SMILES IDX 78 68 55 69 44 70 45 71 49 72 46 73 48 74 47 75 66 76 67 77
REMARK SMILES IDX 71 78 68 79 70 80 69 81 56 82 57 83 61 84 58 85 60 86 59 87
REMARK H PARENT 25 6 4 12 32 36 76 55 54 66
REMARK Flexibility Score: inf
ROOT
ATOM      1  C   UNL A   1      35.957  22.203  24.039  1.00  0.00     0.021 C 
ENDROOT
BRANCH   1   2
ATOM      2  C   UNL A   1      35.382  23.556  23.648  1.00  0.00     0.116 C 
BRANCH   2   3
ATOM      3  N   UNL A   1      35.189  24.376  24.820  1.00  0.00    -0.354 N 
ATOM      4  C   UNL A   1      34.328  25.408  25.015  1.00  0.00     0.242 C 
ATOM      5  O   UNL A   1      34.416  26.050  26.065  1.00  0.00    -0.273 OA
ATOM      6  H   UNL A   1      35.763  24.156  25.588  1.00  0.00     0.163 HD
BRANCH   4   7
ATOM      7  C   UNL A   1      33.181  25.670  24.024  1.00  0.00     0.171 C 
BRANCH   7   8
ATOM      8  C   UNL A   1      33.676  26.638  22.931  1.00  0.00     0.031 C 
ATOM      9  C   UNL A   1      33.172  26.327  21.531  1.00  0.00     0.006 C 
ENDBRANCH   7   8
BRANCH   7  10
ATOM     10  N   UNL A   1      31.913  26.072  24.629  1.00  0.00    -0.344 N 
ATOM     11  C   UNL A   1      30.649  25.577  24.463  1.00  0.00     0.225 C 
ATOM     12  H   UNL A   1      31.978  26.824  25.260  1.00  0.00     0.164 HD
ATOM     13  O   UNL A   1      29.747  26.162  25.066  1.00  0.00    -0.275 OA
BRANCH  11  14
ATOM     14  C   UNL A   1      30.359  24.388  23.542  1.00  0.00     0.143 C 
BRANCH  14  15
ATOM     15  C   UNL A   1      31.086  23.164  24.058  1.00  0.00     0.051 A 
ATOM     16  C   UNL A   1      31.854  22.354  23.303  1.00  0.00    -0.029 A 
ATOM     17  C   UNL A   1      31.018  22.922  25.536  1.00  0.00     0.340 A 
ATOM     18  C   UNL A   1      32.440  22.682  21.961  1.00  0.00     0.046 C 
ATOM     19  C   UNL A   1      32.221  21.045  23.837  1.00  0.00     0.023 A 
ATOM     20  O   UNL A   1      31.821  21.895  26.051  1.00  0.00    -0.422 OA
ATOM     21  O   UNL A   1      30.407  23.673  26.290  1.00  0.00    -0.246 OA
ATOM     22  C   UNL A   1      32.462  19.942  23.016  1.00  0.00     0.036 A 
ATOM     23  C   UNL A   1      32.317  20.887  25.207  1.00  0.00     0.142 A 
ATOM     24  C   UNL A   1      32.919  18.745  23.565  1.00  0.00     0.083 A 
ATOM     25  C   UNL A   1      32.840  19.721  25.774  1.00  0.00     0.095 A 
ATOM     26  Cl  UNL A   1      33.173  17.418  22.487  1.00  0.00    -0.080 Cl
ATOM     27  C   UNL A   1      33.173  18.644  24.940  1.00  0.00     0.141 A 
BRANCH  27  28
ATOM     28  O   UNL A   1      33.690  17.453  25.371  1.00  0.00    -0.495 OA
ATOM     29  C   UNL A   1      32.766  16.452  25.772  1.00  0.00     0.278 C 
ENDBRANCH  27  28
ENDBRANCH  14  15
ENDBRANCH  11  14
ENDBRANCH   7  10
ENDBRANCH   4   7
ENDBRANCH   2   3
ENDBRANCH   1   2
BRANCH   1  30
ATOM     30  C   UNL A   1      36.605  22.191  25.427  1.00  0.00     0.002 C 
BRANCH  30  31
ATOM     31  C   UNL A   1      38.114  21.924  25.440  1.00  0.00     0.002 C 
BRANCH  31  32
ATOM     32  C   UNL A   1      38.525  20.501  25.066  1.00  0.00     0.021 C 
BRANCH  32  33
ATOM     33  C   UNL A   1      39.161  19.716  26.201  1.00  0.00     0.116 C 
BRANCH  33  34
ATOM     34  N   UNL A   1      40.427  19.122  25.818  1.00  0.00    -0.352 N 
ATOM     35  C   UNL A   1      41.677  19.695  25.832  1.00  0.00     0.251 C 
ATOM     36  H   UNL A   1      40.387  18.190  25.507  1.00  0.00     0.163 HD
ATOM     37  O   UNL A   1      42.630  19.135  25.319  1.00  0.00    -0.269 OA
BRANCH  35  38
ATOM     38  C   UNL A   1      41.835  21.028  26.455  1.00  0.00     0.039 A 
ATOM     39  C   UNL A   1      41.986  22.164  25.657  1.00  0.00     0.014 A 
ATOM     40  C   UNL A   1      41.878  21.127  27.847  1.00  0.00     0.014 A 
ATOM     41  C   UNL A   1      42.335  23.371  26.246  1.00  0.00     0.010 A 
ATOM     42  C   UNL A   1      42.132  22.365  28.440  1.00  0.00     0.010 A 
ATOM     43  C   UNL A   1      42.401  23.488  27.644  1.00  0.00    -0.014 A 
BRANCH  43  44
ATOM     44  C   UNL A   1      42.712  24.811  28.241  1.00  0.00     0.031 A 
ATOM     45  C   UNL A   1      44.126  25.208  28.558  1.00  0.00     0.074 A 
ATOM     46  C   UNL A   1      41.703  25.679  28.441  1.00  0.00     0.049 A 
ATOM     47  N   UNL A   1      44.570  26.345  29.032  1.00  0.00    -0.248 NA
ATOM     48  C   UNL A   1      45.178  24.208  28.315  1.00  0.00     0.031 C 
ATOM     49  C   UNL A   1      40.292  25.404  28.161  1.00  0.00     0.029 A 
ATOM     50  N   UNL A   1      41.709  26.975  28.887  1.00  0.00    -0.354 N 
ATOM     51  C   UNL A   1      45.945  26.196  29.154  1.00  0.00     0.074 A 
ATOM     52  C   UNL A   1      46.261  24.846  28.738  1.00  0.00     0.031 C 
ATOM     53  C   UNL A   1      39.579  26.519  28.370  1.00  0.00     0.029 A 
ATOM     54  C   UNL A   1      40.468  27.562  28.870  1.00  0.00     0.049 A 
ATOM     55  H   UNL A   1      42.522  27.440  29.189  1.00  0.00     0.167 HD
ATOM     56  C   UNL A   1      46.861  27.106  29.562  1.00  0.00     0.031 A 
ATOM     57  C   UNL A   1      40.076  28.801  29.222  1.00  0.00     0.031 A 
ATOM     58  C   UNL A   1      46.539  28.445  29.984  1.00  0.00     0.049 A 
ATOM     59  C   UNL A   1      41.103  29.777  29.713  1.00  0.00     0.074 A 
ATOM     60  C   UNL A   1      47.398  29.438  30.421  1.00  0.00     0.029 A 
ATOM     61  N   UNL A   1      45.259  28.979  30.017  1.00  0.00    -0.354 N 
ATOM     62  N   UNL A   1      42.400  29.616  29.828  1.00  0.00    -0.248 NA
ATOM     63  C   UNL A   1      40.618  31.100  30.123  1.00  0.00     0.031 C 
ATOM     64  C   UNL A   1      46.632  30.554  30.773  1.00  0.00     0.029 A 
ATOM     65  C   UNL A   1      45.303  30.281  30.488  1.00  0.00     0.049 A 
ATOM     66  H   UNL A   1      44.441  28.504  29.747  1.00  0.00     0.167 HD
ATOM     67  C   UNL A   1      42.887  30.818  30.320  1.00  0.00     0.074 A 
ATOM     68  C   UNL A   1      41.750  31.707  30.454  1.00  0.00     0.031 C 
ATOM     69  C   UNL A   1      44.162  31.149  30.638  1.00  0.00     0.031 A 
BRANCH  56  70
ATOM     70  C   UNL A   1      48.306  26.685  29.586  1.00  0.00    -0.014 A 
ATOM     71  C   UNL A   1      49.092  26.811  28.430  1.00  0.00     0.009 A 
ATOM     72  C   UNL A   1      48.872  26.099  30.729  1.00  0.00     0.009 A 
ATOM     73  C   UNL A   1      50.411  26.353  28.415  1.00  0.00     0.001 A 
ATOM     74  C   UNL A   1      50.201  25.668  30.721  1.00  0.00     0.001 A 
ATOM     75  C   UNL A   1      50.966  25.788  29.562  1.00  0.00     0.000 A 
ENDBRANCH  56  70
BRANCH  57  76
ATOM     76  C   UNL A   1      38.641  29.164  29.101  1.00  0.00    -0.014 A 
ATOM     77  C   UNL A   1      38.141  29.693  27.899  1.00  0.00     0.009 A 
ATOM     78  C   UNL A   1      37.787  29.071  30.209  1.00  0.00     0.009 A 
ATOM     79  C   UNL A   1      36.827  30.158  27.821  1.00  0.00     0.001 A 
ATOM     80  C   UNL A   1      36.463  29.508  30.117  1.00  0.00     0.001 A 
ATOM     81  C   UNL A   1      35.989  30.063  28.929  1.00  0.00     0.000 A 
ENDBRANCH  57  76
BRANCH  69  82
ATOM     82  C   UNL A   1      44.408  32.533  31.171  1.00  0.00    -0.014 A 
ATOM     83  C   UNL A   1      44.727  33.577  30.288  1.00  0.00     0.009 A 
ATOM     84  C   UNL A   1      44.405  32.787  32.551  1.00  0.00     0.009 A 
ATOM     85  C   UNL A   1      45.050  34.843  30.775  1.00  0.00     0.001 A 
ATOM     86  C   UNL A   1      44.698  34.063  33.035  1.00  0.00     0.001 A 
ATOM     87  C   UNL A   1      45.029  35.088  32.148  1.00  0.00     0.000 A 
ENDBRANCH  69  82
ENDBRANCH  43  44
ENDBRANCH  35  38
ENDBRANCH  33  34
ENDBRANCH  32  33
ENDBRANCH  31  32
ENDBRANCH  30  31
ENDBRANCH   1  30
TORSDOF 18
ENDMDL
MODEL 2
REMARK VINA RESULT:     -10.3      2.760      7.360
REMARK SMILES CC[C@H](NC(=O)Cc1c(C)c2cc(Cl)c(OC)cc2oc1=O)C(=O)NCCCCCCNC(=O)c1ccc(-c2c3nc(c(-c4ccccc4)c4ccc([nH]4)c(-c4ccccc4)c4nc(c(-c5ccccc5)c5ccc2[nH]5)C=C4)C=C3)cc1
REMARK SMILES IDX 27 1 26 2 25 3 23 4 24 5 3 7 2 8 1 9 4 10 5 11 6 13 7 14
REMARK SMILES IDX 8 15 9 16 21 17 10 18 11 19 20 20 22 21 12 22 19 23 13 24
REMARK SMILES IDX 18 25 14 26 15 27 16 28 17 29 28 30 29 31 30 32 31 33 32 34
REMARK SMILES IDX 33 35 34 37 35 38 36 39 82 40 37 41 81 42 38 43 39 44 40 45
REMARK SMILES IDX 75 46 41 47 80 48 74 49 76 50 42 51 79 52 73 53 72 54 43 56
REMARK SMILES IDX 65 57 50 58 64 59 51 60 54 61 63 62 77 63 52 64 53 65 62 67
REMARK SMILES IDX 78 68 55 69 44 70 45 71 49 72 46 73 48 74 47 75 66 76 67 77
REMARK SMILES IDX 71 78 68 79 70 80 69 81 56 82 57 83 61 84 58 85 60 86 59 87
REMARK H PARENT 25 6 4 12 32 36 76 55 54 66
REMARK Flexibility Score: inf
ROOT
ATOM      1  C   UNL A   1      38.626  23.176  26.400  1.00  0.00     0.021 C 
ENDROOT
BRANCH   1   2
ATOM      2  C   UNL A   1      37.890  22.070  25.659  1.00  0.00     0.116 C 
BRANCH   2   3
ATOM      3  N   UNL A   1      37.518  22.513  24.338  1.00  0.00    -0.354 N 
ATOM      4  C   UNL A   1      36.291  22.840  23.854  1.00  0.00     0.242 C 
ATOM      5  O   UNL A   1      36.186  23.082  22.649  1.00  0.00    -0.273 OA
ATOM      6  H   UNL A   1      38.258  22.591  23.694  1.00  0.00     0.163 HD
BRANCH   4   7
ATOM      7  C   UNL A   1      35.103  23.051  24.807  1.00  0.00     0.171 C 
BRANCH   7   8
ATOM      8  C   UNL A   1      33.842  22.424  24.179  1.00  0.00     0.031 C 
ATOM      9  C   UNL A   1      32.756  22.047  25.174  1.00  0.00     0.006 C 
ENDBRANCH   7   8
BRANCH   7  10
ATOM     10  N   UNL A   1      34.906  24.424  25.266  1.00  0.00    -0.344 N 
ATOM     11  C   UNL A   1      34.210  25.460  24.708  1.00  0.00     0.225 C 
ATOM     12  H   UNL A   1      35.349  24.640  26.118  1.00  0.00     0.164 HD
ATOM     13  O   UNL A   1      34.269  26.541  25.297  1.00  0.00    -0.275 OA
BRANCH  11  14
ATOM     14  C   UNL A   1      33.433  25.301  23.397  1.00  0.00     0.143 C 
BRANCH  14  15
ATOM     15  C   UNL A   1      32.505  26.484  23.218  1.00  0.00     0.051 A 
ATOM     16  C   UNL A   1      31.334  26.644  23.866  1.00  0.00    -0.029 A 
ATOM     17  C   UNL A   1      32.998  27.590  22.334  1.00  0.00     0.340 A 
ATOM     18  C   UNL A   1      30.906  25.933  25.116  1.00  0.00     0.046 C 
ATOM     19  C   UNL A   1      30.392  27.642  23.366  1.00  0.00     0.023 A 
ATOM     20  O   UNL A   1      32.229  28.762  22.293  1.00  0.00    -0.422 OA
ATOM     21  O   UNL A   1      34.093  27.544  21.785  1.00  0.00    -0.246 OA
ATOM     22  C   UNL A   1      29.010  27.514  23.525  1.00  0.00     0.036 A 
ATOM     23  C   UNL A   1      30.884  28.747  22.696  1.00  0.00     0.142 A 
ATOM     24  C   UNL A   1      28.160  28.545  23.131  1.00  0.00     0.083 A 
ATOM     25  C   UNL A   1      30.058  29.823  22.357  1.00  0.00     0.095 A 
ATOM     26  Cl  UNL A   1      26.462  28.303  23.339  1.00  0.00    -0.080 Cl
ATOM     27  C   UNL A   1      28.681  29.735  22.603  1.00  0.00     0.141 A 
BRANCH  27  28
ATOM     28  O   UNL A   1      27.771  30.716  22.317  1.00  0.00    -0.495 OA
ATOM     29  C   UNL A   1      28.255  31.879  21.663  1.00  0.00     0.278 C 
ENDBRANCH  27  28
ENDBRANCH  14  15
ENDBRANCH  11  14
ENDBRANCH   7  10
ENDBRANCH   4   7
ENDBRANCH   2   3
ENDBRANCH   1   2
BRANCH   1  30
ATOM     30  C   UNL A   1      40.133  22.930  26.526  1.00  0.00     0.002 C 
BRANCH  30  31
ATOM     31  C   UNL A   1      40.524  21.589  27.156  1.00  0.00     0.002 C 
BRANCH  31  32
ATOM     32  C   UNL A   1      41.005  20.524  26.172  1.00  0.00     0.021 C 
BRANCH  32  33
ATOM     33  C   UNL A   1      42.289  19.825  26.586  1.00  0.00     0.116 C 
BRANCH  33  34
ATOM     34  N   UNL A   1      43.233  19.713  25.490  1.00  0.00    -0.352 N 
ATOM     35  C   UNL A   1      43.949  20.713  24.875  1.00  0.00     0.251 C 
ATOM     36  H   UNL A   1      43.380  18.804  25.142  1.00  0.00     0.163 HD
ATOM     37  O   UNL A   1      44.575  20.498  23.852  1.00  0.00    -0.269 OA
BRANCH  35  38
ATOM     38  C   UNL A   1      43.914  22.069  25.463  1.00  0.00     0.039 A 
ATOM     39  C   UNL A   1      43.546  23.167  24.681  1.00  0.00     0.014 A 
ATOM     40  C   UNL A   1      44.298  22.244  26.794  1.00  0.00     0.014 A 
ATOM     41  C   UNL A   1      43.713  24.450  25.181  1.00  0.00     0.010 A 
ATOM     42  C   UNL A   1      44.369  23.532  27.326  1.00  0.00     0.010 A 
ATOM     43  C   UNL A   1      44.114  24.647  26.513  1.00  0.00    -0.014 A 
BRANCH  43  44
ATOM     44  C   UNL A   1      44.218  26.033  27.035  1.00  0.00     0.031 A 
ATOM     45  C   UNL A   1      43.007  26.770  27.532  1.00  0.00     0.074 A 
ATOM     46  C   UNL A   1      45.436  26.601  27.110  1.00  0.00     0.049 A 
ATOM     47  N   UNL A   1      42.937  27.963  28.065  1.00  0.00    -0.248 NA
ATOM     48  C   UNL A   1      41.708  26.087  27.417  1.00  0.00     0.031 C 
ATOM     49  C   UNL A   1      46.683  25.975  26.666  1.00  0.00     0.029 A 
ATOM     50  N   UNL A   1      45.832  27.810  27.620  1.00  0.00    -0.354 N 
ATOM     51  C   UNL A   1      41.593  28.180  28.340  1.00  0.00     0.074 A 
ATOM     52  C   UNL A   1      40.876  27.009  27.882  1.00  0.00     0.031 C 
ATOM     53  C   UNL A   1      47.712  26.771  26.989  1.00  0.00     0.029 A 
ATOM     54  C   UNL A   1      47.193  27.993  27.594  1.00  0.00     0.049 A 
ATOM     55  H   UNL A   1      45.204  28.482  27.972  1.00  0.00     0.167 HD
ATOM     56  C   UNL A   1      41.013  29.250  28.934  1.00  0.00     0.031 A 
ATOM     57  C   UNL A   1      47.949  29.029  28.001  1.00  0.00     0.031 A 
ATOM     58  C   UNL A   1      41.732  30.416  29.379  1.00  0.00     0.049 A 
ATOM     59  C   UNL A   1      47.280  30.222  28.614  1.00  0.00     0.074 A 
ATOM     60  C   UNL A   1      41.231  31.555  29.986  1.00  0.00     0.029 A 
ATOM     61  N   UNL A   1      43.104  30.591  29.271  1.00  0.00    -0.354 N 
ATOM     62  N   UNL A   1      46.006  30.412  28.861  1.00  0.00    -0.248 NA
ATOM     63  C   UNL A   1      48.146  31.341  29.004  1.00  0.00     0.031 C 
ATOM     64  C   UNL A   1      42.292  32.442  30.192  1.00  0.00     0.029 A 
ATOM     65  C   UNL A   1      43.464  31.828  29.780  1.00  0.00     0.049 A 
ATOM     66  H   UNL A   1      43.729  29.934  28.889  1.00  0.00     0.167 HD
ATOM     67  C   UNL A   1      45.916  31.671  29.438  1.00  0.00     0.074 A 
ATOM     68  C   UNL A   1      47.268  32.185  29.531  1.00  0.00     0.031 C 
ATOM     69  C   UNL A   1      44.810  32.339  29.847  1.00  0.00     0.031 A 
BRANCH  56  70
ATOM     70  C   UNL A   1      39.521  29.222  29.128  1.00  0.00    -0.014 A 
ATOM     71  C   UNL A   1      38.674  29.724  28.128  1.00  0.00     0.009 A 
ATOM     72  C   UNL A   1      38.955  28.764  30.328  1.00  0.00     0.009 A 
ATOM     73  C   UNL A   1      37.293  29.776  28.327  1.00  0.00     0.001 A 
ATOM     74  C   UNL A   1      37.570  28.789  30.514  1.00  0.00     0.001 A 
ATOM     75  C   UNL A   1      36.742  29.302  29.517  1.00  0.00     0.000 A 
ENDBRANCH  56  70
BRANCH  57  76
ATOM     76  C   UNL A   1      49.423  28.950  27.841  1.00  0.00    -0.014 A 
ATOM     77  C   UNL A   1      50.232  28.515  28.905  1.00  0.00     0.009 A 
ATOM     78  C   UNL A   1      50.037  29.396  26.661  1.00  0.00     0.009 A 
ATOM     79  C   UNL A   1      51.623  28.565  28.806  1.00  0.00     0.001 A 
ATOM     80  C   UNL A   1      51.430  29.415  26.554  1.00  0.00     0.001 A 
ATOM     81  C   UNL A   1      52.221  29.012  27.630  1.00  0.00     0.000 A 
ENDBRANCH  57  76
BRANCH  69  82
ATOM     82  C   UNL A   1      45.004  33.710  30.430  1.00  0.00    -0.014 A 
ATOM     83  C   UNL A   1      45.134  33.868  31.820  1.00  0.00     0.009 A 
ATOM     84  C   UNL A   1      44.976  34.853  29.616  1.00  0.00     0.009 A 
ATOM     85  C   UNL A   1      45.220  35.141  32.383  1.00  0.00     0.001 A 
ATOM     86  C   UNL A   1      45.093  36.125  30.180  1.00  0.00     0.001 A 
ATOM     87  C   UNL A   1      45.206  36.268  31.563  1.00  0.00     0.000 A 
ENDBRANCH  69  82
ENDBRANCH  43  44
ENDBRANCH  35  38
ENDBRANCH  33  34
ENDBRANCH  32  33
ENDBRANCH  31  32
ENDBRANCH  30  31
ENDBRANCH   1  30
TORSDOF 18
ENDMDL
MODEL 3
REMARK VINA RESULT:     -10.1      2.729      4.895
REMARK SMILES CC[C@H](NC(=O)Cc1c(C)c2cc(Cl)c(OC)cc2oc1=O)C(=O)NCCCCCCNC(=O)c1ccc(-c2c3nc(c(-c4ccccc4)c4ccc([nH]4)c(-c4ccccc4)c4nc(c(-c5ccccc5)c5ccc2[nH]5)C=C4)C=C3)cc1
REMARK SMILES IDX 27 1 26 2 25 3 23 4 24 5 3 7 2 8 1 9 4 10 5 11 6 13 7 14
REMARK SMILES IDX 8 15 9 16 21 17 10 18 11 19 20 20 22 21 12 22 19 23 13 24
REMARK SMILES IDX 18 25 14 26 15 27 16 28 17 29 28 30 29 31 30 32 31 33 32 34
REMARK SMILES IDX 33 35 34 37 35 38 36 39 82 40 37 41 81 42 38 43 39 44 40 45
REMARK SMILES IDX 75 46 41 47 80 48 74 49 76 50 42 51 79 52 73 53 72 54 43 56
REMARK SMILES IDX 65 57 50 58 64 59 51 60 54 61 63 62 77 63 52 64 53 65 62 67
REMARK SMILES IDX 78 68 55 69 44 70 45 71 49 72 46 73 48 74 47 75 66 76 67 77
REMARK SMILES IDX 71 78 68 79 70 80 69 81 56 82 57 83 61 84 58 85 60 86 59 87
REMARK H PARENT 25 6 4 12 32 36 76 55 54 66
REMARK Flexibility Score: inf
ROOT
ATOM      1  C   UNL A   1      37.987  23.717  26.144  1.00  0.00     0.021 C 
ENDROOT
BRANCH   1   2
ATOM      2  C   UNL A   1      37.753  22.431  25.367  1.00  0.00     0.116 C 
BRANCH   2   3
ATOM      3  N   UNL A   1      37.235  22.726  24.052  1.00  0.00    -0.354 N 
ATOM      4  C   UNL A   1      35.946  22.766  23.625  1.00  0.00     0.242 C 
ATOM      5  O   UNL A   1      35.738  22.925  22.419  1.00  0.00    -0.273 OA
ATOM      6  H   UNL A   1      37.912  22.928  23.368  1.00  0.00     0.163 HD
BRANCH   4   7
ATOM      7  C   UNL A   1      34.786  22.765  24.633  1.00  0.00     0.171 C 
BRANCH   7   8
ATOM      8  C   UNL A   1      33.554  22.111  23.975  1.00  0.00     0.031 C 
ATOM      9  C   UNL A   1      33.042  20.865  24.680  1.00  0.00     0.006 C 
ENDBRANCH   7   8
BRANCH   7  10
ATOM     10  N   UNL A   1      34.499  24.055  25.257  1.00  0.00    -0.344 N 
ATOM     11  C   UNL A   1      33.835  25.149  24.778  1.00  0.00     0.225 C 
ATOM     12  H   UNL A   1      34.842  24.152  26.174  1.00  0.00     0.164 HD
ATOM     13  O   UNL A   1      33.798  26.136  25.517  1.00  0.00    -0.275 OA
BRANCH  11  14
ATOM     14  C   UNL A   1      33.207  25.168  23.381  1.00  0.00     0.143 C 
BRANCH  14  15
ATOM     15  C   UNL A   1      32.283  26.363  23.263  1.00  0.00     0.051 A 
ATOM     16  C   UNL A   1      31.099  26.481  23.894  1.00  0.00    -0.029 A 
ATOM     17  C   UNL A   1      32.796  27.526  22.468  1.00  0.00     0.340 A 
ATOM     18  C   UNL A   1      30.641  25.685  25.082  1.00  0.00     0.046 C 
ATOM     19  C   UNL A   1      30.168  27.513  23.443  1.00  0.00     0.023 A 
ATOM     20  O   UNL A   1      32.029  28.700  22.490  1.00  0.00    -0.422 OA
ATOM     21  O   UNL A   1      33.904  27.516  21.942  1.00  0.00    -0.246 OA
ATOM     22  C   UNL A   1      28.783  27.376  23.561  1.00  0.00     0.036 A 
ATOM     23  C   UNL A   1      30.675  28.660  22.862  1.00  0.00     0.142 A 
ATOM     24  C   UNL A   1      27.942  28.433  23.220  1.00  0.00     0.083 A 
ATOM     25  C   UNL A   1      29.858  29.759  22.579  1.00  0.00     0.095 A 
ATOM     26  Cl  UNL A   1      26.240  28.181  23.373  1.00  0.00    -0.080 Cl
ATOM     27  C   UNL A   1      28.476  29.656  22.787  1.00  0.00     0.141 A 
BRANCH  27  28
ATOM     28  O   UNL A   1      27.573  30.656  22.549  1.00  0.00    -0.495 OA
ATOM     29  C   UNL A   1      27.760  31.878  23.246  1.00  0.00     0.278 C 
ENDBRANCH  27  28
ENDBRANCH  14  15
ENDBRANCH  11  14
ENDBRANCH   7  10
ENDBRANCH   4   7
ENDBRANCH   2   3
ENDBRANCH   1   2
BRANCH   1  30
ATOM     30  C   UNL A   1      39.451  23.936  26.539  1.00  0.00     0.002 C 
BRANCH  30  31
ATOM     31  C   UNL A   1      40.153  22.713  27.139  1.00  0.00     0.002 C 
BRANCH  31  32
ATOM     32  C   UNL A   1      40.679  21.701  26.122  1.00  0.00     0.021 C 
BRANCH  32  33
ATOM     33  C   UNL A   1      41.679  20.708  26.689  1.00  0.00     0.116 C 
BRANCH  33  34
ATOM     34  N   UNL A   1      42.719  20.370  25.737  1.00  0.00    -0.352 N 
ATOM     35  C   UNL A   1      43.713  21.178  25.236  1.00  0.00     0.251 C 
ATOM     36  H   UNL A   1      42.713  19.443  25.406  1.00  0.00     0.163 HD
ATOM     37  O   UNL A   1      44.414  20.809  24.310  1.00  0.00    -0.269 OA
BRANCH  35  38
ATOM     38  C   UNL A   1      43.890  22.524  25.823  1.00  0.00     0.039 A 
ATOM     39  C   UNL A   1      44.266  22.663  27.162  1.00  0.00     0.014 A 
ATOM     40  C   UNL A   1      43.633  23.648  25.037  1.00  0.00     0.014 A 
ATOM     41  C   UNL A   1      44.230  23.917  27.754  1.00  0.00     0.010 A 
ATOM     42  C   UNL A   1      43.697  24.918  25.613  1.00  0.00     0.010 A 
ATOM     43  C   UNL A   1      43.957  25.060  26.985  1.00  0.00    -0.014 A 
BRANCH  43  44
ATOM     44  C   UNL A   1      43.994  26.392  27.638  1.00  0.00     0.031 A 
ATOM     45  C   UNL A   1      45.285  27.138  27.813  1.00  0.00     0.074 A 
ATOM     46  C   UNL A   1      42.831  26.952  28.021  1.00  0.00     0.049 A 
ATOM     47  N   UNL A   1      45.480  28.332  28.315  1.00  0.00    -0.248 NA
ATOM     48  C   UNL A   1      46.518  26.465  27.372  1.00  0.00     0.031 C 
ATOM     49  C   UNL A   1      41.514  26.323  27.891  1.00  0.00     0.029 A 
ATOM     50  N   UNL A   1      42.560  28.183  28.558  1.00  0.00    -0.354 N 
ATOM     51  C   UNL A   1      46.851  28.549  28.261  1.00  0.00     0.074 A 
ATOM     52  C   UNL A   1      47.446  27.350  27.710  1.00  0.00     0.031 C 
ATOM     53  C   UNL A   1      40.571  27.199  28.266  1.00  0.00     0.029 A 
ATOM     54  C   UNL A   1      41.219  28.420  28.733  1.00  0.00     0.049 A 
ATOM     55  H   UNL A   1      43.259  28.836  28.795  1.00  0.00     0.167 HD
ATOM     56  C   UNL A   1      47.546  29.653  28.624  1.00  0.00     0.031 A 
ATOM     57  C   UNL A   1      40.572  29.494  29.221  1.00  0.00     0.031 A 
ATOM     58  C   UNL A   1      46.948  30.840  29.180  1.00  0.00     0.049 A 
ATOM     59  C   UNL A   1      41.368  30.687  29.658  1.00  0.00     0.074 A 
ATOM     60  C   UNL A   1      47.572  32.007  29.585  1.00  0.00     0.029 A 
ATOM     61  N   UNL A   1      45.591  31.012  29.405  1.00  0.00    -0.354 N 
ATOM     62  N   UNL A   1      42.665  30.873  29.605  1.00  0.00    -0.248 NA
ATOM     63  C   UNL A   1      40.616  31.815  30.221  1.00  0.00     0.031 C 
ATOM     64  C   UNL A   1      46.599  32.863  30.108  1.00  0.00     0.029 A 
ATOM     65  C   UNL A   1      45.360  32.259  29.964  1.00  0.00     0.049 A 
ATOM     66  H   UNL A   1      44.895  30.347  29.199  1.00  0.00     0.167 HD
ATOM     67  C   UNL A   1      42.887  32.140  30.125  1.00  0.00     0.074 A 
ATOM     68  C   UNL A   1      41.588  32.687  30.460  1.00  0.00     0.031 C 
ATOM     69  C   UNL A   1      44.064  32.785  30.313  1.00  0.00     0.031 A 
BRANCH  56  70
ATOM     70  C   UNL A   1      49.040  29.631  28.444  1.00  0.00    -0.014 A 
ATOM     71  C   UNL A   1      49.867  29.203  29.495  1.00  0.00     0.009 A 
ATOM     72  C   UNL A   1      49.636  30.100  27.263  1.00  0.00     0.009 A 
ATOM     73  C   UNL A   1      51.256  29.251  29.371  1.00  0.00     0.001 A 
ATOM     74  C   UNL A   1      51.026  30.119  27.129  1.00  0.00     0.001 A 
ATOM     75  C   UNL A   1      51.835  29.702  28.185  1.00  0.00     0.000 A 
ENDBRANCH  56  70
BRANCH  57  76
ATOM     76  C   UNL A   1      39.089  29.466  29.299  1.00  0.00    -0.014 A 
ATOM     77  C   UNL A   1      38.312  29.823  28.184  1.00  0.00     0.009 A 
ATOM     78  C   UNL A   1      38.445  29.174  30.510  1.00  0.00     0.009 A 
ATOM     79  C   UNL A   1      36.924  29.928  28.290  1.00  0.00     0.001 A 
ATOM     80  C   UNL A   1      37.053  29.249  30.603  1.00  0.00     0.001 A 
ATOM     81  C   UNL A   1      36.296  29.638  29.498  1.00  0.00     0.000 A 
ENDBRANCH  57  76
BRANCH  69  82
ATOM     82  C   UNL A   1      44.012  34.161  30.915  1.00  0.00    -0.014 A 
ATOM     83  C   UNL A   1      44.014  34.315  32.311  1.00  0.00     0.009 A 
ATOM     84  C   UNL A   1      43.878  35.300  30.106  1.00  0.00     0.009 A 
ATOM     85  C   UNL A   1      43.872  35.577  32.885  1.00  0.00     0.001 A 
ATOM     86  C   UNL A   1      43.766  36.566  30.683  1.00  0.00     0.001 A 
ATOM     87  C   UNL A   1      43.754  36.703  32.071  1.00  0.00     0.000 A 
ENDBRANCH  69  82
ENDBRANCH  43  44
ENDBRANCH  35  38
ENDBRANCH  33  34
ENDBRANCH  32  33
ENDBRANCH  31  32
ENDBRANCH  30  31
ENDBRANCH   1  30
TORSDOF 18
ENDMDL
