MODEL 1
REMARK VINA RESULT:     -10.8      0.000      0.000
REMARK SMILES O=C(CC[NH+]1CCN(C(=O)c2n[nH]c3ccccc23)CC1)NCCCCCCNC(=O)c1ccc(-c2c3nc(c(-c4ccccc4)c4ccc([nH]4)c(-c4ccccc4)c4nc(c(-c5ccccc5)c5ccc2[nH]5)C=C4)C=C3)cc1
REMARK SMILES IDX 25 1 24 2 23 3 22 4 1 5 2 6 3 8 4 9 5 10 6 11 21 12 7 14
REMARK SMILES IDX 20 15 8 16 9 17 10 18 11 19 12 20 19 21 13 22 14 23 18 24
REMARK SMILES IDX 15 26 17 27 16 28 26 29 27 30 28 31 29 32 30 33 31 35 32 36
REMARK SMILES IDX 33 37 79 38 34 39 78 40 35 41 36 42 37 43 72 44 38 45 77 46
REMARK SMILES IDX 71 47 73 48 39 49 76 50 70 51 69 52 40 54 62 55 47 56 61 57
REMARK SMILES IDX 48 58 51 59 60 60 74 61 49 62 50 63 59 65 75 66 52 67 41 68
REMARK SMILES IDX 42 69 46 70 43 71 45 72 44 73 63 74 64 75 68 76 65 77 67 78
REMARK SMILES IDX 66 79 53 80 54 81 58 82 55 83 57 84 56 85
REMARK H PARENT 22 7 5 13 13 25 29 34 73 53 51 64
REMARK Flexibility Score: inf
ROOT
ATOM      1  C   UNL A   1      35.407  32.808  29.049  1.00  0.00     0.002 C 
ENDROOT
BRANCH   1   2
ATOM      2  C   UNL A   1      35.157  31.982  27.781  1.00  0.00     0.021 C 
BRANCH   2   3
ATOM      3  C   UNL A   1      35.106  30.462  27.978  1.00  0.00     0.116 C 
BRANCH   3   4
ATOM      4  N   UNL A   1      33.756  29.950  27.867  1.00  0.00    -0.356 N 
ATOM      5  O   UNL A   1      34.214  28.529  26.139  1.00  0.00    -0.275 OA
ATOM      6  C   UNL A   1      33.395  29.063  26.886  1.00  0.00     0.225 C 
ATOM      7  H   UNL A   1      33.077  30.248  28.515  1.00  0.00     0.163 HD
BRANCH   6   8
ATOM      8  C   UNL A   1      31.911  28.869  26.649  1.00  0.00     0.161 C 
BRANCH   8   9
ATOM      9  C   UNL A   1      31.443  27.893  25.569  1.00  0.00     0.272 C 
BRANCH   9  10
ATOM     10  N   UNL A   1      30.836  26.603  25.958  1.00  0.00    -0.332 N 
ATOM     11  C   UNL A   1      30.119  25.861  24.900  1.00  0.00     0.284 C 
ATOM     12  C   UNL A   1      31.870  25.703  26.548  1.00  0.00     0.284 C 
ATOM     13  H   UNL A   1      30.121  26.871  26.635  1.00  0.00     0.348 HD
ATOM     14  C   UNL A   1      30.983  25.167  23.847  1.00  0.00     0.181 C 
ATOM     15  C   UNL A   1      32.774  24.986  25.506  1.00  0.00     0.181 C 
ATOM     16  N   UNL A   1      31.968  24.310  24.483  1.00  0.00    -0.326 N 
ATOM     17  C   UNL A   1      32.125  23.010  23.996  1.00  0.00     0.275 C 
ATOM     18  O   UNL A   1      31.430  22.583  23.072  1.00  0.00    -0.267 OA
BRANCH  17  19
ATOM     19  C   UNL A   1      33.148  22.162  24.613  1.00  0.00     0.157 A 
ATOM     20  N   UNL A   1      32.815  21.228  25.525  1.00  0.00    -0.169 NA
ATOM     21  C   UNL A   1      34.556  22.180  24.381  1.00  0.00     0.033 A 
ATOM     22  N   UNL A   1      33.986  20.671  25.864  1.00  0.00    -0.277 N 
ATOM     23  C   UNL A   1      35.062  21.160  25.177  1.00  0.00     0.066 A 
ATOM     24  C   UNL A   1      35.444  22.923  23.578  1.00  0.00     0.013 A 
ATOM     25  H   UNL A   1      34.064  19.968  26.549  1.00  0.00     0.190 HD
ATOM     26  C   UNL A   1      36.412  20.803  25.194  1.00  0.00     0.028 A 
ATOM     27  C   UNL A   1      36.798  22.571  23.565  1.00  0.00     0.001 A 
ATOM     28  C   UNL A   1      37.270  21.523  24.356  1.00  0.00     0.002 A 
ENDBRANCH  17  19
ENDBRANCH   9  10
ENDBRANCH   8   9
ENDBRANCH   6   8
ENDBRANCH   3   4
ENDBRANCH   2   3
ENDBRANCH   1   2
BRANCH   1  29
ATOM     29  C   UNL A   1      35.643  34.304  28.839  1.00  0.00     0.002 C 
BRANCH  29  30
ATOM     30  C   UNL A   1      34.373  35.151  28.799  1.00  0.00     0.021 C 
BRANCH  30  31
ATOM     31  C   UNL A   1      33.185  34.551  29.543  1.00  0.00     0.116 C 
BRANCH  31  32
ATOM     32  N   UNL A   1      32.618  35.468  30.521  1.00  0.00    -0.352 N 
ATOM     33  C   UNL A   1      32.943  35.645  31.844  1.00  0.00     0.251 C 
ATOM     34  H   UNL A   1      31.896  36.047  30.184  1.00  0.00     0.163 HD
ATOM     35  O   UNL A   1      32.245  36.349  32.566  1.00  0.00    -0.269 OA
BRANCH  33  36
ATOM     36  C   UNL A   1      34.122  34.953  32.410  1.00  0.00     0.039 A 
ATOM     37  C   UNL A   1      33.960  33.672  32.940  1.00  0.00     0.014 A 
ATOM     38  C   UNL A   1      35.384  35.555  32.396  1.00  0.00     0.014 A 
ATOM     39  C   UNL A   1      35.078  32.958  33.377  1.00  0.00     0.010 A 
ATOM     40  C   UNL A   1      36.506  34.815  32.759  1.00  0.00     0.010 A 
ATOM     41  C   UNL A   1      36.365  33.505  33.243  1.00  0.00    -0.014 A 
BRANCH  41  42
ATOM     42  C   UNL A   1      37.576  32.704  33.553  1.00  0.00     0.031 A 
ATOM     43  C   UNL A   1      38.366  32.962  34.805  1.00  0.00     0.074 A 
ATOM     44  C   UNL A   1      38.011  31.791  32.663  1.00  0.00     0.049 A 
ATOM     45  N   UNL A   1      39.482  32.406  35.206  1.00  0.00    -0.248 NA
ATOM     46  C   UNL A   1      37.846  33.996  35.713  1.00  0.00     0.031 C 
ATOM     47  C   UNL A   1      37.363  31.479  31.386  1.00  0.00     0.029 A 
ATOM     48  N   UNL A   1      39.111  30.970  32.687  1.00  0.00    -0.354 N 
ATOM     49  C   UNL A   1      39.801  33.025  36.407  1.00  0.00     0.074 A 
ATOM     50  C   UNL A   1      38.792  34.038  36.640  1.00  0.00     0.031 C 
ATOM     51  C   UNL A   1      38.068  30.524  30.760  1.00  0.00     0.029 A 
ATOM     52  C   UNL A   1      39.238  30.190  31.564  1.00  0.00     0.049 A 
ATOM     53  H   UNL A   1      39.747  30.944  33.437  1.00  0.00     0.167 HD
ATOM     54  C   UNL A   1      40.830  32.766  37.249  1.00  0.00     0.031 A 
ATOM     55  C   UNL A   1      40.198  29.315  31.207  1.00  0.00     0.031 A 
ATOM     56  C   UNL A   1      41.843  31.772  37.008  1.00  0.00     0.049 A 
ATOM     57  C   UNL A   1      41.352  29.069  32.138  1.00  0.00     0.074 A 
ATOM     58  C   UNL A   1      42.898  31.399  37.823  1.00  0.00     0.029 A 
ATOM     59  N   UNL A   1      41.936  31.001  35.859  1.00  0.00    -0.354 N 
ATOM     60  N   UNL A   1      41.597  29.606  33.307  1.00  0.00    -0.248 NA
ATOM     61  C   UNL A   1      42.354  28.087  31.702  1.00  0.00     0.031 C 
ATOM     62  C   UNL A   1      43.665  30.450  37.141  1.00  0.00     0.029 A 
ATOM     63  C   UNL A   1      43.052  30.181  35.927  1.00  0.00     0.049 A 
ATOM     64  H   UNL A   1      41.303  31.031  35.105  1.00  0.00     0.167 HD
ATOM     65  C   UNL A   1      42.773  29.020  33.755  1.00  0.00     0.074 A 
ATOM     66  C   UNL A   1      43.179  28.068  32.741  1.00  0.00     0.031 C 
ATOM     67  C   UNL A   1      43.456  29.250  34.903  1.00  0.00     0.031 A 
BRANCH  54  68
ATOM     68  C   UNL A   1      40.915  33.592  38.504  1.00  0.00    -0.014 A 
ATOM     69  C   UNL A   1      40.251  33.201  39.679  1.00  0.00     0.009 A 
ATOM     70  C   UNL A   1      41.678  34.769  38.518  1.00  0.00     0.009 A 
ATOM     71  C   UNL A   1      40.309  33.999  40.824  1.00  0.00     0.001 A 
ATOM     72  C   UNL A   1      41.763  35.547  39.675  1.00  0.00     0.001 A 
ATOM     73  C   UNL A   1      41.067  35.169  40.822  1.00  0.00     0.000 A 
ENDBRANCH  54  68
BRANCH  55  74
ATOM     74  C   UNL A   1      40.105  28.616  29.900  1.00  0.00    -0.014 A 
ATOM     75  C   UNL A   1      40.704  29.159  28.753  1.00  0.00     0.009 A 
ATOM     76  C   UNL A   1      39.436  27.386  29.797  1.00  0.00     0.009 A 
ATOM     77  C   UNL A   1      40.620  28.491  27.528  1.00  0.00     0.001 A 
ATOM     78  C   UNL A   1      39.380  26.707  28.580  1.00  0.00     0.001 A 
ATOM     79  C   UNL A   1      39.965  27.263  27.444  1.00  0.00     0.000 A 
ENDBRANCH  55  74
BRANCH  67  80
ATOM     80  C   UNL A   1      44.709  28.450  35.131  1.00  0.00    -0.014 A 
ATOM     81  C   UNL A   1      44.668  27.196  35.761  1.00  0.00     0.009 A 
ATOM     82  C   UNL A   1      45.942  28.941  34.672  1.00  0.00     0.009 A 
ATOM     83  C   UNL A   1      45.841  26.464  35.951  1.00  0.00     0.001 A 
ATOM     84  C   UNL A   1      47.108  28.192  34.836  1.00  0.00     0.001 A 
ATOM     85  C   UNL A   1      47.058  26.959  35.484  1.00  0.00     0.000 A 
ENDBRANCH  67  80
ENDBRANCH  41  42
ENDBRANCH  33  36
ENDBRANCH  31  32
ENDBRANCH  30  31
ENDBRANCH  29  30
ENDBRANCH   1  29
TORSDOF 16
ENDMDL
MODEL 2
REMARK VINA RESULT:     -10.6      2.402      8.790
REMARK SMILES O=C(CC[NH+]1CCN(C(=O)c2n[nH]c3ccccc23)CC1)NCCCCCCNC(=O)c1ccc(-c2c3nc(c(-c4ccccc4)c4ccc([nH]4)c(-c4ccccc4)c4nc(c(-c5ccccc5)c5ccc2[nH]5)C=C4)C=C3)cc1
REMARK SMILES IDX 25 1 24 2 23 3 22 4 1 5 2 6 3 8 4 9 5 10 6 11 21 12 7 14
REMARK SMILES IDX 20 15 8 16 9 17 10 18 11 19 12 20 19 21 13 22 14 23 18 24
REMARK SMILES IDX 15 26 17 27 16 28 26 29 27 30 28 31 29 32 30 33 31 35 32 36
REMARK SMILES IDX 33 37 79 38 34 39 78 40 35 41 36 42 37 43 72 44 38 45 77 46
REMARK SMILES IDX 71 47 73 48 39 49 76 50 70 51 69 52 40 54 62 55 47 56 61 57
REMARK SMILES IDX 48 58 51 59 60 60 74 61 49 62 50 63 59 65 75 66 52 67 41 68
REMARK SMILES IDX 42 69 46 70 43 71 45 72 44 73 63 74 64 75 68 76 65 77 67 78
REMARK SMILES IDX 66 79 53 80 54 81 58 82 55 83 57 84 56 85
REMARK H PARENT 22 7 5 13 13 25 29 34 73 53 51 64
REMARK Flexibility Score: inf
ROOT
ATOM      1  C   UNL A   1      36.877  23.063  25.411  1.00  0.00     0.002 C 
ENDROOT
BRANCH   1   2
ATOM      2  C   UNL A   1      37.186  21.764  24.655  1.00  0.00     0.021 C 
BRANCH   2   3
ATOM      3  C   UNL A   1      36.405  20.528  25.114  1.00  0.00     0.116 C 
BRANCH   3   4
ATOM      4  N   UNL A   1      35.183  20.888  25.804  1.00  0.00    -0.356 N 
ATOM      5  O   UNL A   1      33.788  19.938  24.265  1.00  0.00    -0.275 OA
ATOM      6  C   UNL A   1      33.947  20.625  25.273  1.00  0.00     0.225 C 
ATOM      7  H   UNL A   1      35.243  21.334  26.679  1.00  0.00     0.163 HD
BRANCH   6   8
ATOM      8  C   UNL A   1      32.767  21.344  25.896  1.00  0.00     0.161 C 
BRANCH   8   9
ATOM      9  C   UNL A   1      32.423  22.761  25.435  1.00  0.00     0.272 C 
BRANCH   9  10
ATOM     10  N   UNL A   1      33.504  23.747  25.223  1.00  0.00    -0.332 N 
ATOM     11  C   UNL A   1      33.713  24.214  23.837  1.00  0.00     0.284 C 
ATOM     12  C   UNL A   1      33.294  24.938  26.097  1.00  0.00     0.284 C 
ATOM     13  H   UNL A   1      34.350  23.230  25.466  1.00  0.00     0.348 HD
ATOM     14  C   UNL A   1      32.676  25.191  23.282  1.00  0.00     0.181 C 
ATOM     15  C   UNL A   1      32.240  25.951  25.568  1.00  0.00     0.181 C 
ATOM     16  N   UNL A   1      32.517  26.325  24.176  1.00  0.00    -0.326 N 
ATOM     17  C   UNL A   1      32.526  27.608  23.624  1.00  0.00     0.275 C 
ATOM     18  O   UNL A   1      32.695  27.786  22.416  1.00  0.00    -0.267 OA
BRANCH  17  19
ATOM     19  C   UNL A   1      32.324  28.747  24.524  1.00  0.00     0.157 A 
ATOM     20  N   UNL A   1      31.220  29.513  24.433  1.00  0.00    -0.169 NA
ATOM     21  C   UNL A   1      33.191  29.209  25.560  1.00  0.00     0.033 A 
ATOM     22  N   UNL A   1      31.387  30.439  25.387  1.00  0.00    -0.277 N 
ATOM     23  C   UNL A   1      32.521  30.282  26.133  1.00  0.00     0.066 A 
ATOM     24  C   UNL A   1      34.441  28.826  26.084  1.00  0.00     0.013 A 
ATOM     25  H   UNL A   1      30.744  31.171  25.538  1.00  0.00     0.190 HD
ATOM     26  C   UNL A   1      33.009  30.985  27.237  1.00  0.00     0.028 A 
ATOM     27  C   UNL A   1      34.941  29.504  27.201  1.00  0.00     0.001 A 
ATOM     28  C   UNL A   1      34.231  30.561  27.770  1.00  0.00     0.002 A 
ENDBRANCH  17  19
ENDBRANCH   9  10
ENDBRANCH   8   9
ENDBRANCH   6   8
ENDBRANCH   3   4
ENDBRANCH   2   3
ENDBRANCH   1   2
BRANCH   1  29
ATOM     29  C   UNL A   1      38.019  23.636  26.254  1.00  0.00     0.002 C 
BRANCH  29  30
ATOM     30  C   UNL A   1      39.175  22.670  26.503  1.00  0.00     0.021 C 
BRANCH  30  31
ATOM     31  C   UNL A   1      40.476  23.335  26.939  1.00  0.00     0.116 C 
BRANCH  31  32
ATOM     32  N   UNL A   1      41.036  24.195  25.908  1.00  0.00    -0.352 N 
ATOM     33  C   UNL A   1      41.325  25.537  25.952  1.00  0.00     0.251 C 
ATOM     34  H   UNL A   1      41.237  23.749  25.053  1.00  0.00     0.163 HD
ATOM     35  O   UNL A   1      41.638  26.139  24.930  1.00  0.00    -0.269 OA
BRANCH  33  36
ATOM     36  C   UNL A   1      41.224  26.269  27.233  1.00  0.00     0.039 A 
ATOM     37  C   UNL A   1      42.145  27.283  27.505  1.00  0.00     0.014 A 
ATOM     38  C   UNL A   1      40.211  25.974  28.151  1.00  0.00     0.014 A 
ATOM     39  C   UNL A   1      42.000  28.059  28.656  1.00  0.00     0.010 A 
ATOM     40  C   UNL A   1      40.022  26.797  29.258  1.00  0.00     0.010 A 
ATOM     41  C   UNL A   1      40.907  27.855  29.515  1.00  0.00    -0.014 A 
BRANCH  41  42
ATOM     42  C   UNL A   1      40.647  28.769  30.656  1.00  0.00     0.031 A 
ATOM     43  C   UNL A   1      39.579  29.821  30.568  1.00  0.00     0.074 A 
ATOM     44  C   UNL A   1      41.431  28.701  31.750  1.00  0.00     0.049 A 
ATOM     45  N   UNL A   1      39.256  30.745  31.438  1.00  0.00    -0.248 NA
ATOM     46  C   UNL A   1      38.784  29.854  29.330  1.00  0.00     0.031 C 
ATOM     47  C   UNL A   1      42.536  27.757  31.941  1.00  0.00     0.029 A 
ATOM     48  N   UNL A   1      41.432  29.451  32.899  1.00  0.00    -0.354 N 
ATOM     49  C   UNL A   1      38.228  31.472  30.852  1.00  0.00     0.074 A 
ATOM     50  C   UNL A   1      38.020  30.918  29.531  1.00  0.00     0.031 C 
ATOM     51  C   UNL A   1      43.094  27.975  33.142  1.00  0.00     0.029 A 
ATOM     52  C   UNL A   1      42.421  29.099  33.784  1.00  0.00     0.049 A 
ATOM     53  H   UNL A   1      40.785  30.173  33.072  1.00  0.00     0.167 HD
ATOM     54  C   UNL A   1      37.510  32.497  31.371  1.00  0.00     0.031 A 
ATOM     55  C   UNL A   1      42.764  29.629  34.974  1.00  0.00     0.031 A 
ATOM     56  C   UNL A   1      37.729  33.060  32.678  1.00  0.00     0.049 A 
ATOM     57  C   UNL A   1      41.980  30.791  35.515  1.00  0.00     0.074 A 
ATOM     58  C   UNL A   1      37.023  34.066  33.314  1.00  0.00     0.029 A 
ATOM     59  N   UNL A   1      38.740  32.674  33.545  1.00  0.00    -0.354 N 
ATOM     60  N   UNL A   1      40.959  31.416  34.983  1.00  0.00    -0.248 NA
ATOM     61  C   UNL A   1      42.389  31.311  36.827  1.00  0.00     0.031 C 
ATOM     62  C   UNL A   1      37.645  34.333  34.538  1.00  0.00     0.029 A 
ATOM     63  C   UNL A   1      38.700  33.447  34.694  1.00  0.00     0.049 A 
ATOM     64  H   UNL A   1      39.391  31.956  33.371  1.00  0.00     0.167 HD
ATOM     65  C   UNL A   1      40.595  32.395  35.898  1.00  0.00     0.074 A 
ATOM     66  C   UNL A   1      41.489  32.263  37.030  1.00  0.00     0.031 C 
ATOM     67  C   UNL A   1      39.607  33.319  35.807  1.00  0.00     0.031 A 
BRANCH  54  68
ATOM     68  C   UNL A   1      36.430  33.086  30.505  1.00  0.00    -0.014 A 
ATOM     69  C   UNL A   1      36.743  33.891  29.396  1.00  0.00     0.009 A 
ATOM     70  C   UNL A   1      35.082  32.824  30.790  1.00  0.00     0.009 A 
ATOM     71  C   UNL A   1      35.728  34.461  28.624  1.00  0.00     0.001 A 
ATOM     72  C   UNL A   1      34.069  33.367  29.996  1.00  0.00     0.001 A 
ATOM     73  C   UNL A   1      34.392  34.196  28.923  1.00  0.00     0.000 A 
ENDBRANCH  54  68
BRANCH  55  74
ATOM     74  C   UNL A   1      43.915  29.065  35.724  1.00  0.00    -0.014 A 
ATOM     75  C   UNL A   1      43.738  27.986  36.603  1.00  0.00     0.009 A 
ATOM     76  C   UNL A   1      45.206  29.590  35.546  1.00  0.00     0.009 A 
ATOM     77  C   UNL A   1      44.828  27.455  37.300  1.00  0.00     0.001 A 
ATOM     78  C   UNL A   1      46.296  29.038  36.219  1.00  0.00     0.001 A 
ATOM     79  C   UNL A   1      46.105  27.976  37.102  1.00  0.00     0.000 A 
ENDBRANCH  55  74
BRANCH  67  80
ATOM     80  C   UNL A   1      39.433  34.257  36.971  1.00  0.00    -0.014 A 
ATOM     81  C   UNL A   1      38.784  33.847  38.146  1.00  0.00     0.009 A 
ATOM     82  C   UNL A   1      39.964  35.555  36.905  1.00  0.00     0.009 A 
ATOM     83  C   UNL A   1      38.644  34.729  39.219  1.00  0.00     0.001 A 
ATOM     84  C   UNL A   1      39.851  36.423  37.991  1.00  0.00     0.001 A 
ATOM     85  C   UNL A   1      39.182  36.013  39.144  1.00  0.00     0.000 A 
ENDBRANCH  67  80
ENDBRANCH  41  42
ENDBRANCH  33  36
ENDBRANCH  31  32
ENDBRANCH  30  31
ENDBRANCH  29  30
ENDBRANCH   1  29
TORSDOF 16
ENDMDL
MODEL 3
REMARK VINA RESULT:     -10.6      1.116      5.941
REMARK SMILES O=C(CC[NH+]1CCN(C(=O)c2n[nH]c3ccccc23)CC1)NCCCCCCNC(=O)c1ccc(-c2c3nc(c(-c4ccccc4)c4ccc([nH]4)c(-c4ccccc4)c4nc(c(-c5ccccc5)c5ccc2[nH]5)C=C4)C=C3)cc1
REMARK SMILES IDX 25 1 24 2 23 3 22 4 1 5 2 6 3 8 4 9 5 10 6 11 21 12 7 14
REMARK SMILES IDX 20 15 8 16 9 17 10 18 11 19 12 20 19 21 13 22 14 23 18 24
REMARK SMILES IDX 15 26 17 27 16 28 26 29 27 30 28 31 29 32 30 33 31 35 32 36
REMARK SMILES IDX 33 37 79 38 34 39 78 40 35 41 36 42 37 43 72 44 38 45 77 46
REMARK SMILES IDX 71 47 73 48 39 49 76 50 70 51 69 52 40 54 62 55 47 56 61 57
REMARK SMILES IDX 48 58 51 59 60 60 74 61 49 62 50 63 59 65 75 66 52 67 41 68
REMARK SMILES IDX 42 69 46 70 43 71 45 72 44 73 63 74 64 75 68 76 65 77 67 78
REMARK SMILES IDX 66 79 53 80 54 81 58 82 55 83 57 84 56 85
REMARK H PARENT 22 7 5 13 13 25 29 34 73 53 51 64
REMARK Flexibility Score: inf
ROOT
ATOM      1  C   UNL A   1      33.663  33.788  28.657  1.00  0.00     0.002 C 
ENDROOT
BRANCH   1   2
ATOM      2  C   UNL A   1      34.755  32.794  29.074  1.00  0.00     0.021 C 
BRANCH   2   3
ATOM      3  C   UNL A   1      35.526  32.135  27.925  1.00  0.00     0.116 C 
BRANCH   3   4
ATOM      4  N   UNL A   1      34.748  31.098  27.278  1.00  0.00    -0.356 N 
ATOM      5  O   UNL A   1      35.612  29.386  28.518  1.00  0.00    -0.275 OA
ATOM      6  C   UNL A   1      34.914  29.772  27.582  1.00  0.00     0.225 C 
ATOM      7  H   UNL A   1      34.081  31.355  26.601  1.00  0.00     0.163 HD
BRANCH   6   8
ATOM      8  C   UNL A   1      34.316  28.769  26.616  1.00  0.00     0.161 C 
BRANCH   8   9
ATOM      9  C   UNL A   1      33.321  29.246  25.558  1.00  0.00     0.272 C 
BRANCH   9  10
ATOM     10  N   UNL A   1      32.305  28.312  25.031  1.00  0.00    -0.332 N 
ATOM     11  C   UNL A   1      32.279  28.117  23.566  1.00  0.00     0.284 C 
ATOM     12  C   UNL A   1      32.444  26.977  25.683  1.00  0.00     0.284 C 
ATOM     13  H   UNL A   1      31.420  28.766  25.260  1.00  0.00     0.348 HD
ATOM     14  C   UNL A   1      33.404  27.271  22.970  1.00  0.00     0.181 C 
ATOM     15  C   UNL A   1      33.585  26.092  25.107  1.00  0.00     0.181 C 
ATOM     16  N   UNL A   1      33.489  25.989  23.646  1.00  0.00    -0.326 N 
ATOM     17  C   UNL A   1      33.586  24.835  22.865  1.00  0.00     0.275 C 
ATOM     18  O   UNL A   1      33.570  24.890  21.634  1.00  0.00    -0.267 OA
BRANCH  17  19
ATOM     19  C   UNL A   1      33.713  23.546  23.552  1.00  0.00     0.157 A 
ATOM     20  N   UNL A   1      32.623  22.833  23.894  1.00  0.00    -0.169 NA
ATOM     21  C   UNL A   1      34.912  22.882  23.951  1.00  0.00     0.033 A 
ATOM     22  N   UNL A   1      33.121  21.746  24.497  1.00  0.00    -0.277 N 
ATOM     23  C   UNL A   1      34.486  21.688  24.518  1.00  0.00     0.066 A 
ATOM     24  C   UNL A   1      36.294  23.146  23.874  1.00  0.00     0.013 A 
ATOM     25  H   UNL A   1      32.550  21.046  24.891  1.00  0.00     0.190 HD
ATOM     26  C   UNL A   1      35.365  20.709  24.986  1.00  0.00     0.028 A 
ATOM     27  C   UNL A   1      37.193  22.172  24.320  1.00  0.00     0.001 A 
ATOM     28  C   UNL A   1      36.733  20.971  24.860  1.00  0.00     0.002 A 
ENDBRANCH  17  19
ENDBRANCH   9  10
ENDBRANCH   8   9
ENDBRANCH   6   8
ENDBRANCH   3   4
ENDBRANCH   2   3
ENDBRANCH   1   2
BRANCH   1  29
ATOM     29  C   UNL A   1      34.115  35.236  28.459  1.00  0.00     0.002 C 
BRANCH  29  30
ATOM     30  C   UNL A   1      33.099  36.288  28.899  1.00  0.00     0.021 C 
BRANCH  30  31
ATOM     31  C   UNL A   1      33.391  36.926  30.253  1.00  0.00     0.116 C 
BRANCH  31  32
ATOM     32  N   UNL A   1      32.463  36.491  31.286  1.00  0.00    -0.352 N 
ATOM     33  C   UNL A   1      32.583  35.464  32.192  1.00  0.00     0.251 C 
ATOM     34  H   UNL A   1      31.627  37.009  31.345  1.00  0.00     0.163 HD
ATOM     35  O   UNL A   1      31.626  35.133  32.884  1.00  0.00    -0.269 OA
BRANCH  33  36
ATOM     36  C   UNL A   1      33.862  34.732  32.307  1.00  0.00     0.039 A 
ATOM     37  C   UNL A   1      35.056  35.425  32.099  1.00  0.00     0.014 A 
ATOM     38  C   UNL A   1      33.886  33.374  32.643  1.00  0.00     0.014 A 
ATOM     39  C   UNL A   1      36.277  34.780  32.312  1.00  0.00     0.010 A 
ATOM     40  C   UNL A   1      35.099  32.755  32.929  1.00  0.00     0.010 A 
ATOM     41  C   UNL A   1      36.306  33.455  32.778  1.00  0.00    -0.014 A 
BRANCH  41  42
ATOM     42  C   UNL A   1      37.585  32.804  33.160  1.00  0.00     0.031 A 
ATOM     43  C   UNL A   1      38.204  31.756  32.282  1.00  0.00     0.074 A 
ATOM     44  C   UNL A   1      38.150  33.104  34.346  1.00  0.00     0.049 A 
ATOM     45  N   UNL A   1      39.280  31.037  32.487  1.00  0.00    -0.248 NA
ATOM     46  C   UNL A   1      37.512  31.459  31.018  1.00  0.00     0.031 C 
ATOM     47  C   UNL A   1      37.623  34.069  35.315  1.00  0.00     0.029 A 
ATOM     48  N   UNL A   1      39.283  32.616  34.947  1.00  0.00    -0.354 N 
ATOM     49  C   UNL A   1      39.390  30.201  31.384  1.00  0.00     0.074 A 
ATOM     50  C   UNL A   1      38.242  30.460  30.541  1.00  0.00     0.031 C 
ATOM     51  C   UNL A   1      38.440  34.113  36.378  1.00  0.00     0.029 A 
ATOM     52  C   UNL A   1      39.520  33.150  36.189  1.00  0.00     0.049 A 
ATOM     53  H   UNL A   1      39.870  31.946  34.527  1.00  0.00     0.167 HD
ATOM     54  C   UNL A   1      40.366  29.307  31.090  1.00  0.00     0.031 A 
ATOM     55  C   UNL A   1      40.486  32.885  37.090  1.00  0.00     0.031 A 
ATOM     56  C   UNL A   1      41.498  29.036  31.936  1.00  0.00     0.049 A 
ATOM     57  C   UNL A   1      41.538  31.863  36.760  1.00  0.00     0.074 A 
ATOM     58  C   UNL A   1      42.566  28.186  31.704  1.00  0.00     0.029 A 
ATOM     59  N   UNL A   1      41.702  29.599  33.187  1.00  0.00    -0.354 N 
ATOM     60  N   UNL A   1      41.672  31.137  35.678  1.00  0.00    -0.248 NA
ATOM     61  C   UNL A   1      42.577  31.635  37.773  1.00  0.00     0.031 C 
ATOM     62  C   UNL A   1      43.382  28.187  32.839  1.00  0.00     0.029 A 
ATOM     63  C   UNL A   1      42.858  29.087  33.754  1.00  0.00     0.049 A 
ATOM     64  H   UNL A   1      41.113  30.265  33.611  1.00  0.00     0.167 HD
ATOM     65  C   UNL A   1      42.816  30.375  35.872  1.00  0.00     0.074 A 
ATOM     66  C   UNL A   1      43.352  30.745  37.166  1.00  0.00     0.031 C 
ATOM     67  C   UNL A   1      43.372  29.451  35.051  1.00  0.00     0.031 A 
BRANCH  54  68
ATOM     68  C   UNL A   1      40.232  28.546  29.798  1.00  0.00    -0.014 A 
ATOM     69  C   UNL A   1      39.601  27.291  29.755  1.00  0.00     0.009 A 
ATOM     70  C   UNL A   1      40.731  29.094  28.607  1.00  0.00     0.009 A 
ATOM     71  C   UNL A   1      39.519  26.580  28.555  1.00  0.00     0.001 A 
ATOM     72  C   UNL A   1      40.617  28.396  27.403  1.00  0.00     0.001 A 
ATOM     73  C   UNL A   1      40.024  27.135  27.380  1.00  0.00     0.000 A 
ENDBRANCH  54  68
BRANCH  55  74
ATOM     74  C   UNL A   1      40.491  33.597  38.393  1.00  0.00    -0.014 A 
ATOM     75  C   UNL A   1      39.769  33.096  39.487  1.00  0.00     0.009 A 
ATOM     76  C   UNL A   1      41.242  34.773  38.557  1.00  0.00     0.009 A 
ATOM     77  C   UNL A   1      39.785  33.768  40.712  1.00  0.00     0.001 A 
ATOM     78  C   UNL A   1      41.280  35.424  39.791  1.00  0.00     0.001 A 
ATOM     79  C   UNL A   1      40.546  34.926  40.865  1.00  0.00     0.000 A 
ENDBRANCH  55  74
BRANCH  67  80
ATOM     80  C   UNL A   1      44.634  28.781  35.523  1.00  0.00    -0.014 A 
ATOM     81  C   UNL A   1      45.896  29.335  35.257  1.00  0.00     0.009 A 
ATOM     82  C   UNL A   1      44.556  27.602  36.281  1.00  0.00     0.009 A 
ATOM     83  C   UNL A   1      47.055  28.705  35.715  1.00  0.00     0.001 A 
ATOM     84  C   UNL A   1      45.714  26.991  36.764  1.00  0.00     0.001 A 
ATOM     85  C   UNL A   1      46.962  27.538  36.473  1.00  0.00     0.000 A 
ENDBRANCH  67  80
ENDBRANCH  41  42
ENDBRANCH  33  36
ENDBRANCH  31  32
ENDBRANCH  30  31
ENDBRANCH  29  30
ENDBRANCH   1  29
TORSDOF 16
ENDMDL
