MODEL 1
REMARK VINA RESULT:     -10.5      0.000      0.000
REMARK SMILES Cc1cnn(-c2ccccc2OCC(=O)NCCCCCCNC(=O)c2ccc(-c3c4nc(c(-c5ccccc5)c5ccc([nH]5)c(-c5ccccc5)c5nc(c(-c6ccccc6)c6ccc3[nH]6)C=C5)C=C4)cc2)c1
REMARK SMILES IDX 19 1 18 2 17 3 16 4 14 5 15 6 13 8 12 9 11 10 6 11 7 12 8 13
REMARK SMILES IDX 10 14 9 15 5 16 1 17 2 18 3 19 74 20 4 21 20 22 21 23 22 24
REMARK SMILES IDX 23 25 24 26 25 28 26 29 27 30 73 31 28 32 72 33 29 34 30 35
REMARK SMILES IDX 31 36 66 37 32 38 71 39 65 40 67 41 33 42 70 43 64 44 63 45
REMARK SMILES IDX 34 47 56 48 41 49 55 50 42 51 45 52 54 53 68 54 43 55 44 56
REMARK SMILES IDX 53 58 69 59 46 60 35 61 36 62 40 63 37 64 39 65 38 66 57 67
REMARK SMILES IDX 58 68 62 69 59 70 61 71 60 72 47 73 48 74 52 75 49 76 51 77
REMARK SMILES IDX 50 78
REMARK H PARENT 16 7 23 27 67 46 45 57
REMARK Flexibility Score: inf
ROOT
ATOM      1  C   UNL A   1      40.771  20.728  26.997  1.00  0.00     0.002 C 
ENDROOT
BRANCH   1   2
ATOM      2  C   UNL A   1      39.921  20.419  25.760  1.00  0.00     0.021 C 
BRANCH   2   3
ATOM      3  C   UNL A   1      38.622  21.204  25.614  1.00  0.00     0.116 C 
BRANCH   3   4
ATOM      4  N   UNL A   1      38.781  22.634  25.745  1.00  0.00    -0.353 N 
ATOM      5  C   UNL A   1      37.779  23.550  25.878  1.00  0.00     0.257 C 
ATOM      6  O   UNL A   1      37.994  24.531  26.594  1.00  0.00    -0.271 OA
ATOM      7  H   UNL A   1      39.703  22.982  25.737  1.00  0.00     0.163 HD
BRANCH   5   8
ATOM      8  C   UNL A   1      36.429  23.335  25.180  1.00  0.00     0.329 C 
BRANCH   8   9
ATOM      9  O   UNL A   1      35.359  22.844  25.956  1.00  0.00    -0.482 OA
BRANCH   9  10
ATOM     10  C   UNL A   1      34.051  23.187  25.814  1.00  0.00     0.145 A 
ATOM     11  C   UNL A   1      32.927  22.485  25.365  1.00  0.00     0.107 A 
ATOM     12  C   UNL A   1      31.682  23.132  25.226  1.00  0.00     0.032 A 
ATOM     13  C   UNL A   1      31.539  24.476  25.565  1.00  0.00     0.003 A 
ATOM     14  C   UNL A   1      33.878  24.549  26.127  1.00  0.00     0.049 A 
ATOM     15  C   UNL A   1      32.642  25.189  26.013  1.00  0.00     0.004 A 
BRANCH  11  16
ATOM     16  N   UNL A   1      32.955  21.140  24.966  1.00  0.00    -0.237 N 
ATOM     17  C   UNL A   1      32.222  18.312  22.789  1.00  0.00     0.048 C 
ATOM     18  C   UNL A   1      32.652  19.286  23.818  1.00  0.00    -0.013 A 
ATOM     19  C   UNL A   1      32.967  19.037  25.171  1.00  0.00     0.139 A 
ATOM     20  C   UNL A   1      32.796  20.653  23.695  1.00  0.00     0.118 A 
ATOM     21  N   UNL A   1      33.232  20.156  25.851  1.00  0.00    -0.176 NA
ENDBRANCH  11  16
ENDBRANCH   9  10
ENDBRANCH   8   9
ENDBRANCH   5   8
ENDBRANCH   3   4
ENDBRANCH   2   3
ENDBRANCH   1   2
BRANCH   1  22
ATOM     22  C   UNL A   1      42.033  19.882  27.229  1.00  0.00     0.002 C 
BRANCH  22  23
ATOM     23  C   UNL A   1      42.418  18.863  26.152  1.00  0.00     0.021 C 
BRANCH  23  24
ATOM     24  C   UNL A   1      43.891  18.496  26.119  1.00  0.00     0.116 C 
BRANCH  24  25
ATOM     25  N   UNL A   1      44.470  18.560  24.780  1.00  0.00    -0.352 N 
ATOM     26  C   UNL A   1      44.583  19.670  23.960  1.00  0.00     0.251 C 
ATOM     27  H   UNL A   1      44.820  17.714  24.417  1.00  0.00     0.163 HD
ATOM     28  O   UNL A   1      44.716  19.562  22.754  1.00  0.00    -0.269 OA
BRANCH  26  29
ATOM     29  C   UNL A   1      44.548  21.000  24.593  1.00  0.00     0.039 A 
ATOM     30  C   UNL A   1      43.485  21.884  24.394  1.00  0.00     0.014 A 
ATOM     31  C   UNL A   1      45.604  21.328  25.436  1.00  0.00     0.014 A 
ATOM     32  C   UNL A   1      43.461  23.075  25.118  1.00  0.00     0.010 A 
ATOM     33  C   UNL A   1      45.487  22.399  26.277  1.00  0.00     0.010 A 
ATOM     34  C   UNL A   1      44.463  23.316  26.071  1.00  0.00    -0.014 A 
BRANCH  34  35
ATOM     35  C   UNL A   1      44.425  24.489  26.932  1.00  0.00     0.031 A 
ATOM     36  C   UNL A   1      45.522  25.471  26.719  1.00  0.00     0.074 A 
ATOM     37  C   UNL A   1      43.343  24.791  27.683  1.00  0.00     0.049 A 
ATOM     38  N   UNL A   1      46.438  25.821  27.557  1.00  0.00    -0.248 NA
ATOM     39  C   UNL A   1      45.685  26.058  25.378  1.00  0.00     0.031 C 
ATOM     40  C   UNL A   1      42.044  24.105  27.732  1.00  0.00     0.029 A 
ATOM     41  N   UNL A   1      43.123  25.888  28.453  1.00  0.00    -0.354 N 
ATOM     42  C   UNL A   1      47.185  26.812  26.925  1.00  0.00     0.074 A 
ATOM     43  C   UNL A   1      46.786  26.794  25.540  1.00  0.00     0.031 C 
ATOM     44  C   UNL A   1      41.115  24.938  28.249  1.00  0.00     0.029 A 
ATOM     45  C   UNL A   1      41.783  26.134  28.726  1.00  0.00     0.049 A 
ATOM     46  H   UNL A   1      43.850  26.459  28.789  1.00  0.00     0.167 HD
ATOM     47  C   UNL A   1      47.894  27.732  27.639  1.00  0.00     0.031 A 
ATOM     48  C   UNL A   1      41.261  27.268  29.255  1.00  0.00     0.031 A 
ATOM     49  C   UNL A   1      48.038  27.340  29.018  1.00  0.00     0.049 A 
ATOM     50  C   UNL A   1      42.372  27.999  29.911  1.00  0.00     0.074 A 
ATOM     51  C   UNL A   1      48.554  26.231  29.661  1.00  0.00     0.029 A 
ATOM     52  N   UNL A   1      47.228  27.960  29.940  1.00  0.00    -0.354 N 
ATOM     53  N   UNL A   1      42.991  27.557  30.968  1.00  0.00    -0.248 NA
ATOM     54  C   UNL A   1      43.110  28.968  29.115  1.00  0.00     0.031 C 
ATOM     55  C   UNL A   1      47.628  25.962  30.712  1.00  0.00     0.029 A 
ATOM     56  C   UNL A   1      46.663  26.971  30.703  1.00  0.00     0.049 A 
ATOM     57  H   UNL A   1      47.082  28.930  30.036  1.00  0.00     0.167 HD
ATOM     58  C   UNL A   1      44.332  27.828  30.730  1.00  0.00     0.074 A 
ATOM     59  C   UNL A   1      44.334  28.782  29.620  1.00  0.00     0.031 C 
ATOM     60  C   UNL A   1      45.322  27.036  31.241  1.00  0.00     0.031 A 
BRANCH  47  61
ATOM     61  C   UNL A   1      48.092  29.163  27.199  1.00  0.00    -0.014 A 
ATOM     62  C   UNL A   1      49.389  29.708  27.243  1.00  0.00     0.009 A 
ATOM     63  C   UNL A   1      47.031  30.071  27.028  1.00  0.00     0.009 A 
ATOM     64  C   UNL A   1      49.599  31.092  27.208  1.00  0.00     0.001 A 
ATOM     65  C   UNL A   1      47.240  31.450  26.947  1.00  0.00     0.001 A 
ATOM     66  C   UNL A   1      48.523  31.962  27.069  1.00  0.00     0.000 A 
ENDBRANCH  47  61
BRANCH  48  67
ATOM     67  C   UNL A   1      39.942  27.886  28.983  1.00  0.00    -0.014 A 
ATOM     68  C   UNL A   1      39.002  28.056  30.011  1.00  0.00     0.009 A 
ATOM     69  C   UNL A   1      39.701  28.550  27.765  1.00  0.00     0.009 A 
ATOM     70  C   UNL A   1      37.886  28.888  29.839  1.00  0.00     0.001 A 
ATOM     71  C   UNL A   1      38.585  29.376  27.590  1.00  0.00     0.001 A 
ATOM     72  C   UNL A   1      37.686  29.558  28.634  1.00  0.00     0.000 A 
ENDBRANCH  48  67
BRANCH  60  73
ATOM     73  C   UNL A   1      44.953  25.970  32.246  1.00  0.00    -0.014 A 
ATOM     74  C   UNL A   1      44.514  24.683  31.882  1.00  0.00     0.009 A 
ATOM     75  C   UNL A   1      45.224  26.215  33.600  1.00  0.00     0.009 A 
ATOM     76  C   UNL A   1      44.324  23.688  32.848  1.00  0.00     0.001 A 
ATOM     77  C   UNL A   1      45.057  25.216  34.562  1.00  0.00     0.001 A 
ATOM     78  C   UNL A   1      44.601  23.955  34.186  1.00  0.00     0.000 A 
ENDBRANCH  60  73
ENDBRANCH  34  35
ENDBRANCH  26  29
ENDBRANCH  24  25
ENDBRANCH  23  24
ENDBRANCH  22  23
ENDBRANCH   1  22
TORSDOF 16
ENDMDL
MODEL 2
REMARK VINA RESULT:     -10.2      1.044      2.188
REMARK SMILES Cc1cnn(-c2ccccc2OCC(=O)NCCCCCCNC(=O)c2ccc(-c3c4nc(c(-c5ccccc5)c5ccc([nH]5)c(-c5ccccc5)c5nc(c(-c6ccccc6)c6ccc3[nH]6)C=C5)C=C4)cc2)c1
REMARK SMILES IDX 19 1 18 2 17 3 16 4 14 5 15 6 13 8 12 9 11 10 6 11 7 12 8 13
REMARK SMILES IDX 10 14 9 15 5 16 1 17 2 18 3 19 74 20 4 21 20 22 21 23 22 24
REMARK SMILES IDX 23 25 24 26 25 28 26 29 27 30 73 31 28 32 72 33 29 34 30 35
REMARK SMILES IDX 31 36 66 37 32 38 71 39 65 40 67 41 33 42 70 43 64 44 63 45
REMARK SMILES IDX 34 47 56 48 41 49 55 50 42 51 45 52 54 53 68 54 43 55 44 56
REMARK SMILES IDX 53 58 69 59 46 60 35 61 36 62 40 63 37 64 39 65 38 66 57 67
REMARK SMILES IDX 58 68 62 69 59 70 61 71 60 72 47 73 48 74 52 75 49 76 51 77
REMARK SMILES IDX 50 78
REMARK H PARENT 16 7 23 27 67 46 45 57
REMARK Flexibility Score: inf
ROOT
ATOM      1  C   UNL A   1      40.835  21.086  27.300  1.00  0.00     0.002 C 
ENDROOT
BRANCH   1   2
ATOM      2  C   UNL A   1      40.236  21.481  25.945  1.00  0.00     0.021 C 
BRANCH   2   3
ATOM      3  C   UNL A   1      38.757  21.173  25.739  1.00  0.00     0.116 C 
BRANCH   3   4
ATOM      4  N   UNL A   1      38.031  22.210  25.042  1.00  0.00    -0.353 N 
ATOM      5  C   UNL A   1      36.849  22.768  25.430  1.00  0.00     0.257 C 
ATOM      6  O   UNL A   1      36.678  23.967  25.194  1.00  0.00    -0.271 OA
ATOM      7  H   UNL A   1      38.428  22.546  24.206  1.00  0.00     0.163 HD
BRANCH   5   8
ATOM      8  C   UNL A   1      35.792  21.928  26.160  1.00  0.00     0.329 C 
BRANCH   8   9
ATOM      9  O   UNL A   1      34.444  22.328  26.052  1.00  0.00    -0.482 OA
BRANCH   9  10
ATOM     10  C   UNL A   1      33.673  22.231  24.936  1.00  0.00     0.145 A 
ATOM     11  C   UNL A   1      32.983  23.179  24.173  1.00  0.00     0.107 A 
ATOM     12  C   UNL A   1      32.164  22.778  23.097  1.00  0.00     0.032 A 
ATOM     13  C   UNL A   1      32.050  21.432  22.755  1.00  0.00     0.003 A 
ATOM     14  C   UNL A   1      33.520  20.878  24.578  1.00  0.00     0.049 A 
ATOM     15  C   UNL A   1      32.726  20.477  23.501  1.00  0.00     0.004 A 
BRANCH  11  16
ATOM     16  N   UNL A   1      32.996  24.555  24.440  1.00  0.00    -0.237 N 
ATOM     17  C   UNL A   1      33.984  28.024  23.918  1.00  0.00     0.048 C 
ATOM     18  C   UNL A   1      33.432  26.711  24.322  1.00  0.00    -0.013 A 
ATOM     19  C   UNL A   1      32.941  26.328  25.589  1.00  0.00     0.139 A 
ATOM     20  C   UNL A   1      33.316  25.562  23.566  1.00  0.00     0.118 A 
ATOM     21  N   UNL A   1      32.600  25.038  25.639  1.00  0.00    -0.176 NA
ENDBRANCH  11  16
ENDBRANCH   9  10
ENDBRANCH   8   9
ENDBRANCH   5   8
ENDBRANCH   3   4
ENDBRANCH   2   3
ENDBRANCH   1   2
BRANCH   1  22
ATOM     22  C   UNL A   1      41.696  19.816  27.360  1.00  0.00     0.002 C 
BRANCH  22  23
ATOM     23  C   UNL A   1      42.227  19.249  26.039  1.00  0.00     0.021 C 
BRANCH  23  24
ATOM     24  C   UNL A   1      43.635  18.685  26.107  1.00  0.00     0.116 C 
BRANCH  24  25
ATOM     25  N   UNL A   1      44.327  18.712  24.820  1.00  0.00    -0.352 N 
ATOM     26  C   UNL A   1      44.568  19.810  24.012  1.00  0.00     0.251 C 
ATOM     27  H   UNL A   1      44.661  17.846  24.489  1.00  0.00     0.163 HD
ATOM     28  O   UNL A   1      44.796  19.689  22.822  1.00  0.00    -0.269 OA
BRANCH  26  29
ATOM     29  C   UNL A   1      44.551  21.143  24.639  1.00  0.00     0.039 A 
ATOM     30  C   UNL A   1      43.560  22.084  24.346  1.00  0.00     0.014 A 
ATOM     31  C   UNL A   1      45.544  21.417  25.573  1.00  0.00     0.014 A 
ATOM     32  C   UNL A   1      43.538  23.278  25.064  1.00  0.00     0.010 A 
ATOM     33  C   UNL A   1      45.412  22.497  26.400  1.00  0.00     0.010 A 
ATOM     34  C   UNL A   1      44.463  23.468  26.103  1.00  0.00    -0.014 A 
BRANCH  34  35
ATOM     35  C   UNL A   1      44.414  24.646  26.957  1.00  0.00     0.031 A 
ATOM     36  C   UNL A   1      45.494  25.643  26.728  1.00  0.00     0.074 A 
ATOM     37  C   UNL A   1      43.333  24.937  27.714  1.00  0.00     0.049 A 
ATOM     38  N   UNL A   1      46.412  26.013  27.558  1.00  0.00    -0.248 NA
ATOM     39  C   UNL A   1      45.638  26.224  25.383  1.00  0.00     0.031 C 
ATOM     40  C   UNL A   1      42.045  24.232  27.777  1.00  0.00     0.029 A 
ATOM     41  N   UNL A   1      43.103  26.035  28.479  1.00  0.00    -0.354 N 
ATOM     42  C   UNL A   1      47.138  27.011  26.913  1.00  0.00     0.074 A 
ATOM     43  C   UNL A   1      46.729  26.978  25.532  1.00  0.00     0.031 C 
ATOM     44  C   UNL A   1      41.108  25.054  28.296  1.00  0.00     0.029 A 
ATOM     45  C   UNL A   1      41.761  26.263  28.761  1.00  0.00     0.049 A 
ATOM     46  H   UNL A   1      43.824  26.619  28.806  1.00  0.00     0.167 HD
ATOM     47  C   UNL A   1      47.839  27.945  27.615  1.00  0.00     0.031 A 
ATOM     48  C   UNL A   1      41.226  27.392  29.286  1.00  0.00     0.031 A 
ATOM     49  C   UNL A   1      48.000  27.565  28.996  1.00  0.00     0.049 A 
ATOM     50  C   UNL A   1      42.331  28.144  29.929  1.00  0.00     0.074 A 
ATOM     51  C   UNL A   1      48.537  26.468  29.642  1.00  0.00     0.029 A 
ATOM     52  N   UNL A   1      47.187  28.179  29.921  1.00  0.00    -0.354 N 
ATOM     53  N   UNL A   1      42.965  27.718  30.984  1.00  0.00    -0.248 NA
ATOM     54  C   UNL A   1      43.049  29.119  29.121  1.00  0.00     0.031 C 
ATOM     55  C   UNL A   1      47.623  26.192  30.702  1.00  0.00     0.029 A 
ATOM     56  C   UNL A   1      46.643  27.187  30.694  1.00  0.00     0.049 A 
ATOM     57  H   UNL A   1      47.027  29.147  30.011  1.00  0.00     0.167 HD
ATOM     58  C   UNL A   1      44.299  28.008  30.733  1.00  0.00     0.074 A 
ATOM     59  C   UNL A   1      44.279  28.955  29.617  1.00  0.00     0.031 C 
ATOM     60  C   UNL A   1      45.306  27.234  31.242  1.00  0.00     0.031 A 
BRANCH  47  61
ATOM     61  C   UNL A   1      48.011  29.376  27.165  1.00  0.00    -0.014 A 
ATOM     62  C   UNL A   1      49.289  29.961  27.253  1.00  0.00     0.009 A 
ATOM     63  C   UNL A   1      46.932  30.250  26.941  1.00  0.00     0.009 A 
ATOM     64  C   UNL A   1      49.460  31.350  27.208  1.00  0.00     0.001 A 
ATOM     65  C   UNL A   1      47.104  31.634  26.850  1.00  0.00     0.001 A 
ATOM     66  C   UNL A   1      48.365  32.186  27.015  1.00  0.00     0.000 A 
ENDBRANCH  47  61
BRANCH  48  67
ATOM     67  C   UNL A   1      39.897  27.988  29.021  1.00  0.00    -0.014 A 
ATOM     68  C   UNL A   1      38.937  28.090  30.040  1.00  0.00     0.009 A 
ATOM     69  C   UNL A   1      39.656  28.699  27.829  1.00  0.00     0.009 A 
ATOM     70  C   UNL A   1      37.803  28.900  29.887  1.00  0.00     0.001 A 
ATOM     71  C   UNL A   1      38.522  29.503  27.672  1.00  0.00     0.001 A 
ATOM     72  C   UNL A   1      37.603  29.617  28.709  1.00  0.00     0.000 A 
ENDBRANCH  48  67
BRANCH  60  73
ATOM     73  C   UNL A   1      44.960  26.169  32.256  1.00  0.00    -0.014 A 
ATOM     74  C   UNL A   1      44.586  24.860  31.905  1.00  0.00     0.009 A 
ATOM     75  C   UNL A   1      45.190  26.448  33.612  1.00  0.00     0.009 A 
ATOM     76  C   UNL A   1      44.417  23.873  32.884  1.00  0.00     0.001 A 
ATOM     77  C   UNL A   1      45.045  25.458  34.587  1.00  0.00     0.001 A 
ATOM     78  C   UNL A   1      44.652  24.172  34.223  1.00  0.00     0.000 A 
ENDBRANCH  60  73
ENDBRANCH  34  35
ENDBRANCH  26  29
ENDBRANCH  24  25
ENDBRANCH  23  24
ENDBRANCH  22  23
ENDBRANCH   1  22
TORSDOF 16
ENDMDL
MODEL 3
REMARK VINA RESULT:     -10.2      2.869      8.457
REMARK SMILES Cc1cnn(-c2ccccc2OCC(=O)NCCCCCCNC(=O)c2ccc(-c3c4nc(c(-c5ccccc5)c5ccc([nH]5)c(-c5ccccc5)c5nc(c(-c6ccccc6)c6ccc3[nH]6)C=C5)C=C4)cc2)c1
REMARK SMILES IDX 19 1 18 2 17 3 16 4 14 5 15 6 13 8 12 9 11 10 6 11 7 12 8 13
REMARK SMILES IDX 10 14 9 15 5 16 1 17 2 18 3 19 74 20 4 21 20 22 21 23 22 24
REMARK SMILES IDX 23 25 24 26 25 28 26 29 27 30 73 31 28 32 72 33 29 34 30 35
REMARK SMILES IDX 31 36 66 37 32 38 71 39 65 40 67 41 33 42 70 43 64 44 63 45
REMARK SMILES IDX 34 47 56 48 41 49 55 50 42 51 45 52 54 53 68 54 43 55 44 56
REMARK SMILES IDX 53 58 69 59 46 60 35 61 36 62 40 63 37 64 39 65 38 66 57 67
REMARK SMILES IDX 58 68 62 69 59 70 61 71 60 72 47 73 48 74 52 75 49 76 51 77
REMARK SMILES IDX 50 78
REMARK H PARENT 16 7 23 27 67 46 45 57
REMARK Flexibility Score: inf
ROOT
ATOM      1  C   UNL A   1      32.077  27.960  27.349  1.00  0.00     0.002 C 
ENDROOT
BRANCH   1   2
ATOM      2  C   UNL A   1      31.340  27.416  26.119  1.00  0.00     0.021 C 
BRANCH   2   3
ATOM      3  C   UNL A   1      31.848  26.095  25.551  1.00  0.00     0.116 C 
BRANCH   3   4
ATOM      4  N   UNL A   1      30.985  24.968  25.821  1.00  0.00    -0.353 N 
ATOM      5  C   UNL A   1      31.282  23.893  26.606  1.00  0.00     0.257 C 
ATOM      6  O   UNL A   1      30.364  23.394  27.262  1.00  0.00    -0.271 OA
ATOM      7  H   UNL A   1      30.096  24.977  25.396  1.00  0.00     0.163 HD
BRANCH   5   8
ATOM      8  C   UNL A   1      32.718  23.356  26.682  1.00  0.00     0.329 C 
BRANCH   8   9
ATOM      9  O   UNL A   1      33.268  22.784  25.516  1.00  0.00    -0.482 OA
BRANCH   9  10
ATOM     10  C   UNL A   1      34.557  22.382  25.359  1.00  0.00     0.145 A 
ATOM     11  C   UNL A   1      35.135  21.154  25.021  1.00  0.00     0.107 A 
ATOM     12  C   UNL A   1      36.537  20.992  25.026  1.00  0.00     0.032 A 
ATOM     13  C   UNL A   1      37.373  22.062  25.337  1.00  0.00     0.003 A 
ATOM     14  C   UNL A   1      35.430  23.437  25.689  1.00  0.00     0.049 A 
ATOM     15  C   UNL A   1      36.818  23.288  25.675  1.00  0.00     0.004 A 
BRANCH  11  16
ATOM     16  N   UNL A   1      34.397  20.000  24.720  1.00  0.00    -0.237 N 
ATOM     17  C   UNL A   1      33.921  16.574  23.577  1.00  0.00     0.048 C 
ATOM     18  C   UNL A   1      33.856  17.961  24.088  1.00  0.00    -0.013 A 
ATOM     19  C   UNL A   1      32.752  18.841  24.075  1.00  0.00     0.139 A 
ATOM     20  C   UNL A   1      34.867  18.715  24.648  1.00  0.00     0.118 A 
ATOM     21  N   UNL A   1      33.059  20.057  24.535  1.00  0.00    -0.176 NA
ENDBRANCH  11  16
ENDBRANCH   9  10
ENDBRANCH   8   9
ENDBRANCH   5   8
ENDBRANCH   3   4
ENDBRANCH   2   3
ENDBRANCH   1   2
BRANCH   1  22
ATOM     22  C   UNL A   1      33.239  28.936  27.113  1.00  0.00     0.002 C 
BRANCH  22  23
ATOM     23  C   UNL A   1      32.955  30.435  27.259  1.00  0.00     0.021 C 
BRANCH  23  24
ATOM     24  C   UNL A   1      34.185  31.300  27.461  1.00  0.00     0.116 C 
BRANCH  24  25
ATOM     25  N   UNL A   1      34.133  32.099  28.683  1.00  0.00    -0.352 N 
ATOM     26  C   UNL A   1      34.927  31.973  29.811  1.00  0.00     0.251 C 
ATOM     27  H   UNL A   1      33.451  32.810  28.709  1.00  0.00     0.163 HD
ATOM     28  O   UNL A   1      34.572  32.403  30.893  1.00  0.00    -0.269 OA
BRANCH  26  29
ATOM     29  C   UNL A   1      36.232  31.306  29.662  1.00  0.00     0.039 A 
ATOM     30  C   UNL A   1      37.418  32.030  29.517  1.00  0.00     0.014 A 
ATOM     31  C   UNL A   1      36.244  29.916  29.712  1.00  0.00     0.014 A 
ATOM     32  C   UNL A   1      38.627  31.337  29.501  1.00  0.00     0.010 A 
ATOM     33  C   UNL A   1      37.429  29.258  29.882  1.00  0.00     0.010 A 
ATOM     34  C   UNL A   1      38.621  29.948  29.700  1.00  0.00    -0.014 A 
BRANCH  34  35
ATOM     35  C   UNL A   1      39.861  29.191  29.804  1.00  0.00     0.031 A 
ATOM     36  C   UNL A   1      40.314  28.900  31.191  1.00  0.00     0.074 A 
ATOM     37  C   UNL A   1      40.417  28.578  28.736  1.00  0.00     0.049 A 
ATOM     38  N   UNL A   1      41.398  29.302  31.765  1.00  0.00    -0.248 NA
ATOM     39  C   UNL A   1      39.406  28.160  32.084  1.00  0.00     0.031 C 
ATOM     40  C   UNL A   1      39.897  28.481  27.365  1.00  0.00     0.029 A 
ATOM     41  N   UNL A   1      41.505  27.766  28.694  1.00  0.00    -0.354 N 
ATOM     42  C   UNL A   1      41.409  28.715  33.028  1.00  0.00     0.074 A 
ATOM     43  C   UNL A   1      40.091  28.168  33.229  1.00  0.00     0.031 C 
ATOM     44  C   UNL A   1      40.500  27.453  26.728  1.00  0.00     0.029 A 
ATOM     45  C   UNL A   1      41.561  26.944  27.576  1.00  0.00     0.049 A 
ATOM     46  H   UNL A   1      42.195  27.762  29.396  1.00  0.00     0.167 HD
ATOM     47  C   UNL A   1      42.573  28.514  33.707  1.00  0.00     0.031 A 
ATOM     48  C   UNL A   1      42.385  25.884  27.393  1.00  0.00     0.031 A 
ATOM     49  C   UNL A   1      43.663  29.263  33.132  1.00  0.00     0.049 A 
ATOM     50  C   UNL A   1      43.507  26.028  28.352  1.00  0.00     0.074 A 
ATOM     51  C   UNL A   1      43.883  30.600  32.865  1.00  0.00     0.029 A 
ATOM     52  N   UNL A   1      44.561  28.574  32.351  1.00  0.00    -0.354 N 
ATOM     53  N   UNL A   1      44.392  26.981  28.277  1.00  0.00    -0.248 NA
ATOM     54  C   UNL A   1      43.363  25.413  29.663  1.00  0.00     0.031 C 
ATOM     55  C   UNL A   1      44.502  30.612  31.579  1.00  0.00     0.029 A 
ATOM     56  C   UNL A   1      44.705  29.287  31.189  1.00  0.00     0.049 A 
ATOM     57  H   UNL A   1      45.015  27.731  32.582  1.00  0.00     0.167 HD
ATOM     58  C   UNL A   1      44.582  27.390  29.589  1.00  0.00     0.074 A 
ATOM     59  C   UNL A   1      43.995  26.326  30.406  1.00  0.00     0.031 C 
ATOM     60  C   UNL A   1      44.919  28.680  29.893  1.00  0.00     0.031 A 
BRANCH  47  61
ATOM     61  C   UNL A   1      42.820  27.334  34.617  1.00  0.00    -0.014 A 
ATOM     62  C   UNL A   1      43.477  26.205  34.092  1.00  0.00     0.009 A 
ATOM     63  C   UNL A   1      42.183  27.172  35.860  1.00  0.00     0.009 A 
ATOM     64  C   UNL A   1      43.420  24.964  34.737  1.00  0.00     0.001 A 
ATOM     65  C   UNL A   1      42.162  25.945  36.529  1.00  0.00     0.001 A 
ATOM     66  C   UNL A   1      42.754  24.833  35.951  1.00  0.00     0.000 A 
ENDBRANCH  47  61
BRANCH  48  67
ATOM     67  C   UNL A   1      42.118  24.628  26.653  1.00  0.00    -0.014 A 
ATOM     68  C   UNL A   1      43.053  24.117  25.741  1.00  0.00     0.009 A 
ATOM     69  C   UNL A   1      41.055  23.787  27.034  1.00  0.00     0.009 A 
ATOM     70  C   UNL A   1      42.950  22.805  25.259  1.00  0.00     0.001 A 
ATOM     71  C   UNL A   1      40.947  22.479  26.550  1.00  0.00     0.001 A 
ATOM     72  C   UNL A   1      41.905  21.982  25.674  1.00  0.00     0.000 A 
ENDBRANCH  48  67
BRANCH  60  73
ATOM     73  C   UNL A   1      45.287  29.619  28.768  1.00  0.00    -0.014 A 
ATOM     74  C   UNL A   1      46.606  29.800  28.314  1.00  0.00     0.009 A 
ATOM     75  C   UNL A   1      44.249  30.205  28.029  1.00  0.00     0.009 A 
ATOM     76  C   UNL A   1      46.875  30.569  27.176  1.00  0.00     0.001 A 
ATOM     77  C   UNL A   1      44.515  30.954  26.880  1.00  0.00     0.001 A 
ATOM     78  C   UNL A   1      45.828  31.141  26.457  1.00  0.00     0.000 A 
ENDBRANCH  60  73
ENDBRANCH  34  35
ENDBRANCH  26  29
ENDBRANCH  24  25
ENDBRANCH  23  24
ENDBRANCH  22  23
ENDBRANCH   1  22
TORSDOF 16
ENDMDL
