MODEL 1
REMARK VINA RESULT:     -11.4      0.000      0.000
REMARK SMILES C[C@@H]1CCC/C(=C\Nc2ccc(C(=O)NCCCCCCNC(=O)c3ccc(-c4c5nc(c(-c6ccccc6)c6ccc([nH]6)c(-c6ccccc6)c6nc(c(-c7ccccc7)c7ccc4[nH]7)C=C6)C=C5)cc3)c(O)c2)C1=O
REMARK SMILES IDX 18 1 17 2 16 3 15 4 13 5 14 6 12 8 9 9 10 10 75 11 11 12
REMARK SMILES IDX 73 13 8 14 7 16 1 17 2 18 3 19 76 20 4 21 6 22 77 23 5 24
REMARK SMILES IDX 74 25 19 27 20 28 21 29 22 30 23 31 24 33 25 34 26 35 72 36
REMARK SMILES IDX 27 37 71 38 28 39 29 40 30 41 65 42 31 43 70 44 64 45 66 46
REMARK SMILES IDX 32 47 69 48 63 49 62 50 33 52 55 53 40 54 54 55 41 56 44 57
REMARK SMILES IDX 53 58 67 59 42 60 43 61 52 63 68 64 45 65 34 66 35 67 39 68
REMARK SMILES IDX 36 69 38 70 37 71 56 72 57 73 61 74 58 75 60 76 59 77 46 78
REMARK SMILES IDX 47 79 51 80 48 81 50 82 49 83
REMARK H PARENT 15 7 8 15 74 26 22 32 66 51 44 62
REMARK Flexibility Score: inf
ROOT
ATOM      1  C   UNL A   1      34.216  26.051  25.867  1.00  0.00     0.002 C 
ENDROOT
BRANCH   1   2
ATOM      2  C   UNL A   1      33.663  27.176  24.986  1.00  0.00     0.021 C 
BRANCH   2   3
ATOM      3  C   UNL A   1      32.177  27.496  25.139  1.00  0.00     0.116 C 
BRANCH   3   4
ATOM      4  N   UNL A   1      31.502  27.800  23.888  1.00  0.00    -0.352 N 
ATOM      5  C   UNL A   1      31.226  26.973  22.826  1.00  0.00     0.255 C 
ATOM      6  O   UNL A   1      30.684  27.434  21.823  1.00  0.00    -0.269 OA
ATOM      7  H   UNL A   1      31.201  28.732  23.787  1.00  0.00     0.163 HD
BRANCH   5   8
ATOM      8  C   UNL A   1      31.595  25.539  22.860  1.00  0.00     0.081 A 
ATOM      9  C   UNL A   1      32.068  22.750  22.919  1.00  0.00     0.042 A 
ATOM     10  C   UNL A   1      31.107  23.332  23.753  1.00  0.00     0.027 A 
ATOM     11  C   UNL A   1      32.829  23.600  22.101  1.00  0.00     0.073 A 
ATOM     12  C   UNL A   1      30.869  24.712  23.724  1.00  0.00     0.020 A 
ATOM     13  C   UNL A   1      32.623  24.980  22.100  1.00  0.00     0.130 A 
BRANCH   9  14
ATOM     14  N   UNL A   1      32.313  21.368  22.850  1.00  0.00    -0.361 N 
ATOM     15  H   UNL A   1      32.276  20.978  21.946  1.00  0.00     0.166 HD
BRANCH  14  16
ATOM     16  C   UNL A   1      32.595  20.485  23.860  1.00  0.00     0.090 C 
ATOM     17  C   UNL A   1      35.436  17.972  24.811  1.00  0.00     0.016 C 
ATOM     18  C   UNL A   1      34.054  17.324  24.842  1.00  0.00     0.058 C 
ATOM     19  C   UNL A   1      33.767  16.479  23.592  1.00  0.00     0.012 C 
ATOM     20  C   UNL A   1      33.005  18.409  25.028  1.00  0.00     0.163 C 
ATOM     21  C   UNL A   1      33.460  17.315  22.349  1.00  0.00     0.006 C 
ATOM     22  C   UNL A   1      32.590  19.146  23.797  1.00  0.00     0.011 C 
ATOM     23  O   UNL A   1      32.586  18.731  26.137  1.00  0.00    -0.294 OA
ATOM     24  C   UNL A   1      32.309  18.286  22.604  1.00  0.00     0.041 C 
ENDBRANCH  14  16
ENDBRANCH   9  14
BRANCH  13  25
ATOM     25  O   UNL A   1      33.500  25.712  21.349  1.00  0.00    -0.507 OA
ATOM     26  H   UNL A   1      34.414  25.502  21.359  1.00  0.00     0.293 HD
ENDBRANCH  13  25
ENDBRANCH   5   8
ENDBRANCH   3   4
ENDBRANCH   2   3
ENDBRANCH   1   2
BRANCH   1  27
ATOM     27  C   UNL A   1      34.548  24.723  25.180  1.00  0.00     0.002 C 
BRANCH  27  28
ATOM     28  C   UNL A   1      35.708  23.911  25.760  1.00  0.00     0.021 C 
BRANCH  28  29
ATOM     29  C   UNL A   1      36.928  23.735  24.864  1.00  0.00     0.116 C 
BRANCH  29  30
ATOM     30  N   UNL A   1      37.837  22.705  25.327  1.00  0.00    -0.352 N 
ATOM     31  C   UNL A   1      38.940  22.797  26.136  1.00  0.00     0.251 C 
ATOM     32  H   UNL A   1      37.630  21.796  25.010  1.00  0.00     0.163 HD
ATOM     33  O   UNL A   1      39.632  21.796  26.326  1.00  0.00    -0.269 OA
BRANCH  31  34
ATOM     34  C   UNL A   1      39.331  24.080  26.769  1.00  0.00     0.039 A 
ATOM     35  C   UNL A   1      40.080  24.986  26.011  1.00  0.00     0.014 A 
ATOM     36  C   UNL A   1      39.028  24.381  28.100  1.00  0.00     0.014 A 
ATOM     37  C   UNL A   1      40.494  26.198  26.571  1.00  0.00     0.010 A 
ATOM     38  C   UNL A   1      39.378  25.622  28.636  1.00  0.00     0.010 A 
ATOM     39  C   UNL A   1      40.133  26.534  27.884  1.00  0.00    -0.014 A 
BRANCH  39  40
ATOM     40  C   UNL A   1      40.577  27.820  28.485  1.00  0.00     0.031 A 
ATOM     41  C   UNL A   1      39.591  28.937  28.707  1.00  0.00     0.074 A 
ATOM     42  C   UNL A   1      41.870  27.992  28.819  1.00  0.00     0.049 A 
ATOM     43  N   UNL A   1      39.787  30.116  29.244  1.00  0.00    -0.248 NA
ATOM     44  C   UNL A   1      38.211  28.711  28.249  1.00  0.00     0.031 C 
ATOM     45  C   UNL A   1      42.937  27.008  28.623  1.00  0.00     0.029 A 
ATOM     46  N   UNL A   1      42.507  29.059  29.405  1.00  0.00    -0.354 N 
ATOM     47  C   UNL A   1      38.564  30.774  29.170  1.00  0.00     0.074 A 
ATOM     48  C   UNL A   1      37.645  29.883  28.496  1.00  0.00     0.031 C 
ATOM     49  C   UNL A   1      44.085  27.499  29.117  1.00  0.00     0.029 A 
ATOM     50  C   UNL A   1      43.845  28.843  29.635  1.00  0.00     0.049 A 
ATOM     51  H   UNL A   1      42.049  29.899  29.638  1.00  0.00     0.167 HD
ATOM     52  C   UNL A   1      38.227  31.999  29.640  1.00  0.00     0.031 A 
ATOM     53  C   UNL A   1      44.771  29.633  30.208  1.00  0.00     0.031 A 
ATOM     54  C   UNL A   1      39.129  32.877  30.335  1.00  0.00     0.049 A 
ATOM     55  C   UNL A   1      44.370  30.989  30.722  1.00  0.00     0.074 A 
ATOM     56  C   UNL A   1      38.860  34.105  30.915  1.00  0.00     0.029 A 
ATOM     57  N   UNL A   1      40.475  32.622  30.542  1.00  0.00    -0.354 N 
ATOM     58  N   UNL A   1      43.188  31.557  30.722  1.00  0.00    -0.248 NA
ATOM     59  C   UNL A   1      45.432  31.806  31.327  1.00  0.00     0.031 C 
ATOM     60  C   UNL A   1      40.056  34.616  31.431  1.00  0.00     0.029 A 
ATOM     61  C   UNL A   1      41.057  33.683  31.215  1.00  0.00     0.049 A 
ATOM     62  H   UNL A   1      40.947  31.808  30.253  1.00  0.00     0.167 HD
ATOM     63  C   UNL A   1      43.360  32.783  31.351  1.00  0.00     0.074 A 
ATOM     64  C   UNL A   1      44.753  32.868  31.736  1.00  0.00     0.031 C 
ATOM     65  C   UNL A   1      42.444  33.753  31.590  1.00  0.00     0.031 A 
BRANCH  52  66
ATOM     66  C   UNL A   1      36.817  32.466  29.412  1.00  0.00    -0.014 A 
ATOM     67  C   UNL A   1      35.823  32.283  30.386  1.00  0.00     0.009 A 
ATOM     68  C   UNL A   1      36.488  33.139  28.225  1.00  0.00     0.009 A 
ATOM     69  C   UNL A   1      34.519  32.734  30.161  1.00  0.00     0.001 A 
ATOM     70  C   UNL A   1      35.192  33.613  28.014  1.00  0.00     0.001 A 
ATOM     71  C   UNL A   1      34.206  33.403  28.977  1.00  0.00     0.000 A 
ENDBRANCH  52  66
BRANCH  53  72
ATOM     72  C   UNL A   1      46.173  29.161  30.359  1.00  0.00    -0.014 A 
ATOM     73  C   UNL A   1      47.111  29.385  29.338  1.00  0.00     0.009 A 
ATOM     74  C   UNL A   1      46.574  28.460  31.506  1.00  0.00     0.009 A 
ATOM     75  C   UNL A   1      48.410  28.887  29.448  1.00  0.00     0.001 A 
ATOM     76  C   UNL A   1      47.882  27.988  31.626  1.00  0.00     0.001 A 
ATOM     77  C   UNL A   1      48.796  28.191  30.593  1.00  0.00     0.000 A 
ENDBRANCH  53  72
BRANCH  65  78
ATOM     78  C   UNL A   1      42.917  34.976  32.324  1.00  0.00    -0.014 A 
ATOM     79  C   UNL A   1      43.533  36.040  31.645  1.00  0.00     0.009 A 
ATOM     80  C   UNL A   1      42.720  35.075  33.710  1.00  0.00     0.009 A 
ATOM     81  C   UNL A   1      43.975  37.163  32.348  1.00  0.00     0.001 A 
ATOM     82  C   UNL A   1      43.136  36.212  34.404  1.00  0.00     0.001 A 
ATOM     83  C   UNL A   1      43.772  37.250  33.725  1.00  0.00     0.000 A 
ENDBRANCH  65  78
ENDBRANCH  39  40
ENDBRANCH  31  34
ENDBRANCH  29  30
ENDBRANCH  28  29
ENDBRANCH  27  28
ENDBRANCH   1  27
TORSDOF 16
ENDMDL
MODEL 2
REMARK VINA RESULT:     -11.3      3.056      7.097
REMARK SMILES C[C@@H]1CCC/C(=C\Nc2ccc(C(=O)NCCCCCCNC(=O)c3ccc(-c4c5nc(c(-c6ccccc6)c6ccc([nH]6)c(-c6ccccc6)c6nc(c(-c7ccccc7)c7ccc4[nH]7)C=C6)C=C5)cc3)c(O)c2)C1=O
REMARK SMILES IDX 18 1 17 2 16 3 15 4 13 5 14 6 12 8 9 9 10 10 75 11 11 12
REMARK SMILES IDX 73 13 8 14 7 16 1 17 2 18 3 19 76 20 4 21 6 22 77 23 5 24
REMARK SMILES IDX 74 25 19 27 20 28 21 29 22 30 23 31 24 33 25 34 26 35 72 36
REMARK SMILES IDX 27 37 71 38 28 39 29 40 30 41 65 42 31 43 70 44 64 45 66 46
REMARK SMILES IDX 32 47 69 48 63 49 62 50 33 52 55 53 40 54 54 55 41 56 44 57
REMARK SMILES IDX 53 58 67 59 42 60 43 61 52 63 68 64 45 65 34 66 35 67 39 68
REMARK SMILES IDX 36 69 38 70 37 71 56 72 57 73 61 74 58 75 60 76 59 77 46 78
REMARK SMILES IDX 47 79 51 80 48 81 50 82 49 83
REMARK H PARENT 15 7 8 15 74 26 22 32 66 51 44 62
REMARK Flexibility Score: inf
ROOT
ATOM      1  C   UNL A   1      32.495  30.117  26.431  1.00  0.00     0.002 C 
ENDROOT
BRANCH   1   2
ATOM      2  C   UNL A   1      32.710  28.919  25.499  1.00  0.00     0.021 C 
BRANCH   2   3
ATOM      3  C   UNL A   1      32.946  29.235  24.024  1.00  0.00     0.116 C 
BRANCH   3   4
ATOM      4  N   UNL A   1      31.729  29.348  23.238  1.00  0.00    -0.352 N 
ATOM      5  C   UNL A   1      31.042  28.372  22.556  1.00  0.00     0.255 C 
ATOM      6  O   UNL A   1      30.048  28.677  21.899  1.00  0.00    -0.269 OA
ATOM      7  H   UNL A   1      31.343  30.252  23.184  1.00  0.00     0.163 HD
BRANCH   5   8
ATOM      8  C   UNL A   1      31.495  26.962  22.579  1.00  0.00     0.081 A 
ATOM      9  C   UNL A   1      32.133  24.206  22.593  1.00  0.00     0.042 A 
ATOM     10  C   UNL A   1      31.068  24.699  23.355  1.00  0.00     0.027 A 
ATOM     11  C   UNL A   1      32.908  25.128  21.874  1.00  0.00     0.073 A 
ATOM     12  C   UNL A   1      30.748  26.063  23.348  1.00  0.00     0.020 A 
ATOM     13  C   UNL A   1      32.618  26.493  21.898  1.00  0.00     0.130 A 
BRANCH   9  14
ATOM     14  N   UNL A   1      32.468  22.844  22.504  1.00  0.00    -0.361 N 
ATOM     15  H   UNL A   1      32.276  22.419  21.636  1.00  0.00     0.166 HD
BRANCH  14  16
ATOM     16  C   UNL A   1      33.023  22.023  23.451  1.00  0.00     0.090 C 
ATOM     17  C   UNL A   1      34.289  22.287  27.141  1.00  0.00     0.016 C 
ATOM     18  C   UNL A   1      35.328  21.660  26.215  1.00  0.00     0.058 C 
ATOM     19  C   UNL A   1      36.426  22.650  25.800  1.00  0.00     0.012 C 
ATOM     20  C   UNL A   1      34.620  21.079  25.001  1.00  0.00     0.163 C 
ATOM     21  C   UNL A   1      35.965  23.670  24.759  1.00  0.00     0.006 C 
ATOM     22  C   UNL A   1      34.283  22.041  23.910  1.00  0.00     0.011 C 
ATOM     23  O   UNL A   1      34.258  19.907  24.953  1.00  0.00    -0.294 OA
ATOM     24  C   UNL A   1      35.383  22.982  23.526  1.00  0.00     0.041 C 
ENDBRANCH  14  16
ENDBRANCH   9  14
BRANCH  13  25
ATOM     25  O   UNL A   1      33.511  27.302  21.252  1.00  0.00    -0.507 OA
ATOM     26  H   UNL A   1      33.472  27.394  20.320  1.00  0.00     0.293 HD
ENDBRANCH  13  25
ENDBRANCH   5   8
ENDBRANCH   3   4
ENDBRANCH   2   3
ENDBRANCH   1   2
BRANCH   1  27
ATOM     27  C   UNL A   1      31.295  31.023  26.143  1.00  0.00     0.002 C 
BRANCH  27  28
ATOM     28  C   UNL A   1      31.416  32.491  26.558  1.00  0.00     0.021 C 
BRANCH  28  29
ATOM     29  C   UNL A   1      32.718  32.900  27.237  1.00  0.00     0.116 C 
BRANCH  29  30
ATOM     30  N   UNL A   1      32.642  34.189  27.895  1.00  0.00    -0.352 N 
ATOM     31  C   UNL A   1      33.406  34.712  28.907  1.00  0.00     0.251 C 
ATOM     32  H   UNL A   1      31.929  34.783  27.565  1.00  0.00     0.163 HD
ATOM     33  O   UNL A   1      33.103  35.804  29.387  1.00  0.00    -0.269 OA
BRANCH  31  34
ATOM     34  C   UNL A   1      34.576  33.981  29.451  1.00  0.00     0.039 A 
ATOM     35  C   UNL A   1      35.845  34.317  28.969  1.00  0.00     0.014 A 
ATOM     36  C   UNL A   1      34.444  32.940  30.375  1.00  0.00     0.014 A 
ATOM     37  C   UNL A   1      36.976  33.639  29.433  1.00  0.00     0.010 A 
ATOM     38  C   UNL A   1      35.579  32.312  30.892  1.00  0.00     0.010 A 
ATOM     39  C   UNL A   1      36.855  32.641  30.412  1.00  0.00    -0.014 A 
BRANCH  39  40
ATOM     40  C   UNL A   1      38.056  31.914  30.902  1.00  0.00     0.031 A 
ATOM     41  C   UNL A   1      38.644  32.239  32.250  1.00  0.00     0.074 A 
ATOM     42  C   UNL A   1      38.629  30.970  30.131  1.00  0.00     0.049 A 
ATOM     43  N   UNL A   1      39.669  31.692  32.857  1.00  0.00    -0.248 NA
ATOM     44  C   UNL A   1      38.016  33.333  33.007  1.00  0.00     0.031 C 
ATOM     45  C   UNL A   1      38.185  30.583  28.790  1.00  0.00     0.029 A 
ATOM     46  N   UNL A   1      39.708  30.154  30.371  1.00  0.00    -0.354 N 
ATOM     47  C   UNL A   1      39.816  32.386  34.053  1.00  0.00     0.074 A 
ATOM     48  C   UNL A   1      38.808  33.423  34.066  1.00  0.00     0.031 C 
ATOM     49  C   UNL A   1      38.957  29.578  28.344  1.00  0.00     0.029 A 
ATOM     50  C   UNL A   1      39.969  29.272  29.350  1.00  0.00     0.049 A 
ATOM     51  H   UNL A   1      40.243  30.197  31.196  1.00  0.00     0.167 HD
ATOM     52  C   UNL A   1      40.694  32.169  35.060  1.00  0.00     0.031 A 
ATOM     53  C   UNL A   1      40.911  28.316  29.242  1.00  0.00     0.031 A 
ATOM     54  C   UNL A   1      41.680  31.122  35.065  1.00  0.00     0.049 A 
ATOM     55  C   UNL A   1      41.874  28.095  30.376  1.00  0.00     0.074 A 
ATOM     56  C   UNL A   1      42.563  30.775  36.073  1.00  0.00     0.029 A 
ATOM     57  N   UNL A   1      41.914  30.255  34.010  1.00  0.00    -0.354 N 
ATOM     58  N   UNL A   1      41.940  28.704  31.535  1.00  0.00    -0.248 NA
ATOM     59  C   UNL A   1      42.884  27.045  30.188  1.00  0.00     0.031 C 
ATOM     60  C   UNL A   1      43.368  29.728  35.608  1.00  0.00     0.029 A 
ATOM     61  C   UNL A   1      42.949  29.393  34.331  1.00  0.00     0.049 A 
ATOM     62  H   UNL A   1      41.420  30.253  33.159  1.00  0.00     0.167 HD
ATOM     63  C   UNL A   1      42.978  28.091  32.224  1.00  0.00     0.074 A 
ATOM     64  C   UNL A   1      43.500  27.051  31.362  1.00  0.00     0.031 C 
ATOM     65  C   UNL A   1      43.457  28.364  33.462  1.00  0.00     0.031 A 
BRANCH  52  66
ATOM     66  C   UNL A   1      40.631  33.089  36.247  1.00  0.00    -0.014 A 
ATOM     67  C   UNL A   1      41.420  34.248  36.313  1.00  0.00     0.009 A 
ATOM     68  C   UNL A   1      39.738  32.815  37.295  1.00  0.00     0.009 A 
ATOM     69  C   UNL A   1      41.340  35.097  37.421  1.00  0.00     0.001 A 
ATOM     70  C   UNL A   1      39.641  33.678  38.388  1.00  0.00     0.001 A 
ATOM     71  C   UNL A   1      40.447  34.814  38.454  1.00  0.00     0.000 A 
ENDBRANCH  52  66
BRANCH  53  72
ATOM     72  C   UNL A   1      40.983  27.467  28.023  1.00  0.00    -0.014 A 
ATOM     73  C   UNL A   1      41.736  27.881  26.913  1.00  0.00     0.009 A 
ATOM     74  C   UNL A   1      40.278  26.257  27.951  1.00  0.00     0.009 A 
ATOM     75  C   UNL A   1      41.753  27.118  25.744  1.00  0.00     0.001 A 
ATOM     76  C   UNL A   1      40.320  25.481  26.791  1.00  0.00     0.001 A 
ATOM     77  C   UNL A   1      41.047  25.917  25.685  1.00  0.00     0.000 A 
ENDBRANCH  53  72
BRANCH  65  78
ATOM     78  C   UNL A   1      44.584  27.506  33.965  1.00  0.00    -0.014 A 
ATOM     79  C   UNL A   1      45.924  27.875  33.767  1.00  0.00     0.009 A 
ATOM     80  C   UNL A   1      44.298  26.327  34.670  1.00  0.00     0.009 A 
ATOM     81  C   UNL A   1      46.956  27.059  34.234  1.00  0.00     0.001 A 
ATOM     82  C   UNL A   1      45.333  25.528  35.160  1.00  0.00     0.001 A 
ATOM     83  C   UNL A   1      46.660  25.889  34.934  1.00  0.00     0.000 A 
ENDBRANCH  65  78
ENDBRANCH  39  40
ENDBRANCH  31  34
ENDBRANCH  29  30
ENDBRANCH  28  29
ENDBRANCH  27  28
ENDBRANCH   1  27
TORSDOF 16
ENDMDL
MODEL 3
REMARK VINA RESULT:     -11.2      2.568      7.001
REMARK SMILES C[C@@H]1CCC/C(=C\Nc2ccc(C(=O)NCCCCCCNC(=O)c3ccc(-c4c5nc(c(-c6ccccc6)c6ccc([nH]6)c(-c6ccccc6)c6nc(c(-c7ccccc7)c7ccc4[nH]7)C=C6)C=C5)cc3)c(O)c2)C1=O
REMARK SMILES IDX 18 1 17 2 16 3 15 4 13 5 14 6 12 8 9 9 10 10 75 11 11 12
REMARK SMILES IDX 73 13 8 14 7 16 1 17 2 18 3 19 76 20 4 21 6 22 77 23 5 24
REMARK SMILES IDX 74 25 19 27 20 28 21 29 22 30 23 31 24 33 25 34 26 35 72 36
REMARK SMILES IDX 27 37 71 38 28 39 29 40 30 41 65 42 31 43 70 44 64 45 66 46
REMARK SMILES IDX 32 47 69 48 63 49 62 50 33 52 55 53 40 54 54 55 41 56 44 57
REMARK SMILES IDX 53 58 67 59 42 60 43 61 52 63 68 64 45 65 34 66 35 67 39 68
REMARK SMILES IDX 36 69 38 70 37 71 56 72 57 73 61 74 58 75 60 76 59 77 46 78
REMARK SMILES IDX 47 79 51 80 48 81 50 82 49 83
REMARK H PARENT 15 7 8 15 74 26 22 32 66 51 44 62
REMARK Flexibility Score: inf
ROOT
ATOM      1  C   UNL A   1      33.956  27.890  23.883  1.00  0.00     0.002 C 
ENDROOT
BRANCH   1   2
ATOM      2  C   UNL A   1      33.322  29.224  23.476  1.00  0.00     0.021 C 
BRANCH   2   3
ATOM      3  C   UNL A   1      32.033  29.616  24.196  1.00  0.00     0.116 C 
BRANCH   3   4
ATOM      4  N   UNL A   1      30.868  29.691  23.330  1.00  0.00    -0.352 N 
ATOM      5  C   UNL A   1      30.079  28.675  22.845  1.00  0.00     0.255 C 
ATOM      6  O   UNL A   1      29.157  28.939  22.075  1.00  0.00    -0.269 OA
ATOM      7  H   UNL A   1      30.607  30.599  23.051  1.00  0.00     0.163 HD
BRANCH   5   8
ATOM      8  C   UNL A   1      30.341  27.265  23.211  1.00  0.00     0.081 A 
ATOM      9  C   UNL A   1      30.617  24.560  23.995  1.00  0.00     0.042 A 
ATOM     10  C   UNL A   1      30.045  25.502  24.858  1.00  0.00     0.027 A 
ATOM     11  C   UNL A   1      31.102  25.012  22.758  1.00  0.00     0.073 A 
ATOM     12  C   UNL A   1      29.904  26.841  24.472  1.00  0.00     0.020 A 
ATOM     13  C   UNL A   1      31.002  26.354  22.387  1.00  0.00     0.130 A 
BRANCH   9  14
ATOM     14  N   UNL A   1      30.729  23.191  24.292  1.00  0.00    -0.361 N 
ATOM     15  H   UNL A   1      29.996  22.626  23.956  1.00  0.00     0.166 HD
BRANCH  14  16
ATOM     16  C   UNL A   1      31.712  22.531  24.982  1.00  0.00     0.090 C 
ATOM     17  C   UNL A   1      35.254  23.307  26.445  1.00  0.00     0.016 C 
ATOM     18  C   UNL A   1      35.250  22.058  25.567  1.00  0.00     0.058 C 
ATOM     19  C   UNL A   1      35.808  22.321  24.161  1.00  0.00     0.012 C 
ATOM     20  C   UNL A   1      33.836  21.503  25.507  1.00  0.00     0.163 C 
ATOM     21  C   UNL A   1      34.841  23.085  23.256  1.00  0.00     0.006 C 
ATOM     22  C   UNL A   1      32.914  22.149  24.526  1.00  0.00     0.011 C 
ATOM     23  O   UNL A   1      33.439  20.636  26.281  1.00  0.00    -0.294 OA
ATOM     24  C   UNL A   1      33.490  22.378  23.164  1.00  0.00     0.041 C 
ENDBRANCH  14  16
ENDBRANCH   9  14
BRANCH  13  25
ATOM     25  O   UNL A   1      31.612  26.693  21.212  1.00  0.00    -0.507 OA
ATOM     26  H   UNL A   1      31.846  26.026  20.596  1.00  0.00     0.293 HD
ENDBRANCH  13  25
ENDBRANCH   5   8
ENDBRANCH   3   4
ENDBRANCH   2   3
ENDBRANCH   1   2
BRANCH   1  27
ATOM     27  C   UNL A   1      33.491  27.266  25.201  1.00  0.00     0.002 C 
BRANCH  27  28
ATOM     28  C   UNL A   1      34.194  27.731  26.478  1.00  0.00     0.021 C 
BRANCH  28  29
ATOM     29  C   UNL A   1      33.316  28.389  27.536  1.00  0.00     0.116 C 
BRANCH  29  30
ATOM     30  N   UNL A   1      33.353  29.837  27.492  1.00  0.00    -0.352 N 
ATOM     31  C   UNL A   1      34.369  30.706  27.794  1.00  0.00     0.251 C 
ATOM     32  H   UNL A   1      32.516  30.265  27.199  1.00  0.00     0.163 HD
ATOM     33  O   UNL A   1      34.150  31.917  27.779  1.00  0.00    -0.269 OA
BRANCH  31  34
ATOM     34  C   UNL A   1      35.721  30.219  28.163  1.00  0.00     0.039 A 
ATOM     35  C   UNL A   1      35.921  29.758  29.469  1.00  0.00     0.014 A 
ATOM     36  C   UNL A   1      36.799  30.259  27.274  1.00  0.00     0.014 A 
ATOM     37  C   UNL A   1      37.183  29.312  29.870  1.00  0.00     0.010 A 
ATOM     38  C   UNL A   1      38.041  29.746  27.653  1.00  0.00     0.010 A 
ATOM     39  C   UNL A   1      38.252  29.286  28.961  1.00  0.00    -0.014 A 
BRANCH  39  40
ATOM     40  C   UNL A   1      39.597  28.818  29.388  1.00  0.00     0.031 A 
ATOM     41  C   UNL A   1      40.125  27.489  28.915  1.00  0.00     0.074 A 
ATOM     42  C   UNL A   1      40.341  29.579  30.214  1.00  0.00     0.049 A 
ATOM     43  N   UNL A   1      41.284  26.928  29.158  1.00  0.00    -0.248 NA
ATOM     44  C   UNL A   1      39.231  26.674  28.078  1.00  0.00     0.031 C 
ATOM     45  C   UNL A   1      39.935  30.868  30.777  1.00  0.00     0.029 A 
ATOM     46  N   UNL A   1      41.603  29.381  30.716  1.00  0.00    -0.354 N 
ATOM     47  C   UNL A   1      41.248  25.692  28.521  1.00  0.00     0.074 A 
ATOM     48  C   UNL A   1      39.938  25.564  27.921  1.00  0.00     0.031 C 
ATOM     49  C   UNL A   1      40.943  31.364  31.513  1.00  0.00     0.029 A 
ATOM     50  C   UNL A   1      42.053  30.416  31.500  1.00  0.00     0.049 A 
ATOM     51  H   UNL A   1      42.136  28.573  30.532  1.00  0.00     0.167 HD
ATOM     52  C   UNL A   1      42.222  24.757  28.424  1.00  0.00     0.031 A 
ATOM     53  C   UNL A   1      43.231  30.588  32.129  1.00  0.00     0.031 A 
ATOM     54  C   UNL A   1      43.535  24.890  28.995  1.00  0.00     0.049 A 
ATOM     55  C   UNL A   1      44.296  29.533  32.004  1.00  0.00     0.074 A 
ATOM     56  C   UNL A   1      44.615  24.030  28.884  1.00  0.00     0.029 A 
ATOM     57  N   UNL A   1      43.947  25.951  29.784  1.00  0.00    -0.354 N 
ATOM     58  N   UNL A   1      44.274  28.412  31.324  1.00  0.00    -0.248 NA
ATOM     59  C   UNL A   1      45.554  29.776  32.724  1.00  0.00     0.031 C 
ATOM     60  C   UNL A   1      45.666  24.547  29.650  1.00  0.00     0.029 A 
ATOM     61  C   UNL A   1      45.255  25.753  30.194  1.00  0.00     0.049 A 
ATOM     62  H   UNL A   1      43.393  26.730  30.020  1.00  0.00     0.167 HD
ATOM     63  C   UNL A   1      45.522  27.833  31.512  1.00  0.00     0.074 A 
ATOM     64  C   UNL A   1      46.283  28.734  32.352  1.00  0.00     0.031 C 
ATOM     65  C   UNL A   1      45.997  26.659  31.031  1.00  0.00     0.031 A 
BRANCH  52  66
ATOM     66  C   UNL A   1      41.902  23.496  27.671  1.00  0.00    -0.014 A 
ATOM     67  C   UNL A   1      42.281  23.332  26.329  1.00  0.00     0.009 A 
ATOM     68  C   UNL A   1      41.250  22.440  28.326  1.00  0.00     0.009 A 
ATOM     69  C   UNL A   1      41.983  22.148  25.649  1.00  0.00     0.001 A 
ATOM     70  C   UNL A   1      40.978  21.247  27.653  1.00  0.00     0.001 A 
ATOM     71  C   UNL A   1      41.337  21.105  26.313  1.00  0.00     0.000 A 
ENDBRANCH  52  66
BRANCH  53  72
ATOM     72  C   UNL A   1      43.489  31.821  32.918  1.00  0.00    -0.014 A 
ATOM     73  C   UNL A   1      43.146  31.878  34.279  1.00  0.00     0.009 A 
ATOM     74  C   UNL A   1      44.049  32.955  32.312  1.00  0.00     0.009 A 
ATOM     75  C   UNL A   1      43.327  33.055  35.007  1.00  0.00     0.001 A 
ATOM     76  C   UNL A   1      44.256  34.123  33.050  1.00  0.00     0.001 A 
ATOM     77  C   UNL A   1      43.884  34.176  34.392  1.00  0.00     0.000 A 
ENDBRANCH  53  72
BRANCH  65  78
ATOM     78  C   UNL A   1      47.414  26.298  31.380  1.00  0.00    -0.014 A 
ATOM     79  C   UNL A   1      48.478  26.609  30.519  1.00  0.00     0.009 A 
ATOM     80  C   UNL A   1      47.688  25.662  32.601  1.00  0.00     0.009 A 
ATOM     81  C   UNL A   1      49.786  26.256  30.859  1.00  0.00     0.001 A 
ATOM     82  C   UNL A   1      49.000  25.337  32.950  1.00  0.00     0.001 A 
ATOM     83  C   UNL A   1      50.046  25.625  32.075  1.00  0.00     0.000 A 
ENDBRANCH  65  78
ENDBRANCH  39  40
ENDBRANCH  31  34
ENDBRANCH  29  30
ENDBRANCH  28  29
ENDBRANCH  27  28
ENDBRANCH   1  27
TORSDOF 16
ENDMDL
