MODEL 1
REMARK VINA RESULT:     -11.5      0.000      0.000
REMARK SMILES C[C@H]1[C@H](C(=O)NCCCCCCNC(=O)c2ccc(-c3c4nc(c(-c5ccccc5)c5ccc([nH]5)c(-c5ccccc5)c5nc(c(-c6ccccc6)c6ccc3[nH]6)C=C5)C=C4)cc2)CCN1C(=O)c1ccc2ccccc2c1
REMARK SMILES IDX 9 1 8 2 7 3 6 4 4 5 5 6 3 8 1 9 2 10 66 11 64 12 65 13 67 14
REMARK SMILES IDX 68 15 69 16 70 17 78 18 71 19 77 20 72 21 76 22 73 23 75 24
REMARK SMILES IDX 74 25 10 26 11 27 12 28 13 29 14 30 15 32 16 33 17 34 63 35
REMARK SMILES IDX 18 36 62 37 19 38 20 39 21 40 56 41 22 42 61 43 55 44 57 45
REMARK SMILES IDX 23 46 60 47 54 48 53 49 24 51 46 52 31 53 45 54 32 55 35 56
REMARK SMILES IDX 44 57 58 58 33 59 34 60 43 62 59 63 36 64 25 65 26 66 30 67
REMARK SMILES IDX 27 68 29 69 28 70 47 71 48 72 52 73 49 74 51 75 50 76 37 77
REMARK SMILES IDX 38 78 42 79 39 80 41 81 40 82
REMARK H PARENT 6 7 13 31 57 50 35 61
REMARK Flexibility Score: inf
ROOT
ATOM      1  C   UNL A   1      31.603  29.694  24.263  1.00  0.00     0.002 C 
ENDROOT
BRANCH   1   2
ATOM      2  C   UNL A   1      30.205  29.604  23.646  1.00  0.00     0.021 C 
BRANCH   2   3
ATOM      3  C   UNL A   1      30.073  28.517  22.583  1.00  0.00     0.116 C 
BRANCH   3   4
ATOM      4  N   UNL A   1      31.337  27.840  22.373  1.00  0.00    -0.356 N 
ATOM      5  C   UNL A   1      31.764  26.614  22.772  1.00  0.00     0.225 C 
ATOM      6  O   UNL A   1      32.932  26.307  22.519  1.00  0.00    -0.275 OA
ATOM      7  H   UNL A   1      31.996  28.355  21.853  1.00  0.00     0.163 HD
BRANCH   5   8
ATOM      8  C   UNL A   1      30.855  25.629  23.488  1.00  0.00     0.102 C 
ATOM      9  C   UNL A   1      31.079  23.131  23.282  1.00  0.00     0.032 C 
ATOM     10  C   UNL A   1      31.590  24.377  24.005  1.00  0.00     0.094 C 
ATOM     11  N   UNL A   1      31.316  24.355  25.446  1.00  0.00    -0.335 N 
ATOM     12  C   UNL A   1      30.120  26.250  24.679  1.00  0.00     0.037 C 
ATOM     13  C   UNL A   1      30.209  25.225  25.790  1.00  0.00     0.121 C 
BRANCH  11  14
ATOM     14  C   UNL A   1      32.011  23.700  26.448  1.00  0.00     0.254 C 
ATOM     15  O   UNL A   1      31.581  23.547  27.587  1.00  0.00    -0.269 OA
BRANCH  14  16
ATOM     16  C   UNL A   1      33.304  23.074  26.121  1.00  0.00     0.040 A 
ATOM     17  C   UNL A   1      33.296  21.709  25.835  1.00  0.00     0.014 A 
ATOM     18  C   UNL A   1      34.505  23.782  26.203  1.00  0.00     0.022 A 
ATOM     19  C   UNL A   1      34.492  21.056  25.550  1.00  0.00     0.009 A 
ATOM     20  C   UNL A   1      35.723  23.121  25.960  1.00  0.00    -0.018 A 
ATOM     21  C   UNL A   1      35.710  21.749  25.603  1.00  0.00    -0.018 A 
ATOM     22  C   UNL A   1      36.961  23.775  26.086  1.00  0.00     0.009 A 
ATOM     23  C   UNL A   1      36.919  21.090  25.337  1.00  0.00     0.009 A 
ATOM     24  C   UNL A   1      38.159  23.091  25.860  1.00  0.00     0.001 A 
ATOM     25  C   UNL A   1      38.136  21.755  25.472  1.00  0.00     0.001 A 
ENDBRANCH  14  16
ENDBRANCH  11  14
ENDBRANCH   5   8
ENDBRANCH   3   4
ENDBRANCH   2   3
ENDBRANCH   1   2
BRANCH   1  26
ATOM     26  C   UNL A   1      31.682  29.264  25.733  1.00  0.00     0.002 C 
BRANCH  26  27
ATOM     27  C   UNL A   1      32.852  28.336  26.071  1.00  0.00     0.021 C 
BRANCH  27  28
ATOM     28  C   UNL A   1      33.524  28.630  27.407  1.00  0.00     0.116 C 
BRANCH  28  29
ATOM     29  N   UNL A   1      33.546  30.054  27.699  1.00  0.00    -0.352 N 
ATOM     30  C   UNL A   1      34.529  30.807  28.289  1.00  0.00     0.251 C 
ATOM     31  H   UNL A   1      32.739  30.551  27.435  1.00  0.00     0.163 HD
ATOM     32  O   UNL A   1      34.293  31.950  28.660  1.00  0.00    -0.269 OA
BRANCH  30  33
ATOM     33  C   UNL A   1      35.873  30.227  28.489  1.00  0.00     0.039 A 
ATOM     34  C   UNL A   1      36.779  30.241  27.427  1.00  0.00     0.014 A 
ATOM     35  C   UNL A   1      36.235  29.665  29.717  1.00  0.00     0.014 A 
ATOM     36  C   UNL A   1      38.068  29.741  27.613  1.00  0.00     0.010 A 
ATOM     37  C   UNL A   1      37.544  29.241  29.925  1.00  0.00     0.010 A 
ATOM     38  C   UNL A   1      38.472  29.269  28.873  1.00  0.00    -0.014 A 
BRANCH  38  39
ATOM     39  C   UNL A   1      39.862  28.804  29.108  1.00  0.00     0.031 A 
ATOM     40  C   UNL A   1      40.877  29.726  29.725  1.00  0.00     0.074 A 
ATOM     41  C   UNL A   1      40.223  27.568  28.715  1.00  0.00     0.049 A 
ATOM     42  N   UNL A   1      42.145  29.510  29.973  1.00  0.00    -0.248 NA
ATOM     43  C   UNL A   1      40.414  31.074  30.093  1.00  0.00     0.031 C 
ATOM     44  C   UNL A   1      39.343  26.591  28.072  1.00  0.00     0.029 A 
ATOM     45  N   UNL A   1      41.432  26.922  28.797  1.00  0.00    -0.354 N 
ATOM     46  C   UNL A   1      42.631  30.695  30.511  1.00  0.00     0.074 A 
ATOM     47  C   UNL A   1      41.538  31.643  30.503  1.00  0.00     0.031 C 
ATOM     48  C   UNL A   1      40.030  25.460  27.848  1.00  0.00     0.029 A 
ATOM     49  C   UNL A   1      41.409  25.646  28.288  1.00  0.00     0.049 A 
ATOM     50  H   UNL A   1      42.238  27.333  29.185  1.00  0.00     0.167 HD
ATOM     51  C   UNL A   1      43.870  30.965  30.987  1.00  0.00     0.031 A 
ATOM     52  C   UNL A   1      42.390  24.731  28.179  1.00  0.00     0.031 A 
ATOM     53  C   UNL A   1      44.957  30.023  30.992  1.00  0.00     0.049 A 
ATOM     54  C   UNL A   1      43.767  25.069  28.681  1.00  0.00     0.074 A 
ATOM     55  C   UNL A   1      46.235  30.184  31.498  1.00  0.00     0.029 A 
ATOM     56  N   UNL A   1      44.897  28.746  30.455  1.00  0.00    -0.354 N 
ATOM     57  N   UNL A   1      44.191  26.168  29.256  1.00  0.00    -0.248 NA
ATOM     58  C   UNL A   1      44.797  24.033  28.528  1.00  0.00     0.031 C 
ATOM     59  C   UNL A   1      46.966  29.027  31.211  1.00  0.00     0.029 A 
ATOM     60  C   UNL A   1      46.125  28.119  30.589  1.00  0.00     0.049 A 
ATOM     61  H   UNL A   1      44.098  28.344  30.041  1.00  0.00     0.167 HD
ATOM     62  C   UNL A   1      45.529  25.946  29.558  1.00  0.00     0.074 A 
ATOM     63  C   UNL A   1      45.838  24.600  29.120  1.00  0.00     0.031 C 
ATOM     64  C   UNL A   1      46.421  26.781  30.145  1.00  0.00     0.031 A 
BRANCH  51  65
ATOM     65  C   UNL A   1      44.116  32.346  31.531  1.00  0.00    -0.014 A 
ATOM     66  C   UNL A   1      43.909  32.644  32.889  1.00  0.00     0.009 A 
ATOM     67  C   UNL A   1      44.592  33.357  30.683  1.00  0.00     0.009 A 
ATOM     68  C   UNL A   1      44.133  33.935  33.374  1.00  0.00     0.001 A 
ATOM     69  C   UNL A   1      44.848  34.638  31.177  1.00  0.00     0.001 A 
ATOM     70  C   UNL A   1      44.608  34.928  32.519  1.00  0.00     0.000 A 
ENDBRANCH  51  65
BRANCH  52  71
ATOM     71  C   UNL A   1      42.107  23.402  27.577  1.00  0.00    -0.014 A 
ATOM     72  C   UNL A   1      41.512  22.385  28.340  1.00  0.00     0.009 A 
ATOM     73  C   UNL A   1      42.437  23.138  26.238  1.00  0.00     0.009 A 
ATOM     74  C   UNL A   1      41.282  21.124  27.784  1.00  0.00     0.001 A 
ATOM     75  C   UNL A   1      42.175  21.888  25.675  1.00  0.00     0.001 A 
ATOM     76  C   UNL A   1      41.608  20.879  26.451  1.00  0.00     0.000 A 
ENDBRANCH  52  71
BRANCH  64  77
ATOM     77  C   UNL A   1      47.808  26.252  30.379  1.00  0.00    -0.014 A 
ATOM     78  C   UNL A   1      48.189  25.714  31.618  1.00  0.00     0.009 A 
ATOM     79  C   UNL A   1      48.739  26.257  29.327  1.00  0.00     0.009 A 
ATOM     80  C   UNL A   1      49.484  25.227  31.809  1.00  0.00     0.001 A 
ATOM     81  C   UNL A   1      50.021  25.739  29.510  1.00  0.00     0.001 A 
ATOM     82  C   UNL A   1      50.396  25.234  30.754  1.00  0.00     0.000 A 
ENDBRANCH  64  77
ENDBRANCH  38  39
ENDBRANCH  30  33
ENDBRANCH  28  29
ENDBRANCH  27  28
ENDBRANCH  26  27
ENDBRANCH   1  26
TORSDOF 15
ENDMDL
MODEL 2
REMARK VINA RESULT:     -11.3      2.035      7.634
REMARK SMILES C[C@H]1[C@H](C(=O)NCCCCCCNC(=O)c2ccc(-c3c4nc(c(-c5ccccc5)c5ccc([nH]5)c(-c5ccccc5)c5nc(c(-c6ccccc6)c6ccc3[nH]6)C=C5)C=C4)cc2)CCN1C(=O)c1ccc2ccccc2c1
REMARK SMILES IDX 9 1 8 2 7 3 6 4 4 5 5 6 3 8 1 9 2 10 66 11 64 12 65 13 67 14
REMARK SMILES IDX 68 15 69 16 70 17 78 18 71 19 77 20 72 21 76 22 73 23 75 24
REMARK SMILES IDX 74 25 10 26 11 27 12 28 13 29 14 30 15 32 16 33 17 34 63 35
REMARK SMILES IDX 18 36 62 37 19 38 20 39 21 40 56 41 22 42 61 43 55 44 57 45
REMARK SMILES IDX 23 46 60 47 54 48 53 49 24 51 46 52 31 53 45 54 32 55 35 56
REMARK SMILES IDX 44 57 58 58 33 59 34 60 43 62 59 63 36 64 25 65 26 66 30 67
REMARK SMILES IDX 27 68 29 69 28 70 47 71 48 72 52 73 49 74 51 75 50 76 37 77
REMARK SMILES IDX 38 78 42 79 39 80 41 81 40 82
REMARK H PARENT 6 7 13 31 57 50 35 61
REMARK Flexibility Score: inf
ROOT
ATOM      1  C   UNL A   1      36.814  21.946  25.064  1.00  0.00     0.002 C 
ENDROOT
BRANCH   1   2
ATOM      2  C   UNL A   1      36.824  22.644  23.701  1.00  0.00     0.021 C 
BRANCH   2   3
ATOM      3  C   UNL A   1      35.784  23.752  23.572  1.00  0.00     0.116 C 
BRANCH   3   4
ATOM      4  N   UNL A   1      34.664  23.321  22.759  1.00  0.00    -0.356 N 
ATOM      5  C   UNL A   1      33.529  22.653  23.094  1.00  0.00     0.225 C 
ATOM      6  O   UNL A   1      32.761  22.340  22.181  1.00  0.00    -0.275 OA
ATOM      7  H   UNL A   1      34.737  23.550  21.804  1.00  0.00     0.163 HD
BRANCH   5   8
ATOM      8  C   UNL A   1      33.182  22.311  24.533  1.00  0.00     0.102 C 
ATOM      9  C   UNL A   1      33.897  23.701  26.505  1.00  0.00     0.032 C 
ATOM     10  C   UNL A   1      32.854  23.543  25.398  1.00  0.00     0.094 C 
ATOM     11  N   UNL A   1      31.506  23.285  25.916  1.00  0.00    -0.335 N 
ATOM     12  C   UNL A   1      31.998  21.346  24.648  1.00  0.00     0.037 C 
ATOM     13  C   UNL A   1      31.138  21.891  25.770  1.00  0.00     0.121 C 
BRANCH  11  14
ATOM     14  C   UNL A   1      30.586  24.190  26.417  1.00  0.00     0.254 C 
ATOM     15  O   UNL A   1      29.677  23.883  27.182  1.00  0.00    -0.269 OA
BRANCH  14  16
ATOM     16  C   UNL A   1      30.743  25.617  26.088  1.00  0.00     0.040 A 
ATOM     17  C   UNL A   1      30.353  26.022  24.811  1.00  0.00     0.014 A 
ATOM     18  C   UNL A   1      31.359  26.510  26.967  1.00  0.00     0.022 A 
ATOM     19  C   UNL A   1      30.507  27.353  24.432  1.00  0.00     0.009 A 
ATOM     20  C   UNL A   1      31.561  27.847  26.576  1.00  0.00    -0.018 A 
ATOM     21  C   UNL A   1      31.103  28.276  25.304  1.00  0.00    -0.018 A 
ATOM     22  C   UNL A   1      32.228  28.770  27.401  1.00  0.00     0.009 A 
ATOM     23  C   UNL A   1      31.280  29.612  24.917  1.00  0.00     0.009 A 
ATOM     24  C   UNL A   1      32.433  30.087  26.981  1.00  0.00     0.001 A 
ATOM     25  C   UNL A   1      31.947  30.511  25.748  1.00  0.00     0.001 A 
ENDBRANCH  14  16
ENDBRANCH  11  14
ENDBRANCH   5   8
ENDBRANCH   3   4
ENDBRANCH   2   3
ENDBRANCH   1   2
BRANCH   1  26
ATOM     26  C   UNL A   1      36.543  20.438  25.008  1.00  0.00     0.002 C 
BRANCH  26  27
ATOM     27  C   UNL A   1      37.795  19.556  25.020  1.00  0.00     0.021 C 
BRANCH  27  28
ATOM     28  C   UNL A   1      38.999  20.182  25.714  1.00  0.00     0.116 C 
BRANCH  28  29
ATOM     29  N   UNL A   1      40.117  19.256  25.796  1.00  0.00    -0.352 N 
ATOM     30  C   UNL A   1      41.436  19.505  26.079  1.00  0.00     0.251 C 
ATOM     31  H   UNL A   1      39.896  18.312  25.624  1.00  0.00     0.163 HD
ATOM     32  O   UNL A   1      42.283  18.642  25.887  1.00  0.00    -0.269 OA
BRANCH  30  33
ATOM     33  C   UNL A   1      41.833  20.828  26.604  1.00  0.00     0.039 A 
ATOM     34  C   UNL A   1      42.298  21.796  25.712  1.00  0.00     0.014 A 
ATOM     35  C   UNL A   1      41.755  21.108  27.971  1.00  0.00     0.014 A 
ATOM     36  C   UNL A   1      42.632  23.065  26.184  1.00  0.00     0.010 A 
ATOM     37  C   UNL A   1      42.011  22.397  28.428  1.00  0.00     0.010 A 
ATOM     38  C   UNL A   1      42.459  23.387  27.540  1.00  0.00    -0.014 A 
BRANCH  38  39
ATOM     39  C   UNL A   1      42.737  24.754  28.045  1.00  0.00     0.031 A 
ATOM     40  C   UNL A   1      44.131  25.145  28.453  1.00  0.00     0.074 A 
ATOM     41  C   UNL A   1      41.723  25.629  28.187  1.00  0.00     0.049 A 
ATOM     42  N   UNL A   1      44.559  26.278  28.950  1.00  0.00    -0.248 NA
ATOM     43  C   UNL A   1      45.178  24.122  28.303  1.00  0.00     0.031 C 
ATOM     44  C   UNL A   1      40.321  25.361  27.862  1.00  0.00     0.029 A 
ATOM     45  N   UNL A   1      41.716  26.923  28.646  1.00  0.00    -0.354 N 
ATOM     46  C   UNL A   1      45.916  26.099  29.183  1.00  0.00     0.074 A 
ATOM     47  C   UNL A   1      46.230  24.733  28.826  1.00  0.00     0.031 C 
ATOM     48  C   UNL A   1      39.596  26.466  28.100  1.00  0.00     0.029 A 
ATOM     49  C   UNL A   1      40.471  27.503  28.637  1.00  0.00     0.049 A 
ATOM     50  H   UNL A   1      42.526  27.391  28.951  1.00  0.00     0.167 HD
ATOM     51  C   UNL A   1      46.825  26.997  29.635  1.00  0.00     0.031 A 
ATOM     52  C   UNL A   1      40.075  28.729  29.026  1.00  0.00     0.031 A 
ATOM     53  C   UNL A   1      46.511  28.354  29.992  1.00  0.00     0.049 A 
ATOM     54  C   UNL A   1      41.097  29.695  29.560  1.00  0.00     0.074 A 
ATOM     55  C   UNL A   1      47.370  29.355  30.412  1.00  0.00     0.029 A 
ATOM     56  N   UNL A   1      45.236  28.899  29.981  1.00  0.00    -0.354 N 
ATOM     57  N   UNL A   1      42.390  29.535  29.703  1.00  0.00    -0.248 NA
ATOM     58  C   UNL A   1      40.604  31.015  29.975  1.00  0.00     0.031 C 
ATOM     59  C   UNL A   1      46.605  30.486  30.716  1.00  0.00     0.029 A 
ATOM     60  C   UNL A   1      45.280  30.213  30.419  1.00  0.00     0.049 A 
ATOM     61  H   UNL A   1      44.420  28.422  29.704  1.00  0.00     0.167 HD
ATOM     62  C   UNL A   1      42.869  30.741  30.199  1.00  0.00     0.074 A 
ATOM     63  C   UNL A   1      41.730  31.628  30.311  1.00  0.00     0.031 C 
ATOM     64  C   UNL A   1      44.138  31.083  30.530  1.00  0.00     0.031 A 
BRANCH  51  65
ATOM     65  C   UNL A   1      48.248  26.527  29.780  1.00  0.00    -0.014 A 
ATOM     66  C   UNL A   1      48.692  25.896  30.954  1.00  0.00     0.009 A 
ATOM     67  C   UNL A   1      49.149  26.690  28.717  1.00  0.00     0.009 A 
ATOM     68  C   UNL A   1      50.019  25.477  31.074  1.00  0.00     0.001 A 
ATOM     69  C   UNL A   1      50.466  26.239  28.827  1.00  0.00     0.001 A 
ATOM     70  C   UNL A   1      50.902  25.643  30.008  1.00  0.00     0.000 A 
ENDBRANCH  51  65
BRANCH  52  71
ATOM     71  C   UNL A   1      38.645  29.121  28.917  1.00  0.00    -0.014 A 
ATOM     72  C   UNL A   1      37.790  29.016  30.025  1.00  0.00     0.009 A 
ATOM     73  C   UNL A   1      38.124  29.595  27.702  1.00  0.00     0.009 A 
ATOM     74  C   UNL A   1      36.438  29.348  29.910  1.00  0.00     0.001 A 
ATOM     75  C   UNL A   1      36.780  29.958  27.600  1.00  0.00     0.001 A 
ATOM     76  C   UNL A   1      35.936  29.824  28.701  1.00  0.00     0.000 A 
ENDBRANCH  52  71
BRANCH  64  77
ATOM     77  C   UNL A   1      44.368  32.487  31.015  1.00  0.00    -0.014 A 
ATOM     78  C   UNL A   1      44.560  33.551  30.120  1.00  0.00     0.009 A 
ATOM     79  C   UNL A   1      44.353  32.756  32.394  1.00  0.00     0.009 A 
ATOM     80  C   UNL A   1      44.769  34.847  30.596  1.00  0.00     0.001 A 
ATOM     81  C   UNL A   1      44.528  34.057  32.866  1.00  0.00     0.001 A 
ATOM     82  C   UNL A   1      44.747  35.099  31.967  1.00  0.00     0.000 A 
ENDBRANCH  64  77
ENDBRANCH  38  39
ENDBRANCH  30  33
ENDBRANCH  28  29
ENDBRANCH  27  28
ENDBRANCH  26  27
ENDBRANCH   1  26
TORSDOF 15
ENDMDL
MODEL 3
REMARK VINA RESULT:     -11.3      2.543      7.672
REMARK SMILES C[C@H]1[C@H](C(=O)NCCCCCCNC(=O)c2ccc(-c3c4nc(c(-c5ccccc5)c5ccc([nH]5)c(-c5ccccc5)c5nc(c(-c6ccccc6)c6ccc3[nH]6)C=C5)C=C4)cc2)CCN1C(=O)c1ccc2ccccc2c1
REMARK SMILES IDX 9 1 8 2 7 3 6 4 4 5 5 6 3 8 1 9 2 10 66 11 64 12 65 13 67 14
REMARK SMILES IDX 68 15 69 16 70 17 78 18 71 19 77 20 72 21 76 22 73 23 75 24
REMARK SMILES IDX 74 25 10 26 11 27 12 28 13 29 14 30 15 32 16 33 17 34 63 35
REMARK SMILES IDX 18 36 62 37 19 38 20 39 21 40 56 41 22 42 61 43 55 44 57 45
REMARK SMILES IDX 23 46 60 47 54 48 53 49 24 51 46 52 31 53 45 54 32 55 35 56
REMARK SMILES IDX 44 57 58 58 33 59 34 60 43 62 59 63 36 64 25 65 26 66 30 67
REMARK SMILES IDX 27 68 29 69 28 70 47 71 48 72 52 73 49 74 51 75 50 76 37 77
REMARK SMILES IDX 38 78 42 79 39 80 41 81 40 82
REMARK H PARENT 6 7 13 31 57 50 35 61
REMARK Flexibility Score: inf
ROOT
ATOM      1  C   UNL A   1      31.495  28.543  27.242  1.00  0.00     0.002 C 
ENDROOT
BRANCH   1   2
ATOM      2  C   UNL A   1      32.087  27.207  26.785  1.00  0.00     0.021 C 
BRANCH   2   3
ATOM      3  C   UNL A   1      31.086  26.306  26.069  1.00  0.00     0.116 C 
BRANCH   3   4
ATOM      4  N   UNL A   1      30.926  25.047  26.770  1.00  0.00    -0.356 N 
ATOM      5  C   UNL A   1      31.496  23.833  26.554  1.00  0.00     0.225 C 
ATOM      6  O   UNL A   1      31.122  22.894  27.262  1.00  0.00    -0.275 OA
ATOM      7  H   UNL A   1      30.300  25.077  27.529  1.00  0.00     0.163 HD
BRANCH   5   8
ATOM      8  C   UNL A   1      32.569  23.613  25.502  1.00  0.00     0.102 C 
ATOM      9  C   UNL A   1      32.091  22.746  23.188  1.00  0.00     0.032 C 
ATOM     10  C   UNL A   1      32.121  23.990  24.077  1.00  0.00     0.094 C 
ATOM     11  N   UNL A   1      33.102  24.986  23.631  1.00  0.00    -0.335 N 
ATOM     12  C   UNL A   1      33.859  24.385  25.794  1.00  0.00     0.037 C 
ATOM     13  C   UNL A   1      34.287  24.977  24.466  1.00  0.00     0.121 C 
BRANCH  11  14
ATOM     14  C   UNL A   1      32.983  25.923  22.619  1.00  0.00     0.254 C 
ATOM     15  O   UNL A   1      33.502  25.801  21.514  1.00  0.00    -0.269 OA
BRANCH  14  16
ATOM     16  C   UNL A   1      32.120  27.097  22.837  1.00  0.00     0.040 A 
ATOM     17  C   UNL A   1      32.710  28.223  23.411  1.00  0.00     0.014 A 
ATOM     18  C   UNL A   1      30.746  27.055  22.591  1.00  0.00     0.022 A 
ATOM     19  C   UNL A   1      31.938  29.351  23.670  1.00  0.00     0.009 A 
ATOM     20  C   UNL A   1      29.948  28.175  22.891  1.00  0.00    -0.018 A 
ATOM     21  C   UNL A   1      30.559  29.344  23.411  1.00  0.00    -0.018 A 
ATOM     22  C   UNL A   1      28.553  28.162  22.716  1.00  0.00     0.009 A 
ATOM     23  C   UNL A   1      29.774  30.471  23.691  1.00  0.00     0.009 A 
ATOM     24  C   UNL A   1      27.781  29.280  23.041  1.00  0.00     0.001 A 
ATOM     25  C   UNL A   1      28.392  30.437  23.514  1.00  0.00     0.001 A 
ENDBRANCH  14  16
ENDBRANCH  11  14
ENDBRANCH   5   8
ENDBRANCH   3   4
ENDBRANCH   2   3
ENDBRANCH   1   2
BRANCH   1  26
ATOM     26  C   UNL A   1      32.496  29.704  27.287  1.00  0.00     0.002 C 
BRANCH  26  27
ATOM     27  C   UNL A   1      31.891  31.088  27.039  1.00  0.00     0.021 C 
BRANCH  27  28
ATOM     28  C   UNL A   1      32.914  32.178  26.740  1.00  0.00     0.116 C 
BRANCH  28  29
ATOM     29  N   UNL A   1      32.547  33.446  27.351  1.00  0.00    -0.352 N 
ATOM     30  C   UNL A   1      33.126  34.105  28.406  1.00  0.00     0.251 C 
ATOM     31  H   UNL A   1      31.771  33.898  26.948  1.00  0.00     0.163 HD
ATOM     32  O   UNL A   1      32.554  35.052  28.932  1.00  0.00    -0.269 OA
BRANCH  30  33
ATOM     33  C   UNL A   1      34.437  33.657  28.916  1.00  0.00     0.039 A 
ATOM     34  C   UNL A   1      34.479  32.849  30.054  1.00  0.00     0.014 A 
ATOM     35  C   UNL A   1      35.621  34.039  28.280  1.00  0.00     0.014 A 
ATOM     36  C   UNL A   1      35.706  32.377  30.521  1.00  0.00     0.010 A 
ATOM     37  C   UNL A   1      36.836  33.504  28.698  1.00  0.00     0.010 A 
ATOM     38  C   UNL A   1      36.891  32.673  29.827  1.00  0.00    -0.014 A 
BRANCH  38  39
ATOM     39  C   UNL A   1      38.195  32.118  30.267  1.00  0.00     0.031 A 
ATOM     40  C   UNL A   1      38.683  30.803  29.724  1.00  0.00     0.074 A 
ATOM     41  C   UNL A   1      38.915  32.772  31.197  1.00  0.00     0.049 A 
ATOM     42  N   UNL A   1      39.776  30.143  30.018  1.00  0.00    -0.248 NA
ATOM     43  C   UNL A   1      37.822  30.129  28.739  1.00  0.00     0.031 C 
ATOM     44  C   UNL A   1      38.535  34.038  31.829  1.00  0.00     0.029 A 
ATOM     45  N   UNL A   1      40.121  32.462  31.777  1.00  0.00    -0.354 N 
ATOM     46  C   UNL A   1      39.726  28.977  29.266  1.00  0.00     0.074 A 
ATOM     47  C   UNL A   1      38.471  28.991  28.546  1.00  0.00     0.031 C 
ATOM     48  C   UNL A   1      39.502  34.411  32.682  1.00  0.00     0.029 A 
ATOM     49  C   UNL A   1      40.546  33.392  32.694  1.00  0.00     0.049 A 
ATOM     50  H   UNL A   1      40.631  31.650  31.556  1.00  0.00     0.167 HD
ATOM     51  C   UNL A   1      40.649  27.990  29.168  1.00  0.00     0.031 A 
ATOM     52  C   UNL A   1      41.649  33.419  33.465  1.00  0.00     0.031 A 
ATOM     53  C   UNL A   1      41.895  27.975  29.886  1.00  0.00     0.049 A 
ATOM     54  C   UNL A   1      42.640  32.292  33.364  1.00  0.00     0.074 A 
ATOM     55  C   UNL A   1      42.919  27.046  29.816  1.00  0.00     0.029 A 
ATOM     56  N   UNL A   1      42.282  28.929  30.814  1.00  0.00    -0.354 N 
ATOM     57  N   UNL A   1      42.614  31.233  32.593  1.00  0.00    -0.248 NA
ATOM     58  C   UNL A   1      43.821  32.373  34.236  1.00  0.00     0.031 C 
ATOM     59  C   UNL A   1      43.897  27.405  30.749  1.00  0.00     0.029 A 
ATOM     60  C   UNL A   1      43.516  28.595  31.349  1.00  0.00     0.049 A 
ATOM     61  H   UNL A   1      41.758  29.727  31.057  1.00  0.00     0.167 HD
ATOM     62  C   UNL A   1      43.784  30.536  32.865  1.00  0.00     0.074 A 
ATOM     63  C   UNL A   1      44.507  31.304  33.858  1.00  0.00     0.031 C 
ATOM     64  C   UNL A   1      44.222  29.366  32.340  1.00  0.00     0.031 A 
BRANCH  51  65
ATOM     65  C   UNL A   1      40.333  26.835  28.255  1.00  0.00    -0.014 A 
ATOM     66  C   UNL A   1      39.550  25.753  28.691  1.00  0.00     0.009 A 
ATOM     67  C   UNL A   1      40.798  26.844  26.931  1.00  0.00     0.009 A 
ATOM     68  C   UNL A   1      39.276  24.686  27.832  1.00  0.00     0.001 A 
ATOM     69  C   UNL A   1      40.495  25.792  26.065  1.00  0.00     0.001 A 
ATOM     70  C   UNL A   1      39.744  24.709  26.519  1.00  0.00     0.000 A 
ENDBRANCH  51  65
BRANCH  52  71
ATOM     71  C   UNL A   1      41.882  34.555  34.395  1.00  0.00    -0.014 A 
ATOM     72  C   UNL A   1      41.425  34.498  35.720  1.00  0.00     0.009 A 
ATOM     73  C   UNL A   1      42.556  35.707  33.960  1.00  0.00     0.009 A 
ATOM     74  C   UNL A   1      41.611  35.582  36.581  1.00  0.00     0.001 A 
ATOM     75  C   UNL A   1      42.771  36.776  34.833  1.00  0.00     0.001 A 
ATOM     76  C   UNL A   1      42.288  36.717  36.139  1.00  0.00     0.000 A 
ENDBRANCH  52  71
BRANCH  64  77
ATOM     77  C   UNL A   1      45.559  28.860  32.804  1.00  0.00    -0.014 A 
ATOM     78  C   UNL A   1      46.750  29.240  32.166  1.00  0.00     0.009 A 
ATOM     79  C   UNL A   1      45.630  28.017  33.926  1.00  0.00     0.009 A 
ATOM     80  C   UNL A   1      47.980  28.758  32.618  1.00  0.00     0.001 A 
ATOM     81  C   UNL A   1      46.863  27.565  34.397  1.00  0.00     0.001 A 
ATOM     82  C   UNL A   1      48.035  27.926  33.736  1.00  0.00     0.000 A 
ENDBRANCH  64  77
ENDBRANCH  38  39
ENDBRANCH  30  33
ENDBRANCH  28  29
ENDBRANCH  27  28
ENDBRANCH  26  27
ENDBRANCH   1  26
TORSDOF 15
ENDMDL
