MODEL 1
REMARK VINA RESULT:     -11.8      0.000      0.000
REMARK SMILES O=C(C[C@H](NC(=O)[C@]12C[C@H]3C[C@H](C[C@H](C3)C1)C2)c1cccc([N+](=O)[O-])c1)NCCCCCCNC(=O)c1ccc(-c2c3nc(c(-c4ccccc4)c4ccc([nH]4)c(-c4ccccc4)c4nc(c(-c5ccccc5)c5ccc2[nH]5)C=C4)C=C3)cc1
REMARK SMILES IDX 30 1 29 2 28 3 27 4 1 5 2 6 3 8 4 9 18 10 19 11 26 12 20 13
REMARK SMILES IDX 22 14 21 15 23 16 24 17 25 18 5 19 6 20 7 22 8 23 9 24 16 25
REMARK SMILES IDX 17 26 10 27 14 28 12 29 11 30 15 31 13 32 31 33 32 34 33 35
REMARK SMILES IDX 34 36 35 37 36 39 37 40 38 41 84 42 39 43 83 44 40 45 41 46
REMARK SMILES IDX 42 47 77 48 43 49 82 50 76 51 78 52 44 53 81 54 75 55 74 56
REMARK SMILES IDX 45 58 67 59 52 60 66 61 53 62 56 63 65 64 79 65 54 66 55 67
REMARK SMILES IDX 64 69 80 70 57 71 46 72 47 73 51 74 48 75 50 76 49 77 68 78
REMARK SMILES IDX 69 79 73 80 70 81 72 82 71 83 58 84 59 85 63 86 60 87 62 88
REMARK SMILES IDX 61 89
REMARK H PARENT 27 7 5 21 34 38 78 57 56 68
REMARK Flexibility Score: inf
ROOT
ATOM      1  C   UNL A   1      35.680  21.828  24.129  1.00  0.00     0.002 C 
ENDROOT
BRANCH   1   2
ATOM      2  C   UNL A   1      36.127  23.253  24.497  1.00  0.00     0.021 C 
BRANCH   2   3
ATOM      3  C   UNL A   1      35.801  23.664  25.935  1.00  0.00     0.116 C 
BRANCH   3   4
ATOM      4  N   UNL A   1      34.372  23.815  26.092  1.00  0.00    -0.356 N 
ATOM      5  O   UNL A   1      34.086  22.330  27.830  1.00  0.00    -0.275 OA
ATOM      6  C   UNL A   1      33.620  23.053  26.957  1.00  0.00     0.222 C 
ATOM      7  H   UNL A   1      33.913  24.500  25.553  1.00  0.00     0.163 HD
BRANCH   6   8
ATOM      8  C   UNL A   1      32.143  23.180  26.691  1.00  0.00     0.129 C 
BRANCH   8   9
ATOM      9  C   UNL A   1      31.781  23.520  25.241  1.00  0.00     0.122 C 
BRANCH   9  10
ATOM     10  C   UNL A   1      31.752  22.253  24.394  1.00  0.00    -0.018 A 
ATOM     11  C   UNL A   1      31.732  22.273  22.993  1.00  0.00     0.006 A 
ATOM     12  C   UNL A   1      31.999  21.031  25.060  1.00  0.00     0.091 A 
ATOM     13  C   UNL A   1      32.113  21.133  22.272  1.00  0.00     0.007 A 
ATOM     14  C   UNL A   1      32.435  19.917  24.332  1.00  0.00     0.269 A 
ATOM     15  C   UNL A   1      32.504  19.967  22.938  1.00  0.00     0.085 A 
BRANCH  14  16
ATOM     16  N   UNL A   1      32.976  18.761  25.059  1.00  0.00     0.062 N 
ATOM     17  O   UNL A   1      32.450  18.460  26.139  1.00  0.00    -0.258 OA
ATOM     18  O   UNL A   1      33.904  18.132  24.529  1.00  0.00    -0.258 OA
ENDBRANCH  14  16
ENDBRANCH   9  10
BRANCH   9  19
ATOM     19  N   UNL A   1      30.611  24.402  25.072  1.00  0.00    -0.348 N 
ATOM     20  C   UNL A   1      30.385  25.748  25.136  1.00  0.00     0.226 C 
ATOM     21  H   UNL A   1      29.792  23.898  24.861  1.00  0.00     0.164 HD
ATOM     22  O   UNL A   1      29.192  26.070  25.074  1.00  0.00    -0.274 OA
BRANCH  20  23
ATOM     23  C   UNL A   1      31.478  26.837  25.307  1.00  0.00     0.050 C 
ATOM     24  C   UNL A   1      31.859  26.987  26.811  1.00  0.00     0.020 C 
ATOM     25  C   UNL A   1      30.976  28.210  24.857  1.00  0.00     0.020 C 
ATOM     26  C   UNL A   1      32.773  26.493  24.544  1.00  0.00     0.020 C 
ATOM     27  C   UNL A   1      32.896  28.116  27.015  1.00  0.00    -0.010 C 
ATOM     28  C   UNL A   1      31.992  29.330  25.029  1.00  0.00    -0.010 C 
ATOM     29  C   UNL A   1      33.815  27.625  24.717  1.00  0.00    -0.010 C 
ATOM     30  C   UNL A   1      34.162  27.791  26.207  1.00  0.00     0.007 C 
ATOM     31  C   UNL A   1      32.321  29.450  26.514  1.00  0.00     0.007 C 
ATOM     32  C   UNL A   1      33.234  28.955  24.206  1.00  0.00     0.007 C 
ENDBRANCH  20  23
ENDBRANCH   9  19
ENDBRANCH   8   9
ENDBRANCH   6   8
ENDBRANCH   3   4
ENDBRANCH   2   3
ENDBRANCH   1   2
BRANCH   1  33
ATOM     33  C   UNL A   1      36.055  20.744  25.145  1.00  0.00     0.002 C 
BRANCH  33  34
ATOM     34  C   UNL A   1      37.364  20.014  24.848  1.00  0.00     0.021 C 
BRANCH  34  35
ATOM     35  C   UNL A   1      38.550  20.475  25.686  1.00  0.00     0.116 C 
BRANCH  35  36
ATOM     36  N   UNL A   1      39.626  19.497  25.707  1.00  0.00    -0.352 N 
ATOM     37  C   UNL A   1      40.950  19.673  26.025  1.00  0.00     0.251 C 
ATOM     38  H   UNL A   1      39.370  18.581  25.457  1.00  0.00     0.163 HD
ATOM     39  O   UNL A   1      41.761  18.776  25.819  1.00  0.00    -0.269 OA
BRANCH  37  40
ATOM     40  C   UNL A   1      41.402  20.960  26.594  1.00  0.00     0.039 A 
ATOM     41  C   UNL A   1      42.011  21.894  25.753  1.00  0.00     0.014 A 
ATOM     42  C   UNL A   1      41.224  21.247  27.950  1.00  0.00     0.014 A 
ATOM     43  C   UNL A   1      42.388  23.138  26.259  1.00  0.00     0.010 A 
ATOM     44  C   UNL A   1      41.524  22.517  28.435  1.00  0.00     0.010 A 
ATOM     45  C   UNL A   1      42.116  23.473  27.596  1.00  0.00    -0.014 A 
BRANCH  45  46
ATOM     46  C   UNL A   1      42.442  24.820  28.130  1.00  0.00     0.031 A 
ATOM     47  C   UNL A   1      43.852  25.159  28.530  1.00  0.00     0.074 A 
ATOM     48  C   UNL A   1      41.458  25.723  28.303  1.00  0.00     0.049 A 
ATOM     49  N   UNL A   1      44.323  26.276  29.026  1.00  0.00    -0.248 NA
ATOM     50  C   UNL A   1      44.860  24.099  28.377  1.00  0.00     0.031 C 
ATOM     51  C   UNL A   1      40.044  25.507  27.988  1.00  0.00     0.029 A 
ATOM     52  N   UNL A   1      41.498  27.007  28.784  1.00  0.00    -0.354 N 
ATOM     53  C   UNL A   1      45.673  26.044  29.260  1.00  0.00     0.074 A 
ATOM     54  C   UNL A   1      45.933  24.667  28.904  1.00  0.00     0.031 C 
ATOM     55  C   UNL A   1      39.361  26.636  28.238  1.00  0.00     0.029 A 
ATOM     56  C   UNL A   1      40.277  27.636  28.775  1.00  0.00     0.049 A 
ATOM     57  H   UNL A   1      42.324  27.437  29.105  1.00  0.00     0.167 HD
ATOM     58  C   UNL A   1      46.617  26.904  29.714  1.00  0.00     0.031 A 
ATOM     59  C   UNL A   1      39.934  28.881  29.156  1.00  0.00     0.031 A 
ATOM     60  C   UNL A   1      46.358  28.275  30.068  1.00  0.00     0.049 A 
ATOM     61  C   UNL A   1      40.993  29.806  29.688  1.00  0.00     0.074 A 
ATOM     62  C   UNL A   1      47.256  29.245  30.476  1.00  0.00     0.029 A 
ATOM     63  N   UNL A   1      45.103  28.867  30.068  1.00  0.00    -0.354 N 
ATOM     64  N   UNL A   1      42.280  29.598  29.825  1.00  0.00    -0.248 NA
ATOM     65  C   UNL A   1      40.548  31.141  30.108  1.00  0.00     0.031 C 
ATOM     66  C   UNL A   1      46.536  30.404  30.790  1.00  0.00     0.029 A 
ATOM     67  C   UNL A   1      45.198  30.177  30.507  1.00  0.00     0.049 A 
ATOM     68  H   UNL A   1      44.268  28.421  29.797  1.00  0.00     0.167 HD
ATOM     69  C   UNL A   1      42.804  30.788  30.316  1.00  0.00     0.074 A 
ATOM     70  C   UNL A   1      41.697  31.715  30.436  1.00  0.00     0.031 C 
ATOM     71  C   UNL A   1      44.088  31.088  30.632  1.00  0.00     0.031 A 
BRANCH  58  72
ATOM     72  C   UNL A   1      48.016  26.372  29.876  1.00  0.00    -0.014 A 
ATOM     73  C   UNL A   1      48.444  25.785  31.079  1.00  0.00     0.009 A 
ATOM     74  C   UNL A   1      48.917  26.446  28.802  1.00  0.00     0.009 A 
ATOM     75  C   UNL A   1      49.759  25.333  31.218  1.00  0.00     0.001 A 
ATOM     76  C   UNL A   1      50.220  25.962  28.933  1.00  0.00     0.001 A 
ATOM     77  C   UNL A   1      50.643  25.418  30.145  1.00  0.00     0.000 A 
ENDBRANCH  58  72
BRANCH  59  78
ATOM     78  C   UNL A   1      38.526  29.341  29.016  1.00  0.00    -0.014 A 
ATOM     79  C   UNL A   1      37.643  29.255  30.104  1.00  0.00     0.009 A 
ATOM     80  C   UNL A   1      38.055  29.862  27.801  1.00  0.00     0.009 A 
ATOM     81  C   UNL A   1      36.312  29.655  29.970  1.00  0.00     0.001 A 
ATOM     82  C   UNL A   1      36.732  30.291  27.679  1.00  0.00     0.001 A 
ATOM     83  C   UNL A   1      35.859  30.178  28.760  1.00  0.00     0.000 A 
ENDBRANCH  59  78
BRANCH  71  84
ATOM     84  C   UNL A   1      44.370  32.487  31.104  1.00  0.00    -0.014 A 
ATOM     85  C   UNL A   1      44.632  33.529  30.201  1.00  0.00     0.009 A 
ATOM     86  C   UNL A   1      44.348  32.773  32.479  1.00  0.00     0.009 A 
ATOM     87  C   UNL A   1      44.906  34.817  30.667  1.00  0.00     0.001 A 
ATOM     88  C   UNL A   1      44.586  34.068  32.940  1.00  0.00     0.001 A 
ATOM     89  C   UNL A   1      44.878  35.085  32.035  1.00  0.00     0.000 A 
ENDBRANCH  71  84
ENDBRANCH  45  46
ENDBRANCH  37  40
ENDBRANCH  35  36
ENDBRANCH  34  35
ENDBRANCH  33  34
ENDBRANCH   1  33
TORSDOF 18
ENDMDL
MODEL 2
REMARK VINA RESULT:     -11.7      0.311      5.673
REMARK SMILES O=C(C[C@H](NC(=O)[C@]12C[C@H]3C[C@H](C[C@H](C3)C1)C2)c1cccc([N+](=O)[O-])c1)NCCCCCCNC(=O)c1ccc(-c2c3nc(c(-c4ccccc4)c4ccc([nH]4)c(-c4ccccc4)c4nc(c(-c5ccccc5)c5ccc2[nH]5)C=C4)C=C3)cc1
REMARK SMILES IDX 30 1 29 2 28 3 27 4 1 5 2 6 3 8 4 9 18 10 19 11 26 12 20 13
REMARK SMILES IDX 22 14 21 15 23 16 24 17 25 18 5 19 6 20 7 22 8 23 9 24 16 25
REMARK SMILES IDX 17 26 10 27 14 28 12 29 11 30 15 31 13 32 31 33 32 34 33 35
REMARK SMILES IDX 34 36 35 37 36 39 37 40 38 41 84 42 39 43 83 44 40 45 41 46
REMARK SMILES IDX 42 47 77 48 43 49 82 50 76 51 78 52 44 53 81 54 75 55 74 56
REMARK SMILES IDX 45 58 67 59 52 60 66 61 53 62 56 63 65 64 79 65 54 66 55 67
REMARK SMILES IDX 64 69 80 70 57 71 46 72 47 73 51 74 48 75 50 76 49 77 68 78
REMARK SMILES IDX 69 79 73 80 70 81 72 82 71 83 58 84 59 85 63 86 60 87 62 88
REMARK SMILES IDX 61 89
REMARK H PARENT 27 7 5 21 34 38 78 57 56 68
REMARK Flexibility Score: inf
ROOT
ATOM      1  C   UNL A   1      35.646  22.008  24.144  1.00  0.00     0.002 C 
ENDROOT
BRANCH   1   2
ATOM      2  C   UNL A   1      36.094  23.398  24.625  1.00  0.00     0.021 C 
BRANCH   2   3
ATOM      3  C   UNL A   1      35.838  23.665  26.110  1.00  0.00     0.116 C 
BRANCH   3   4
ATOM      4  N   UNL A   1      34.418  23.789  26.350  1.00  0.00    -0.356 N 
ATOM      5  O   UNL A   1      34.176  21.978  27.755  1.00  0.00    -0.275 OA
ATOM      6  C   UNL A   1      33.688  22.869  27.068  1.00  0.00     0.222 C 
ATOM      7  H   UNL A   1      33.949  24.573  25.983  1.00  0.00     0.163 HD
BRANCH   6   8
ATOM      8  C   UNL A   1      32.204  23.057  26.893  1.00  0.00     0.129 C 
BRANCH   8   9
ATOM      9  C   UNL A   1      31.777  23.495  25.487  1.00  0.00     0.122 C 
BRANCH   9  10
ATOM     10  C   UNL A   1      31.758  22.297  24.544  1.00  0.00    -0.018 A 
ATOM     11  C   UNL A   1      31.763  22.426  23.149  1.00  0.00     0.006 A 
ATOM     12  C   UNL A   1      31.987  21.026  25.118  1.00  0.00     0.091 A 
ATOM     13  C   UNL A   1      32.151  21.343  22.349  1.00  0.00     0.007 A 
ATOM     14  C   UNL A   1      32.431  19.969  24.314  1.00  0.00     0.269 A 
ATOM     15  C   UNL A   1      32.526  20.126  22.929  1.00  0.00     0.085 A 
BRANCH  14  16
ATOM     16  N   UNL A   1      32.955  18.758  24.959  1.00  0.00     0.062 N 
ATOM     17  O   UNL A   1      32.271  18.237  25.850  1.00  0.00    -0.258 OA
ATOM     18  O   UNL A   1      34.033  18.308  24.546  1.00  0.00    -0.258 OA
ENDBRANCH  14  16
ENDBRANCH   9  10
BRANCH   9  19
ATOM     19  N   UNL A   1      30.574  24.346  25.429  1.00  0.00    -0.348 N 
ATOM     20  C   UNL A   1      30.325  25.689  25.459  1.00  0.00     0.226 C 
ATOM     21  H   UNL A   1      29.748  23.817  25.348  1.00  0.00     0.164 HD
ATOM     22  O   UNL A   1      29.125  25.985  25.535  1.00  0.00    -0.274 OA
BRANCH  20  23
ATOM     23  C   UNL A   1      31.403  26.805  25.438  1.00  0.00     0.050 C 
ATOM     24  C   UNL A   1      30.898  28.027  24.612  1.00  0.00     0.020 C 
ATOM     25  C   UNL A   1      32.687  26.332  24.755  1.00  0.00     0.020 C 
ATOM     26  C   UNL A   1      31.739  27.323  26.851  1.00  0.00     0.020 C 
ATOM     27  C   UNL A   1      31.983  29.124  24.517  1.00  0.00    -0.010 C 
ATOM     28  C   UNL A   1      33.774  27.393  24.673  1.00  0.00    -0.010 C 
ATOM     29  C   UNL A   1      32.842  28.407  26.779  1.00  0.00    -0.010 C 
ATOM     30  C   UNL A   1      32.350  29.595  25.934  1.00  0.00     0.007 C 
ATOM     31  C   UNL A   1      33.242  28.558  23.844  1.00  0.00     0.007 C 
ATOM     32  C   UNL A   1      34.102  27.829  26.110  1.00  0.00     0.007 C 
ENDBRANCH  20  23
ENDBRANCH   9  19
ENDBRANCH   8   9
ENDBRANCH   6   8
ENDBRANCH   3   4
ENDBRANCH   2   3
ENDBRANCH   1   2
BRANCH   1  33
ATOM     33  C   UNL A   1      36.119  20.836  25.008  1.00  0.00     0.002 C 
BRANCH  33  34
ATOM     34  C   UNL A   1      37.488  20.272  24.629  1.00  0.00     0.021 C 
BRANCH  34  35
ATOM     35  C   UNL A   1      38.607  20.620  25.602  1.00  0.00     0.116 C 
BRANCH  35  36
ATOM     36  N   UNL A   1      39.627  19.585  25.665  1.00  0.00    -0.352 N 
ATOM     37  C   UNL A   1      40.949  19.692  26.022  1.00  0.00     0.251 C 
ATOM     38  H   UNL A   1      39.328  18.681  25.417  1.00  0.00     0.163 HD
ATOM     39  O   UNL A   1      41.714  18.750  25.850  1.00  0.00    -0.269 OA
BRANCH  37  40
ATOM     40  C   UNL A   1      41.453  20.959  26.592  1.00  0.00     0.039 A 
ATOM     41  C   UNL A   1      42.027  21.903  25.738  1.00  0.00     0.014 A 
ATOM     42  C   UNL A   1      41.358  21.218  27.963  1.00  0.00     0.014 A 
ATOM     43  C   UNL A   1      42.452  23.130  26.248  1.00  0.00     0.010 A 
ATOM     44  C   UNL A   1      41.706  22.472  28.456  1.00  0.00     0.010 A 
ATOM     45  C   UNL A   1      42.263  23.438  27.606  1.00  0.00    -0.014 A 
BRANCH  45  46
ATOM     46  C   UNL A   1      42.641  24.767  28.150  1.00  0.00     0.031 A 
ATOM     47  C   UNL A   1      41.599  25.835  28.345  1.00  0.00     0.074 A 
ATOM     48  C   UNL A   1      43.934  25.032  28.421  1.00  0.00     0.049 A 
ATOM     49  N   UNL A   1      41.743  27.056  28.795  1.00  0.00    -0.248 NA
ATOM     50  C   UNL A   1      40.220  25.495  27.961  1.00  0.00     0.031 C 
ATOM     51  C   UNL A   1      45.046  24.096  28.243  1.00  0.00     0.029 A 
ATOM     52  N   UNL A   1      44.530  26.167  28.909  1.00  0.00    -0.354 N 
ATOM     53  C   UNL A   1      40.480  27.632  28.730  1.00  0.00     0.074 A 
ATOM     54  C   UNL A   1      39.596  26.647  28.147  1.00  0.00     0.031 C 
ATOM     55  C   UNL A   1      46.181  24.678  28.662  1.00  0.00     0.029 A 
ATOM     56  C   UNL A   1      45.886  26.041  29.091  1.00  0.00     0.049 A 
ATOM     57  H   UNL A   1      44.033  26.993  29.110  1.00  0.00     0.167 HD
ATOM     58  C   UNL A   1      40.086  28.864  29.135  1.00  0.00     0.031 A 
ATOM     59  C   UNL A   1      46.790  26.924  29.554  1.00  0.00     0.031 A 
ATOM     60  C   UNL A   1      40.966  29.844  29.716  1.00  0.00     0.049 A 
ATOM     61  C   UNL A   1      46.334  28.296  29.965  1.00  0.00     0.074 A 
ATOM     62  C   UNL A   1      40.654  31.095  30.216  1.00  0.00     0.029 A 
ATOM     63  N   UNL A   1      42.337  29.687  29.860  1.00  0.00    -0.354 N 
ATOM     64  N   UNL A   1      45.123  28.798  29.975  1.00  0.00    -0.248 NA
ATOM     65  C   UNL A   1      47.374  29.220  30.438  1.00  0.00     0.031 C 
ATOM     66  C   UNL A   1      41.844  31.722  30.601  1.00  0.00     0.029 A 
ATOM     67  C   UNL A   1      42.890  30.833  30.406  1.00  0.00     0.049 A 
ATOM     68  H   UNL A   1      42.842  28.879  29.611  1.00  0.00     0.167 HD
ATOM     69  C   UNL A   1      45.250  30.083  30.487  1.00  0.00     0.074 A 
ATOM     70  C   UNL A   1      46.654  30.276  30.789  1.00  0.00     0.031 C 
ATOM     71  C   UNL A   1      44.290  31.018  30.693  1.00  0.00     0.031 A 
BRANCH  58  72
ATOM     72  C   UNL A   1      38.638  29.226  28.936  1.00  0.00    -0.014 A 
ATOM     73  C   UNL A   1      38.164  29.712  27.707  1.00  0.00     0.009 A 
ATOM     74  C   UNL A   1      37.730  29.065  29.995  1.00  0.00     0.009 A 
ATOM     75  C   UNL A   1      36.823  30.078  27.559  1.00  0.00     0.001 A 
ATOM     76  C   UNL A   1      36.384  29.398  29.833  1.00  0.00     0.001 A 
ATOM     77  C   UNL A   1      35.935  29.916  28.620  1.00  0.00     0.000 A 
ENDBRANCH  58  72
BRANCH  59  78
ATOM     78  C   UNL A   1      48.218  26.529  29.687  1.00  0.00    -0.014 A 
ATOM     79  C   UNL A   1      48.677  25.924  30.868  1.00  0.00     0.009 A 
ATOM     80  C   UNL A   1      49.128  26.757  28.644  1.00  0.00     0.009 A 
ATOM     81  C   UNL A   1      50.023  25.580  31.010  1.00  0.00     0.001 A 
ATOM     82  C   UNL A   1      50.467  26.382  28.777  1.00  0.00     0.001 A 
ATOM     83  C   UNL A   1      50.915  25.804  29.964  1.00  0.00     0.000 A 
ENDBRANCH  59  78
BRANCH  71  84
ATOM     84  C   UNL A   1      44.720  32.321  31.309  1.00  0.00    -0.014 A 
ATOM     85  C   UNL A   1      44.762  32.497  32.701  1.00  0.00     0.009 A 
ATOM     86  C   UNL A   1      45.116  33.382  30.479  1.00  0.00     0.009 A 
ATOM     87  C   UNL A   1      45.151  33.723  33.247  1.00  0.00     0.001 A 
ATOM     88  C   UNL A   1      45.539  34.594  31.028  1.00  0.00     0.001 A 
ATOM     89  C   UNL A   1      45.543  34.767  32.410  1.00  0.00     0.000 A 
ENDBRANCH  71  84
ENDBRANCH  45  46
ENDBRANCH  37  40
ENDBRANCH  35  36
ENDBRANCH  34  35
ENDBRANCH  33  34
ENDBRANCH   1  33
TORSDOF 18
ENDMDL
MODEL 3
REMARK VINA RESULT:     -11.5      1.633      6.038
REMARK SMILES O=C(C[C@H](NC(=O)[C@]12C[C@H]3C[C@H](C[C@H](C3)C1)C2)c1cccc([N+](=O)[O-])c1)NCCCCCCNC(=O)c1ccc(-c2c3nc(c(-c4ccccc4)c4ccc([nH]4)c(-c4ccccc4)c4nc(c(-c5ccccc5)c5ccc2[nH]5)C=C4)C=C3)cc1
REMARK SMILES IDX 30 1 29 2 28 3 27 4 1 5 2 6 3 8 4 9 18 10 19 11 26 12 20 13
REMARK SMILES IDX 22 14 21 15 23 16 24 17 25 18 5 19 6 20 7 22 8 23 9 24 16 25
REMARK SMILES IDX 17 26 10 27 14 28 12 29 11 30 15 31 13 32 31 33 32 34 33 35
REMARK SMILES IDX 34 36 35 37 36 39 37 40 38 41 84 42 39 43 83 44 40 45 41 46
REMARK SMILES IDX 42 47 77 48 43 49 82 50 76 51 78 52 44 53 81 54 75 55 74 56
REMARK SMILES IDX 45 58 67 59 52 60 66 61 53 62 56 63 65 64 79 65 54 66 55 67
REMARK SMILES IDX 64 69 80 70 57 71 46 72 47 73 51 74 48 75 50 76 49 77 68 78
REMARK SMILES IDX 69 79 73 80 70 81 72 82 71 83 58 84 59 85 63 86 60 87 62 88
REMARK SMILES IDX 61 89
REMARK H PARENT 27 7 5 21 34 38 78 57 56 68
REMARK Flexibility Score: inf
ROOT
ATOM      1  C   UNL A   1      36.258  21.840  24.248  1.00  0.00     0.002 C 
ENDROOT
BRANCH   1   2
ATOM      2  C   UNL A   1      36.802  23.140  24.864  1.00  0.00     0.021 C 
BRANCH   2   3
ATOM      3  C   UNL A   1      36.483  23.317  26.350  1.00  0.00     0.116 C 
BRANCH   3   4
ATOM      4  N   UNL A   1      35.056  23.461  26.533  1.00  0.00    -0.356 N 
ATOM      5  O   UNL A   1      34.690  21.515  27.711  1.00  0.00    -0.275 OA
ATOM      6  C   UNL A   1      34.264  22.493  27.106  1.00  0.00     0.222 C 
ATOM      7  H   UNL A   1      34.629  24.297  26.234  1.00  0.00     0.163 HD
BRANCH   6   8
ATOM      8  C   UNL A   1      32.797  22.749  26.880  1.00  0.00     0.129 C 
BRANCH   8   9
ATOM      9  C   UNL A   1      32.491  23.867  25.877  1.00  0.00     0.122 C 
BRANCH   9  10
ATOM     10  C   UNL A   1      32.842  23.418  24.463  1.00  0.00    -0.018 A 
ATOM     11  C   UNL A   1      32.544  22.139  23.974  1.00  0.00     0.006 A 
ATOM     12  C   UNL A   1      33.265  24.418  23.559  1.00  0.00     0.091 A 
ATOM     13  C   UNL A   1      32.510  21.909  22.592  1.00  0.00     0.007 A 
ATOM     14  C   UNL A   1      33.169  24.196  22.180  1.00  0.00     0.269 A 
ATOM     15  C   UNL A   1      32.780  22.945  21.691  1.00  0.00     0.085 A 
BRANCH  14  16
ATOM     16  N   UNL A   1      33.316  25.335  21.265  1.00  0.00     0.062 N 
ATOM     17  O   UNL A   1      32.934  25.189  20.096  1.00  0.00    -0.258 OA
ATOM     18  O   UNL A   1      33.778  26.388  21.728  1.00  0.00    -0.258 OA
ENDBRANCH  14  16
ENDBRANCH   9  10
BRANCH   9  19
ATOM     19  N   UNL A   1      31.161  24.492  26.014  1.00  0.00    -0.348 N 
ATOM     20  C   UNL A   1      30.693  25.764  26.180  1.00  0.00     0.226 C 
ATOM     21  H   UNL A   1      30.434  23.830  25.976  1.00  0.00     0.164 HD
ATOM     22  O   UNL A   1      29.477  25.836  26.404  1.00  0.00    -0.274 OA
BRANCH  20  23
ATOM     23  C   UNL A   1      31.555  27.054  26.139  1.00  0.00     0.050 C 
ATOM     24  C   UNL A   1      31.280  27.844  24.823  1.00  0.00     0.020 C 
ATOM     25  C   UNL A   1      33.049  26.729  26.136  1.00  0.00     0.020 C 
ATOM     26  C   UNL A   1      31.243  28.005  27.312  1.00  0.00     0.020 C 
ATOM     27  C   UNL A   1      32.180  29.098  24.727  1.00  0.00    -0.010 C 
ATOM     28  C   UNL A   1      33.951  27.953  26.063  1.00  0.00    -0.010 C 
ATOM     29  C   UNL A   1      32.152  29.257  27.245  1.00  0.00    -0.010 C 
ATOM     30  C   UNL A   1      31.901  30.014  25.929  1.00  0.00     0.007 C 
ATOM     31  C   UNL A   1      33.659  28.683  24.756  1.00  0.00     0.007 C 
ATOM     32  C   UNL A   1      33.631  28.833  27.283  1.00  0.00     0.007 C 
ENDBRANCH  20  23
ENDBRANCH   9  19
ENDBRANCH   8   9
ENDBRANCH   6   8
ENDBRANCH   3   4
ENDBRANCH   2   3
ENDBRANCH   1   2
BRANCH   1  33
ATOM     33  C   UNL A   1      36.610  20.560  25.013  1.00  0.00     0.002 C 
BRANCH  33  34
ATOM     34  C   UNL A   1      38.007  20.009  24.730  1.00  0.00     0.021 C 
BRANCH  34  35
ATOM     35  C   UNL A   1      39.025  20.269  25.833  1.00  0.00     0.116 C 
BRANCH  35  36
ATOM     36  N   UNL A   1      40.042  19.231  25.903  1.00  0.00    -0.352 N 
ATOM     37  C   UNL A   1      41.391  19.354  26.127  1.00  0.00     0.251 C 
ATOM     38  H   UNL A   1      39.717  18.312  25.771  1.00  0.00     0.163 HD
ATOM     39  O   UNL A   1      42.133  18.389  25.979  1.00  0.00    -0.269 OA
BRANCH  37  40
ATOM     40  C   UNL A   1      41.951  20.662  26.524  1.00  0.00     0.039 A 
ATOM     41  C   UNL A   1      42.403  21.533  25.530  1.00  0.00     0.014 A 
ATOM     42  C   UNL A   1      42.029  21.032  27.870  1.00  0.00     0.014 A 
ATOM     43  C   UNL A   1      42.878  22.797  25.882  1.00  0.00     0.010 A 
ATOM     44  C   UNL A   1      42.425  22.321  28.212  1.00  0.00     0.010 A 
ATOM     45  C   UNL A   1      42.860  23.215  27.222  1.00  0.00    -0.014 A 
BRANCH  45  46
ATOM     46  C   UNL A   1      43.291  24.584  27.605  1.00  0.00     0.031 A 
ATOM     47  C   UNL A   1      42.272  25.632  27.957  1.00  0.00     0.074 A 
ATOM     48  C   UNL A   1      44.601  24.898  27.585  1.00  0.00     0.049 A 
ATOM     49  N   UNL A   1      42.459  26.882  28.302  1.00  0.00    -0.248 NA
ATOM     50  C   UNL A   1      40.858  25.234  27.888  1.00  0.00     0.031 C 
ATOM     51  C   UNL A   1      45.687  23.983  27.228  1.00  0.00     0.029 A 
ATOM     52  N   UNL A   1      45.241  26.075  27.877  1.00  0.00    -0.354 N 
ATOM     53  C   UNL A   1      41.189  27.419  28.473  1.00  0.00     0.074 A 
ATOM     54  C   UNL A   1      40.241  26.378  28.141  1.00  0.00     0.031 C 
ATOM     55  C   UNL A   1      46.861  24.619  27.369  1.00  0.00     0.029 A 
ATOM     56  C   UNL A   1      46.609  25.997  27.778  1.00  0.00     0.049 A 
ATOM     57  H   UNL A   1      44.766  26.899  28.134  1.00  0.00     0.167 HD
ATOM     58  C   UNL A   1      40.840  28.662  28.886  1.00  0.00     0.031 A 
ATOM     59  C   UNL A   1      47.555  26.930  27.995  1.00  0.00     0.031 A 
ATOM     60  C   UNL A   1      41.784  29.698  29.217  1.00  0.00     0.049 A 
ATOM     61  C   UNL A   1      47.142  28.311  28.420  1.00  0.00     0.074 A 
ATOM     62  C   UNL A   1      41.534  30.968  29.706  1.00  0.00     0.029 A 
ATOM     63  N   UNL A   1      43.160  29.586  29.080  1.00  0.00    -0.354 N 
ATOM     64  N   UNL A   1      45.941  28.780  28.656  1.00  0.00    -0.248 NA
ATOM     65  C   UNL A   1      48.221  29.288  28.615  1.00  0.00     0.031 C 
ATOM     66  C   UNL A   1      42.753  31.648  29.800  1.00  0.00     0.029 A 
ATOM     67  C   UNL A   1      43.769  30.777  29.437  1.00  0.00     0.049 A 
ATOM     68  H   UNL A   1      43.633  28.779  28.773  1.00  0.00     0.167 HD
ATOM     69  C   UNL A   1      46.122  30.097  29.062  1.00  0.00     0.074 A 
ATOM     70  C   UNL A   1      47.549  30.344  29.053  1.00  0.00     0.031 C 
ATOM     71  C   UNL A   1      45.190  31.015  29.415  1.00  0.00     0.031 A 
BRANCH  58  72
ATOM     72  C   UNL A   1      39.370  28.973  28.976  1.00  0.00    -0.014 A 
ATOM     73  C   UNL A   1      38.647  28.770  30.163  1.00  0.00     0.009 A 
ATOM     74  C   UNL A   1      38.699  29.489  27.856  1.00  0.00     0.009 A 
ATOM     75  C   UNL A   1      37.275  29.030  30.210  1.00  0.00     0.001 A 
ATOM     76  C   UNL A   1      37.335  29.781  27.917  1.00  0.00     0.001 A 
ATOM     77  C   UNL A   1      36.622  29.538  29.090  1.00  0.00     0.000 A 
ENDBRANCH  58  72
BRANCH  59  78
ATOM     78  C   UNL A   1      48.994  26.581  27.847  1.00  0.00    -0.014 A 
ATOM     79  C   UNL A   1      49.627  26.708  26.600  1.00  0.00     0.009 A 
ATOM     80  C   UNL A   1      49.739  26.116  28.942  1.00  0.00     0.009 A 
ATOM     81  C   UNL A   1      50.968  26.351  26.448  1.00  0.00     0.001 A 
ATOM     82  C   UNL A   1      51.089  25.791  28.793  1.00  0.00     0.001 A 
ATOM     83  C   UNL A   1      51.699  25.898  27.545  1.00  0.00     0.000 A 
ENDBRANCH  59  78
BRANCH  71  84
ATOM     84  C   UNL A   1      45.689  32.364  29.858  1.00  0.00    -0.014 A 
ATOM     85  C   UNL A   1      46.024  32.620  31.196  1.00  0.00     0.009 A 
ATOM     86  C   UNL A   1      45.850  33.388  28.911  1.00  0.00     0.009 A 
ATOM     87  C   UNL A   1      46.470  33.886  31.584  1.00  0.00     0.001 A 
ATOM     88  C   UNL A   1      46.330  34.641  29.294  1.00  0.00     0.001 A 
ATOM     89  C   UNL A   1      46.627  34.892  30.632  1.00  0.00     0.000 A 
ENDBRANCH  71  84
ENDBRANCH  45  46
ENDBRANCH  37  40
ENDBRANCH  35  36
ENDBRANCH  34  35
ENDBRANCH  33  34
ENDBRANCH   1  33
TORSDOF 18
ENDMDL
