MODEL 1
REMARK VINA RESULT:     -12.4      0.000      0.000
REMARK SMILES O=C(NCCCCCCNC(=O)c1nn(Cc2ccc(F)cc2)c2c1CN(C(=O)[C@H]1CC1(F)F)CC2)c1ccc(-c2c3nc(c(-c4ccccc4)c4ccc([nH]4)c(-c4ccccc4)c4nc(c(-c5ccccc5)c5ccc2[nH]5)C=C4)C=C3)cc1
REMARK SMILES IDX 6 1 5 2 4 3 3 4 1 5 2 6 37 8 38 9 84 10 39 11 83 12 40 13
REMARK SMILES IDX 41 14 42 15 77 16 43 17 82 18 76 19 78 20 44 21 81 22 75 23
REMARK SMILES IDX 74 24 45 26 67 27 52 28 66 29 53 30 56 31 65 32 79 33 54 34
REMARK SMILES IDX 55 35 64 37 80 38 57 39 46 40 47 41 51 42 48 43 50 44 49 45
REMARK SMILES IDX 68 46 69 47 73 48 70 49 72 50 71 51 58 52 59 53 63 54 60 55
REMARK SMILES IDX 62 56 61 57 7 58 8 59 9 60 10 61 11 62 12 64 13 65 14 66
REMARK SMILES IDX 25 67 15 68 24 69 26 70 36 71 27 72 35 73 16 74 17 75 18 76
REMARK SMILES IDX 23 77 19 78 22 79 20 80 21 81 28 82 29 83 30 84 31 85 32 86
REMARK SMILES IDX 33 87 34 88
REMARK H PARENT 3 7 78 25 56 36 10 63
REMARK Flexibility Score: inf
ROOT
ATOM      1  C   UNL A   1      40.377  20.979  26.605  1.00  0.00     0.002 C 
ENDROOT
BRANCH   1   2
ATOM      2  C   UNL A   1      40.815  19.616  26.054  1.00  0.00     0.021 C 
BRANCH   2   3
ATOM      3  C   UNL A   1      42.260  19.223  26.359  1.00  0.00     0.116 C 
BRANCH   3   4
ATOM      4  N   UNL A   1      43.210  19.538  25.312  1.00  0.00    -0.352 N 
ATOM      5  O   UNL A   1      44.764  20.510  24.071  1.00  0.00    -0.269 OA
ATOM      6  C   UNL A   1      43.922  20.652  24.960  1.00  0.00     0.251 C 
ATOM      7  H   UNL A   1      43.383  18.775  24.714  1.00  0.00     0.163 HD
BRANCH   6   8
ATOM      8  C   UNL A   1      43.711  22.015  25.523  1.00  0.00     0.039 A 
ATOM      9  C   UNL A   1      42.917  23.017  24.963  1.00  0.00     0.014 A 
ATOM     10  C   UNL A   1      44.378  22.286  26.734  1.00  0.00     0.014 A 
ATOM     11  C   UNL A   1      42.842  24.274  25.560  1.00  0.00     0.010 A 
ATOM     12  C   UNL A   1      44.295  23.534  27.342  1.00  0.00     0.010 A 
ATOM     13  C   UNL A   1      43.542  24.538  26.741  1.00  0.00    -0.014 A 
BRANCH  13  14
ATOM     14  C   UNL A   1      43.317  25.819  27.410  1.00  0.00     0.031 A 
ATOM     15  C   UNL A   1      44.302  26.888  27.082  1.00  0.00     0.074 A 
ATOM     16  C   UNL A   1      42.217  26.119  28.129  1.00  0.00     0.049 A 
ATOM     17  N   UNL A   1      45.074  27.542  27.889  1.00  0.00    -0.248 NA
ATOM     18  C   UNL A   1      44.491  27.228  25.663  1.00  0.00     0.031 C 
ATOM     19  C   UNL A   1      41.005  25.314  28.286  1.00  0.00     0.029 A 
ATOM     20  N   UNL A   1      41.907  27.280  28.780  1.00  0.00    -0.354 N 
ATOM     21  C   UNL A   1      45.727  28.495  27.108  1.00  0.00     0.074 A 
ATOM     22  C   UNL A   1      45.427  28.174  25.735  1.00  0.00     0.031 C 
ATOM     23  C   UNL A   1      40.018  26.091  28.787  1.00  0.00     0.029 A 
ATOM     24  C   UNL A   1      40.562  27.402  29.101  1.00  0.00     0.049 A 
ATOM     25  H   UNL A   1      42.578  27.967  29.001  1.00  0.00     0.167 HD
ATOM     26  C   UNL A   1      46.290  29.611  27.647  1.00  0.00     0.031 A 
ATOM     27  C   UNL A   1      39.924  28.517  29.536  1.00  0.00     0.031 A 
ATOM     28  C   UNL A   1      46.502  29.487  29.065  1.00  0.00     0.049 A 
ATOM     29  C   UNL A   1      40.936  29.464  30.047  1.00  0.00     0.074 A 
ATOM     30  C   UNL A   1      47.204  28.626  29.883  1.00  0.00     0.029 A 
ATOM     31  N   UNL A   1      45.654  30.180  29.893  1.00  0.00    -0.354 N 
ATOM     32  N   UNL A   1      41.604  29.289  31.149  1.00  0.00    -0.248 NA
ATOM     33  C   UNL A   1      41.480  30.462  29.139  1.00  0.00     0.031 C 
ATOM     34  C   UNL A   1      46.409  28.507  31.061  1.00  0.00     0.029 A 
ATOM     35  C   UNL A   1      45.295  29.332  30.904  1.00  0.00     0.049 A 
ATOM     36  H   UNL A   1      45.359  31.112  29.779  1.00  0.00     0.167 HD
ATOM     37  C   UNL A   1      42.861  29.808  30.883  1.00  0.00     0.074 A 
ATOM     38  C   UNL A   1      42.684  30.631  29.690  1.00  0.00     0.031 C 
ATOM     39  C   UNL A   1      43.973  29.292  31.485  1.00  0.00     0.031 A 
BRANCH  26  40
ATOM     40  C   UNL A   1      46.257  30.964  26.969  1.00  0.00    -0.014 A 
ATOM     41  C   UNL A   1      47.431  31.742  26.955  1.00  0.00     0.009 A 
ATOM     42  C   UNL A   1      45.061  31.622  26.629  1.00  0.00     0.009 A 
ATOM     43  C   UNL A   1      47.390  33.121  26.711  1.00  0.00     0.001 A 
ATOM     44  C   UNL A   1      45.023  32.989  26.337  1.00  0.00     0.001 A 
ATOM     45  C   UNL A   1      46.184  33.745  26.413  1.00  0.00     0.000 A 
ENDBRANCH  26  40
BRANCH  27  46
ATOM     46  C   UNL A   1      38.514  28.922  29.349  1.00  0.00    -0.014 A 
ATOM     47  C   UNL A   1      37.693  29.199  30.455  1.00  0.00     0.009 A 
ATOM     48  C   UNL A   1      38.046  29.294  28.076  1.00  0.00     0.009 A 
ATOM     49  C   UNL A   1      36.469  29.861  30.294  1.00  0.00     0.001 A 
ATOM     50  C   UNL A   1      36.822  29.949  27.915  1.00  0.00     0.001 A 
ATOM     51  C   UNL A   1      36.040  30.247  29.026  1.00  0.00     0.000 A 
ENDBRANCH  27  46
BRANCH  39  52
ATOM     52  C   UNL A   1      43.781  28.374  32.664  1.00  0.00    -0.014 A 
ATOM     53  C   UNL A   1      43.774  26.973  32.552  1.00  0.00     0.009 A 
ATOM     54  C   UNL A   1      43.742  28.939  33.947  1.00  0.00     0.009 A 
ATOM     55  C   UNL A   1      43.686  26.164  33.689  1.00  0.00     0.001 A 
ATOM     56  C   UNL A   1      43.680  28.131  35.084  1.00  0.00     0.001 A 
ATOM     57  C   UNL A   1      43.644  26.745  34.955  1.00  0.00     0.000 A 
ENDBRANCH  39  52
ENDBRANCH  13  14
ENDBRANCH   6   8
ENDBRANCH   3   4
ENDBRANCH   2   3
ENDBRANCH   1   2
BRANCH   1  58
ATOM     58  C   UNL A   1      39.120  21.592  25.976  1.00  0.00     0.002 C 
BRANCH  58  59
ATOM     59  C   UNL A   1      38.755  23.003  26.450  1.00  0.00     0.021 C 
BRANCH  59  60
ATOM     60  C   UNL A   1      37.409  23.536  25.946  1.00  0.00     0.116 C 
BRANCH  60  61
ATOM     61  N   UNL A   1      37.368  23.600  24.494  1.00  0.00    -0.351 N 
ATOM     62  C   UNL A   1      36.349  23.257  23.629  1.00  0.00     0.272 C 
ATOM     63  H   UNL A   1      38.187  23.936  24.064  1.00  0.00     0.163 HD
ATOM     64  O   UNL A   1      36.616  23.153  22.432  1.00  0.00    -0.267 OA
BRANCH  62  65
ATOM     65  C   UNL A   1      34.997  22.979  24.144  1.00  0.00     0.155 A 
ATOM     66  N   UNL A   1      34.544  21.733  24.396  1.00  0.00    -0.167 NA
ATOM     67  C   UNL A   1      34.010  23.942  24.497  1.00  0.00     0.026 A 
ATOM     68  N   UNL A   1      33.260  21.893  24.786  1.00  0.00    -0.264 N 
ATOM     69  C   UNL A   1      32.888  23.202  24.814  1.00  0.00     0.046 A 
ATOM     70  C   UNL A   1      34.050  25.436  24.476  1.00  0.00     0.159 C 
ATOM     71  C   UNL A   1      31.557  23.781  25.127  1.00  0.00     0.078 C 
ATOM     72  N   UNL A   1      32.761  25.956  24.991  1.00  0.00    -0.337 N 
ATOM     73  C   UNL A   1      31.542  25.227  24.584  1.00  0.00     0.126 C 
BRANCH  68  74
ATOM     74  C   UNL A   1      32.480  20.730  25.186  1.00  0.00     0.180 C 
BRANCH  74  75
ATOM     75  C   UNL A   1      32.962  19.469  24.508  1.00  0.00    -0.026 A 
ATOM     76  C   UNL A   1      32.354  19.036  23.317  1.00  0.00     0.008 A 
ATOM     77  C   UNL A   1      34.004  18.706  25.058  1.00  0.00     0.008 A 
ATOM     78  C   UNL A   1      32.780  17.869  22.686  1.00  0.00     0.039 A 
ATOM     79  C   UNL A   1      34.430  17.538  24.423  1.00  0.00     0.039 A 
ATOM     80  C   UNL A   1      33.815  17.131  23.244  1.00  0.00     0.123 A 
ATOM     81  F   UNL A   1      34.225  16.007  22.640  1.00  0.00    -0.207 F 
ENDBRANCH  74  75
ENDBRANCH  68  74
BRANCH  72  82
ATOM     82  C   UNL A   1      32.776  27.089  25.794  1.00  0.00     0.232 C 
ATOM     83  O   UNL A   1      33.716  27.400  26.509  1.00  0.00    -0.274 OA
BRANCH  82  84
ATOM     84  C   UNL A   1      31.600  27.982  25.717  1.00  0.00     0.154 C 
ATOM     85  C   UNL A   1      31.754  29.490  25.842  1.00  0.00     0.097 C 
ATOM     86  C   UNL A   1      31.406  28.866  24.543  1.00  0.00     0.260 C 
ATOM     87  F   UNL A   1      32.300  28.969  23.506  1.00  0.00    -0.206 F 
ATOM     88  F   UNL A   1      30.149  29.083  24.024  1.00  0.00    -0.206 F 
ENDBRANCH  82  84
ENDBRANCH  72  82
ENDBRANCH  62  65
ENDBRANCH  60  61
ENDBRANCH  59  60
ENDBRANCH  58  59
ENDBRANCH   1  58
TORSDOF 17
ENDMDL
MODEL 2
REMARK VINA RESULT:     -12.3      2.634      7.698
REMARK SMILES O=C(NCCCCCCNC(=O)c1nn(Cc2ccc(F)cc2)c2c1CN(C(=O)[C@H]1CC1(F)F)CC2)c1ccc(-c2c3nc(c(-c4ccccc4)c4ccc([nH]4)c(-c4ccccc4)c4nc(c(-c5ccccc5)c5ccc2[nH]5)C=C4)C=C3)cc1
REMARK SMILES IDX 6 1 5 2 4 3 3 4 1 5 2 6 37 8 38 9 84 10 39 11 83 12 40 13
REMARK SMILES IDX 41 14 42 15 77 16 43 17 82 18 76 19 78 20 44 21 81 22 75 23
REMARK SMILES IDX 74 24 45 26 67 27 52 28 66 29 53 30 56 31 65 32 79 33 54 34
REMARK SMILES IDX 55 35 64 37 80 38 57 39 46 40 47 41 51 42 48 43 50 44 49 45
REMARK SMILES IDX 68 46 69 47 73 48 70 49 72 50 71 51 58 52 59 53 63 54 60 55
REMARK SMILES IDX 62 56 61 57 7 58 8 59 9 60 10 61 11 62 12 64 13 65 14 66
REMARK SMILES IDX 25 67 15 68 24 69 26 70 36 71 27 72 35 73 16 74 17 75 18 76
REMARK SMILES IDX 23 77 19 78 22 79 20 80 21 81 28 82 29 83 30 84 31 85 32 86
REMARK SMILES IDX 33 87 34 88
REMARK H PARENT 3 7 78 25 56 36 10 63
REMARK Flexibility Score: inf
ROOT
ATOM      1  C   UNL A   1      32.199  28.357  25.423  1.00  0.00     0.002 C 
ENDROOT
BRANCH   1   2
ATOM      2  C   UNL A   1      32.107  29.702  26.153  1.00  0.00     0.021 C 
BRANCH   2   3
ATOM      3  C   UNL A   1      33.111  29.898  27.290  1.00  0.00     0.116 C 
BRANCH   3   4
ATOM      4  N   UNL A   1      33.548  31.265  27.487  1.00  0.00    -0.352 N 
ATOM      5  O   UNL A   1      34.769  33.100  27.686  1.00  0.00    -0.269 OA
ATOM      6  C   UNL A   1      34.756  31.867  27.708  1.00  0.00     0.251 C 
ATOM      7  H   UNL A   1      32.804  31.909  27.455  1.00  0.00     0.163 HD
BRANCH   6   8
ATOM      8  C   UNL A   1      36.022  31.153  28.030  1.00  0.00     0.039 A 
ATOM      9  C   UNL A   1      36.347  29.851  27.644  1.00  0.00     0.014 A 
ATOM     10  C   UNL A   1      36.962  31.884  28.782  1.00  0.00     0.014 A 
ATOM     11  C   UNL A   1      37.548  29.273  28.054  1.00  0.00     0.010 A 
ATOM     12  C   UNL A   1      38.168  31.317  29.182  1.00  0.00     0.010 A 
ATOM     13  C   UNL A   1      38.451  29.999  28.834  1.00  0.00    -0.014 A 
BRANCH  13  14
ATOM     14  C   UNL A   1      39.759  29.407  29.115  1.00  0.00     0.031 A 
ATOM     15  C   UNL A   1      40.021  29.098  30.549  1.00  0.00     0.074 A 
ATOM     16  C   UNL A   1      40.621  28.983  28.170  1.00  0.00     0.049 A 
ATOM     17  N   UNL A   1      40.978  29.535  31.302  1.00  0.00    -0.248 NA
ATOM     18  C   UNL A   1      39.055  28.235  31.247  1.00  0.00     0.031 C 
ATOM     19  C   UNL A   1      40.395  28.905  26.725  1.00  0.00     0.029 A 
ATOM     20  N   UNL A   1      41.852  28.409  28.325  1.00  0.00    -0.354 N 
ATOM     21  C   UNL A   1      40.839  28.876  32.523  1.00  0.00     0.074 A 
ATOM     22  C   UNL A   1      39.573  28.189  32.474  1.00  0.00     0.031 C 
ATOM     23  C   UNL A   1      41.348  28.122  26.169  1.00  0.00     0.029 A 
ATOM     24  C   UNL A   1      42.313  27.752  27.193  1.00  0.00     0.049 A 
ATOM     25  H   UNL A   1      42.365  28.460  29.164  1.00  0.00     0.167 HD
ATOM     26  C   UNL A   1      41.870  28.760  33.405  1.00  0.00     0.031 A 
ATOM     27  C   UNL A   1      43.374  26.912  27.111  1.00  0.00     0.031 A 
ATOM     28  C   UNL A   1      42.922  29.706  33.146  1.00  0.00     0.049 A 
ATOM     29  C   UNL A   1      44.240  27.139  28.286  1.00  0.00     0.074 A 
ATOM     30  C   UNL A   1      43.013  31.082  33.078  1.00  0.00     0.029 A 
ATOM     31  N   UNL A   1      44.075  29.228  32.576  1.00  0.00    -0.354 N 
ATOM     32  N   UNL A   1      44.963  28.206  28.460  1.00  0.00    -0.248 NA
ATOM     33  C   UNL A   1      44.035  26.323  29.473  1.00  0.00     0.031 C 
ATOM     34  C   UNL A   1      43.972  31.338  32.054  1.00  0.00     0.029 A 
ATOM     35  C   UNL A   1      44.433  30.106  31.590  1.00  0.00     0.049 A 
ATOM     36  H   UNL A   1      44.555  28.406  32.829  1.00  0.00     0.167 HD
ATOM     37  C   UNL A   1      44.928  28.433  29.827  1.00  0.00     0.074 A 
ATOM     38  C   UNL A   1      44.462  27.177  30.406  1.00  0.00     0.031 C 
ATOM     39  C   UNL A   1      45.007  29.701  30.328  1.00  0.00     0.031 A 
BRANCH  26  40
ATOM     40  C   UNL A   1      42.113  27.517  34.233  1.00  0.00    -0.014 A 
ATOM     41  C   UNL A   1      41.853  27.564  35.616  1.00  0.00     0.009 A 
ATOM     42  C   UNL A   1      42.869  26.424  33.772  1.00  0.00     0.009 A 
ATOM     43  C   UNL A   1      42.404  26.624  36.496  1.00  0.00     0.001 A 
ATOM     44  C   UNL A   1      43.381  25.456  34.642  1.00  0.00     0.001 A 
ATOM     45  C   UNL A   1      43.177  25.576  36.009  1.00  0.00     0.000 A 
ENDBRANCH  26  40
BRANCH  27  46
ATOM     46  C   UNL A   1      43.595  25.768  26.200  1.00  0.00    -0.014 A 
ATOM     47  C   UNL A   1      44.819  25.610  25.528  1.00  0.00     0.009 A 
ATOM     48  C   UNL A   1      42.699  24.684  26.193  1.00  0.00     0.009 A 
ATOM     49  C   UNL A   1      45.149  24.398  24.909  1.00  0.00     0.001 A 
ATOM     50  C   UNL A   1      43.026  23.476  25.569  1.00  0.00     0.001 A 
ATOM     51  C   UNL A   1      44.257  23.327  24.940  1.00  0.00     0.000 A 
ENDBRANCH  27  46
BRANCH  39  52
ATOM     52  C   UNL A   1      45.443  30.806  29.400  1.00  0.00    -0.014 A 
ATOM     53  C   UNL A   1      46.767  31.271  29.331  1.00  0.00     0.009 A 
ATOM     54  C   UNL A   1      44.515  31.297  28.469  1.00  0.00     0.009 A 
ATOM     55  C   UNL A   1      47.139  32.233  28.386  1.00  0.00     0.001 A 
ATOM     56  C   UNL A   1      44.893  32.238  27.509  1.00  0.00     0.001 A 
ATOM     57  C   UNL A   1      46.202  32.712  27.474  1.00  0.00     0.000 A 
ENDBRANCH  39  52
ENDBRANCH  13  14
ENDBRANCH   6   8
ENDBRANCH   3   4
ENDBRANCH   2   3
ENDBRANCH   1   2
BRANCH   1  58
ATOM     58  C   UNL A   1      33.500  27.569  25.616  1.00  0.00     0.002 C 
BRANCH  58  59
ATOM     59  C   UNL A   1      33.478  26.114  25.133  1.00  0.00     0.021 C 
BRANCH  59  60
ATOM     60  C   UNL A   1      32.086  25.490  24.995  1.00  0.00     0.116 C 
BRANCH  60  61
ATOM     61  N   UNL A   1      31.650  24.873  26.238  1.00  0.00    -0.351 N 
ATOM     62  C   UNL A   1      31.675  23.545  26.613  1.00  0.00     0.272 C 
ATOM     63  H   UNL A   1      31.285  25.491  26.910  1.00  0.00     0.163 HD
ATOM     64  O   UNL A   1      31.028  23.212  27.607  1.00  0.00    -0.267 OA
BRANCH  62  65
ATOM     65  C   UNL A   1      32.418  22.558  25.811  1.00  0.00     0.155 A 
ATOM     66  N   UNL A   1      31.820  21.692  24.965  1.00  0.00    -0.167 NA
ATOM     67  C   UNL A   1      33.832  22.400  25.759  1.00  0.00     0.026 A 
ATOM     68  N   UNL A   1      32.819  20.924  24.478  1.00  0.00    -0.264 N 
ATOM     69  C   UNL A   1      34.036  21.287  24.966  1.00  0.00     0.046 A 
ATOM     70  C   UNL A   1      34.926  23.155  26.442  1.00  0.00     0.159 C 
ATOM     71  C   UNL A   1      35.358  20.658  24.723  1.00  0.00     0.078 C 
ATOM     72  N   UNL A   1      36.231  22.608  26.001  1.00  0.00    -0.337 N 
ATOM     73  C   UNL A   1      36.314  21.142  25.836  1.00  0.00     0.126 C 
BRANCH  68  74
ATOM     74  C   UNL A   1      32.520  19.903  23.483  1.00  0.00     0.180 C 
BRANCH  74  75
ATOM     75  C   UNL A   1      32.826  18.514  23.992  1.00  0.00    -0.026 A 
ATOM     76  C   UNL A   1      32.437  18.143  25.291  1.00  0.00     0.008 A 
ATOM     77  C   UNL A   1      33.512  17.586  23.193  1.00  0.00     0.008 A 
ATOM     78  C   UNL A   1      32.722  16.869  25.780  1.00  0.00     0.039 A 
ATOM     79  C   UNL A   1      33.795  16.310  23.685  1.00  0.00     0.039 A 
ATOM     80  C   UNL A   1      33.398  15.964  24.972  1.00  0.00     0.123 A 
ATOM     81  F   UNL A   1      33.676  14.740  25.441  1.00  0.00    -0.207 F 
ENDBRANCH  74  75
ENDBRANCH  68  74
BRANCH  72  82
ATOM     82  C   UNL A   1      37.284  23.489  25.793  1.00  0.00     0.232 C 
ATOM     83  O   UNL A   1      37.583  23.940  24.698  1.00  0.00    -0.274 OA
BRANCH  82  84
ATOM     84  C   UNL A   1      38.032  23.938  26.988  1.00  0.00     0.154 C 
ATOM     85  C   UNL A   1      39.440  23.436  27.262  1.00  0.00     0.097 C 
ATOM     86  C   UNL A   1      39.200  24.838  26.845  1.00  0.00     0.260 C 
ATOM     87  F   UNL A   1      39.701  25.259  25.638  1.00  0.00    -0.206 F 
ATOM     88  F   UNL A   1      39.429  25.845  27.757  1.00  0.00    -0.206 F 
ENDBRANCH  82  84
ENDBRANCH  72  82
ENDBRANCH  62  65
ENDBRANCH  60  61
ENDBRANCH  59  60
ENDBRANCH  58  59
ENDBRANCH   1  58
TORSDOF 17
ENDMDL
MODEL 3
REMARK VINA RESULT:     -12.2      3.106      8.779
REMARK SMILES O=C(NCCCCCCNC(=O)c1nn(Cc2ccc(F)cc2)c2c1CN(C(=O)[C@H]1CC1(F)F)CC2)c1ccc(-c2c3nc(c(-c4ccccc4)c4ccc([nH]4)c(-c4ccccc4)c4nc(c(-c5ccccc5)c5ccc2[nH]5)C=C4)C=C3)cc1
REMARK SMILES IDX 6 1 5 2 4 3 3 4 1 5 2 6 37 8 38 9 84 10 39 11 83 12 40 13
REMARK SMILES IDX 41 14 42 15 77 16 43 17 82 18 76 19 78 20 44 21 81 22 75 23
REMARK SMILES IDX 74 24 45 26 67 27 52 28 66 29 53 30 56 31 65 32 79 33 54 34
REMARK SMILES IDX 55 35 64 37 80 38 57 39 46 40 47 41 51 42 48 43 50 44 49 45
REMARK SMILES IDX 68 46 69 47 73 48 70 49 72 50 71 51 58 52 59 53 63 54 60 55
REMARK SMILES IDX 62 56 61 57 7 58 8 59 9 60 10 61 11 62 12 64 13 65 14 66
REMARK SMILES IDX 25 67 15 68 24 69 26 70 36 71 27 72 35 73 16 74 17 75 18 76
REMARK SMILES IDX 23 77 19 78 22 79 20 80 21 81 28 82 29 83 30 84 31 85 32 86
REMARK SMILES IDX 33 87 34 88
REMARK H PARENT 3 7 78 25 56 36 10 63
REMARK Flexibility Score: inf
ROOT
ATOM      1  C   UNL A   1      36.299  31.688  28.131  1.00  0.00     0.002 C 
ENDROOT
BRANCH   1   2
ATOM      2  C   UNL A   1      35.998  33.061  28.745  1.00  0.00     0.021 C 
BRANCH   2   3
ATOM      3  C   UNL A   1      37.207  33.981  28.914  1.00  0.00     0.116 C 
BRANCH   3   4
ATOM      4  N   UNL A   1      37.630  34.186  30.284  1.00  0.00    -0.352 N 
ATOM      5  O   UNL A   1      38.747  34.151  32.194  1.00  0.00    -0.269 OA
ATOM      6  C   UNL A   1      38.562  33.610  31.102  1.00  0.00     0.251 C 
ATOM      7  H   UNL A   1      37.129  34.907  30.730  1.00  0.00     0.163 HD
BRANCH   6   8
ATOM      8  C   UNL A   1      39.312  32.360  30.796  1.00  0.00     0.039 A 
ATOM      9  C   UNL A   1      40.658  32.282  30.436  1.00  0.00     0.014 A 
ATOM     10  C   UNL A   1      38.575  31.164  30.899  1.00  0.00     0.014 A 
ATOM     11  C   UNL A   1      41.235  31.052  30.122  1.00  0.00     0.010 A 
ATOM     12  C   UNL A   1      39.149  29.933  30.601  1.00  0.00     0.010 A 
ATOM     13  C   UNL A   1      40.477  29.879  30.190  1.00  0.00    -0.014 A 
BRANCH  13  14
ATOM     14  C   UNL A   1      41.159  28.600  29.998  1.00  0.00     0.031 A 
ATOM     15  C   UNL A   1      41.993  28.147  31.148  1.00  0.00     0.074 A 
ATOM     16  C   UNL A   1      40.940  27.768  28.961  1.00  0.00     0.049 A 
ATOM     17  N   UNL A   1      43.259  27.879  31.164  1.00  0.00    -0.248 NA
ATOM     18  C   UNL A   1      41.339  28.036  32.462  1.00  0.00     0.031 C 
ATOM     19  C   UNL A   1      39.923  27.894  27.915  1.00  0.00     0.029 A 
ATOM     20  N   UNL A   1      41.512  26.555  28.697  1.00  0.00    -0.354 N 
ATOM     21  C   UNL A   1      43.535  27.404  32.445  1.00  0.00     0.074 A 
ATOM     22  C   UNL A   1      42.351  27.640  33.232  1.00  0.00     0.031 C 
ATOM     23  C   UNL A   1      39.801  26.711  27.271  1.00  0.00     0.029 A 
ATOM     24  C   UNL A   1      40.809  25.792  27.774  1.00  0.00     0.049 A 
ATOM     25  H   UNL A   1      42.346  26.252  29.122  1.00  0.00     0.167 HD
ATOM     26  C   UNL A   1      44.635  26.649  32.716  1.00  0.00     0.031 A 
ATOM     27  C   UNL A   1      40.999  24.481  27.485  1.00  0.00     0.031 A 
ATOM     28  C   UNL A   1      45.640  26.759  31.693  1.00  0.00     0.049 A 
ATOM     29  C   UNL A   1      42.343  24.089  27.960  1.00  0.00     0.074 A 
ATOM     30  C   UNL A   1      46.370  27.790  31.137  1.00  0.00     0.029 A 
ATOM     31  N   UNL A   1      45.794  25.692  30.842  1.00  0.00    -0.354 N 
ATOM     32  N   UNL A   1      43.452  24.481  27.405  1.00  0.00    -0.248 NA
ATOM     33  C   UNL A   1      42.476  23.531  29.296  1.00  0.00     0.031 C 
ATOM     34  C   UNL A   1      46.518  27.438  29.763  1.00  0.00     0.029 A 
ATOM     35  C   UNL A   1      45.905  26.198  29.576  1.00  0.00     0.049 A 
ATOM     36  H   UNL A   1      45.819  24.741  31.096  1.00  0.00     0.167 HD
ATOM     37  C   UNL A   1      44.336  24.635  28.460  1.00  0.00     0.074 A 
ATOM     38  C   UNL A   1      43.726  23.911  29.572  1.00  0.00     0.031 C 
ATOM     39  C   UNL A   1      45.330  25.570  28.410  1.00  0.00     0.031 A 
BRANCH  26  40
ATOM     40  C   UNL A   1      44.625  25.492  33.692  1.00  0.00    -0.014 A 
ATOM     41  C   UNL A   1      44.169  24.236  33.247  1.00  0.00     0.009 A 
ATOM     42  C   UNL A   1      44.744  25.661  35.083  1.00  0.00     0.009 A 
ATOM     43  C   UNL A   1      43.763  23.244  34.149  1.00  0.00     0.001 A 
ATOM     44  C   UNL A   1      44.386  24.656  35.987  1.00  0.00     0.001 A 
ATOM     45  C   UNL A   1      43.862  23.459  35.519  1.00  0.00     0.000 A 
ENDBRANCH  26  40
BRANCH  27  46
ATOM     46  C   UNL A   1      40.022  23.474  27.018  1.00  0.00    -0.014 A 
ATOM     47  C   UNL A   1      38.765  23.866  26.528  1.00  0.00     0.009 A 
ATOM     48  C   UNL A   1      40.422  22.143  26.806  1.00  0.00     0.009 A 
ATOM     49  C   UNL A   1      37.959  22.969  25.816  1.00  0.00     0.001 A 
ATOM     50  C   UNL A   1      39.614  21.245  26.101  1.00  0.00     0.001 A 
ATOM     51  C   UNL A   1      38.389  21.662  25.592  1.00  0.00     0.000 A 
ENDBRANCH  27  46
BRANCH  39  52
ATOM     52  C   UNL A   1      45.641  26.204  27.079  1.00  0.00    -0.014 A 
ATOM     53  C   UNL A   1      44.726  27.011  26.381  1.00  0.00     0.009 A 
ATOM     54  C   UNL A   1      46.947  26.095  26.579  1.00  0.00     0.009 A 
ATOM     55  C   UNL A   1      45.096  27.653  25.195  1.00  0.00     0.001 A 
ATOM     56  C   UNL A   1      47.325  26.757  25.409  1.00  0.00     0.001 A 
ATOM     57  C   UNL A   1      46.397  27.529  24.714  1.00  0.00     0.000 A 
ENDBRANCH  39  52
ENDBRANCH  13  14
ENDBRANCH   6   8
ENDBRANCH   3   4
ENDBRANCH   2   3
ENDBRANCH   1   2
BRANCH   1  58
ATOM     58  C   UNL A   1      35.132  30.694  28.088  1.00  0.00     0.002 C 
BRANCH  58  59
ATOM     59  C   UNL A   1      35.409  29.368  27.372  1.00  0.00     0.021 C 
BRANCH  59  60
ATOM     60  C   UNL A   1      34.206  28.747  26.655  1.00  0.00     0.116 C 
BRANCH  60  61
ATOM     61  N   UNL A   1      33.094  28.529  27.567  1.00  0.00    -0.351 N 
ATOM     62  C   UNL A   1      31.850  27.985  27.318  1.00  0.00     0.272 C 
ATOM     63  H   UNL A   1      33.250  28.811  28.496  1.00  0.00     0.163 HD
ATOM     64  O   UNL A   1      30.976  28.125  28.174  1.00  0.00    -0.267 OA
BRANCH  62  65
ATOM     65  C   UNL A   1      31.578  27.300  26.043  1.00  0.00     0.155 A 
ATOM     66  N   UNL A   1      31.285  27.956  24.900  1.00  0.00    -0.167 NA
ATOM     67  C   UNL A   1      31.632  25.897  25.805  1.00  0.00     0.026 A 
ATOM     68  N   UNL A   1      31.041  26.990  23.988  1.00  0.00    -0.264 N 
ATOM     69  C   UNL A   1      31.193  25.740  24.505  1.00  0.00     0.046 A 
ATOM     70  C   UNL A   1      31.982  24.765  26.715  1.00  0.00     0.159 C 
ATOM     71  C   UNL A   1      30.959  24.430  23.848  1.00  0.00     0.078 C 
ATOM     72  N   UNL A   1      31.925  23.499  25.946  1.00  0.00    -0.337 N 
ATOM     73  C   UNL A   1      30.829  23.369  24.963  1.00  0.00     0.126 C 
BRANCH  68  74
ATOM     74  C   UNL A   1      30.737  27.360  22.612  1.00  0.00     0.180 C 
BRANCH  74  75
ATOM     75  C   UNL A   1      29.789  28.534  22.543  1.00  0.00    -0.026 A 
ATOM     76  C   UNL A   1      28.476  28.406  23.030  1.00  0.00     0.008 A 
ATOM     77  C   UNL A   1      30.192  29.756  21.982  1.00  0.00     0.008 A 
ATOM     78  C   UNL A   1      27.586  29.476  22.962  1.00  0.00     0.039 A 
ATOM     79  C   UNL A   1      29.299  30.827  21.916  1.00  0.00     0.039 A 
ATOM     80  C   UNL A   1      28.006  30.678  22.407  1.00  0.00     0.123 A 
ATOM     81  F   UNL A   1      27.152  31.707  22.339  1.00  0.00    -0.207 F 
ENDBRANCH  74  75
ENDBRANCH  68  74
BRANCH  72  82
ATOM     82  C   UNL A   1      32.877  22.522  26.204  1.00  0.00     0.232 C 
ATOM     83  O   UNL A   1      33.291  22.259  27.323  1.00  0.00    -0.274 OA
BRANCH  82  84
ATOM     84  C   UNL A   1      33.358  21.730  25.051  1.00  0.00     0.154 C 
ATOM     85  C   UNL A   1      34.583  22.162  24.262  1.00  0.00     0.097 C 
ATOM     86  C   UNL A   1      34.628  20.971  25.142  1.00  0.00     0.260 C 
ATOM     87  F   UNL A   1      35.458  20.994  26.236  1.00  0.00    -0.206 F 
ATOM     88  F   UNL A   1      34.748  19.728  24.562  1.00  0.00    -0.206 F 
ENDBRANCH  82  84
ENDBRANCH  72  82
ENDBRANCH  62  65
ENDBRANCH  60  61
ENDBRANCH  59  60
ENDBRANCH  58  59
ENDBRANCH   1  58
TORSDOF 17
ENDMDL
