MODEL 1
REMARK VINA RESULT:     -11.7      0.000      0.000
REMARK SMILES N#CCOc1ccc2[nH]cc([C@H](C(=O)NCCCCCCNC(=O)c3ccc(-c4c5nc(c(-c6ccccc6)c6ccc([nH]6)c(-c6ccccc6)c6nc(c(-c7ccccc7)c7ccc4[nH]7)C=C6)C=C5)cc3)[NH+]3CC[NH+]([C@@H]4CCS(=O)(=O)C4)CC3)c2c1
REMARK SMILES IDX 17 1 16 2 15 3 13 4 14 5 12 7 11 8 5 9 6 10 87 11 7 12 86 13
REMARK SMILES IDX 8 14 9 15 10 16 4 18 3 19 2 20 1 21 73 22 74 23 85 24 75 26
REMARK SMILES IDX 84 27 76 28 77 30 78 31 83 32 79 33 80 34 81 35 82 36 18 37
REMARK SMILES IDX 19 38 20 39 21 40 22 41 23 42 24 44 25 45 26 46 72 47 27 48
REMARK SMILES IDX 71 49 28 50 29 51 30 52 65 53 31 54 70 55 64 56 66 57 32 58
REMARK SMILES IDX 69 59 63 60 62 61 33 63 55 64 40 65 54 66 41 67 44 68 53 69
REMARK SMILES IDX 67 70 42 71 43 72 52 74 68 75 45 76 34 77 35 78 39 79 36 80
REMARK SMILES IDX 38 81 37 82 56 83 57 84 61 85 58 86 60 87 59 88 46 89 47 90
REMARK SMILES IDX 51 91 48 92 50 93 49 94
REMARK H PARENT 15 6 9 17 73 25 76 29 22 43 66 62 44 73
REMARK Flexibility Score: inf
ROOT
ATOM      1  C   UNL A   1      34.823  21.508  26.964  1.00  0.00     0.021 C 
ENDROOT
BRANCH   1   2
ATOM      2  C   UNL A   1      33.803  22.519  27.494  1.00  0.00     0.116 C 
BRANCH   2   3
ATOM      3  N   UNL A   1      32.466  22.120  27.115  1.00  0.00    -0.351 N 
ATOM      4  C   UNL A   1      31.790  22.321  25.955  1.00  0.00     0.283 C 
ATOM      5  O   UNL A   1      30.560  22.290  26.050  1.00  0.00    -0.268 OA
ATOM      6  H   UNL A   1      31.969  21.625  27.806  1.00  0.00     0.163 HD
BRANCH   4   7
ATOM      7  C   UNL A   1      32.552  22.597  24.648  1.00  0.00     0.308 C 
BRANCH   7   8
ATOM      8  C   UNL A   1      32.331  21.547  23.578  1.00  0.00     0.045 A 
ATOM      9  C   UNL A   1      32.981  17.845  24.389  1.00  0.00     0.121 A 
ATOM     10  C   UNL A   1      32.669  17.350  23.133  1.00  0.00     0.048 A 
ATOM     11  C   UNL A   1      32.947  19.213  24.636  1.00  0.00     0.057 A 
ATOM     12  C   UNL A   1      32.303  18.222  22.100  1.00  0.00     0.030 A 
ATOM     13  C   UNL A   1      32.546  20.124  23.636  1.00  0.00     0.013 A 
ATOM     14  C   UNL A   1      32.224  19.594  22.386  1.00  0.00     0.046 A 
ATOM     15  N   UNL A   1      31.812  20.640  21.596  1.00  0.00    -0.361 N 
ATOM     16  C   UNL A   1      31.864  21.812  22.298  1.00  0.00     0.094 A 
ATOM     17  H   UNL A   1      31.521  20.558  20.659  1.00  0.00     0.166 HD
BRANCH   9  18
ATOM     18  O   UNL A   1      33.151  17.043  25.485  1.00  0.00    -0.479 OA
BRANCH  18  19
ATOM     19  C   UNL A   1      33.696  15.755  25.185  1.00  0.00     0.349 C 
BRANCH  19  20
ATOM     20  C   UNL A   1      35.136  15.714  25.468  1.00  0.00     0.104 C 
ATOM     21  N   UNL A   1      36.275  15.699  25.703  1.00  0.00    -0.195 NA
ENDBRANCH  19  20
ENDBRANCH  18  19
ENDBRANCH   9  18
ENDBRANCH   7   8
BRANCH   7  22
ATOM     22  N   UNL A   1      32.372  23.980  24.150  1.00  0.00    -0.312 N 
ATOM     23  C   UNL A   1      31.354  24.802  24.824  1.00  0.00     0.325 C 
ATOM     24  C   UNL A   1      33.659  24.680  24.008  1.00  0.00     0.325 C 
ATOM     25  H   UNL A   1      31.966  23.848  23.224  1.00  0.00     0.349 HD
ATOM     26  C   UNL A   1      31.814  25.837  25.883  1.00  0.00     0.324 C 
ATOM     27  C   UNL A   1      34.099  25.539  25.208  1.00  0.00     0.324 C 
ATOM     28  N   UNL A   1      33.098  26.511  25.631  1.00  0.00    -0.322 N 
ATOM     29  H   UNL A   1      33.449  26.875  26.517  1.00  0.00     0.348 HD
BRANCH  28  30
ATOM     30  C   UNL A   1      33.036  27.813  24.962  1.00  0.00     0.200 C 
ATOM     31  C   UNL A   1      34.106  28.887  25.235  1.00  0.00     0.082 C 
ATOM     32  C   UNL A   1      31.671  28.508  25.092  1.00  0.00     0.201 C 
ATOM     33  C   UNL A   1      33.627  29.886  26.277  1.00  0.00     0.143 C 
ATOM     34  S   UNL A   1      31.856  29.784  26.322  1.00  0.00     0.156 S 
ATOM     35  O   UNL A   1      31.467  29.279  27.624  1.00  0.00    -0.229 OA
ATOM     36  O   UNL A   1      31.306  31.017  25.799  1.00  0.00    -0.229 OA
ENDBRANCH  28  30
ENDBRANCH   7  22
ENDBRANCH   4   7
ENDBRANCH   2   3
ENDBRANCH   1   2
BRANCH   1  37
ATOM     37  C   UNL A   1      35.873  22.109  26.018  1.00  0.00     0.002 C 
BRANCH  37  38
ATOM     38  C   UNL A   1      36.140  21.291  24.751  1.00  0.00     0.002 C 
BRANCH  38  39
ATOM     39  C   UNL A   1      37.218  20.220  24.905  1.00  0.00     0.021 C 
BRANCH  39  40
ATOM     40  C   UNL A   1      38.517  20.744  25.494  1.00  0.00     0.116 C 
BRANCH  40  41
ATOM     41  N   UNL A   1      39.508  19.690  25.618  1.00  0.00    -0.352 N 
ATOM     42  C   UNL A   1      40.828  19.789  25.968  1.00  0.00     0.251 C 
ATOM     43  H   UNL A   1      39.186  18.780  25.424  1.00  0.00     0.163 HD
ATOM     44  O   UNL A   1      41.589  18.846  25.784  1.00  0.00    -0.269 OA
BRANCH  42  45
ATOM     45  C   UNL A   1      41.332  21.049  26.551  1.00  0.00     0.039 A 
ATOM     46  C   UNL A   1      41.890  22.005  25.701  1.00  0.00     0.014 A 
ATOM     47  C   UNL A   1      41.258  21.287  27.928  1.00  0.00     0.014 A 
ATOM     48  C   UNL A   1      42.336  23.216  26.228  1.00  0.00     0.010 A 
ATOM     49  C   UNL A   1      41.613  22.531  28.436  1.00  0.00     0.010 A 
ATOM     50  C   UNL A   1      42.172  23.502  27.595  1.00  0.00    -0.014 A 
BRANCH  50  51
ATOM     51  C   UNL A   1      42.590  24.814  28.146  1.00  0.00     0.031 A 
ATOM     52  C   UNL A   1      41.575  25.899  28.388  1.00  0.00     0.074 A 
ATOM     53  C   UNL A   1      43.893  25.037  28.410  1.00  0.00     0.049 A 
ATOM     54  N   UNL A   1      41.754  27.097  28.885  1.00  0.00    -0.248 NA
ATOM     55  C   UNL A   1      40.183  25.611  28.004  1.00  0.00     0.031 C 
ATOM     56  C   UNL A   1      44.979  24.081  28.178  1.00  0.00     0.029 A 
ATOM     57  N   UNL A   1      44.524  26.133  28.940  1.00  0.00    -0.354 N 
ATOM     58  C   UNL A   1      40.504  27.704  28.866  1.00  0.00     0.074 A 
ATOM     59  C   UNL A   1      39.589  26.769  28.253  1.00  0.00     0.031 C 
ATOM     60  C   UNL A   1      46.132  24.614  28.606  1.00  0.00     0.029 A 
ATOM     61  C   UNL A   1      45.878  25.965  29.095  1.00  0.00     0.049 A 
ATOM     62  H   UNL A   1      44.051  26.961  29.185  1.00  0.00     0.167 HD
ATOM     63  C   UNL A   1      40.146  28.923  29.335  1.00  0.00     0.031 A 
ATOM     64  C   UNL A   1      46.814  26.807  29.572  1.00  0.00     0.031 A 
ATOM     65  C   UNL A   1      41.062  29.855  29.940  1.00  0.00     0.049 A 
ATOM     66  C   UNL A   1      46.395  28.166  30.057  1.00  0.00     0.074 A 
ATOM     67  C   UNL A   1      40.787  31.093  30.493  1.00  0.00     0.029 A 
ATOM     68  N   UNL A   1      42.429  29.656  30.060  1.00  0.00    -0.354 N 
ATOM     69  N   UNL A   1      45.195  28.694  30.106  1.00  0.00    -0.248 NA
ATOM     70  C   UNL A   1      47.459  29.041  30.567  1.00  0.00     0.031 C 
ATOM     71  C   UNL A   1      41.999  31.677  30.878  1.00  0.00     0.029 A 
ATOM     72  C   UNL A   1      43.017  30.766  30.644  1.00  0.00     0.049 A 
ATOM     73  H   UNL A   1      42.909  28.846  29.773  1.00  0.00     0.167 HD
ATOM     74  C   UNL A   1      45.356  29.949  30.679  1.00  0.00     0.074 A 
ATOM     75  C   UNL A   1      46.765  30.090  30.985  1.00  0.00     0.031 C 
ATOM     76  C   UNL A   1      44.422  30.899  30.933  1.00  0.00     0.031 A 
BRANCH  63  77
ATOM     77  C   UNL A   1      38.704  29.328  29.195  1.00  0.00    -0.014 A 
ATOM     78  C   UNL A   1      38.214  29.903  28.010  1.00  0.00     0.009 A 
ATOM     79  C   UNL A   1      37.809  29.093  30.251  1.00  0.00     0.009 A 
ATOM     80  C   UNL A   1      36.869  30.267  27.901  1.00  0.00     0.001 A 
ATOM     81  C   UNL A   1      36.458  29.424  30.126  1.00  0.00     0.001 A 
ATOM     82  C   UNL A   1      35.992  30.021  28.956  1.00  0.00     0.000 A 
ENDBRANCH  63  77
BRANCH  64  83
ATOM     83  C   UNL A   1      48.242  26.391  29.615  1.00  0.00    -0.014 A 
ATOM     84  C   UNL A   1      49.096  26.633  28.526  1.00  0.00     0.009 A 
ATOM     85  C   UNL A   1      48.756  25.730  30.742  1.00  0.00     0.009 A 
ATOM     86  C   UNL A   1      50.419  26.188  28.551  1.00  0.00     0.001 A 
ATOM     87  C   UNL A   1      50.091  25.321  30.780  1.00  0.00     0.001 A 
ATOM     88  C   UNL A   1      50.917  25.538  29.679  1.00  0.00     0.000 A 
ENDBRANCH  64  83
BRANCH  76  89
ATOM     89  C   UNL A   1      44.892  32.160  31.608  1.00  0.00    -0.014 A 
ATOM     90  C   UNL A   1      45.249  33.301  30.874  1.00  0.00     0.009 A 
ATOM     91  C   UNL A   1      44.956  32.210  33.011  1.00  0.00     0.009 A 
ATOM     92  C   UNL A   1      45.710  34.447  31.526  1.00  0.00     0.001 A 
ATOM     93  C   UNL A   1      45.378  33.369  33.662  1.00  0.00     0.001 A 
ATOM     94  C   UNL A   1      45.769  34.481  32.919  1.00  0.00     0.000 A 
ENDBRANCH  76  89
ENDBRANCH  50  51
ENDBRANCH  42  45
ENDBRANCH  40  41
ENDBRANCH  39  40
ENDBRANCH  38  39
ENDBRANCH  37  38
ENDBRANCH   1  37
TORSDOF 19
ENDMDL
MODEL 2
REMARK VINA RESULT:     -11.6      0.971      5.607
REMARK SMILES N#CCOc1ccc2[nH]cc([C@H](C(=O)NCCCCCCNC(=O)c3ccc(-c4c5nc(c(-c6ccccc6)c6ccc([nH]6)c(-c6ccccc6)c6nc(c(-c7ccccc7)c7ccc4[nH]7)C=C6)C=C5)cc3)[NH+]3CC[NH+]([C@@H]4CCS(=O)(=O)C4)CC3)c2c1
REMARK SMILES IDX 17 1 16 2 15 3 13 4 14 5 12 7 11 8 5 9 6 10 87 11 7 12 86 13
REMARK SMILES IDX 8 14 9 15 10 16 4 18 3 19 2 20 1 21 73 22 74 23 85 24 75 26
REMARK SMILES IDX 84 27 76 28 77 30 78 31 83 32 79 33 80 34 81 35 82 36 18 37
REMARK SMILES IDX 19 38 20 39 21 40 22 41 23 42 24 44 25 45 26 46 72 47 27 48
REMARK SMILES IDX 71 49 28 50 29 51 30 52 65 53 31 54 70 55 64 56 66 57 32 58
REMARK SMILES IDX 69 59 63 60 62 61 33 63 55 64 40 65 54 66 41 67 44 68 53 69
REMARK SMILES IDX 67 70 42 71 43 72 52 74 68 75 45 76 34 77 35 78 39 79 36 80
REMARK SMILES IDX 38 81 37 82 56 83 57 84 61 85 58 86 60 87 59 88 46 89 47 90
REMARK SMILES IDX 51 91 48 92 50 93 49 94
REMARK H PARENT 15 6 9 17 73 25 76 29 22 43 66 62 44 73
REMARK Flexibility Score: inf
ROOT
ATOM      1  C   UNL A   1      34.768  21.533  27.091  1.00  0.00     0.021 C 
ENDROOT
BRANCH   1   2
ATOM      2  C   UNL A   1      33.759  22.515  27.690  1.00  0.00     0.116 C 
BRANCH   2   3
ATOM      3  N   UNL A   1      32.416  22.152  27.294  1.00  0.00    -0.351 N 
ATOM      4  C   UNL A   1      31.737  22.433  26.153  1.00  0.00     0.283 C 
ATOM      5  O   UNL A   1      30.507  22.405  26.252  1.00  0.00    -0.268 OA
ATOM      6  H   UNL A   1      31.919  21.616  27.953  1.00  0.00     0.163 HD
BRANCH   4   7
ATOM      7  C   UNL A   1      32.494  22.789  24.863  1.00  0.00     0.308 C 
BRANCH   7   8
ATOM      8  C   UNL A   1      32.266  21.809  23.730  1.00  0.00     0.045 A 
ATOM      9  C   UNL A   1      32.913  18.062  24.303  1.00  0.00     0.121 A 
ATOM     10  C   UNL A   1      32.594  17.647  23.019  1.00  0.00     0.048 A 
ATOM     11  C   UNL A   1      32.883  19.412  24.636  1.00  0.00     0.057 A 
ATOM     12  C   UNL A   1      32.225  18.584  22.045  1.00  0.00     0.030 A 
ATOM     13  C   UNL A   1      32.479  20.385  23.697  1.00  0.00     0.013 A 
ATOM     14  C   UNL A   1      32.149  19.935  22.418  1.00  0.00     0.046 A 
ATOM     15  N   UNL A   1      31.736  21.030  21.697  1.00  0.00    -0.361 N 
ATOM     16  C   UNL A   1      31.794  22.155  22.471  1.00  0.00     0.094 A 
ATOM     17  H   UNL A   1      31.441  21.007  20.758  1.00  0.00     0.166 HD
BRANCH   9  18
ATOM     18  O   UNL A   1      33.085  17.193  25.346  1.00  0.00    -0.479 OA
BRANCH  18  19
ATOM     19  C   UNL A   1      33.590  15.911  24.957  1.00  0.00     0.349 C 
BRANCH  19  20
ATOM     20  C   UNL A   1      34.997  15.760  25.346  1.00  0.00     0.104 C 
ATOM     21  N   UNL A   1      36.114  15.660  25.656  1.00  0.00    -0.195 NA
ENDBRANCH  19  20
ENDBRANCH  18  19
ENDBRANCH   9  18
ENDBRANCH   7   8
BRANCH   7  22
ATOM     22  N   UNL A   1      32.316  24.201  24.453  1.00  0.00    -0.312 N 
ATOM     23  C   UNL A   1      31.344  24.998  25.219  1.00  0.00     0.325 C 
ATOM     24  C   UNL A   1      33.607  24.889  24.292  1.00  0.00     0.325 C 
ATOM     25  H   UNL A   1      31.866  24.129  23.540  1.00  0.00     0.349 HD
ATOM     26  C   UNL A   1      31.869  25.963  26.313  1.00  0.00     0.324 C 
ATOM     27  C   UNL A   1      34.117  25.671  25.518  1.00  0.00     0.324 C 
ATOM     28  N   UNL A   1      33.152  26.632  26.041  1.00  0.00    -0.322 N 
ATOM     29  H   UNL A   1      33.550  26.939  26.929  1.00  0.00     0.348 HD
BRANCH  28  30
ATOM     30  C   UNL A   1      33.083  27.971  25.451  1.00  0.00     0.200 C 
ATOM     31  C   UNL A   1      31.795  28.809  25.560  1.00  0.00     0.082 C 
ATOM     32  C   UNL A   1      33.515  28.017  23.976  1.00  0.00     0.201 C 
ATOM     33  C   UNL A   1      30.950  28.684  24.302  1.00  0.00     0.143 C 
ATOM     34  S   UNL A   1      32.026  28.128  23.004  1.00  0.00     0.156 S 
ATOM     35  O   UNL A   1      31.597  26.803  22.600  1.00  0.00    -0.229 OA
ATOM     36  O   UNL A   1      32.180  29.196  22.039  1.00  0.00    -0.229 OA
ENDBRANCH  28  30
ENDBRANCH   7  22
ENDBRANCH   4   7
ENDBRANCH   2   3
ENDBRANCH   1   2
BRANCH   1  37
ATOM     37  C   UNL A   1      35.743  22.165  26.086  1.00  0.00     0.002 C 
BRANCH  37  38
ATOM     38  C   UNL A   1      36.019  21.321  24.839  1.00  0.00     0.002 C 
BRANCH  38  39
ATOM     39  C   UNL A   1      37.108  20.265  25.019  1.00  0.00     0.021 C 
BRANCH  39  40
ATOM     40  C   UNL A   1      38.448  20.840  25.447  1.00  0.00     0.116 C 
BRANCH  40  41
ATOM     41  N   UNL A   1      39.452  19.800  25.588  1.00  0.00    -0.352 N 
ATOM     42  C   UNL A   1      40.760  19.916  25.976  1.00  0.00     0.251 C 
ATOM     43  H   UNL A   1      39.150  18.887  25.376  1.00  0.00     0.163 HD
ATOM     44  O   UNL A   1      41.540  18.986  25.804  1.00  0.00    -0.269 OA
BRANCH  42  45
ATOM     45  C   UNL A   1      41.228  21.177  26.585  1.00  0.00     0.039 A 
ATOM     46  C   UNL A   1      41.766  22.162  25.757  1.00  0.00     0.014 A 
ATOM     47  C   UNL A   1      41.139  21.388  27.965  1.00  0.00     0.014 A 
ATOM     48  C   UNL A   1      42.178  23.374  26.309  1.00  0.00     0.010 A 
ATOM     49  C   UNL A   1      41.458  22.631  28.499  1.00  0.00     0.010 A 
ATOM     50  C   UNL A   1      41.998  23.631  27.680  1.00  0.00    -0.014 A 
BRANCH  50  51
ATOM     51  C   UNL A   1      42.378  24.943  28.257  1.00  0.00     0.031 A 
ATOM     52  C   UNL A   1      43.806  25.225  28.637  1.00  0.00     0.074 A 
ATOM     53  C   UNL A   1      41.428  25.876  28.461  1.00  0.00     0.049 A 
ATOM     54  N   UNL A   1      44.325  26.321  29.131  1.00  0.00    -0.248 NA
ATOM     55  C   UNL A   1      44.776  24.132  28.459  1.00  0.00     0.031 C 
ATOM     56  C   UNL A   1      40.001  25.708  28.174  1.00  0.00     0.029 A 
ATOM     57  N   UNL A   1      41.520  27.156  28.945  1.00  0.00    -0.354 N 
ATOM     58  C   UNL A   1      45.673  26.046  29.329  1.00  0.00     0.074 A 
ATOM     59  C   UNL A   1      45.880  24.664  28.960  1.00  0.00     0.031 C 
ATOM     60  C   UNL A   1      39.360  26.854  28.444  1.00  0.00     0.029 A 
ATOM     61  C   UNL A   1      40.318  27.821  28.970  1.00  0.00     0.049 A 
ATOM     62  H   UNL A   1      42.365  27.559  29.247  1.00  0.00     0.167 HD
ATOM     63  C   UNL A   1      46.654  26.875  29.759  1.00  0.00     0.031 A 
ATOM     64  C   UNL A   1      40.018  29.070  29.375  1.00  0.00     0.031 A 
ATOM     65  C   UNL A   1      46.443  28.249  30.131  1.00  0.00     0.049 A 
ATOM     66  C   UNL A   1      41.121  29.958  29.878  1.00  0.00     0.074 A 
ATOM     67  C   UNL A   1      47.380  29.185  30.530  1.00  0.00     0.029 A 
ATOM     68  N   UNL A   1      45.208  28.880  30.161  1.00  0.00    -0.354 N 
ATOM     69  N   UNL A   1      42.404  29.708  29.982  1.00  0.00    -0.248 NA
ATOM     70  C   UNL A   1      40.735  31.309  30.306  1.00  0.00     0.031 C 
ATOM     71  C   UNL A   1      46.704  30.360  30.876  1.00  0.00     0.029 A 
ATOM     72  C   UNL A   1      45.356  30.182  30.609  1.00  0.00     0.049 A 
ATOM     73  H   UNL A   1      44.354  28.464  29.902  1.00  0.00     0.167 HD
ATOM     74  C   UNL A   1      42.982  30.878  30.457  1.00  0.00     0.074 A 
ATOM     75  C   UNL A   1      41.912  31.845  30.595  1.00  0.00     0.031 C 
ATOM     76  C   UNL A   1      44.281  31.131  30.752  1.00  0.00     0.031 A 
BRANCH  63  77
ATOM     77  C   UNL A   1      48.045  26.311  29.870  1.00  0.00    -0.014 A 
ATOM     78  C   UNL A   1      48.530  25.785  31.079  1.00  0.00     0.009 A 
ATOM     79  C   UNL A   1      48.870  26.266  28.735  1.00  0.00     0.009 A 
ATOM     80  C   UNL A   1      49.824  25.262  31.156  1.00  0.00     0.001 A 
ATOM     81  C   UNL A   1      50.149  25.710  28.806  1.00  0.00     0.001 A 
ATOM     82  C   UNL A   1      50.628  25.219  30.019  1.00  0.00     0.000 A 
ENDBRANCH  63  77
BRANCH  64  83
ATOM     83  C   UNL A   1      38.613  29.555  29.323  1.00  0.00    -0.014 A 
ATOM     84  C   UNL A   1      38.115  30.200  28.179  1.00  0.00     0.009 A 
ATOM     85  C   UNL A   1      37.764  29.392  30.429  1.00  0.00     0.009 A 
ATOM     86  C   UNL A   1      36.813  30.704  28.160  1.00  0.00     0.001 A 
ATOM     87  C   UNL A   1      36.449  29.862  30.393  1.00  0.00     0.001 A 
ATOM     88  C   UNL A   1      35.980  30.530  29.264  1.00  0.00     0.000 A 
ENDBRANCH  64  83
BRANCH  76  89
ATOM     89  C   UNL A   1      44.620  32.523  31.216  1.00  0.00    -0.014 A 
ATOM     90  C   UNL A   1      44.730  32.840  32.579  1.00  0.00     0.009 A 
ATOM     91  C   UNL A   1      44.856  33.530  30.265  1.00  0.00     0.009 A 
ATOM     92  C   UNL A   1      45.017  34.147  32.981  1.00  0.00     0.001 A 
ATOM     93  C   UNL A   1      45.183  34.825  30.668  1.00  0.00     0.001 A 
ATOM     94  C   UNL A   1      45.248  35.136  32.025  1.00  0.00     0.000 A 
ENDBRANCH  76  89
ENDBRANCH  50  51
ENDBRANCH  42  45
ENDBRANCH  40  41
ENDBRANCH  39  40
ENDBRANCH  38  39
ENDBRANCH  37  38
ENDBRANCH   1  37
TORSDOF 19
ENDMDL
MODEL 3
REMARK VINA RESULT:     -11.1      3.354      9.348
REMARK SMILES N#CCOc1ccc2[nH]cc([C@H](C(=O)NCCCCCCNC(=O)c3ccc(-c4c5nc(c(-c6ccccc6)c6ccc([nH]6)c(-c6ccccc6)c6nc(c(-c7ccccc7)c7ccc4[nH]7)C=C6)C=C5)cc3)[NH+]3CC[NH+]([C@@H]4CCS(=O)(=O)C4)CC3)c2c1
REMARK SMILES IDX 17 1 16 2 15 3 13 4 14 5 12 7 11 8 5 9 6 10 87 11 7 12 86 13
REMARK SMILES IDX 8 14 9 15 10 16 4 18 3 19 2 20 1 21 73 22 74 23 85 24 75 26
REMARK SMILES IDX 84 27 76 28 77 30 78 31 83 32 79 33 80 34 81 35 82 36 18 37
REMARK SMILES IDX 19 38 20 39 21 40 22 41 23 42 24 44 25 45 26 46 72 47 27 48
REMARK SMILES IDX 71 49 28 50 29 51 30 52 65 53 31 54 70 55 64 56 66 57 32 58
REMARK SMILES IDX 69 59 63 60 62 61 33 63 55 64 40 65 54 66 41 67 44 68 53 69
REMARK SMILES IDX 67 70 42 71 43 72 52 74 68 75 45 76 34 77 35 78 39 79 36 80
REMARK SMILES IDX 38 81 37 82 56 83 57 84 61 85 58 86 60 87 59 88 46 89 47 90
REMARK SMILES IDX 51 91 48 92 50 93 49 94
REMARK H PARENT 15 6 9 17 73 25 76 29 22 43 66 62 44 73
REMARK Flexibility Score: inf
ROOT
ATOM      1  C   UNL A   1      33.233  28.935  23.875  1.00  0.00     0.021 C 
ENDROOT
BRANCH   1   2
ATOM      2  C   UNL A   1      34.008  28.096  22.856  1.00  0.00     0.116 C 
BRANCH   2   3
ATOM      3  N   UNL A   1      33.101  27.552  21.868  1.00  0.00    -0.351 N 
ATOM      4  C   UNL A   1      32.168  26.573  21.985  1.00  0.00     0.283 C 
ATOM      5  O   UNL A   1      31.867  26.004  20.933  1.00  0.00    -0.268 OA
ATOM      6  H   UNL A   1      33.171  27.956  20.973  1.00  0.00     0.163 HD
BRANCH   4   7
ATOM      7  C   UNL A   1      31.585  26.214  23.362  1.00  0.00     0.308 C 
BRANCH   7   8
ATOM      8  C   UNL A   1      30.107  26.521  23.499  1.00  0.00     0.045 A 
ATOM      9  C   UNL A   1      28.795  30.002  22.522  1.00  0.00     0.121 A 
ATOM     10  C   UNL A   1      27.469  29.769  22.847  1.00  0.00     0.048 A 
ATOM     11  C   UNL A   1      29.757  29.021  22.737  1.00  0.00     0.057 A 
ATOM     12  C   UNL A   1      27.078  28.535  23.385  1.00  0.00     0.030 A 
ATOM     13  C   UNL A   1      29.402  27.750  23.239  1.00  0.00     0.013 A 
ATOM     14  C   UNL A   1      28.056  27.541  23.542  1.00  0.00     0.046 A 
ATOM     15  N   UNL A   1      27.933  26.236  23.956  1.00  0.00    -0.361 N 
ATOM     16  C   UNL A   1      29.149  25.613  23.928  1.00  0.00     0.094 A 
ATOM     17  H   UNL A   1      27.089  25.810  24.232  1.00  0.00     0.166 HD
BRANCH   9  18
ATOM     18  O   UNL A   1      29.208  31.099  21.816  1.00  0.00    -0.479 OA
BRANCH  18  19
ATOM     19  C   UNL A   1      28.313  32.212  21.896  1.00  0.00     0.349 C 
BRANCH  19  20
ATOM     20  C   UNL A   1      28.884  33.288  22.715  1.00  0.00     0.104 C 
ATOM     21  N   UNL A   1      29.320  34.150  23.363  1.00  0.00    -0.195 NA
ENDBRANCH  19  20
ENDBRANCH  18  19
ENDBRANCH   9  18
ENDBRANCH   7   8
BRANCH   7  22
ATOM     22  N   UNL A   1      31.936  24.844  23.804  1.00  0.00    -0.312 N 
ATOM     23  C   UNL A   1      33.285  24.362  23.467  1.00  0.00     0.325 C 
ATOM     24  C   UNL A   1      31.594  24.624  25.219  1.00  0.00     0.325 C 
ATOM     25  H   UNL A   1      31.341  24.249  23.227  1.00  0.00     0.349 HD
ATOM     26  C   UNL A   1      34.383  24.397  24.561  1.00  0.00     0.324 C 
ATOM     27  C   UNL A   1      32.727  24.869  26.235  1.00  0.00     0.324 C 
ATOM     28  N   UNL A   1      33.947  24.127  25.941  1.00  0.00    -0.322 N 
ATOM     29  H   UNL A   1      34.644  24.512  26.579  1.00  0.00     0.348 HD
BRANCH  28  30
ATOM     30  C   UNL A   1      34.077  22.746  26.412  1.00  0.00     0.200 C 
ATOM     31  C   UNL A   1      35.132  21.805  25.801  1.00  0.00     0.082 C 
ATOM     32  C   UNL A   1      32.749  21.971  26.422  1.00  0.00     0.201 C 
ATOM     33  C   UNL A   1      34.522  20.921  24.723  1.00  0.00     0.143 C 
ATOM     34  S   UNL A   1      32.770  20.891  25.005  1.00  0.00     0.156 S 
ATOM     35  O   UNL A   1      32.122  21.536  23.880  1.00  0.00    -0.229 OA
ATOM     36  O   UNL A   1      32.390  19.560  25.429  1.00  0.00    -0.229 OA
ENDBRANCH  28  30
ENDBRANCH   7  22
ENDBRANCH   4   7
ENDBRANCH   2   3
ENDBRANCH   1   2
BRANCH   1  37
ATOM     37  C   UNL A   1      33.504  28.556  25.339  1.00  0.00     0.002 C 
BRANCH  37  38
ATOM     38  C   UNL A   1      33.786  29.742  26.267  1.00  0.00     0.002 C 
BRANCH  38  39
ATOM     39  C   UNL A   1      32.813  30.909  26.114  1.00  0.00     0.021 C 
BRANCH  39  40
ATOM     40  C   UNL A   1      32.260  31.420  27.434  1.00  0.00     0.116 C 
BRANCH  40  41
ATOM     41  N   UNL A   1      32.155  32.868  27.441  1.00  0.00    -0.352 N 
ATOM     42  C   UNL A   1      32.972  33.785  28.046  1.00  0.00     0.251 C 
ATOM     43  H   UNL A   1      31.392  33.241  26.943  1.00  0.00     0.163 HD
ATOM     44  O   UNL A   1      32.610  34.950  28.170  1.00  0.00    -0.269 OA
BRANCH  42  45
ATOM     45  C   UNL A   1      34.286  33.356  28.566  1.00  0.00     0.039 A 
ATOM     46  C   UNL A   1      34.334  32.662  29.776  1.00  0.00     0.014 A 
ATOM     47  C   UNL A   1      35.465  33.636  27.868  1.00  0.00     0.014 A 
ATOM     48  C   UNL A   1      35.561  32.216  30.264  1.00  0.00     0.010 A 
ATOM     49  C   UNL A   1      36.674  33.106  28.305  1.00  0.00     0.010 A 
ATOM     50  C   UNL A   1      36.737  32.406  29.517  1.00  0.00    -0.014 A 
BRANCH  50  51
ATOM     51  C   UNL A   1      38.034  31.877  30.005  1.00  0.00     0.031 A 
ATOM     52  C   UNL A   1      38.567  30.568  29.490  1.00  0.00     0.074 A 
ATOM     53  C   UNL A   1      38.724  32.570  30.933  1.00  0.00     0.049 A 
ATOM     54  N   UNL A   1      39.691  29.964  29.784  1.00  0.00    -0.248 NA
ATOM     55  C   UNL A   1      37.722  29.829  28.536  1.00  0.00     0.031 C 
ATOM     56  C   UNL A   1      38.292  33.830  31.543  1.00  0.00     0.029 A 
ATOM     57  N   UNL A   1      39.939  32.317  31.517  1.00  0.00    -0.354 N 
ATOM     58  C   UNL A   1      39.683  28.777  29.061  1.00  0.00     0.074 A 
ATOM     59  C   UNL A   1      38.419  28.716  28.363  1.00  0.00     0.031 C 
ATOM     60  C   UNL A   1      39.248  34.263  32.378  1.00  0.00     0.029 A 
ATOM     61  C   UNL A   1      40.334  33.289  32.403  1.00  0.00     0.049 A 
ATOM     62  H   UNL A   1      40.476  31.516  31.320  1.00  0.00     0.167 HD
ATOM     63  C   UNL A   1      40.649  27.833  28.970  1.00  0.00     0.031 A 
ATOM     64  C   UNL A   1      41.446  33.385  33.157  1.00  0.00     0.031 A 
ATOM     65  C   UNL A   1      41.905  27.894  29.671  1.00  0.00     0.049 A 
ATOM     66  C   UNL A   1      42.488  32.307  33.061  1.00  0.00     0.074 A 
ATOM     67  C   UNL A   1      42.970  27.013  29.605  1.00  0.00     0.029 A 
ATOM     68  N   UNL A   1      42.259  28.884  30.575  1.00  0.00    -0.354 N 
ATOM     69  N   UNL A   1      42.500  31.231  32.310  1.00  0.00    -0.248 NA
ATOM     70  C   UNL A   1      43.679  32.464  33.906  1.00  0.00     0.031 C 
ATOM     71  C   UNL A   1      43.937  27.428  30.526  1.00  0.00     0.029 A 
ATOM     72  C   UNL A   1      43.511  28.615  31.102  1.00  0.00     0.049 A 
ATOM     73  H   UNL A   1      41.703  29.663  30.806  1.00  0.00     0.167 HD
ATOM     74  C   UNL A   1      43.711  30.601  32.570  1.00  0.00     0.074 A 
ATOM     75  C   UNL A   1      44.415  31.430  33.526  1.00  0.00     0.031 C 
ATOM     76  C   UNL A   1      44.197  29.442  32.062  1.00  0.00     0.031 A 
BRANCH  63  77
ATOM     77  C   UNL A   1      40.378  26.640  28.093  1.00  0.00    -0.014 A 
ATOM     78  C   UNL A   1      40.920  26.540  26.801  1.00  0.00     0.009 A 
ATOM     79  C   UNL A   1      39.602  25.578  28.583  1.00  0.00     0.009 A 
ATOM     80  C   UNL A   1      40.659  25.421  26.006  1.00  0.00     0.001 A 
ATOM     81  C   UNL A   1      39.372  24.444  27.801  1.00  0.00     0.001 A 
ATOM     82  C   UNL A   1      39.892  24.371  26.510  1.00  0.00     0.000 A 
ENDBRANCH  63  77
BRANCH  64  83
ATOM     83  C   UNL A   1      41.631  34.544  34.071  1.00  0.00    -0.014 A 
ATOM     84  C   UNL A   1      42.333  35.686  33.653  1.00  0.00     0.009 A 
ATOM     85  C   UNL A   1      41.121  34.507  35.378  1.00  0.00     0.009 A 
ATOM     86  C   UNL A   1      42.553  36.746  34.536  1.00  0.00     0.001 A 
ATOM     87  C   UNL A   1      41.308  35.585  36.247  1.00  0.00     0.001 A 
ATOM     88  C   UNL A   1      42.036  36.697  35.829  1.00  0.00     0.000 A 
ENDBRANCH  64  83
BRANCH  76  89
ATOM     89  C   UNL A   1      45.574  29.024  32.503  1.00  0.00    -0.014 A 
ATOM     90  C   UNL A   1      45.771  28.189  33.614  1.00  0.00     0.009 A 
ATOM     91  C   UNL A   1      46.695  29.458  31.776  1.00  0.00     0.009 A 
ATOM     92  C   UNL A   1      47.062  27.842  34.019  1.00  0.00     0.001 A 
ATOM     93  C   UNL A   1      47.981  29.077  32.157  1.00  0.00     0.001 A 
ATOM     94  C   UNL A   1      48.165  28.282  33.287  1.00  0.00     0.000 A 
ENDBRANCH  76  89
ENDBRANCH  50  51
ENDBRANCH  42  45
ENDBRANCH  40  41
ENDBRANCH  39  40
ENDBRANCH  38  39
ENDBRANCH  37  38
ENDBRANCH   1  37
TORSDOF 19
ENDMDL
