MODEL 1
REMARK VINA RESULT:     -12.0      0.000      0.000
REMARK SMILES O=C(NCCCCCCNC(=O)c1n[nH]c2cc(Br)cc(Cl)c12)c1ccc(-c2c3nc(c(-c4ccccc4)c4ccc([nH]4)c(-c4ccccc4)c4nc(c(-c5ccccc5)c5ccc2[nH]5)C=C4)C=C3)cc1
REMARK SMILES IDX 5 1 4 2 3 3 1 4 2 5 24 7 25 8 71 9 26 10 70 11 27 12 28 13
REMARK SMILES IDX 29 14 64 15 30 16 69 17 63 18 65 19 31 20 68 21 62 22 61 23
REMARK SMILES IDX 32 25 54 26 39 27 53 28 40 29 43 30 52 31 66 32 41 33 42 34
REMARK SMILES IDX 51 36 67 37 44 38 33 39 34 40 38 41 35 42 37 43 36 44 55 45
REMARK SMILES IDX 56 46 60 47 57 48 59 49 58 50 45 51 46 52 50 53 47 54 49 55
REMARK SMILES IDX 48 56 6 57 7 58 8 59 9 60 10 61 11 62 12 64 13 65 14 66
REMARK SMILES IDX 23 67 15 68 16 69 21 70 17 72 20 73 22 74 18 75 19 76
REMARK H PARENT 3 6 65 24 43 35 10 63 15 71
REMARK Flexibility Score: inf
ROOT
ATOM      1  C   UNL A   1      37.081  21.315  24.606  1.00  0.00     0.021 C 
ENDROOT
BRANCH   1   2
ATOM      2  C   UNL A   1      37.804  22.030  25.749  1.00  0.00     0.116 C 
BRANCH   2   3
ATOM      3  N   UNL A   1      39.226  21.761  25.810  1.00  0.00    -0.352 N 
ATOM      4  O   UNL A   1      41.372  21.753  26.322  1.00  0.00    -0.269 OA
ATOM      5  C   UNL A   1      40.302  22.363  26.397  1.00  0.00     0.251 C 
ATOM      6  H   UNL A   1      39.476  20.951  25.310  1.00  0.00     0.163 HD
BRANCH   5   7
ATOM      7  C   UNL A   1      40.292  23.697  27.063  1.00  0.00     0.039 A 
ATOM      8  C   UNL A   1      39.279  24.652  26.970  1.00  0.00     0.014 A 
ATOM      9  C   UNL A   1      41.435  24.009  27.826  1.00  0.00     0.014 A 
ATOM     10  C   UNL A   1      39.433  25.905  27.562  1.00  0.00     0.010 A 
ATOM     11  C   UNL A   1      41.589  25.255  28.429  1.00  0.00     0.010 A 
ATOM     12  C   UNL A   1      40.598  26.216  28.269  1.00  0.00    -0.014 A 
BRANCH  12  13
ATOM     13  C   UNL A   1      40.693  27.536  28.885  1.00  0.00     0.031 A 
ATOM     14  C   UNL A   1      41.668  28.482  28.271  1.00  0.00     0.074 A 
ATOM     15  C   UNL A   1      39.891  27.964  29.879  1.00  0.00     0.049 A 
ATOM     16  N   UNL A   1      42.709  29.024  28.816  1.00  0.00    -0.248 NA
ATOM     17  C   UNL A   1      41.481  28.831  26.856  1.00  0.00     0.031 C 
ATOM     18  C   UNL A   1      38.685  27.329  30.415  1.00  0.00     0.029 A 
ATOM     19  N   UNL A   1      39.952  29.144  30.562  1.00  0.00    -0.354 N 
ATOM     20  C   UNL A   1      43.242  29.894  27.864  1.00  0.00     0.074 A 
ATOM     21  C   UNL A   1      42.500  29.667  26.649  1.00  0.00     0.031 C 
ATOM     22  C   UNL A   1      38.013  28.224  31.175  1.00  0.00     0.029 A 
ATOM     23  C   UNL A   1      38.812  29.432  31.297  1.00  0.00     0.049 A 
ATOM     24  H   UNL A   1      40.737  29.738  30.535  1.00  0.00     0.167 HD
ATOM     25  C   UNL A   1      44.151  30.859  28.183  1.00  0.00     0.031 A 
ATOM     26  C   UNL A   1      38.527  30.602  31.914  1.00  0.00     0.031 A 
ATOM     27  C   UNL A   1      44.758  30.634  29.465  1.00  0.00     0.049 A 
ATOM     28  C   UNL A   1      39.794  31.340  32.109  1.00  0.00     0.074 A 
ATOM     29  C   UNL A   1      45.553  29.652  30.019  1.00  0.00     0.029 A 
ATOM     30  N   UNL A   1      44.310  31.391  30.519  1.00  0.00    -0.354 N 
ATOM     31  N   UNL A   1      40.730  30.968  32.933  1.00  0.00    -0.248 NA
ATOM     32  C   UNL A   1      40.194  32.316  31.109  1.00  0.00     0.031 C 
ATOM     33  C   UNL A   1      45.150  29.581  31.385  1.00  0.00     0.029 A 
ATOM     34  C   UNL A   1      44.156  30.541  31.582  1.00  0.00     0.049 A 
ATOM     35  H   UNL A   1      44.133  32.359  30.512  1.00  0.00     0.167 HD
ATOM     36  C   UNL A   1      41.915  31.324  32.308  1.00  0.00     0.074 A 
ATOM     37  C   UNL A   1      41.520  32.259  31.258  1.00  0.00     0.031 C 
ATOM     38  C   UNL A   1      43.064  30.618  32.522  1.00  0.00     0.031 A 
BRANCH  25  39
ATOM     39  C   UNL A   1      44.246  32.200  27.497  1.00  0.00    -0.014 A 
ATOM     40  C   UNL A   1      43.736  33.337  28.158  1.00  0.00     0.009 A 
ATOM     41  C   UNL A   1      44.546  32.350  26.131  1.00  0.00     0.009 A 
ATOM     42  C   UNL A   1      43.462  34.524  27.470  1.00  0.00     0.001 A 
ATOM     43  C   UNL A   1      44.314  33.550  25.450  1.00  0.00     0.001 A 
ATOM     44  C   UNL A   1      43.742  34.627  26.112  1.00  0.00     0.000 A 
ENDBRANCH  25  39
BRANCH  26  45
ATOM     45  C   UNL A   1      37.214  31.246  32.117  1.00  0.00    -0.014 A 
ATOM     46  C   UNL A   1      36.885  31.833  33.350  1.00  0.00     0.009 A 
ATOM     47  C   UNL A   1      36.394  31.534  31.012  1.00  0.00     0.009 A 
ATOM     48  C   UNL A   1      35.802  32.714  33.458  1.00  0.00     0.001 A 
ATOM     49  C   UNL A   1      35.310  32.410  31.122  1.00  0.00     0.001 A 
ATOM     50  C   UNL A   1      35.025  33.014  32.341  1.00  0.00     0.000 A 
ENDBRANCH  26  45
BRANCH  38  51
ATOM     51  C   UNL A   1      43.074  29.607  33.640  1.00  0.00    -0.014 A 
ATOM     52  C   UNL A   1      43.496  29.924  34.943  1.00  0.00     0.009 A 
ATOM     53  C   UNL A   1      42.485  28.353  33.417  1.00  0.00     0.009 A 
ATOM     54  C   UNL A   1      43.358  29.003  35.986  1.00  0.00     0.001 A 
ATOM     55  C   UNL A   1      42.327  27.441  34.463  1.00  0.00     0.001 A 
ATOM     56  C   UNL A   1      42.766  27.765  35.746  1.00  0.00     0.000 A 
ENDBRANCH  38  51
ENDBRANCH  12  13
ENDBRANCH   5   7
ENDBRANCH   2   3
ENDBRANCH   1   2
BRANCH   1  57
ATOM     57  C   UNL A   1      35.682  20.787  24.947  1.00  0.00     0.002 C 
BRANCH  57  58
ATOM     58  C   UNL A   1      34.505  21.504  24.278  1.00  0.00     0.002 C 
BRANCH  58  59
ATOM     59  C   UNL A   1      33.185  20.728  24.228  1.00  0.00     0.021 C 
BRANCH  59  60
ATOM     60  C   UNL A   1      32.101  21.227  25.178  1.00  0.00     0.116 C 
BRANCH  60  61
ATOM     61  N   UNL A   1      32.586  21.439  26.530  1.00  0.00    -0.351 N 
ATOM     62  C   UNL A   1      32.398  22.532  27.350  1.00  0.00     0.272 C 
ATOM     63  H   UNL A   1      33.121  20.706  26.911  1.00  0.00     0.163 HD
ATOM     64  O   UNL A   1      32.915  22.532  28.467  1.00  0.00    -0.267 OA
BRANCH  62  65
ATOM     65  C   UNL A   1      31.615  23.662  26.837  1.00  0.00     0.159 A 
ATOM     66  N   UNL A   1      30.273  23.667  26.953  1.00  0.00    -0.169 NA
ATOM     67  C   UNL A   1      32.089  24.881  26.255  1.00  0.00     0.051 A 
ATOM     68  N   UNL A   1      29.902  24.865  26.490  1.00  0.00    -0.277 N 
ATOM     69  C   UNL A   1      30.945  25.670  26.127  1.00  0.00     0.068 A 
ATOM     70  C   UNL A   1      33.314  25.453  25.860  1.00  0.00     0.054 A 
ATOM     71  H   UNL A   1      28.960  25.143  26.417  1.00  0.00     0.190 HD
ATOM     72  C   UNL A   1      30.975  27.004  25.698  1.00  0.00     0.044 A 
ATOM     73  C   UNL A   1      33.390  26.783  25.447  1.00  0.00     0.037 A 
ATOM     74  Cl  UNL A   1      34.701  24.457  25.867  1.00  0.00    -0.083 Cl
ATOM     75  C   UNL A   1      32.228  27.546  25.388  1.00  0.00     0.021 A 
ATOM     76  Br  UNL A   1      32.340  29.363  24.870  1.00  0.00    -0.051 Br
ENDBRANCH  62  65
ENDBRANCH  60  61
ENDBRANCH  59  60
ENDBRANCH  58  59
ENDBRANCH  57  58
ENDBRANCH   1  57
TORSDOF 13
ENDMDL
MODEL 2
REMARK VINA RESULT:     -11.7      3.155      7.055
REMARK SMILES O=C(NCCCCCCNC(=O)c1n[nH]c2cc(Br)cc(Cl)c12)c1ccc(-c2c3nc(c(-c4ccccc4)c4ccc([nH]4)c(-c4ccccc4)c4nc(c(-c5ccccc5)c5ccc2[nH]5)C=C4)C=C3)cc1
REMARK SMILES IDX 5 1 4 2 3 3 1 4 2 5 24 7 25 8 71 9 26 10 70 11 27 12 28 13
REMARK SMILES IDX 29 14 64 15 30 16 69 17 63 18 65 19 31 20 68 21 62 22 61 23
REMARK SMILES IDX 32 25 54 26 39 27 53 28 40 29 43 30 52 31 66 32 41 33 42 34
REMARK SMILES IDX 51 36 67 37 44 38 33 39 34 40 38 41 35 42 37 43 36 44 55 45
REMARK SMILES IDX 56 46 60 47 57 48 59 49 58 50 45 51 46 52 50 53 47 54 49 55
REMARK SMILES IDX 48 56 6 57 7 58 8 59 9 60 10 61 11 62 12 64 13 65 14 66
REMARK SMILES IDX 23 67 15 68 16 69 21 70 17 72 20 73 22 74 18 75 19 76
REMARK H PARENT 3 6 65 24 43 35 10 63 15 71
REMARK Flexibility Score: inf
ROOT
ATOM      1  C   UNL A   1      33.336  28.036  26.636  1.00  0.00     0.021 C 
ENDROOT
BRANCH   1   2
ATOM      2  C   UNL A   1      34.758  28.575  26.804  1.00  0.00     0.116 C 
BRANCH   2   3
ATOM      3  N   UNL A   1      34.940  29.412  27.971  1.00  0.00    -0.352 N 
ATOM      4  O   UNL A   1      35.777  30.637  29.604  1.00  0.00    -0.269 OA
ATOM      5  C   UNL A   1      36.006  29.790  28.736  1.00  0.00     0.251 C 
ATOM      6  H   UNL A   1      34.094  29.802  28.288  1.00  0.00     0.163 HD
BRANCH   5   7
ATOM      7  C   UNL A   1      37.385  29.232  28.638  1.00  0.00     0.039 A 
ATOM      8  C   UNL A   1      37.981  28.354  29.544  1.00  0.00     0.014 A 
ATOM      9  C   UNL A   1      38.145  29.668  27.534  1.00  0.00     0.014 A 
ATOM     10  C   UNL A   1      39.314  27.980  29.393  1.00  0.00     0.010 A 
ATOM     11  C   UNL A   1      39.475  29.288  27.371  1.00  0.00     0.010 A 
ATOM     12  C   UNL A   1      40.070  28.468  28.322  1.00  0.00    -0.014 A 
BRANCH  12  13
ATOM     13  C   UNL A   1      41.456  28.023  28.204  1.00  0.00     0.031 A 
ATOM     14  C   UNL A   1      41.673  26.719  27.516  1.00  0.00     0.074 A 
ATOM     15  C   UNL A   1      42.519  28.761  28.577  1.00  0.00     0.049 A 
ATOM     16  N   UNL A   1      42.197  25.637  27.997  1.00  0.00    -0.248 NA
ATOM     17  C   UNL A   1      41.204  26.593  26.129  1.00  0.00     0.031 C 
ATOM     18  C   UNL A   1      42.556  30.168  28.981  1.00  0.00     0.029 A 
ATOM     19  N   UNL A   1      43.836  28.403  28.573  1.00  0.00    -0.354 N 
ATOM     20  C   UNL A   1      42.256  24.728  26.941  1.00  0.00     0.074 A 
ATOM     21  C   UNL A   1      41.551  25.337  25.841  1.00  0.00     0.031 C 
ATOM     22  C   UNL A   1      43.838  30.600  28.969  1.00  0.00     0.029 A 
ATOM     23  C   UNL A   1      44.713  29.468  28.704  1.00  0.00     0.049 A 
ATOM     24  H   UNL A   1      44.137  27.469  28.485  1.00  0.00     0.167 HD
ATOM     25  C   UNL A   1      43.022  23.601  26.989  1.00  0.00     0.031 A 
ATOM     26  C   UNL A   1      46.057  29.429  28.551  1.00  0.00     0.031 A 
ATOM     27  C   UNL A   1      43.429  23.275  28.328  1.00  0.00     0.049 A 
ATOM     28  C   UNL A   1      46.496  28.026  28.713  1.00  0.00     0.074 A 
ATOM     29  C   UNL A   1      42.783  22.929  29.497  1.00  0.00     0.029 A 
ATOM     30  N   UNL A   1      44.718  23.581  28.690  1.00  0.00    -0.354 N 
ATOM     31  N   UNL A   1      46.462  27.382  29.844  1.00  0.00    -0.248 NA
ATOM     32  C   UNL A   1      46.643  27.199  27.527  1.00  0.00     0.031 C 
ATOM     33  C   UNL A   1      43.569  23.507  30.536  1.00  0.00     0.029 A 
ATOM     34  C   UNL A   1      44.657  24.144  29.936  1.00  0.00     0.049 A 
ATOM     35  H   UNL A   1      45.529  23.425  28.155  1.00  0.00     0.167 HD
ATOM     36  C   UNL A   1      46.156  26.075  29.498  1.00  0.00     0.074 A 
ATOM     37  C   UNL A   1      46.404  25.998  28.061  1.00  0.00     0.031 C 
ATOM     38  C   UNL A   1      45.469  25.263  30.354  1.00  0.00     0.031 A 
BRANCH  25  39
ATOM     39  C   UNL A   1      43.700  22.978  25.793  1.00  0.00    -0.014 A 
ATOM     40  C   UNL A   1      43.710  21.573  25.675  1.00  0.00     0.009 A 
ATOM     41  C   UNL A   1      44.568  23.687  24.942  1.00  0.00     0.009 A 
ATOM     42  C   UNL A   1      44.599  20.915  24.817  1.00  0.00     0.001 A 
ATOM     43  C   UNL A   1      45.426  23.033  24.051  1.00  0.00     0.001 A 
ATOM     44  C   UNL A   1      45.466  21.647  24.012  1.00  0.00     0.000 A 
ENDBRANCH  25  39
BRANCH  26  45
ATOM     45  C   UNL A   1      46.959  30.470  28.020  1.00  0.00    -0.014 A 
ATOM     46  C   UNL A   1      46.571  31.271  26.934  1.00  0.00     0.009 A 
ATOM     47  C   UNL A   1      48.086  30.868  28.762  1.00  0.00     0.009 A 
ATOM     48  C   UNL A   1      47.260  32.452  26.632  1.00  0.00     0.001 A 
ATOM     49  C   UNL A   1      48.775  32.046  28.457  1.00  0.00     0.001 A 
ATOM     50  C   UNL A   1      48.351  32.847  27.403  1.00  0.00     0.000 A 
ENDBRANCH  26  45
BRANCH  38  51
ATOM     51  C   UNL A   1      45.276  25.734  31.773  1.00  0.00    -0.014 A 
ATOM     52  C   UNL A   1      44.200  26.551  32.159  1.00  0.00     0.009 A 
ATOM     53  C   UNL A   1      46.102  25.201  32.775  1.00  0.00     0.009 A 
ATOM     54  C   UNL A   1      43.972  26.849  33.506  1.00  0.00     0.001 A 
ATOM     55  C   UNL A   1      45.862  25.481  34.123  1.00  0.00     0.001 A 
ATOM     56  C   UNL A   1      44.800  26.308  34.487  1.00  0.00     0.000 A 
ENDBRANCH  38  51
ENDBRANCH  12  13
ENDBRANCH   5   7
ENDBRANCH   2   3
ENDBRANCH   1   2
BRANCH   1  57
ATOM     57  C   UNL A   1      33.237  26.534  26.343  1.00  0.00     0.002 C 
BRANCH  57  58
ATOM     58  C   UNL A   1      34.248  25.970  25.340  1.00  0.00     0.002 C 
BRANCH  58  59
ATOM     59  C   UNL A   1      34.538  24.470  25.447  1.00  0.00     0.021 C 
BRANCH  59  60
ATOM     60  C   UNL A   1      33.843  23.753  26.600  1.00  0.00     0.116 C 
BRANCH  60  61
ATOM     61  N   UNL A   1      33.210  22.511  26.195  1.00  0.00    -0.351 N 
ATOM     62  C   UNL A   1      31.902  22.295  25.815  1.00  0.00     0.272 C 
ATOM     63  H   UNL A   1      33.792  21.716  26.192  1.00  0.00     0.163 HD
ATOM     64  O   UNL A   1      31.548  21.151  25.526  1.00  0.00    -0.267 OA
BRANCH  62  65
ATOM     65  C   UNL A   1      30.982  23.437  25.807  1.00  0.00     0.159 A 
ATOM     66  N   UNL A   1      30.201  23.689  26.876  1.00  0.00    -0.169 NA
ATOM     67  C   UNL A   1      30.821  24.443  24.800  1.00  0.00     0.051 A 
ATOM     68  N   UNL A   1      29.585  24.837  26.576  1.00  0.00    -0.277 N 
ATOM     69  C   UNL A   1      29.966  25.381  25.382  1.00  0.00     0.068 A 
ATOM     70  C   UNL A   1      31.300  24.724  23.506  1.00  0.00     0.054 A 
ATOM     71  H   UNL A   1      28.914  25.254  27.165  1.00  0.00     0.190 HD
ATOM     72  C   UNL A   1      29.632  26.598  24.773  1.00  0.00     0.044 A 
ATOM     73  C   UNL A   1      31.008  25.933  22.875  1.00  0.00     0.037 A 
ATOM     74  Cl  UNL A   1      32.223  23.523  22.717  1.00  0.00    -0.083 Cl
ATOM     75  C   UNL A   1      30.196  26.860  23.519  1.00  0.00     0.021 A 
ATOM     76  Br  UNL A   1      29.837  28.518  22.679  1.00  0.00    -0.051 Br
ENDBRANCH  62  65
ENDBRANCH  60  61
ENDBRANCH  59  60
ENDBRANCH  58  59
ENDBRANCH  57  58
ENDBRANCH   1  57
TORSDOF 13
ENDMDL
MODEL 3
REMARK VINA RESULT:     -11.7      3.209      7.639
REMARK SMILES O=C(NCCCCCCNC(=O)c1n[nH]c2cc(Br)cc(Cl)c12)c1ccc(-c2c3nc(c(-c4ccccc4)c4ccc([nH]4)c(-c4ccccc4)c4nc(c(-c5ccccc5)c5ccc2[nH]5)C=C4)C=C3)cc1
REMARK SMILES IDX 5 1 4 2 3 3 1 4 2 5 24 7 25 8 71 9 26 10 70 11 27 12 28 13
REMARK SMILES IDX 29 14 64 15 30 16 69 17 63 18 65 19 31 20 68 21 62 22 61 23
REMARK SMILES IDX 32 25 54 26 39 27 53 28 40 29 43 30 52 31 66 32 41 33 42 34
REMARK SMILES IDX 51 36 67 37 44 38 33 39 34 40 38 41 35 42 37 43 36 44 55 45
REMARK SMILES IDX 56 46 60 47 57 48 59 49 58 50 45 51 46 52 50 53 47 54 49 55
REMARK SMILES IDX 48 56 6 57 7 58 8 59 9 60 10 61 11 62 12 64 13 65 14 66
REMARK SMILES IDX 23 67 15 68 16 69 21 70 17 72 20 73 22 74 18 75 19 76
REMARK H PARENT 3 6 65 24 43 35 10 63 15 71
REMARK Flexibility Score: inf
ROOT
ATOM      1  C   UNL A   1      32.146  29.113  26.865  1.00  0.00     0.021 C 
ENDROOT
BRANCH   1   2
ATOM      2  C   UNL A   1      33.226  30.126  26.483  1.00  0.00     0.116 C 
BRANCH   2   3
ATOM      3  N   UNL A   1      33.400  31.198  27.442  1.00  0.00    -0.352 N 
ATOM      4  O   UNL A   1      34.225  32.709  28.821  1.00  0.00    -0.269 OA
ATOM      5  C   UNL A   1      34.440  31.670  28.190  1.00  0.00     0.251 C 
ATOM      6  H   UNL A   1      32.570  31.706  27.589  1.00  0.00     0.163 HD
BRANCH   5   7
ATOM      7  C   UNL A   1      35.769  31.013  28.338  1.00  0.00     0.039 A 
ATOM      8  C   UNL A   1      36.049  29.666  28.107  1.00  0.00     0.014 A 
ATOM      9  C   UNL A   1      36.817  31.844  28.782  1.00  0.00     0.014 A 
ATOM     10  C   UNL A   1      37.315  29.150  28.377  1.00  0.00     0.010 A 
ATOM     11  C   UNL A   1      38.088  31.337  29.042  1.00  0.00     0.010 A 
ATOM     12  C   UNL A   1      38.327  29.979  28.870  1.00  0.00    -0.014 A 
BRANCH  12  13
ATOM     13  C   UNL A   1      39.639  29.386  29.113  1.00  0.00     0.031 A 
ATOM     14  C   UNL A   1      39.990  29.125  30.538  1.00  0.00     0.074 A 
ATOM     15  C   UNL A   1      40.474  28.977  28.139  1.00  0.00     0.049 A 
ATOM     16  N   UNL A   1      40.965  29.626  31.228  1.00  0.00    -0.248 NA
ATOM     17  C   UNL A   1      39.115  28.226  31.303  1.00  0.00     0.031 C 
ATOM     18  C   UNL A   1      40.211  28.853  26.705  1.00  0.00     0.029 A 
ATOM     19  N   UNL A   1      41.740  28.484  28.268  1.00  0.00    -0.354 N 
ATOM     20  C   UNL A   1      40.920  29.007  32.477  1.00  0.00     0.074 A 
ATOM     21  C   UNL A   1      39.710  28.224  32.497  1.00  0.00     0.031 C 
ATOM     22  C   UNL A   1      41.194  28.120  26.134  1.00  0.00     0.029 A 
ATOM     23  C   UNL A   1      42.221  27.856  27.129  1.00  0.00     0.049 A 
ATOM     24  H   UNL A   1      42.266  28.567  29.096  1.00  0.00     0.167 HD
ATOM     25  C   UNL A   1      41.964  29.052  33.353  1.00  0.00     0.031 A 
ATOM     26  C   UNL A   1      43.357  27.126  27.031  1.00  0.00     0.031 A 
ATOM     27  C   UNL A   1      42.910  30.082  33.022  1.00  0.00     0.049 A 
ATOM     28  C   UNL A   1      44.243  27.502  28.154  1.00  0.00     0.074 A 
ATOM     29  C   UNL A   1      42.877  31.458  32.935  1.00  0.00     0.029 A 
ATOM     30  N   UNL A   1      44.075  29.696  32.405  1.00  0.00    -0.354 N 
ATOM     31  N   UNL A   1      44.826  28.660  28.260  1.00  0.00    -0.248 NA
ATOM     32  C   UNL A   1      44.201  26.709  29.371  1.00  0.00     0.031 C 
ATOM     33  C   UNL A   1      43.762  31.780  31.865  1.00  0.00     0.029 A 
ATOM     34  C   UNL A   1      44.297  30.582  31.386  1.00  0.00     0.049 A 
ATOM     35  H   UNL A   1      44.641  28.929  32.650  1.00  0.00     0.167 HD
ATOM     36  C   UNL A   1      44.844  28.924  29.621  1.00  0.00     0.074 A 
ATOM     37  C   UNL A   1      44.564  27.640  30.257  1.00  0.00     0.031 C 
ATOM     38  C   UNL A   1      44.808  30.206  30.089  1.00  0.00     0.031 A 
BRANCH  25  39
ATOM     39  C   UNL A   1      42.320  27.943  34.313  1.00  0.00    -0.014 A 
ATOM     40  C   UNL A   1      43.038  26.831  33.827  1.00  0.00     0.009 A 
ATOM     41  C   UNL A   1      41.738  27.808  35.586  1.00  0.00     0.009 A 
ATOM     42  C   UNL A   1      43.095  25.627  34.539  1.00  0.00     0.001 A 
ATOM     43  C   UNL A   1      41.831  26.620  36.320  1.00  0.00     0.001 A 
ATOM     44  C   UNL A   1      42.481  25.519  35.782  1.00  0.00     0.000 A 
ENDBRANCH  25  39
BRANCH  26  45
ATOM     45  C   UNL A   1      43.627  25.944  26.189  1.00  0.00    -0.014 A 
ATOM     46  C   UNL A   1      44.845  25.816  25.500  1.00  0.00     0.009 A 
ATOM     47  C   UNL A   1      42.805  24.807  26.289  1.00  0.00     0.009 A 
ATOM     48  C   UNL A   1      45.244  24.581  24.973  1.00  0.00     0.001 A 
ATOM     49  C   UNL A   1      43.203  23.576  25.758  1.00  0.00     0.001 A 
ATOM     50  C   UNL A   1      44.431  23.459  25.115  1.00  0.00     0.000 A 
ENDBRANCH  26  45
BRANCH  38  51
ATOM     51  C   UNL A   1      45.006  31.326  29.100  1.00  0.00    -0.014 A 
ATOM     52  C   UNL A   1      46.260  31.919  28.869  1.00  0.00     0.009 A 
ATOM     53  C   UNL A   1      43.939  31.676  28.259  1.00  0.00     0.009 A 
ATOM     54  C   UNL A   1      46.433  32.854  27.845  1.00  0.00     0.001 A 
ATOM     55  C   UNL A   1      44.117  32.594  27.221  1.00  0.00     0.001 A 
ATOM     56  C   UNL A   1      45.363  33.185  27.017  1.00  0.00     0.000 A 
ENDBRANCH  38  51
ENDBRANCH  12  13
ENDBRANCH   5   7
ENDBRANCH   2   3
ENDBRANCH   1   2
BRANCH   1  57
ATOM     57  C   UNL A   1      32.438  27.663  26.460  1.00  0.00     0.002 C 
BRANCH  57  58
ATOM     58  C   UNL A   1      33.901  27.323  26.162  1.00  0.00     0.002 C 
BRANCH  58  59
ATOM     59  C   UNL A   1      34.183  25.881  25.730  1.00  0.00     0.021 C 
BRANCH  59  60
ATOM     60  C   UNL A   1      33.015  25.161  25.064  1.00  0.00     0.116 C 
BRANCH  60  61
ATOM     61  N   UNL A   1      33.276  24.821  23.677  1.00  0.00    -0.351 N 
ATOM     62  C   UNL A   1      33.154  25.619  22.558  1.00  0.00     0.272 C 
ATOM     63  H   UNL A   1      33.580  23.899  23.513  1.00  0.00     0.163 HD
ATOM     64  O   UNL A   1      33.403  25.134  21.453  1.00  0.00    -0.267 OA
BRANCH  62  65
ATOM     65  C   UNL A   1      32.697  27.001  22.734  1.00  0.00     0.159 A 
ATOM     66  N   UNL A   1      33.564  28.025  22.606  1.00  0.00    -0.169 NA
ATOM     67  C   UNL A   1      31.366  27.476  22.966  1.00  0.00     0.051 A 
ATOM     68  N   UNL A   1      32.806  29.121  22.721  1.00  0.00    -0.277 N 
ATOM     69  C   UNL A   1      31.471  28.864  22.862  1.00  0.00     0.068 A 
ATOM     70  C   UNL A   1      30.085  26.944  23.204  1.00  0.00     0.054 A 
ATOM     71  H   UNL A   1      33.178  30.033  22.705  1.00  0.00     0.190 HD
ATOM     72  C   UNL A   1      30.366  29.725  22.911  1.00  0.00     0.044 A 
ATOM     73  C   UNL A   1      28.957  27.763  23.239  1.00  0.00     0.037 A 
ATOM     74  Cl  UNL A   1      29.956  25.264  23.484  1.00  0.00    -0.083 Cl
ATOM     75  C   UNL A   1      29.106  29.137  23.075  1.00  0.00     0.021 A 
ATOM     76  Br  UNL A   1      27.570  30.242  23.079  1.00  0.00    -0.051 Br
ENDBRANCH  62  65
ENDBRANCH  60  61
ENDBRANCH  59  60
ENDBRANCH  58  59
ENDBRANCH  57  58
ENDBRANCH   1  57
TORSDOF 13
ENDMDL
