MODEL 1
REMARK VINA RESULT:     -11.7      0.000      0.000
REMARK SMILES COc1cccc(Cn2c(=O)c(=O)n(CC(=O)NCCCCCCNC(=O)c3ccc(-c4c5nc(c(-c6ccccc6)c6ccc([nH]6)c(-c6ccccc6)c6nc(c(-c7ccccc7)c7ccc4[nH]7)C=C6)C=C5)cc3)c3ccccc32)c1
REMARK SMILES IDX 20 1 19 2 18 3 16 4 17 5 15 7 14 8 9 9 10 10 81 11 11 12
REMARK SMILES IDX 12 13 76 14 80 15 13 16 77 17 79 18 78 19 8 20 7 21 3 22
REMARK SMILES IDX 4 23 82 24 5 25 6 26 2 27 1 28 21 29 22 30 23 31 24 32 25 33
REMARK SMILES IDX 26 34 27 36 28 37 29 38 75 39 30 40 74 41 31 42 32 43 33 44
REMARK SMILES IDX 68 45 34 46 73 47 67 48 69 49 35 50 72 51 66 52 65 53 36 55
REMARK SMILES IDX 58 56 43 57 57 58 44 59 47 60 56 61 70 62 45 63 46 64 55 66
REMARK SMILES IDX 71 67 48 68 37 69 38 70 42 71 39 72 41 73 40 74 59 75 60 76
REMARK SMILES IDX 64 77 61 78 63 79 62 80 49 81 50 82 54 83 51 84 53 85 52 86
REMARK H PARENT 18 6 25 35 69 54 47 65
REMARK Flexibility Score: inf
ROOT
ATOM      1  C   UNL A   1      32.403  28.505  26.825  1.00  0.00     0.021 C 
ENDROOT
BRANCH   1   2
ATOM      2  C   UNL A   1      33.636  27.886  26.169  1.00  0.00     0.116 C 
BRANCH   2   3
ATOM      3  N   UNL A   1      33.971  28.591  24.950  1.00  0.00    -0.355 N 
ATOM      4  C   UNL A   1      33.502  28.453  23.686  1.00  0.00     0.240 C 
ATOM      5  O   UNL A   1      34.015  29.190  22.833  1.00  0.00    -0.273 OA
ATOM      6  H   UNL A   1      34.656  29.288  25.057  1.00  0.00     0.163 HD
BRANCH   4   7
ATOM      7  C   UNL A   1      32.255  27.643  23.306  1.00  0.00     0.226 C 
BRANCH   7   8
ATOM      8  N   UNL A   1      32.165  26.196  23.169  1.00  0.00    -0.293 N 
ATOM      9  N   UNL A   1      32.448  23.396  22.996  1.00  0.00    -0.298 N 
ATOM     10  C   UNL A   1      33.481  24.216  22.586  1.00  0.00     0.317 A 
ATOM     11  C   UNL A   1      31.598  23.934  23.999  1.00  0.00     0.068 A 
ATOM     12  O   UNL A   1      34.655  23.875  22.450  1.00  0.00    -0.263 OA
ATOM     13  C   UNL A   1      33.039  25.628  22.252  1.00  0.00     0.317 A 
ATOM     14  C   UNL A   1      31.499  25.353  24.122  1.00  0.00     0.069 A 
ATOM     15  C   UNL A   1      31.012  23.108  24.968  1.00  0.00     0.028 A 
ATOM     16  O   UNL A   1      33.519  26.198  21.273  1.00  0.00    -0.263 OA
ATOM     17  C   UNL A   1      30.770  25.892  25.190  1.00  0.00     0.028 A 
ATOM     18  C   UNL A   1      30.357  23.673  26.066  1.00  0.00     0.002 A 
ATOM     19  C   UNL A   1      30.228  25.056  26.170  1.00  0.00     0.002 A 
BRANCH   9  20
ATOM     20  C   UNL A   1      32.411  22.037  22.456  1.00  0.00     0.162 C 
BRANCH  20  21
ATOM     21  C   UNL A   1      32.864  21.066  23.560  1.00  0.00    -0.024 A 
ATOM     22  C   UNL A   1      34.753  20.246  24.858  1.00  0.00     0.119 A 
ATOM     23  C   UNL A   1      34.150  19.000  24.955  1.00  0.00     0.046 A 
ATOM     24  C   UNL A   1      34.075  21.300  24.250  1.00  0.00     0.052 A 
ATOM     25  C   UNL A   1      32.873  18.800  24.432  1.00  0.00     0.004 A 
ATOM     26  C   UNL A   1      32.245  19.816  23.705  1.00  0.00     0.006 A 
BRANCH  22  27
ATOM     27  O   UNL A   1      36.096  20.293  25.117  1.00  0.00    -0.497 OA
ATOM     28  C   UNL A   1      36.658  21.596  25.097  1.00  0.00     0.278 C 
ENDBRANCH  22  27
ENDBRANCH  20  21
ENDBRANCH   9  20
ENDBRANCH   7   8
ENDBRANCH   4   7
ENDBRANCH   2   3
ENDBRANCH   1   2
BRANCH   1  29
ATOM     29  C   UNL A   1      32.502  30.031  26.968  1.00  0.00     0.002 C 
BRANCH  29  30
ATOM     30  C   UNL A   1      31.355  30.802  26.299  1.00  0.00     0.002 C 
BRANCH  30  31
ATOM     31  C   UNL A   1      31.340  32.308  26.583  1.00  0.00     0.021 C 
BRANCH  31  32
ATOM     32  C   UNL A   1      32.623  32.847  27.213  1.00  0.00     0.116 C 
BRANCH  32  33
ATOM     33  N   UNL A   1      32.466  34.228  27.648  1.00  0.00    -0.352 N 
ATOM     34  C   UNL A   1      33.070  34.886  28.689  1.00  0.00     0.251 C 
ATOM     35  H   UNL A   1      31.834  34.765  27.119  1.00  0.00     0.163 HD
ATOM     36  O   UNL A   1      32.613  35.950  29.097  1.00  0.00    -0.269 OA
BRANCH  34  37
ATOM     37  C   UNL A   1      34.282  34.321  29.312  1.00  0.00     0.039 A 
ATOM     38  C   UNL A   1      34.168  33.612  30.511  1.00  0.00     0.014 A 
ATOM     39  C   UNL A   1      35.537  34.539  28.737  1.00  0.00     0.014 A 
ATOM     40  C   UNL A   1      35.310  33.078  31.109  1.00  0.00     0.010 A 
ATOM     41  C   UNL A   1      36.668  33.960  29.303  1.00  0.00     0.010 A 
ATOM     42  C   UNL A   1      36.565  33.230  30.496  1.00  0.00    -0.014 A 
BRANCH  42  43
ATOM     43  C   UNL A   1      37.792  32.648  31.089  1.00  0.00     0.031 A 
ATOM     44  C   UNL A   1      38.437  31.449  30.455  1.00  0.00     0.074 A 
ATOM     45  C   UNL A   1      38.273  33.146  32.243  1.00  0.00     0.049 A 
ATOM     46  N   UNL A   1      39.453  30.740  30.876  1.00  0.00    -0.248 NA
ATOM     47  C   UNL A   1      37.845  30.970  29.196  1.00  0.00     0.031 C 
ATOM     48  C   UNL A   1      37.719  34.290  32.970  1.00  0.00     0.029 A 
ATOM     49  N   UNL A   1      39.333  32.742  33.013  1.00  0.00    -0.354 N 
ATOM     50  C   UNL A   1      39.606  29.718  29.949  1.00  0.00     0.074 A 
ATOM     51  C   UNL A   1      38.558  29.877  28.964  1.00  0.00     0.031 C 
ATOM     52  C   UNL A   1      38.459  34.509  34.069  1.00  0.00     0.029 A 
ATOM     53  C   UNL A   1      39.510  33.500  34.143  1.00  0.00     0.049 A 
ATOM     54  H   UNL A   1      39.912  31.981  32.777  1.00  0.00     0.167 HD
ATOM     55  C   UNL A   1      40.542  28.739  29.915  1.00  0.00     0.031 A 
ATOM     56  C   UNL A   1      40.414  33.388  35.134  1.00  0.00     0.031 A 
ATOM     57  C   UNL A   1      41.595  28.593  30.882  1.00  0.00     0.049 A 
ATOM     58  C   UNL A   1      41.425  32.280  35.087  1.00  0.00     0.074 A 
ATOM     59  C   UNL A   1      42.645  27.689  30.887  1.00  0.00     0.029 A 
ATOM     60  N   UNL A   1      41.729  29.370  32.021  1.00  0.00    -0.354 N 
ATOM     61  N   UNL A   1      41.597  31.359  34.172  1.00  0.00    -0.248 NA
ATOM     62  C   UNL A   1      42.365  32.197  36.215  1.00  0.00     0.031 C 
ATOM     63  C   UNL A   1      43.386  27.891  32.057  1.00  0.00     0.029 A 
ATOM     64  C   UNL A   1      42.822  28.944  32.758  1.00  0.00     0.049 A 
ATOM     65  H   UNL A   1      41.135  30.114  32.271  1.00  0.00     0.167 HD
ATOM     66  C   UNL A   1      42.673  30.594  34.602  1.00  0.00     0.074 A 
ATOM     67  C   UNL A   1      43.121  31.168  35.856  1.00  0.00     0.031 C 
ATOM     68  C   UNL A   1      43.240  29.516  34.011  1.00  0.00     0.031 A 
BRANCH  55  69
ATOM     69  C   UNL A   1      40.450  27.741  28.797  1.00  0.00    -0.014 A 
ATOM     70  C   UNL A   1      41.131  27.937  27.584  1.00  0.00     0.009 A 
ATOM     71  C   UNL A   1      39.675  26.581  28.961  1.00  0.00     0.009 A 
ATOM     72  C   UNL A   1      41.005  27.013  26.545  1.00  0.00     0.001 A 
ATOM     73  C   UNL A   1      39.571  25.647  27.929  1.00  0.00     0.001 A 
ATOM     74  C   UNL A   1      40.227  25.869  26.719  1.00  0.00     0.000 A 
ENDBRANCH  55  69
BRANCH  56  75
ATOM     75  C   UNL A   1      40.408  34.368  36.248  1.00  0.00    -0.014 A 
ATOM     76  C   UNL A   1      41.088  35.588  36.112  1.00  0.00     0.009 A 
ATOM     77  C   UNL A   1      39.710  34.105  37.435  1.00  0.00     0.009 A 
ATOM     78  C   UNL A   1      41.078  36.521  37.151  1.00  0.00     0.001 A 
ATOM     79  C   UNL A   1      39.686  35.048  38.465  1.00  0.00     0.001 A 
ATOM     80  C   UNL A   1      40.373  36.252  38.323  1.00  0.00     0.000 A 
ENDBRANCH  56  75
BRANCH  68  81
ATOM     81  C   UNL A   1      44.411  28.891  34.713  1.00  0.00    -0.014 A 
ATOM     82  C   UNL A   1      44.228  27.826  35.609  1.00  0.00     0.009 A 
ATOM     83  C   UNL A   1      45.710  29.347  34.448  1.00  0.00     0.009 A 
ATOM     84  C   UNL A   1      45.327  27.246  36.246  1.00  0.00     0.001 A 
ATOM     85  C   UNL A   1      46.808  28.750  35.070  1.00  0.00     0.001 A 
ATOM     86  C   UNL A   1      46.615  27.706  35.972  1.00  0.00     0.000 A 
ENDBRANCH  68  81
ENDBRANCH  42  43
ENDBRANCH  34  37
ENDBRANCH  32  33
ENDBRANCH  31  32
ENDBRANCH  30  31
ENDBRANCH  29  30
ENDBRANCH   1  29
TORSDOF 17
ENDMDL
MODEL 2
REMARK VINA RESULT:     -11.7      1.673      2.349
REMARK SMILES COc1cccc(Cn2c(=O)c(=O)n(CC(=O)NCCCCCCNC(=O)c3ccc(-c4c5nc(c(-c6ccccc6)c6ccc([nH]6)c(-c6ccccc6)c6nc(c(-c7ccccc7)c7ccc4[nH]7)C=C6)C=C5)cc3)c3ccccc32)c1
REMARK SMILES IDX 20 1 19 2 18 3 16 4 17 5 15 7 14 8 9 9 10 10 81 11 11 12
REMARK SMILES IDX 12 13 76 14 80 15 13 16 77 17 79 18 78 19 8 20 7 21 3 22
REMARK SMILES IDX 4 23 82 24 5 25 6 26 2 27 1 28 21 29 22 30 23 31 24 32 25 33
REMARK SMILES IDX 26 34 27 36 28 37 29 38 75 39 30 40 74 41 31 42 32 43 33 44
REMARK SMILES IDX 68 45 34 46 73 47 67 48 69 49 35 50 72 51 66 52 65 53 36 55
REMARK SMILES IDX 58 56 43 57 57 58 44 59 47 60 56 61 70 62 45 63 46 64 55 66
REMARK SMILES IDX 71 67 48 68 37 69 38 70 42 71 39 72 41 73 40 74 59 75 60 76
REMARK SMILES IDX 64 77 61 78 63 79 62 80 49 81 50 82 54 83 51 84 53 85 52 86
REMARK H PARENT 18 6 25 35 69 54 47 65
REMARK Flexibility Score: inf
ROOT
ATOM      1  C   UNL A   1      32.698  28.164  26.136  1.00  0.00     0.021 C 
ENDROOT
BRANCH   1   2
ATOM      2  C   UNL A   1      33.593  27.163  25.406  1.00  0.00     0.116 C 
BRANCH   2   3
ATOM      3  N   UNL A   1      33.821  27.586  24.042  1.00  0.00    -0.355 N 
ATOM      4  C   UNL A   1      33.561  26.968  22.863  1.00  0.00     0.240 C 
ATOM      5  O   UNL A   1      33.908  27.579  21.842  1.00  0.00    -0.273 OA
ATOM      6  H   UNL A   1      34.236  28.474  23.954  1.00  0.00     0.163 HD
BRANCH   4   7
ATOM      7  C   UNL A   1      32.682  25.719  22.713  1.00  0.00     0.226 C 
BRANCH   7   8
ATOM      8  N   UNL A   1      32.725  24.520  23.538  1.00  0.00    -0.293 N 
ATOM      9  N   UNL A   1      33.199  22.382  25.314  1.00  0.00    -0.298 N 
ATOM     10  C   UNL A   1      34.265  23.049  24.746  1.00  0.00     0.317 A 
ATOM     11  C   UNL A   1      32.009  23.143  25.466  1.00  0.00     0.068 A 
ATOM     12  O   UNL A   1      35.422  23.041  25.165  1.00  0.00    -0.263 OA
ATOM     13  C   UNL A   1      33.907  23.793  23.473  1.00  0.00     0.317 A 
ATOM     14  C   UNL A   1      31.797  24.261  24.602  1.00  0.00     0.069 A 
ATOM     15  C   UNL A   1      31.147  22.928  26.551  1.00  0.00     0.028 A 
ATOM     16  O   UNL A   1      34.688  23.780  22.522  1.00  0.00    -0.263 OA
ATOM     17  C   UNL A   1      30.696  25.095  24.830  1.00  0.00     0.028 A 
ATOM     18  C   UNL A   1      30.102  23.821  26.802  1.00  0.00     0.002 A 
ATOM     19  C   UNL A   1      29.871  24.891  25.940  1.00  0.00     0.002 A 
BRANCH   9  20
ATOM     20  C   UNL A   1      33.437  21.026  25.808  1.00  0.00     0.162 C 
BRANCH  20  21
ATOM     21  C   UNL A   1      32.803  20.033  24.818  1.00  0.00    -0.024 A 
ATOM     22  C   UNL A   1      32.711  17.714  24.086  1.00  0.00     0.119 A 
ATOM     23  C   UNL A   1      32.436  18.129  22.791  1.00  0.00     0.046 A 
ATOM     24  C   UNL A   1      32.798  18.651  25.113  1.00  0.00     0.052 A 
ATOM     25  C   UNL A   1      32.261  19.485  22.516  1.00  0.00     0.004 A 
ATOM     26  C   UNL A   1      32.479  20.438  23.515  1.00  0.00     0.006 A 
BRANCH  22  27
ATOM     27  O   UNL A   1      33.160  16.429  24.229  1.00  0.00    -0.497 OA
ATOM     28  C   UNL A   1      33.645  16.112  25.525  1.00  0.00     0.278 C 
ENDBRANCH  22  27
ENDBRANCH  20  21
ENDBRANCH   9  20
ENDBRANCH   7   8
ENDBRANCH   4   7
ENDBRANCH   2   3
ENDBRANCH   1   2
BRANCH   1  29
ATOM     29  C   UNL A   1      32.735  29.567  25.511  1.00  0.00     0.002 C 
BRANCH  29  30
ATOM     30  C   UNL A   1      31.358  30.230  25.372  1.00  0.00     0.002 C 
BRANCH  30  31
ATOM     31  C   UNL A   1      31.220  31.584  26.079  1.00  0.00     0.021 C 
BRANCH  31  32
ATOM     32  C   UNL A   1      32.429  31.982  26.923  1.00  0.00     0.116 C 
BRANCH  32  33
ATOM     33  N   UNL A   1      32.309  33.346  27.419  1.00  0.00    -0.352 N 
ATOM     34  C   UNL A   1      33.071  34.005  28.349  1.00  0.00     0.251 C 
ATOM     35  H   UNL A   1      31.572  33.871  27.031  1.00  0.00     0.163 HD
ATOM     36  O   UNL A   1      32.662  35.041  28.864  1.00  0.00    -0.269 OA
BRANCH  34  37
ATOM     37  C   UNL A   1      34.397  33.474  28.722  1.00  0.00     0.039 A 
ATOM     38  C   UNL A   1      35.510  33.802  27.942  1.00  0.00     0.014 A 
ATOM     39  C   UNL A   1      34.529  32.609  29.811  1.00  0.00     0.014 A 
ATOM     40  C   UNL A   1      36.766  33.301  28.285  1.00  0.00     0.010 A 
ATOM     41  C   UNL A   1      35.788  32.155  30.186  1.00  0.00     0.010 A 
ATOM     42  C   UNL A   1      36.916  32.491  29.423  1.00  0.00    -0.014 A 
BRANCH  42  43
ATOM     43  C   UNL A   1      38.240  31.969  29.833  1.00  0.00     0.031 A 
ATOM     44  C   UNL A   1      38.710  30.633  29.332  1.00  0.00     0.074 A 
ATOM     45  C   UNL A   1      38.980  32.658  30.722  1.00  0.00     0.049 A 
ATOM     46  N   UNL A   1      39.789  29.965  29.652  1.00  0.00    -0.248 NA
ATOM     47  C   UNL A   1      37.839  29.948  28.364  1.00  0.00     0.031 C 
ATOM     48  C   UNL A   1      38.620  33.953  31.302  1.00  0.00     0.029 A 
ATOM     49  N   UNL A   1      40.185  32.355  31.301  1.00  0.00    -0.354 N 
ATOM     50  C   UNL A   1      39.714  28.772  28.946  1.00  0.00     0.074 A 
ATOM     51  C   UNL A   1      38.468  28.792  28.209  1.00  0.00     0.031 C 
ATOM     52  C   UNL A   1      39.596  34.343  32.138  1.00  0.00     0.029 A 
ATOM     53  C   UNL A   1      40.625  33.311  32.182  1.00  0.00     0.049 A 
ATOM     54  H   UNL A   1      40.686  31.530  31.104  1.00  0.00     0.167 HD
ATOM     55  C   UNL A   1      40.607  27.754  28.906  1.00  0.00     0.031 A 
ATOM     56  C   UNL A   1      41.733  33.347  32.947  1.00  0.00     0.031 A 
ATOM     57  C   UNL A   1      41.854  27.744  29.621  1.00  0.00     0.049 A 
ATOM     58  C   UNL A   1      42.695  32.196  32.904  1.00  0.00     0.074 A 
ATOM     59  C   UNL A   1      42.867  26.801  29.578  1.00  0.00     0.029 A 
ATOM     60  N   UNL A   1      42.255  28.722  30.516  1.00  0.00    -0.354 N 
ATOM     61  N   UNL A   1      42.642  31.103  32.184  1.00  0.00    -0.248 NA
ATOM     62  C   UNL A   1      43.869  32.285  33.785  1.00  0.00     0.031 C 
ATOM     63  C   UNL A   1      43.860  27.188  30.485  1.00  0.00     0.029 A 
ATOM     64  C   UNL A   1      43.484  28.390  31.061  1.00  0.00     0.049 A 
ATOM     65  H   UNL A   1      41.742  29.534  30.734  1.00  0.00     0.167 HD
ATOM     66  C   UNL A   1      43.780  30.379  32.510  1.00  0.00     0.074 A 
ATOM     67  C   UNL A   1      44.511  31.164  33.487  1.00  0.00     0.031 C 
ATOM     68  C   UNL A   1      44.185  29.174  32.043  1.00  0.00     0.031 A 
BRANCH  55  69
ATOM     69  C   UNL A   1      40.250  26.561  28.067  1.00  0.00    -0.014 A 
ATOM     70  C   UNL A   1      39.522  25.485  28.601  1.00  0.00     0.009 A 
ATOM     71  C   UNL A   1      40.641  26.515  26.720  1.00  0.00     0.009 A 
ATOM     72  C   UNL A   1      39.229  24.370  27.813  1.00  0.00     0.001 A 
ATOM     73  C   UNL A   1      40.325  25.410  25.928  1.00  0.00     0.001 A 
ATOM     74  C   UNL A   1      39.629  24.334  26.478  1.00  0.00     0.000 A 
ENDBRANCH  55  69
BRANCH  56  75
ATOM     75  C   UNL A   1      41.994  34.527  33.806  1.00  0.00    -0.014 A 
ATOM     76  C   UNL A   1      42.670  35.640  33.283  1.00  0.00     0.009 A 
ATOM     77  C   UNL A   1      41.553  34.560  35.137  1.00  0.00     0.009 A 
ATOM     78  C   UNL A   1      42.909  36.760  34.083  1.00  0.00     0.001 A 
ATOM     79  C   UNL A   1      41.777  35.690  35.928  1.00  0.00     0.001 A 
ATOM     80  C   UNL A   1      42.458  36.785  35.402  1.00  0.00     0.000 A 
ENDBRANCH  56  75
BRANCH  68  81
ATOM     81  C   UNL A   1      45.480  28.636  32.579  1.00  0.00    -0.014 A 
ATOM     82  C   UNL A   1      45.500  27.798  33.705  1.00  0.00     0.009 A 
ATOM     83  C   UNL A   1      46.685  28.938  31.930  1.00  0.00     0.009 A 
ATOM     84  C   UNL A   1      46.710  27.294  34.185  1.00  0.00     0.001 A 
ATOM     85  C   UNL A   1      47.891  28.415  32.400  1.00  0.00     0.001 A 
ATOM     86  C   UNL A   1      47.903  27.600  33.529  1.00  0.00     0.000 A 
ENDBRANCH  68  81
ENDBRANCH  42  43
ENDBRANCH  34  37
ENDBRANCH  32  33
ENDBRANCH  31  32
ENDBRANCH  30  31
ENDBRANCH  29  30
ENDBRANCH   1  29
TORSDOF 17
ENDMDL
MODEL 3
REMARK VINA RESULT:     -11.6      1.490      5.996
REMARK SMILES COc1cccc(Cn2c(=O)c(=O)n(CC(=O)NCCCCCCNC(=O)c3ccc(-c4c5nc(c(-c6ccccc6)c6ccc([nH]6)c(-c6ccccc6)c6nc(c(-c7ccccc7)c7ccc4[nH]7)C=C6)C=C5)cc3)c3ccccc32)c1
REMARK SMILES IDX 20 1 19 2 18 3 16 4 17 5 15 7 14 8 9 9 10 10 81 11 11 12
REMARK SMILES IDX 12 13 76 14 80 15 13 16 77 17 79 18 78 19 8 20 7 21 3 22
REMARK SMILES IDX 4 23 82 24 5 25 6 26 2 27 1 28 21 29 22 30 23 31 24 32 25 33
REMARK SMILES IDX 26 34 27 36 28 37 29 38 75 39 30 40 74 41 31 42 32 43 33 44
REMARK SMILES IDX 68 45 34 46 73 47 67 48 69 49 35 50 72 51 66 52 65 53 36 55
REMARK SMILES IDX 58 56 43 57 57 58 44 59 47 60 56 61 70 62 45 63 46 64 55 66
REMARK SMILES IDX 71 67 48 68 37 69 38 70 42 71 39 72 41 73 40 74 59 75 60 76
REMARK SMILES IDX 64 77 61 78 63 79 62 80 49 81 50 82 54 83 51 84 53 85 52 86
REMARK H PARENT 18 6 25 35 69 54 47 65
REMARK Flexibility Score: inf
ROOT
ATOM      1  C   UNL A   1      32.636  28.281  26.152  1.00  0.00     0.021 C 
ENDROOT
BRANCH   1   2
ATOM      2  C   UNL A   1      33.647  27.350  25.484  1.00  0.00     0.116 C 
BRANCH   2   3
ATOM      3  N   UNL A   1      33.876  27.750  24.112  1.00  0.00    -0.355 N 
ATOM      4  C   UNL A   1      33.591  27.124  22.944  1.00  0.00     0.240 C 
ATOM      5  O   UNL A   1      33.946  27.712  21.913  1.00  0.00    -0.273 OA
ATOM      6  H   UNL A   1      34.313  28.625  24.010  1.00  0.00     0.163 HD
BRANCH   4   7
ATOM      7  C   UNL A   1      32.679  25.897  22.816  1.00  0.00     0.226 C 
BRANCH   7   8
ATOM      8  N   UNL A   1      32.758  24.668  23.594  1.00  0.00    -0.293 N 
ATOM      9  N   UNL A   1      33.301  22.474  25.279  1.00  0.00    -0.298 N 
ATOM     10  C   UNL A   1      34.345  23.181  24.716  1.00  0.00     0.317 A 
ATOM     11  C   UNL A   1      32.101  23.208  25.481  1.00  0.00     0.068 A 
ATOM     12  O   UNL A   1      35.509  23.177  25.114  1.00  0.00    -0.263 OA
ATOM     13  C   UNL A   1      33.950  23.966  23.480  1.00  0.00     0.317 A 
ATOM     14  C   UNL A   1      31.855  24.353  24.665  1.00  0.00     0.069 A 
ATOM     15  C   UNL A   1      31.265  22.937  26.573  1.00  0.00     0.028 A 
ATOM     16  O   UNL A   1      34.713  24.001  22.515  1.00  0.00    -0.263 OA
ATOM     17  C   UNL A   1      30.744  25.158  24.944  1.00  0.00     0.028 A 
ATOM     18  C   UNL A   1      30.209  23.801  26.877  1.00  0.00     0.002 A 
ATOM     19  C   UNL A   1      29.944  24.899  26.060  1.00  0.00     0.002 A 
BRANCH   9  20
ATOM     20  C   UNL A   1      33.571  21.104  25.716  1.00  0.00     0.162 C 
BRANCH  20  21
ATOM     21  C   UNL A   1      32.868  20.140  24.746  1.00  0.00    -0.024 A 
ATOM     22  C   UNL A   1      32.706  17.838  23.972  1.00  0.00     0.119 A 
ATOM     23  C   UNL A   1      32.357  18.284  22.706  1.00  0.00     0.046 A 
ATOM     24  C   UNL A   1      32.866  18.751  25.011  1.00  0.00     0.052 A 
ATOM     25  C   UNL A   1      32.180  19.647  22.470  1.00  0.00     0.004 A 
ATOM     26  C   UNL A   1      32.468  20.576  23.475  1.00  0.00     0.006 A 
BRANCH  22  27
ATOM     27  O   UNL A   1      33.149  16.546  24.060  1.00  0.00    -0.497 OA
ATOM     28  C   UNL A   1      34.126  16.322  25.065  1.00  0.00     0.278 C 
ENDBRANCH  22  27
ENDBRANCH  20  21
ENDBRANCH   9  20
ENDBRANCH   7   8
ENDBRANCH   4   7
ENDBRANCH   2   3
ENDBRANCH   1   2
BRANCH   1  29
ATOM     29  C   UNL A   1      32.635  29.695  25.551  1.00  0.00     0.002 C 
BRANCH  29  30
ATOM     30  C   UNL A   1      31.246  30.344  25.473  1.00  0.00     0.002 C 
BRANCH  30  31
ATOM     31  C   UNL A   1      31.154  31.743  26.095  1.00  0.00     0.021 C 
BRANCH  31  32
ATOM     32  C   UNL A   1      32.259  32.064  27.099  1.00  0.00     0.116 C 
BRANCH  32  33
ATOM     33  N   UNL A   1      32.313  33.488  27.397  1.00  0.00    -0.352 N 
ATOM     34  C   UNL A   1      33.142  34.168  28.252  1.00  0.00     0.251 C 
ATOM     35  H   UNL A   1      31.658  34.043  26.915  1.00  0.00     0.163 HD
ATOM     36  O   UNL A   1      32.866  35.310  28.606  1.00  0.00    -0.269 OA
BRANCH  34  37
ATOM     37  C   UNL A   1      34.379  33.527  28.740  1.00  0.00     0.039 A 
ATOM     38  C   UNL A   1      35.579  33.749  28.058  1.00  0.00     0.014 A 
ATOM     39  C   UNL A   1      34.342  32.666  29.840  1.00  0.00     0.014 A 
ATOM     40  C   UNL A   1      36.753  33.144  28.509  1.00  0.00     0.010 A 
ATOM     41  C   UNL A   1      35.520  32.108  30.323  1.00  0.00     0.010 A 
ATOM     42  C   UNL A   1      36.734  32.337  29.659  1.00  0.00    -0.014 A 
BRANCH  42  43
ATOM     43  C   UNL A   1      37.968  31.707  30.183  1.00  0.00     0.031 A 
ATOM     44  C   UNL A   1      38.763  32.390  31.259  1.00  0.00     0.074 A 
ATOM     45  C   UNL A   1      38.417  30.564  29.630  1.00  0.00     0.049 A 
ATOM     46  N   UNL A   1      39.914  32.047  31.776  1.00  0.00    -0.248 NA
ATOM     47  C   UNL A   1      38.199  33.634  31.806  1.00  0.00     0.031 C 
ATOM     48  C   UNL A   1      37.750  29.820  28.560  1.00  0.00     0.029 A 
ATOM     49  N   UNL A   1      39.551  29.838  29.886  1.00  0.00    -0.354 N 
ATOM     50  C   UNL A   1      40.226  33.045  32.690  1.00  0.00     0.074 A 
ATOM     51  C   UNL A   1      39.161  34.024  32.630  1.00  0.00     0.031 C 
ATOM     52  C   UNL A   1      38.476  28.730  28.268  1.00  0.00     0.029 A 
ATOM     53  C   UNL A   1      39.675  28.720  29.099  1.00  0.00     0.049 A 
ATOM     54  H   UNL A   1      40.212  30.093  30.570  1.00  0.00     0.167 HD
ATOM     55  C   UNL A   1      41.299  33.136  33.512  1.00  0.00     0.031 A 
ATOM     56  C   UNL A   1      40.652  27.796  29.047  1.00  0.00     0.031 A 
ATOM     57  C   UNL A   1      42.346  32.154  33.586  1.00  0.00     0.049 A 
ATOM     58  C   UNL A   1      41.843  27.931  29.951  1.00  0.00     0.074 A 
ATOM     59  C   UNL A   1      43.429  32.109  34.448  1.00  0.00     0.029 A 
ATOM     60  N   UNL A   1      42.445  31.046  32.760  1.00  0.00    -0.354 N 
ATOM     61  N   UNL A   1      42.093  28.846  30.854  1.00  0.00    -0.248 NA
ATOM     62  C   UNL A   1      42.887  26.903  29.823  1.00  0.00     0.031 C 
ATOM     63  C   UNL A   1      44.208  30.996  34.111  1.00  0.00     0.029 A 
ATOM     64  C   UNL A   1      43.589  30.329  33.066  1.00  0.00     0.049 A 
ATOM     65  H   UNL A   1      41.797  30.804  32.059  1.00  0.00     0.167 HD
ATOM     66  C   UNL A   1      43.315  28.500  31.415  1.00  0.00     0.074 A 
ATOM     67  C   UNL A   1      43.749  27.283  30.756  1.00  0.00     0.031 C 
ATOM     68  C   UNL A   1      44.013  29.132  32.388  1.00  0.00     0.031 A 
BRANCH  55  69
ATOM     69  C   UNL A   1      41.392  34.353  34.387  1.00  0.00    -0.014 A 
ATOM     70  C   UNL A   1      40.824  34.376  35.671  1.00  0.00     0.009 A 
ATOM     71  C   UNL A   1      42.066  35.494  33.921  1.00  0.00     0.009 A 
ATOM     72  C   UNL A   1      40.893  35.530  36.454  1.00  0.00     0.001 A 
ATOM     73  C   UNL A   1      42.155  36.638  34.717  1.00  0.00     0.001 A 
ATOM     74  C   UNL A   1      41.560  36.658  35.977  1.00  0.00     0.000 A 
ENDBRANCH  55  69
BRANCH  56  75
ATOM     75  C   UNL A   1      40.531  26.651  28.111  1.00  0.00    -0.014 A 
ATOM     76  C   UNL A   1      39.919  25.461  28.533  1.00  0.00     0.009 A 
ATOM     77  C   UNL A   1      41.002  26.746  26.793  1.00  0.00     0.009 A 
ATOM     78  C   UNL A   1      39.791  24.383  27.655  1.00  0.00     0.001 A 
ATOM     79  C   UNL A   1      40.854  25.673  25.912  1.00  0.00     0.001 A 
ATOM     80  C   UNL A   1      40.254  24.493  26.344  1.00  0.00     0.000 A 
ENDBRANCH  56  75
BRANCH  68  81
ATOM     81  C   UNL A   1      45.316  28.514  32.802  1.00  0.00    -0.014 A 
ATOM     82  C   UNL A   1      46.519  28.884  32.181  1.00  0.00     0.009 A 
ATOM     83  C   UNL A   1      45.347  27.580  33.848  1.00  0.00     0.009 A 
ATOM     84  C   UNL A   1      47.726  28.311  32.585  1.00  0.00     0.001 A 
ATOM     85  C   UNL A   1      46.558  27.024  34.263  1.00  0.00     0.001 A 
ATOM     86  C   UNL A   1      47.744  27.385  33.628  1.00  0.00     0.000 A 
ENDBRANCH  68  81
ENDBRANCH  42  43
ENDBRANCH  34  37
ENDBRANCH  32  33
ENDBRANCH  31  32
ENDBRANCH  30  31
ENDBRANCH  29  30
ENDBRANCH   1  29
TORSDOF 17
ENDMDL
