MODEL 1
REMARK VINA RESULT:     -10.4      0.000      0.000
REMARK SMILES C[NH2+][C@@](C)(CC[N@@H+](C)C1CCC(C)(C)CC1)C(=O)NCCCCCCNC(=O)c1ccc(-c2c3nc(c(-c4ccccc4)c4ccc([nH]4)c(-c4ccccc4)c4nc(c(-c5ccccc5)c5ccc2[nH]5)C=C4)C=C3)cc1
REMARK SMILES IDX 21 1 20 2 19 3 17 4 18 5 3 7 4 8 2 9 1 10 5 13 6 14 7 15
REMARK SMILES IDX 8 16 9 18 10 19 16 20 11 21 15 22 12 23 13 24 14 25 22 26
REMARK SMILES IDX 23 27 24 28 25 29 26 30 27 31 28 33 29 34 30 35 76 36 31 37
REMARK SMILES IDX 75 38 32 39 33 40 34 41 69 42 35 43 74 44 68 45 70 46 36 47
REMARK SMILES IDX 73 48 67 49 66 50 37 52 59 53 44 54 58 55 45 56 48 57 57 58
REMARK SMILES IDX 71 59 46 60 47 61 56 63 72 64 49 65 38 66 39 67 43 68 40 69
REMARK SMILES IDX 42 70 41 71 60 72 61 73 65 74 62 75 64 76 63 77 50 78 51 79
REMARK SMILES IDX 55 80 52 81 54 82 53 83
REMARK H PARENT 19 6 2 11 2 12 7 17 26 32 70 51 48 62
REMARK Flexibility Score: inf
ROOT
ATOM      1  C   UNL A   1      38.733  28.946  28.154  1.00  0.00     0.021 C 
ENDROOT
BRANCH   1   2
ATOM      2  C   UNL A   1      37.549  30.074  28.145  1.00  0.00     0.116 C 
BRANCH   2   3
ATOM      3  N   UNL A   1      36.366  29.895  27.067  1.00  0.00    -0.351 N 
ATOM      4  C   UNL A   1      34.958  29.933  27.263  1.00  0.00     0.281 C 
ATOM      5  O   UNL A   1      34.563  30.563  28.258  1.00  0.00    -0.268 OA
ATOM      6  H   UNL A   1      36.660  29.735  26.141  1.00  0.00     0.163 HD
BRANCH   4   7
ATOM      7  C   UNL A   1      33.711  29.167  26.192  1.00  0.00     0.177 C 
ATOM      8  C   UNL A   1      34.041  27.617  26.343  1.00  0.00     0.090 C 
BRANCH   7   9
ATOM      9  N   UNL A   1      32.356  29.468  26.761  1.00  0.00    -0.336 N 
ATOM     10  C   UNL A   1      31.739  28.390  27.532  1.00  0.00     0.331 C 
ATOM     11  H   UNL A   1      32.446  30.279  27.372  1.00  0.00     0.346 HD
ATOM     12  H   UNL A   1      31.746  29.619  25.957  1.00  0.00     0.346 HD
ENDBRANCH   7   9
BRANCH   7  13
ATOM     13  C   UNL A   1      33.442  29.179  24.500  1.00  0.00     0.140 C 
BRANCH  13  14
ATOM     14  C   UNL A   1      32.906  28.053  23.475  1.00  0.00     0.269 C 
BRANCH  14  15
ATOM     15  N   UNL A   1      31.510  28.007  22.842  1.00  0.00    -0.335 N 
ATOM     16  C   UNL A   1      31.375  26.736  22.100  1.00  0.00     0.332 C 
ATOM     17  H   UNL A   1      31.454  28.830  22.242  1.00  0.00     0.348 HD
BRANCH  15  18
ATOM     18  C   UNL A   1      30.376  28.127  23.779  1.00  0.00     0.183 C 
ATOM     19  C   UNL A   1      30.197  29.568  23.987  1.00  0.00     0.065 C 
ATOM     20  C   UNL A   1      28.916  27.700  23.446  1.00  0.00     0.065 C 
ATOM     21  C   UNL A   1      29.796  30.295  22.704  1.00  0.00     0.012 C 
ATOM     22  C   UNL A   1      27.896  28.756  22.800  1.00  0.00     0.012 C 
ATOM     23  C   UNL A   1      28.313  30.249  22.512  1.00  0.00    -0.035 C 
ATOM     24  C   UNL A   1      27.950  30.621  21.067  1.00  0.00     0.011 C 
ATOM     25  C   UNL A   1      27.747  31.473  23.300  1.00  0.00     0.011 C 
ENDBRANCH  15  18
ENDBRANCH  14  15
ENDBRANCH  13  14
ENDBRANCH   7  13
ENDBRANCH   4   7
ENDBRANCH   2   3
ENDBRANCH   1   2
BRANCH   1  26
ATOM     26  C   UNL A   1      40.029  28.817  27.284  1.00  0.00     0.002 C 
BRANCH  26  27
ATOM     27  C   UNL A   1      40.770  27.467  27.009  1.00  0.00     0.002 C 
BRANCH  27  28
ATOM     28  C   UNL A   1      40.048  26.101  26.810  1.00  0.00     0.021 C 
BRANCH  28  29
ATOM     29  C   UNL A   1      40.189  24.952  27.833  1.00  0.00     0.116 C 
BRANCH  29  30
ATOM     30  N   UNL A   1      40.871  23.766  27.323  1.00  0.00    -0.352 N 
ATOM     31  C   UNL A   1      42.084  23.581  26.728  1.00  0.00     0.251 C 
ATOM     32  H   UNL A   1      40.352  22.936  27.431  1.00  0.00     0.163 HD
ATOM     33  O   UNL A   1      42.332  22.445  26.247  1.00  0.00    -0.269 OA
BRANCH  31  34
ATOM     34  C   UNL A   1      43.142  24.612  26.613  1.00  0.00     0.039 A 
ATOM     35  C   UNL A   1      43.729  25.112  27.786  1.00  0.00     0.014 A 
ATOM     36  C   UNL A   1      43.463  25.214  25.393  1.00  0.00     0.014 A 
ATOM     37  C   UNL A   1      44.642  26.175  27.741  1.00  0.00     0.010 A 
ATOM     38  C   UNL A   1      44.412  26.249  25.342  1.00  0.00     0.010 A 
ATOM     39  C   UNL A   1      45.003  26.754  26.513  1.00  0.00    -0.014 A 
BRANCH  39  40
ATOM     40  C   UNL A   1      45.957  27.900  26.457  1.00  0.00     0.031 A 
ATOM     41  C   UNL A   1      47.436  27.663  26.279  1.00  0.00     0.074 A 
ATOM     42  C   UNL A   1      45.503  29.165  26.592  1.00  0.00     0.049 A 
ATOM     43  N   UNL A   1      48.417  28.532  26.215  1.00  0.00    -0.248 NA
ATOM     44  C   UNL A   1      47.868  26.261  26.181  1.00  0.00     0.031 C 
ATOM     45  C   UNL A   1      44.104  29.543  26.794  1.00  0.00     0.029 A 
ATOM     46  N   UNL A   1      46.171  30.366  26.577  1.00  0.00    -0.354 N 
ATOM     47  C   UNL A   1      49.580  27.783  26.094  1.00  0.00     0.074 A 
ATOM     48  C   UNL A   1      49.199  26.391  26.139  1.00  0.00     0.031 C 
ATOM     49  C   UNL A   1      44.014  30.882  26.853  1.00  0.00     0.029 A 
ATOM     50  C   UNL A   1      45.349  31.457  26.727  1.00  0.00     0.049 A 
ATOM     51  H   UNL A   1      47.148  30.437  26.470  1.00  0.00     0.167 HD
ATOM     52  C   UNL A   1      50.863  28.211  25.944  1.00  0.00     0.031 A 
ATOM     53  C   UNL A   1      45.635  32.775  26.755  1.00  0.00     0.031 A 
ATOM     54  C   UNL A   1      51.252  29.595  25.884  1.00  0.00     0.049 A 
ATOM     55  C   UNL A   1      47.061  33.224  26.589  1.00  0.00     0.074 A 
ATOM     56  C   UNL A   1      52.513  30.129  25.672  1.00  0.00     0.029 A 
ATOM     57  N   UNL A   1      50.388  30.667  26.039  1.00  0.00    -0.354 N 
ATOM     58  N   UNL A   1      48.141  32.502  26.406  1.00  0.00    -0.248 NA
ATOM     59  C   UNL A   1      47.298  34.675  26.618  1.00  0.00     0.031 C 
ATOM     60  C   UNL A   1      52.418  31.523  25.753  1.00  0.00     0.029 A 
ATOM     61  C   UNL A   1      51.088  31.859  25.952  1.00  0.00     0.049 A 
ATOM     62  H   UNL A   1      49.417  30.592  26.188  1.00  0.00     0.167 HD
ATOM     63  C   UNL A   1      49.180  33.411  26.260  1.00  0.00     0.074 A 
ATOM     64  C   UNL A   1      48.608  34.735  26.361  1.00  0.00     0.031 C 
ATOM     65  C   UNL A   1      50.501  33.169  26.052  1.00  0.00     0.031 A 
BRANCH  52  66
ATOM     66  C   UNL A   1      51.938  27.161  25.850  1.00  0.00    -0.014 A 
ATOM     67  C   UNL A   1      52.268  26.555  24.627  1.00  0.00     0.009 A 
ATOM     68  C   UNL A   1      52.658  26.794  27.000  1.00  0.00     0.009 A 
ATOM     69  C   UNL A   1      53.258  25.572  24.565  1.00  0.00     0.001 A 
ATOM     70  C   UNL A   1      53.669  25.834  26.930  1.00  0.00     0.001 A 
ATOM     71  C   UNL A   1      53.960  25.214  25.716  1.00  0.00     0.000 A 
ENDBRANCH  52  66
BRANCH  53  72
ATOM     72  C   UNL A   1      44.543  33.773  26.911  1.00  0.00    -0.014 A 
ATOM     73  C   UNL A   1      44.105  34.152  28.190  1.00  0.00     0.009 A 
ATOM     74  C   UNL A   1      43.922  34.342  25.788  1.00  0.00     0.009 A 
ATOM     75  C   UNL A   1      43.052  35.060  28.342  1.00  0.00     0.001 A 
ATOM     76  C   UNL A   1      42.891  35.271  25.943  1.00  0.00     0.001 A 
ATOM     77  C   UNL A   1      42.450  35.622  27.217  1.00  0.00     0.000 A 
ENDBRANCH  53  72
BRANCH  65  78
ATOM     78  C   UNL A   1      51.398  34.362  25.875  1.00  0.00    -0.014 A 
ATOM     79  C   UNL A   1      52.108  34.916  26.951  1.00  0.00     0.009 A 
ATOM     80  C   UNL A   1      51.556  34.923  24.597  1.00  0.00     0.009 A 
ATOM     81  C   UNL A   1      52.924  36.034  26.759  1.00  0.00     0.001 A 
ATOM     82  C   UNL A   1      52.397  36.018  24.402  1.00  0.00     0.001 A 
ATOM     83  C   UNL A   1      53.072  36.580  25.484  1.00  0.00     0.000 A 
ENDBRANCH  65  78
ENDBRANCH  39  40
ENDBRANCH  31  34
ENDBRANCH  29  30
ENDBRANCH  28  29
ENDBRANCH  27  28
ENDBRANCH  26  27
ENDBRANCH   1  26
TORSDOF 18
ENDMDL
MODEL 2
REMARK VINA RESULT:     -10.2      7.369     12.445
REMARK SMILES C[NH2+][C@@](C)(CC[N@@H+](C)C1CCC(C)(C)CC1)C(=O)NCCCCCCNC(=O)c1ccc(-c2c3nc(c(-c4ccccc4)c4ccc([nH]4)c(-c4ccccc4)c4nc(c(-c5ccccc5)c5ccc2[nH]5)C=C4)C=C3)cc1
REMARK SMILES IDX 21 1 20 2 19 3 17 4 18 5 3 7 4 8 2 9 1 10 5 13 6 14 7 15
REMARK SMILES IDX 8 16 9 18 10 19 16 20 11 21 15 22 12 23 13 24 14 25 22 26
REMARK SMILES IDX 23 27 24 28 25 29 26 30 27 31 28 33 29 34 30 35 76 36 31 37
REMARK SMILES IDX 75 38 32 39 33 40 34 41 69 42 35 43 74 44 68 45 70 46 36 47
REMARK SMILES IDX 73 48 67 49 66 50 37 52 59 53 44 54 58 55 45 56 48 57 57 58
REMARK SMILES IDX 71 59 46 60 47 61 56 63 72 64 49 65 38 66 39 67 43 68 40 69
REMARK SMILES IDX 42 70 41 71 60 72 61 73 65 74 62 75 64 76 63 77 50 78 51 79
REMARK SMILES IDX 55 80 52 81 54 82 53 83
REMARK H PARENT 19 6 2 11 2 12 7 17 26 32 70 51 48 62
REMARK Flexibility Score: inf
ROOT
ATOM      1  C   UNL A   1      44.938  24.905  30.715  1.00  0.00     0.021 C 
ENDROOT
BRANCH   1   2
ATOM      2  C   UNL A   1      44.092  23.571  31.139  1.00  0.00     0.116 C 
BRANCH   2   3
ATOM      3  N   UNL A   1      43.260  22.825  29.981  1.00  0.00    -0.351 N 
ATOM      4  C   UNL A   1      43.587  22.652  28.608  1.00  0.00     0.281 C 
ATOM      5  O   UNL A   1      44.795  22.705  28.325  1.00  0.00    -0.268 OA
ATOM      6  H   UNL A   1      42.402  22.434  30.263  1.00  0.00     0.163 HD
BRANCH   4   7
ATOM      7  C   UNL A   1      42.411  22.347  27.260  1.00  0.00     0.177 C 
ATOM      8  C   UNL A   1      42.877  23.399  26.161  1.00  0.00     0.090 C 
BRANCH   7   9
ATOM      9  N   UNL A   1      42.622  20.948  26.762  1.00  0.00    -0.336 N 
ATOM     10  C   UNL A   1      43.513  20.812  25.611  1.00  0.00     0.331 C 
ATOM     11  H   UNL A   1      43.012  20.398  27.528  1.00  0.00     0.346 HD
ATOM     12  H   UNL A   1      41.706  20.626  26.445  1.00  0.00     0.346 HD
ENDBRANCH   7   9
BRANCH   7  13
ATOM     13  C   UNL A   1      40.722  22.577  27.096  1.00  0.00     0.140 C 
BRANCH  13  14
ATOM     14  C   UNL A   1      39.553  21.651  26.476  1.00  0.00     0.269 C 
BRANCH  14  15
ATOM     15  N   UNL A   1      38.138  22.116  26.111  1.00  0.00    -0.335 N 
ATOM     16  C   UNL A   1      38.107  23.594  26.151  1.00  0.00     0.332 C 
ATOM     17  H   UNL A   1      37.522  21.683  26.799  1.00  0.00     0.348 HD
BRANCH  15  18
ATOM     18  C   UNL A   1      37.634  21.670  24.798  1.00  0.00     0.183 C 
ATOM     19  C   UNL A   1      36.586  20.688  25.099  1.00  0.00     0.065 C 
ATOM     20  C   UNL A   1      36.887  22.590  23.788  1.00  0.00     0.065 C 
ATOM     21  C   UNL A   1      35.405  21.309  25.845  1.00  0.00     0.012 C 
ATOM     22  C   UNL A   1      35.288  22.713  23.843  1.00  0.00     0.012 C 
ATOM     23  C   UNL A   1      34.424  21.899  24.880  1.00  0.00    -0.035 C 
ATOM     24  C   UNL A   1      33.461  22.845  25.613  1.00  0.00     0.011 C 
ATOM     25  C   UNL A   1      33.468  20.730  24.482  1.00  0.00     0.011 C 
ENDBRANCH  15  18
ENDBRANCH  14  15
ENDBRANCH  13  14
ENDBRANCH   7  13
ENDBRANCH   4   7
ENDBRANCH   2   3
ENDBRANCH   1   2
BRANCH   1  26
ATOM     26  C   UNL A   1      45.765  25.910  31.586  1.00  0.00     0.002 C 
BRANCH  26  27
ATOM     27  C   UNL A   1      47.147  25.574  32.238  1.00  0.00     0.002 C 
BRANCH  27  28
ATOM     28  C   UNL A   1      47.317  25.009  33.680  1.00  0.00     0.021 C 
BRANCH  28  29
ATOM     29  C   UNL A   1      48.390  25.559  34.646  1.00  0.00     0.116 C 
BRANCH  29  30
ATOM     30  N   UNL A   1      47.914  25.803  36.004  1.00  0.00    -0.352 N 
ATOM     31  C   UNL A   1      46.830  26.467  36.499  1.00  0.00     0.251 C 
ATOM     32  H   UNL A   1      48.488  25.410  36.701  1.00  0.00     0.163 HD
ATOM     33  O   UNL A   1      46.770  26.644  37.743  1.00  0.00    -0.269 OA
BRANCH  31  34
ATOM     34  C   UNL A   1      45.706  26.988  35.686  1.00  0.00     0.039 A 
ATOM     35  C   UNL A   1      45.852  28.232  35.050  1.00  0.00     0.014 A 
ATOM     36  C   UNL A   1      44.456  26.364  35.658  1.00  0.00     0.014 A 
ATOM     37  C   UNL A   1      44.778  28.828  34.374  1.00  0.00     0.010 A 
ATOM     38  C   UNL A   1      43.392  26.939  34.942  1.00  0.00     0.010 A 
ATOM     39  C   UNL A   1      43.533  28.183  34.304  1.00  0.00    -0.014 A 
BRANCH  39  40
ATOM     40  C   UNL A   1      42.378  28.820  33.605  1.00  0.00     0.031 A 
ATOM     41  C   UNL A   1      41.457  29.761  34.341  1.00  0.00     0.074 A 
ATOM     42  C   UNL A   1      42.134  28.538  32.306  1.00  0.00     0.049 A 
ATOM     43  N   UNL A   1      40.399  30.403  33.903  1.00  0.00    -0.248 NA
ATOM     44  C   UNL A   1      41.754  29.991  35.763  1.00  0.00     0.031 C 
ATOM     45  C   UNL A   1      42.926  27.630  31.477  1.00  0.00     0.029 A 
ATOM     46  N   UNL A   1      41.151  28.989  31.459  1.00  0.00    -0.354 N 
ATOM     47  C   UNL A   1      39.893  31.091  34.999  1.00  0.00     0.074 A 
ATOM     48  C   UNL A   1      40.723  30.760  36.132  1.00  0.00     0.031 C 
ATOM     49  C   UNL A   1      42.417  27.614  30.233  1.00  0.00     0.029 A 
ATOM     50  C   UNL A   1      41.246  28.483  30.185  1.00  0.00     0.049 A 
ATOM     51  H   UNL A   1      40.444  29.615  31.739  1.00  0.00     0.167 HD
ATOM     52  C   UNL A   1      38.833  31.942  35.060  1.00  0.00     0.031 A 
ATOM     53  C   UNL A   1      40.480  28.697  29.095  1.00  0.00     0.031 A 
ATOM     54  C   UNL A   1      38.009  32.290  33.933  1.00  0.00     0.049 A 
ATOM     55  C   UNL A   1      39.312  29.640  29.189  1.00  0.00     0.074 A 
ATOM     56  C   UNL A   1      36.954  33.187  33.880  1.00  0.00     0.029 A 
ATOM     57  N   UNL A   1      38.141  31.756  32.662  1.00  0.00    -0.354 N 
ATOM     58  N   UNL A   1      38.890  30.337  30.216  1.00  0.00    -0.248 NA
ATOM     59  C   UNL A   1      38.527  29.835  27.960  1.00  0.00     0.031 C 
ATOM     60  C   UNL A   1      36.415  33.154  32.588  1.00  0.00     0.029 A 
ATOM     61  C   UNL A   1      37.174  32.284  31.821  1.00  0.00     0.049 A 
ATOM     62  H   UNL A   1      38.823  31.097  32.394  1.00  0.00     0.167 HD
ATOM     63  C   UNL A   1      37.815  31.082  29.750  1.00  0.00     0.074 A 
ATOM     64  C   UNL A   1      37.653  30.767  28.348  1.00  0.00     0.031 C 
ATOM     65  C   UNL A   1      37.029  31.961  30.427  1.00  0.00     0.031 A 
BRANCH  52  66
ATOM     66  C   UNL A   1      38.502  32.542  36.401  1.00  0.00    -0.014 A 
ATOM     67  C   UNL A   1      37.689  31.869  37.326  1.00  0.00     0.009 A 
ATOM     68  C   UNL A   1      39.039  33.790  36.758  1.00  0.00     0.009 A 
ATOM     69  C   UNL A   1      37.382  32.451  38.559  1.00  0.00     0.001 A 
ATOM     70  C   UNL A   1      38.757  34.356  38.003  1.00  0.00     0.001 A 
ATOM     71  C   UNL A   1      37.918  33.693  38.897  1.00  0.00     0.000 A 
ENDBRANCH  52  66
BRANCH  53  72
ATOM     72  C   UNL A   1      40.813  28.033  27.807  1.00  0.00    -0.014 A 
ATOM     73  C   UNL A   1      40.297  26.761  27.509  1.00  0.00     0.009 A 
ATOM     74  C   UNL A   1      41.656  28.655  26.873  1.00  0.00     0.009 A 
ATOM     75  C   UNL A   1      40.639  26.116  26.317  1.00  0.00     0.001 A 
ATOM     76  C   UNL A   1      41.971  28.022  25.669  1.00  0.00     0.001 A 
ATOM     77  C   UNL A   1      41.471  26.750  25.396  1.00  0.00     0.000 A 
ENDBRANCH  53  72
BRANCH  65  78
ATOM     78  C   UNL A   1      35.962  32.671  29.642  1.00  0.00    -0.014 A 
ATOM     79  C   UNL A   1      34.718  32.075  29.384  1.00  0.00     0.009 A 
ATOM     80  C   UNL A   1      36.199  33.975  29.179  1.00  0.00     0.009 A 
ATOM     81  C   UNL A   1      33.749  32.755  28.641  1.00  0.00     0.001 A 
ATOM     82  C   UNL A   1      35.218  34.664  28.465  1.00  0.00     0.001 A 
ATOM     83  C   UNL A   1      33.999  34.050  28.187  1.00  0.00     0.000 A 
ENDBRANCH  65  78
ENDBRANCH  39  40
ENDBRANCH  31  34
ENDBRANCH  29  30
ENDBRANCH  28  29
ENDBRANCH  27  28
ENDBRANCH  26  27
ENDBRANCH   1  26
TORSDOF 18
ENDMDL
MODEL 3
REMARK VINA RESULT:     -10.0      7.583     11.617
REMARK SMILES C[NH2+][C@@](C)(CC[N@@H+](C)C1CCC(C)(C)CC1)C(=O)NCCCCCCNC(=O)c1ccc(-c2c3nc(c(-c4ccccc4)c4ccc([nH]4)c(-c4ccccc4)c4nc(c(-c5ccccc5)c5ccc2[nH]5)C=C4)C=C3)cc1
REMARK SMILES IDX 21 1 20 2 19 3 17 4 18 5 3 7 4 8 2 9 1 10 5 13 6 14 7 15
REMARK SMILES IDX 8 16 9 18 10 19 16 20 11 21 15 22 12 23 13 24 14 25 22 26
REMARK SMILES IDX 23 27 24 28 25 29 26 30 27 31 28 33 29 34 30 35 76 36 31 37
REMARK SMILES IDX 75 38 32 39 33 40 34 41 69 42 35 43 74 44 68 45 70 46 36 47
REMARK SMILES IDX 73 48 67 49 66 50 37 52 59 53 44 54 58 55 45 56 48 57 57 58
REMARK SMILES IDX 71 59 46 60 47 61 56 63 72 64 49 65 38 66 39 67 43 68 40 69
REMARK SMILES IDX 42 70 41 71 60 72 61 73 65 74 62 75 64 76 63 77 50 78 51 79
REMARK SMILES IDX 55 80 52 81 54 82 53 83
REMARK H PARENT 19 6 2 11 2 12 7 17 26 32 70 51 48 62
REMARK Flexibility Score: inf
ROOT
ATOM      1  C   UNL A   1      44.587  25.115  30.870  1.00  0.00     0.021 C 
ENDROOT
BRANCH   1   2
ATOM      2  C   UNL A   1      44.032  23.616  31.216  1.00  0.00     0.116 C 
BRANCH   2   3
ATOM      3  N   UNL A   1      43.251  22.830  30.048  1.00  0.00    -0.351 N 
ATOM      4  C   UNL A   1      43.578  22.711  28.670  1.00  0.00     0.281 C 
ATOM      5  O   UNL A   1      44.777  22.864  28.380  1.00  0.00    -0.268 OA
ATOM      6  H   UNL A   1      42.428  22.368  30.329  1.00  0.00     0.163 HD
BRANCH   4   7
ATOM      7  C   UNL A   1      42.419  22.343  27.325  1.00  0.00     0.177 C 
ATOM      8  C   UNL A   1      42.748  23.489  26.271  1.00  0.00     0.090 C 
BRANCH   7   9
ATOM      9  N   UNL A   1      42.769  20.999  26.758  1.00  0.00    -0.336 N 
ATOM     10  C   UNL A   1      43.634  21.015  25.579  1.00  0.00     0.331 C 
ATOM     11  H   UNL A   1      43.243  20.466  27.487  1.00  0.00     0.346 HD
ATOM     12  H   UNL A   1      41.887  20.589  26.450  1.00  0.00     0.346 HD
ENDBRANCH   7   9
BRANCH   7  13
ATOM     13  C   UNL A   1      40.711  22.395  27.193  1.00  0.00     0.140 C 
BRANCH  13  14
ATOM     14  C   UNL A   1      39.677  21.696  26.169  1.00  0.00     0.269 C 
BRANCH  14  15
ATOM     15  N   UNL A   1      38.191  22.042  26.019  1.00  0.00    -0.335 N 
ATOM     16  C   UNL A   1      38.037  23.507  26.141  1.00  0.00     0.332 C 
ATOM     17  H   UNL A   1      37.713  21.525  26.757  1.00  0.00     0.348 HD
BRANCH  15  18
ATOM     18  C   UNL A   1      37.554  21.606  24.761  1.00  0.00     0.183 C 
ATOM     19  C   UNL A   1      36.473  20.701  25.168  1.00  0.00     0.065 C 
ATOM     20  C   UNL A   1      36.788  22.554  23.792  1.00  0.00     0.065 C 
ATOM     21  C   UNL A   1      35.399  21.412  25.990  1.00  0.00     0.012 C 
ATOM     22  C   UNL A   1      35.210  22.784  23.972  1.00  0.00     0.012 C 
ATOM     23  C   UNL A   1      34.383  22.048  25.094  1.00  0.00    -0.035 C 
ATOM     24  C   UNL A   1      33.545  23.068  25.878  1.00  0.00     0.011 C 
ATOM     25  C   UNL A   1      33.325  20.936  24.801  1.00  0.00     0.011 C 
ENDBRANCH  15  18
ENDBRANCH  14  15
ENDBRANCH  13  14
ENDBRANCH   7  13
ENDBRANCH   4   7
ENDBRANCH   2   3
ENDBRANCH   1   2
BRANCH   1  26
ATOM     26  C   UNL A   1      45.432  26.115  31.730  1.00  0.00     0.002 C 
BRANCH  26  27
ATOM     27  C   UNL A   1      46.897  25.840  32.209  1.00  0.00     0.002 C 
BRANCH  27  28
ATOM     28  C   UNL A   1      47.260  25.205  33.583  1.00  0.00     0.021 C 
BRANCH  28  29
ATOM     29  C   UNL A   1      48.355  25.808  34.492  1.00  0.00     0.116 C 
BRANCH  29  30
ATOM     30  N   UNL A   1      47.948  26.007  35.880  1.00  0.00    -0.352 N 
ATOM     31  C   UNL A   1      46.928  26.709  36.453  1.00  0.00     0.251 C 
ATOM     32  H   UNL A   1      48.522  25.542  36.531  1.00  0.00     0.163 HD
ATOM     33  O   UNL A   1      46.928  26.821  37.707  1.00  0.00    -0.269 OA
BRANCH  31  34
ATOM     34  C   UNL A   1      45.810  27.342  35.716  1.00  0.00     0.039 A 
ATOM     35  C   UNL A   1      46.061  28.516  34.986  1.00  0.00     0.014 A 
ATOM     36  C   UNL A   1      44.489  26.904  35.848  1.00  0.00     0.014 A 
ATOM     37  C   UNL A   1      45.016  29.224  34.375  1.00  0.00     0.010 A 
ATOM     38  C   UNL A   1      43.448  27.587  35.197  1.00  0.00     0.010 A 
ATOM     39  C   UNL A   1      43.693  28.762  34.466  1.00  0.00    -0.014 A 
BRANCH  39  40
ATOM     40  C   UNL A   1      42.572  29.521  33.837  1.00  0.00     0.031 A 
ATOM     41  C   UNL A   1      42.049  29.135  32.476  1.00  0.00     0.074 A 
ATOM     42  C   UNL A   1      42.032  30.583  34.475  1.00  0.00     0.049 A 
ATOM     43  N   UNL A   1      41.088  29.680  31.768  1.00  0.00    -0.248 NA
ATOM     44  C   UNL A   1      42.709  27.998  31.818  1.00  0.00     0.031 C 
ATOM     45  C   UNL A   1      42.453  31.084  35.783  1.00  0.00     0.029 A 
ATOM     46  N   UNL A   1      41.011  31.427  34.108  1.00  0.00    -0.354 N 
ATOM     47  C   UNL A   1      41.046  28.969  30.575  1.00  0.00     0.074 A 
ATOM     48  C   UNL A   1      42.100  27.985  30.627  1.00  0.00     0.031 C 
ATOM     49  C   UNL A   1      41.678  32.128  36.124  1.00  0.00     0.029 A 
ATOM     50  C   UNL A   1      40.729  32.390  35.047  1.00  0.00     0.049 A 
ATOM     51  H   UNL A   1      40.528  31.348  33.254  1.00  0.00     0.167 HD
ATOM     52  C   UNL A   1      40.193  29.110  29.524  1.00  0.00     0.031 A 
ATOM     53  C   UNL A   1      39.806  33.374  35.045  1.00  0.00     0.031 A 
ATOM     54  C   UNL A   1      39.130  30.078  29.469  1.00  0.00     0.049 A 
ATOM     55  C   UNL A   1      38.876  33.511  33.870  1.00  0.00     0.074 A 
ATOM     56  C   UNL A   1      38.177  30.257  28.479  1.00  0.00     0.029 A 
ATOM     57  N   UNL A   1      38.879  31.033  30.440  1.00  0.00    -0.354 N 
ATOM     58  N   UNL A   1      38.806  32.785  32.781  1.00  0.00    -0.248 NA
ATOM     59  C   UNL A   1      37.888  34.598  33.941  1.00  0.00     0.031 C 
ATOM     60  C   UNL A   1      37.384  31.357  28.828  1.00  0.00     0.029 A 
ATOM     61  C   UNL A   1      37.803  31.821  30.065  1.00  0.00     0.049 A 
ATOM     62  H   UNL A   1      39.391  31.137  31.275  1.00  0.00     0.167 HD
ATOM     63  C   UNL A   1      37.742  33.301  32.053  1.00  0.00     0.074 A 
ATOM     64  C   UNL A   1      37.186  34.390  32.823  1.00  0.00     0.031 C 
ATOM     65  C   UNL A   1      37.261  32.901  30.846  1.00  0.00     0.031 A 
BRANCH  52  66
ATOM     66  C   UNL A   1      40.393  28.198  28.342  1.00  0.00    -0.014 A 
ATOM     67  C   UNL A   1      41.139  28.599  27.222  1.00  0.00     0.009 A 
ATOM     68  C   UNL A   1      39.851  26.902  28.362  1.00  0.00     0.009 A 
ATOM     69  C   UNL A   1      41.298  27.742  26.130  1.00  0.00     0.001 A 
ATOM     70  C   UNL A   1      40.038  26.035  27.284  1.00  0.00     0.001 A 
ATOM     71  C   UNL A   1      40.750  26.460  26.163  1.00  0.00     0.000 A 
ENDBRANCH  52  66
BRANCH  53  72
ATOM     72  C   UNL A   1      39.688  34.289  36.212  1.00  0.00    -0.014 A 
ATOM     73  C   UNL A   1      38.907  33.929  37.322  1.00  0.00     0.009 A 
ATOM     74  C   UNL A   1      40.340  35.532  36.220  1.00  0.00     0.009 A 
ATOM     75  C   UNL A   1      38.761  34.803  38.402  1.00  0.00     0.001 A 
ATOM     76  C   UNL A   1      40.217  36.391  37.314  1.00  0.00     0.001 A 
ATOM     77  C   UNL A   1      39.420  36.031  38.400  1.00  0.00     0.000 A 
ENDBRANCH  53  72
BRANCH  65  78
ATOM     78  C   UNL A   1      36.050  33.618  30.319  1.00  0.00    -0.014 A 
ATOM     79  C   UNL A   1      34.889  33.770  31.093  1.00  0.00     0.009 A 
ATOM     80  C   UNL A   1      36.084  34.176  29.031  1.00  0.00     0.009 A 
ATOM     81  C   UNL A   1      33.774  34.431  30.572  1.00  0.00     0.001 A 
ATOM     82  C   UNL A   1      34.981  34.863  28.525  1.00  0.00     0.001 A 
ATOM     83  C   UNL A   1      33.823  34.980  29.291  1.00  0.00     0.000 A 
ENDBRANCH  65  78
ENDBRANCH  39  40
ENDBRANCH  31  34
ENDBRANCH  29  30
ENDBRANCH  28  29
ENDBRANCH  27  28
ENDBRANCH  26  27
ENDBRANCH   1  26
TORSDOF 18
ENDMDL
