MODEL 1
REMARK VINA RESULT:      -9.6      0.000      0.000
REMARK SMILES CCOC(=O)NC(=O)COc1csc(C(=O)NCCCCCCNC(=O)c2ccc(-c3c4nc(c(-c5ccccc5)c5ccc([nH]5)c(-c5ccccc5)c5nc(c(-c6ccccc6)c6ccc3[nH]6)C=C5)C=C4)cc2)c1
REMARK SMILES IDX 19 1 18 2 17 3 15 4 16 5 14 7 11 8 12 9 75 10 13 11 10 12
REMARK SMILES IDX 9 13 7 14 4 15 5 16 6 17 8 19 3 20 2 21 1 22 20 23 21 24
REMARK SMILES IDX 22 25 23 26 24 27 25 28 26 30 27 31 28 32 74 33 29 34 73 35
REMARK SMILES IDX 30 36 31 37 32 38 67 39 33 40 72 41 66 42 68 43 34 44 71 45
REMARK SMILES IDX 65 46 64 47 35 49 57 50 42 51 56 52 43 53 46 54 55 55 69 56
REMARK SMILES IDX 44 57 45 58 54 60 70 61 47 62 36 63 37 64 41 65 38 66 40 67
REMARK SMILES IDX 39 68 58 69 59 70 63 71 60 72 62 73 61 74 48 75 49 76 53 77
REMARK SMILES IDX 50 78 52 79 51 80
REMARK H PARENT 17 6 6 18 24 29 68 48 46 59
REMARK Flexibility Score: inf
ROOT
ATOM      1  C   UNL A   1      34.772  29.060  26.838  1.00  0.00     0.021 C 
ENDROOT
BRANCH   1   2
ATOM      2  C   UNL A   1      33.535  29.323  25.978  1.00  0.00     0.116 C 
BRANCH   2   3
ATOM      3  N   UNL A   1      33.886  29.308  24.573  1.00  0.00    -0.351 N 
ATOM      4  C   UNL A   1      33.352  28.646  23.494  1.00  0.00     0.261 C 
ATOM      5  O   UNL A   1      33.905  28.876  22.415  1.00  0.00    -0.268 OA
ATOM      6  H   UNL A   1      34.654  29.880  24.349  1.00  0.00     0.163 HD
BRANCH   4   7
ATOM      7  C   UNL A   1      32.190  27.777  23.632  1.00  0.00     0.096 A 
ATOM      8  C   UNL A   1      30.732  26.012  24.088  1.00  0.00     0.131 A 
ATOM      9  C   UNL A   1      29.836  27.046  23.975  1.00  0.00     0.112 A 
ATOM     10  C   UNL A   1      32.061  26.412  23.804  1.00  0.00     0.072 A 
ATOM     11  S   UNL A   1      30.626  28.509  23.571  1.00  0.00    -0.135 S 
BRANCH   8  12
ATOM     12  O   UNL A   1      30.451  24.777  24.552  1.00  0.00    -0.483 OA
BRANCH  12  13
ATOM     13  C   UNL A   1      31.136  24.412  25.734  1.00  0.00     0.329 C 
BRANCH  13  14
ATOM     14  C   UNL A   1      30.585  23.211  26.495  1.00  0.00     0.267 C 
ATOM     15  C   UNL A   1      31.930  21.396  25.323  1.00  0.00     0.413 C 
ATOM     16  O   UNL A   1      32.208  20.204  25.359  1.00  0.00    -0.224 OA
ATOM     17  N   UNL A   1      31.052  21.942  26.236  1.00  0.00    -0.258 N 
ATOM     18  H   UNL A   1      30.669  21.267  26.843  1.00  0.00     0.176 HD
ATOM     19  O   UNL A   1      29.694  23.350  27.340  1.00  0.00    -0.271 OA
BRANCH  15  20
ATOM     20  O   UNL A   1      32.415  22.275  24.418  1.00  0.00    -0.450 OA
BRANCH  20  21
ATOM     21  C   UNL A   1      32.211  21.951  23.034  1.00  0.00     0.231 C 
ATOM     22  C   UNL A   1      32.942  22.919  22.120  1.00  0.00     0.049 C 
ENDBRANCH  20  21
ENDBRANCH  15  20
ENDBRANCH  13  14
ENDBRANCH  12  13
ENDBRANCH   8  12
ENDBRANCH   4   7
ENDBRANCH   2   3
ENDBRANCH   1   2
BRANCH   1  23
ATOM     23  C   UNL A   1      34.784  29.888  28.130  1.00  0.00     0.002 C 
BRANCH  23  24
ATOM     24  C   UNL A   1      35.085  31.379  27.930  1.00  0.00     0.002 C 
BRANCH  24  25
ATOM     25  C   UNL A   1      33.864  32.295  28.031  1.00  0.00     0.021 C 
BRANCH  25  26
ATOM     26  C   UNL A   1      34.203  33.777  27.938  1.00  0.00     0.116 C 
BRANCH  26  27
ATOM     27  N   UNL A   1      33.572  34.537  29.008  1.00  0.00    -0.352 N 
ATOM     28  C   UNL A   1      33.805  34.474  30.359  1.00  0.00     0.251 C 
ATOM     29  H   UNL A   1      32.886  35.183  28.723  1.00  0.00     0.163 HD
ATOM     30  O   UNL A   1      33.035  34.999  31.156  1.00  0.00    -0.269 OA
BRANCH  28  31
ATOM     31  C   UNL A   1      34.995  33.750  30.841  1.00  0.00     0.039 A 
ATOM     32  C   UNL A   1      34.831  32.624  31.651  1.00  0.00     0.014 A 
ATOM     33  C   UNL A   1      36.270  34.171  30.455  1.00  0.00     0.014 A 
ATOM     34  C   UNL A   1      35.950  31.877  32.019  1.00  0.00     0.010 A 
ATOM     35  C   UNL A   1      37.372  33.382  30.755  1.00  0.00     0.010 A 
ATOM     36  C   UNL A   1      37.223  32.228  31.541  1.00  0.00    -0.014 A 
BRANCH  36  37
ATOM     37  C   UNL A   1      38.420  31.404  31.835  1.00  0.00     0.031 A 
ATOM     38  C   UNL A   1      39.289  31.737  33.014  1.00  0.00     0.074 A 
ATOM     39  C   UNL A   1      38.778  30.422  30.986  1.00  0.00     0.049 A 
ATOM     40  N   UNL A   1      40.432  31.210  33.374  1.00  0.00    -0.248 NA
ATOM     41  C   UNL A   1      38.830  32.832  33.885  1.00  0.00     0.031 C 
ATOM     42  C   UNL A   1      38.042  30.029  29.783  1.00  0.00     0.029 A 
ATOM     43  N   UNL A   1      39.867  29.586  30.997  1.00  0.00    -0.354 N 
ATOM     44  C   UNL A   1      40.840  31.926  34.492  1.00  0.00     0.074 A 
ATOM     45  C   UNL A   1      39.850  32.955  34.721  1.00  0.00     0.031 C 
ATOM     46  C   UNL A   1      38.690  29.019  29.182  1.00  0.00     0.029 A 
ATOM     47  C   UNL A   1      39.910  28.726  29.928  1.00  0.00     0.049 A 
ATOM     48  H   UNL A   1      40.551  29.601  31.705  1.00  0.00     0.167 HD
ATOM     49  C   UNL A   1      41.933  31.734  35.267  1.00  0.00     0.031 A 
ATOM     50  C   UNL A   1      40.836  27.815  29.573  1.00  0.00     0.031 A 
ATOM     51  C   UNL A   1      42.914  30.707  35.037  1.00  0.00     0.049 A 
ATOM     52  C   UNL A   1      42.048  27.627  30.441  1.00  0.00     0.074 A 
ATOM     53  C   UNL A   1      44.021  30.385  35.802  1.00  0.00     0.029 A 
ATOM     54  N   UNL A   1      42.910  29.841  33.953  1.00  0.00    -0.354 N 
ATOM     55  N   UNL A   1      42.383  28.260  31.539  1.00  0.00    -0.248 NA
ATOM     56  C   UNL A   1      43.003  26.590  30.027  1.00  0.00     0.031 C 
ATOM     57  C   UNL A   1      44.724  29.372  35.145  1.00  0.00     0.029 A 
ATOM     58  C   UNL A   1      44.016  29.009  34.011  1.00  0.00     0.049 A 
ATOM     59  H   UNL A   1      42.224  29.822  33.248  1.00  0.00     0.167 HD
ATOM     60  C   UNL A   1      43.571  27.679  31.965  1.00  0.00     0.074 A 
ATOM     61  C   UNL A   1      43.890  26.635  31.012  1.00  0.00     0.031 C 
ATOM     62  C   UNL A   1      44.326  27.979  33.051  1.00  0.00     0.031 A 
BRANCH  49  63
ATOM     63  C   UNL A   1      42.139  32.681  36.419  1.00  0.00    -0.014 A 
ATOM     64  C   UNL A   1      41.573  32.438  37.682  1.00  0.00     0.009 A 
ATOM     65  C   UNL A   1      42.923  33.832  36.241  1.00  0.00     0.009 A 
ATOM     66  C   UNL A   1      41.746  33.352  38.725  1.00  0.00     0.001 A 
ATOM     67  C   UNL A   1      43.124  34.725  37.294  1.00  0.00     0.001 A 
ATOM     68  C   UNL A   1      42.525  34.492  38.530  1.00  0.00     0.000 A 
ENDBRANCH  49  63
BRANCH  50  69
ATOM     69  C   UNL A   1      40.643  27.011  28.338  1.00  0.00    -0.014 A 
ATOM     70  C   UNL A   1      41.275  27.376  27.141  1.00  0.00     0.009 A 
ATOM     71  C   UNL A   1      39.842  25.857  28.357  1.00  0.00     0.009 A 
ATOM     72  C   UNL A   1      41.094  26.616  25.983  1.00  0.00     0.001 A 
ATOM     73  C   UNL A   1      39.688  25.081  27.207  1.00  0.00     0.001 A 
ATOM     74  C   UNL A   1      40.307  25.466  26.020  1.00  0.00     0.000 A 
ENDBRANCH  50  69
BRANCH  62  75
ATOM     75  C   UNL A   1      45.552  27.143  33.294  1.00  0.00    -0.014 A 
ATOM     76  C   UNL A   1      45.492  25.944  34.023  1.00  0.00     0.009 A 
ATOM     77  C   UNL A   1      46.778  27.537  32.736  1.00  0.00     0.009 A 
ATOM     78  C   UNL A   1      46.643  25.177  34.214  1.00  0.00     0.001 A 
ATOM     79  C   UNL A   1      47.919  26.751  32.900  1.00  0.00     0.001 A 
ATOM     80  C   UNL A   1      47.852  25.576  33.646  1.00  0.00     0.000 A 
ENDBRANCH  62  75
ENDBRANCH  36  37
ENDBRANCH  28  31
ENDBRANCH  26  27
ENDBRANCH  25  26
ENDBRANCH  24  25
ENDBRANCH  23  24
ENDBRANCH   1  23
TORSDOF 18
ENDMDL
MODEL 2
REMARK VINA RESULT:      -9.5      2.038      3.006
REMARK SMILES CCOC(=O)NC(=O)COc1csc(C(=O)NCCCCCCNC(=O)c2ccc(-c3c4nc(c(-c5ccccc5)c5ccc([nH]5)c(-c5ccccc5)c5nc(c(-c6ccccc6)c6ccc3[nH]6)C=C5)C=C4)cc2)c1
REMARK SMILES IDX 19 1 18 2 17 3 15 4 16 5 14 7 11 8 12 9 75 10 13 11 10 12
REMARK SMILES IDX 9 13 7 14 4 15 5 16 6 17 8 19 3 20 2 21 1 22 20 23 21 24
REMARK SMILES IDX 22 25 23 26 24 27 25 28 26 30 27 31 28 32 74 33 29 34 73 35
REMARK SMILES IDX 30 36 31 37 32 38 67 39 33 40 72 41 66 42 68 43 34 44 71 45
REMARK SMILES IDX 65 46 64 47 35 49 57 50 42 51 56 52 43 53 46 54 55 55 69 56
REMARK SMILES IDX 44 57 45 58 54 60 70 61 47 62 36 63 37 64 41 65 38 66 40 67
REMARK SMILES IDX 39 68 58 69 59 70 63 71 60 72 62 73 61 74 48 75 49 76 53 77
REMARK SMILES IDX 50 78 52 79 51 80
REMARK H PARENT 17 6 6 18 24 29 68 48 46 59
REMARK Flexibility Score: inf
ROOT
ATOM      1  C   UNL A   1      33.736  31.590  27.608  1.00  0.00     0.021 C 
ENDROOT
BRANCH   1   2
ATOM      2  C   UNL A   1      34.185  30.128  27.628  1.00  0.00     0.116 C 
BRANCH   2   3
ATOM      3  N   UNL A   1      33.072  29.264  27.965  1.00  0.00    -0.351 N 
ATOM      4  C   UNL A   1      32.328  28.381  27.219  1.00  0.00     0.261 C 
ATOM      5  O   UNL A   1      31.442  27.791  27.843  1.00  0.00    -0.268 OA
ATOM      6  H   UNL A   1      32.796  29.322  28.907  1.00  0.00     0.163 HD
BRANCH   4   7
ATOM      7  C   UNL A   1      32.614  28.143  25.811  1.00  0.00     0.096 A 
ATOM      8  C   UNL A   1      33.147  27.201  23.743  1.00  0.00     0.131 A 
ATOM      9  C   UNL A   1      32.536  28.360  23.333  1.00  0.00     0.112 A 
ATOM     10  C   UNL A   1      33.271  27.121  25.152  1.00  0.00     0.072 A 
ATOM     11  S   UNL A   1      32.074  29.323  24.670  1.00  0.00    -0.135 S 
BRANCH   8  12
ATOM     12  O   UNL A   1      33.478  26.163  22.946  1.00  0.00    -0.483 OA
BRANCH  12  13
ATOM     13  C   UNL A   1      32.912  24.921  23.316  1.00  0.00     0.329 C 
BRANCH  13  14
ATOM     14  C   UNL A   1      33.165  23.751  22.371  1.00  0.00     0.267 C 
ATOM     15  C   UNL A   1      33.340  21.909  24.119  1.00  0.00     0.413 C 
ATOM     16  O   UNL A   1      33.415  20.696  24.260  1.00  0.00    -0.224 OA
ATOM     17  N   UNL A   1      33.299  22.471  22.859  1.00  0.00    -0.258 N 
ATOM     18  H   UNL A   1      33.386  21.800  22.143  1.00  0.00     0.176 HD
ATOM     19  O   UNL A   1      33.278  23.933  21.154  1.00  0.00    -0.271 OA
BRANCH  15  20
ATOM     20  O   UNL A   1      33.306  22.804  25.132  1.00  0.00    -0.450 OA
BRANCH  20  21
ATOM     21  C   UNL A   1      34.424  22.796  26.034  1.00  0.00     0.231 C 
ATOM     22  C   UNL A   1      33.981  22.576  27.470  1.00  0.00     0.049 C 
ENDBRANCH  20  21
ENDBRANCH  15  20
ENDBRANCH  13  14
ENDBRANCH  12  13
ENDBRANCH   8  12
ENDBRANCH   4   7
ENDBRANCH   2   3
ENDBRANCH   1   2
BRANCH   1  23
ATOM     23  C   UNL A   1      34.838  32.555  28.065  1.00  0.00     0.002 C 
BRANCH  23  24
ATOM     24  C   UNL A   1      34.451  33.450  29.250  1.00  0.00     0.002 C 
BRANCH  24  25
ATOM     25  C   UNL A   1      33.277  34.393  28.980  1.00  0.00     0.021 C 
BRANCH  25  26
ATOM     26  C   UNL A   1      33.541  35.832  29.402  1.00  0.00     0.116 C 
BRANCH  26  27
ATOM     27  N   UNL A   1      32.632  36.254  30.458  1.00  0.00    -0.352 N 
ATOM     28  C   UNL A   1      32.603  35.861  31.773  1.00  0.00     0.251 C 
ATOM     29  H   UNL A   1      31.947  36.909  30.194  1.00  0.00     0.163 HD
ATOM     30  O   UNL A   1      31.639  36.117  32.485  1.00  0.00    -0.269 OA
BRANCH  28  31
ATOM     31  C   UNL A   1      33.750  35.110  32.316  1.00  0.00     0.039 A 
ATOM     32  C   UNL A   1      33.549  33.827  32.829  1.00  0.00     0.014 A 
ATOM     33  C   UNL A   1      35.030  35.670  32.277  1.00  0.00     0.014 A 
ATOM     34  C   UNL A   1      34.648  33.076  33.243  1.00  0.00     0.010 A 
ATOM     35  C   UNL A   1      36.128  34.892  32.613  1.00  0.00     0.010 A 
ATOM     36  C   UNL A   1      35.948  33.587  33.102  1.00  0.00    -0.014 A 
BRANCH  36  37
ATOM     37  C   UNL A   1      37.144  32.780  33.444  1.00  0.00     0.031 A 
ATOM     38  C   UNL A   1      37.895  33.054  34.717  1.00  0.00     0.074 A 
ATOM     39  C   UNL A   1      37.611  31.874  32.564  1.00  0.00     0.049 A 
ATOM     40  N   UNL A   1      39.020  32.537  35.140  1.00  0.00    -0.248 NA
ATOM     41  C   UNL A   1      37.322  34.068  35.616  1.00  0.00     0.031 C 
ATOM     42  C   UNL A   1      36.997  31.547  31.276  1.00  0.00     0.029 A 
ATOM     43  N   UNL A   1      38.725  31.073  32.616  1.00  0.00    -0.354 N 
ATOM     44  C   UNL A   1      39.303  33.183  36.337  1.00  0.00     0.074 A 
ATOM     45  C   UNL A   1      38.259  34.162  36.547  1.00  0.00     0.031 C 
ATOM     46  C   UNL A   1      37.732  30.603  30.667  1.00  0.00     0.029 A 
ATOM     47  C   UNL A   1      38.892  30.293  31.497  1.00  0.00     0.049 A 
ATOM     48  H   UNL A   1      39.343  31.057  33.381  1.00  0.00     0.167 HD
ATOM     49  C   UNL A   1      40.331  32.969  37.192  1.00  0.00     0.031 A 
ATOM     50  C   UNL A   1      39.878  29.439  31.164  1.00  0.00     0.031 A 
ATOM     51  C   UNL A   1      41.365  31.991  36.980  1.00  0.00     0.049 A 
ATOM     52  C   UNL A   1      41.016  29.226  32.122  1.00  0.00     0.074 A 
ATOM     53  C   UNL A   1      42.411  31.648  37.817  1.00  0.00     0.029 A 
ATOM     54  N   UNL A   1      41.487  31.205  35.842  1.00  0.00    -0.354 N 
ATOM     55  N   UNL A   1      41.231  29.787  33.288  1.00  0.00    -0.248 NA
ATOM     56  C   UNL A   1      42.041  28.251  31.725  1.00  0.00     0.031 C 
ATOM     57  C   UNL A   1      43.206  30.706  37.157  1.00  0.00     0.029 A 
ATOM     58  C   UNL A   1      42.613  30.405  35.941  1.00  0.00     0.049 A 
ATOM     59  H   UNL A   1      40.866  31.216  35.079  1.00  0.00     0.167 HD
ATOM     60  C   UNL A   1      42.397  29.213  33.777  1.00  0.00     0.074 A 
ATOM     61  C   UNL A   1      42.836  28.251  32.786  1.00  0.00     0.031 C 
ATOM     62  C   UNL A   1      43.043  29.457  34.944  1.00  0.00     0.031 A 
BRANCH  49  63
ATOM     63  C   UNL A   1      40.400  33.836  38.420  1.00  0.00    -0.014 A 
ATOM     64  C   UNL A   1      39.769  33.465  39.619  1.00  0.00     0.009 A 
ATOM     65  C   UNL A   1      41.120  35.040  38.380  1.00  0.00     0.009 A 
ATOM     66  C   UNL A   1      39.816  34.305  40.735  1.00  0.00     0.001 A 
ATOM     67  C   UNL A   1      41.196  35.861  39.507  1.00  0.00     0.001 A 
ATOM     68  C   UNL A   1      40.532  35.500  40.678  1.00  0.00     0.000 A 
ENDBRANCH  49  63
BRANCH  50  69
ATOM     69  C   UNL A   1      39.823  28.721  29.864  1.00  0.00    -0.014 A 
ATOM     70  C   UNL A   1      40.311  29.321  28.695  1.00  0.00     0.009 A 
ATOM     71  C   UNL A   1      39.302  27.419  29.792  1.00  0.00     0.009 A 
ATOM     72  C   UNL A   1      40.261  28.641  27.476  1.00  0.00     0.001 A 
ATOM     73  C   UNL A   1      39.282  26.729  28.578  1.00  0.00     0.001 A 
ATOM     74  C   UNL A   1      39.753  27.344  27.420  1.00  0.00     0.000 A 
ENDBRANCH  50  69
BRANCH  62  75
ATOM     75  C   UNL A   1      44.273  28.643  35.238  1.00  0.00    -0.014 A 
ATOM     76  C   UNL A   1      45.552  29.078  34.855  1.00  0.00     0.009 A 
ATOM     77  C   UNL A   1      44.151  27.444  35.958  1.00  0.00     0.009 A 
ATOM     78  C   UNL A   1      46.678  28.311  35.160  1.00  0.00     0.001 A 
ATOM     79  C   UNL A   1      45.282  26.697  36.291  1.00  0.00     0.001 A 
ATOM     80  C   UNL A   1      46.543  27.127  35.884  1.00  0.00     0.000 A 
ENDBRANCH  62  75
ENDBRANCH  36  37
ENDBRANCH  28  31
ENDBRANCH  26  27
ENDBRANCH  25  26
ENDBRANCH  24  25
ENDBRANCH  23  24
ENDBRANCH   1  23
TORSDOF 18
ENDMDL
MODEL 3
REMARK VINA RESULT:      -9.5      1.776      6.299
REMARK SMILES CCOC(=O)NC(=O)COc1csc(C(=O)NCCCCCCNC(=O)c2ccc(-c3c4nc(c(-c5ccccc5)c5ccc([nH]5)c(-c5ccccc5)c5nc(c(-c6ccccc6)c6ccc3[nH]6)C=C5)C=C4)cc2)c1
REMARK SMILES IDX 19 1 18 2 17 3 15 4 16 5 14 7 11 8 12 9 75 10 13 11 10 12
REMARK SMILES IDX 9 13 7 14 4 15 5 16 6 17 8 19 3 20 2 21 1 22 20 23 21 24
REMARK SMILES IDX 22 25 23 26 24 27 25 28 26 30 27 31 28 32 74 33 29 34 73 35
REMARK SMILES IDX 30 36 31 37 32 38 67 39 33 40 72 41 66 42 68 43 34 44 71 45
REMARK SMILES IDX 65 46 64 47 35 49 57 50 42 51 56 52 43 53 46 54 55 55 69 56
REMARK SMILES IDX 44 57 45 58 54 60 70 61 47 62 36 63 37 64 41 65 38 66 40 67
REMARK SMILES IDX 39 68 58 69 59 70 63 71 60 72 62 73 61 74 48 75 49 76 53 77
REMARK SMILES IDX 50 78 52 79 51 80
REMARK H PARENT 17 6 6 18 24 29 68 48 46 59
REMARK Flexibility Score: inf
ROOT
ATOM      1  C   UNL A   1      32.775  28.882  25.197  1.00  0.00     0.021 C 
ENDROOT
BRANCH   1   2
ATOM      2  C   UNL A   1      33.105  29.069  23.715  1.00  0.00     0.116 C 
BRANCH   2   3
ATOM      3  N   UNL A   1      31.898  29.337  22.961  1.00  0.00    -0.351 N 
ATOM      4  C   UNL A   1      30.880  28.522  22.525  1.00  0.00     0.261 C 
ATOM      5  O   UNL A   1      29.983  29.098  21.904  1.00  0.00    -0.268 OA
ATOM      6  H   UNL A   1      31.785  30.283  22.714  1.00  0.00     0.163 HD
BRANCH   4   7
ATOM      7  C   UNL A   1      30.864  27.097  22.825  1.00  0.00     0.096 A 
ATOM      8  C   UNL A   1      31.361  24.824  23.017  1.00  0.00     0.131 A 
ATOM      9  C   UNL A   1      30.432  24.957  24.019  1.00  0.00     0.112 A 
ATOM     10  C   UNL A   1      31.541  26.021  22.281  1.00  0.00     0.072 A 
ATOM     11  S   UNL A   1      29.818  26.552  24.087  1.00  0.00    -0.135 S 
BRANCH   8  12
ATOM     12  O   UNL A   1      32.145  23.745  22.810  1.00  0.00    -0.483 OA
BRANCH  12  13
ATOM     13  C   UNL A   1      31.855  22.630  23.631  1.00  0.00     0.329 C 
BRANCH  13  14
ATOM     14  C   UNL A   1      32.065  21.255  23.007  1.00  0.00     0.267 C 
ATOM     15  C   UNL A   1      32.541  19.959  25.145  1.00  0.00     0.413 C 
ATOM     16  O   UNL A   1      32.700  18.831  25.593  1.00  0.00    -0.224 OA
ATOM     17  N   UNL A   1      32.325  20.158  23.797  1.00  0.00    -0.258 N 
ATOM     18  H   UNL A   1      32.368  19.320  23.280  1.00  0.00     0.176 HD
ATOM     19  O   UNL A   1      32.029  21.103  21.782  1.00  0.00    -0.271 OA
BRANCH  15  20
ATOM     20  O   UNL A   1      32.572  21.093  25.880  1.00  0.00    -0.450 OA
BRANCH  20  21
ATOM     21  C   UNL A   1      33.744  21.305  26.684  1.00  0.00     0.231 C 
ATOM     22  C   UNL A   1      34.975  21.541  25.826  1.00  0.00     0.049 C 
ENDBRANCH  20  21
ENDBRANCH  15  20
ENDBRANCH  13  14
ENDBRANCH  12  13
ENDBRANCH   8  12
ENDBRANCH   4   7
ENDBRANCH   2   3
ENDBRANCH   1   2
BRANCH   1  23
ATOM     23  C   UNL A   1      32.693  30.212  25.959  1.00  0.00     0.002 C 
BRANCH  23  24
ATOM     24  C   UNL A   1      31.268  30.743  26.165  1.00  0.00     0.002 C 
BRANCH  24  25
ATOM     25  C   UNL A   1      31.187  32.229  26.522  1.00  0.00     0.021 C 
BRANCH  25  26
ATOM     26  C   UNL A   1      32.534  32.845  26.875  1.00  0.00     0.116 C 
BRANCH  26  27
ATOM     27  N   UNL A   1      32.375  34.131  27.540  1.00  0.00    -0.352 N 
ATOM     28  C   UNL A   1      33.068  34.635  28.612  1.00  0.00     0.251 C 
ATOM     29  H   UNL A   1      31.677  34.717  27.170  1.00  0.00     0.163 HD
ATOM     30  O   UNL A   1      32.667  35.627  29.211  1.00  0.00    -0.269 OA
BRANCH  28  31
ATOM     31  C   UNL A   1      34.303  33.953  29.043  1.00  0.00     0.039 A 
ATOM     32  C   UNL A   1      35.539  34.434  28.607  1.00  0.00     0.014 A 
ATOM     33  C   UNL A   1      34.228  32.862  29.912  1.00  0.00     0.014 A 
ATOM     34  C   UNL A   1      36.710  33.857  29.100  1.00  0.00     0.010 A 
ATOM     35  C   UNL A   1      35.391  32.344  30.463  1.00  0.00     0.010 A 
ATOM     36  C   UNL A   1      36.644  32.835  30.061  1.00  0.00    -0.014 A 
BRANCH  36  37
ATOM     37  C   UNL A   1      37.867  32.264  30.675  1.00  0.00     0.031 A 
ATOM     38  C   UNL A   1      38.548  31.087  30.036  1.00  0.00     0.074 A 
ATOM     39  C   UNL A   1      38.303  32.739  31.857  1.00  0.00     0.049 A 
ATOM     40  N   UNL A   1      39.558  30.379  30.475  1.00  0.00    -0.248 NA
ATOM     41  C   UNL A   1      38.000  30.624  28.751  1.00  0.00     0.031 C 
ATOM     42  C   UNL A   1      37.703  33.849  32.600  1.00  0.00     0.029 A 
ATOM     43  N   UNL A   1      39.346  32.333  32.652  1.00  0.00    -0.354 N 
ATOM     44  C   UNL A   1      39.745  29.373  29.535  1.00  0.00     0.074 A 
ATOM     45  C   UNL A   1      38.716  29.532  28.532  1.00  0.00     0.031 C 
ATOM     46  C   UNL A   1      38.397  34.046  33.732  1.00  0.00     0.029 A 
ATOM     47  C   UNL A   1      39.458  33.048  33.819  1.00  0.00     0.049 A 
ATOM     48  H   UNL A   1      39.956  31.600  32.408  1.00  0.00     0.167 HD
ATOM     49  C   UNL A   1      40.698  28.411  29.504  1.00  0.00     0.031 A 
ATOM     50  C   UNL A   1      40.307  32.907  34.855  1.00  0.00     0.031 A 
ATOM     51  C   UNL A   1      41.722  28.259  30.503  1.00  0.00     0.049 A 
ATOM     52  C   UNL A   1      41.349  31.825  34.805  1.00  0.00     0.074 A 
ATOM     53  C   UNL A   1      42.775  27.361  30.529  1.00  0.00     0.029 A 
ATOM     54  N   UNL A   1      41.814  29.018  31.661  1.00  0.00    -0.354 N 
ATOM     55  N   UNL A   1      41.564  30.928  33.873  1.00  0.00    -0.248 NA
ATOM     56  C   UNL A   1      42.274  31.745  35.944  1.00  0.00     0.031 C 
ATOM     57  C   UNL A   1      43.462  27.531  31.734  1.00  0.00     0.029 A 
ATOM     58  C   UNL A   1      42.885  28.584  32.425  1.00  0.00     0.049 A 
ATOM     59  H   UNL A   1      41.208  29.754  31.903  1.00  0.00     0.167 HD
ATOM     60  C   UNL A   1      42.666  30.196  34.297  1.00  0.00     0.074 A 
ATOM     61  C   UNL A   1      43.081  30.763  35.565  1.00  0.00     0.031 C 
ATOM     62  C   UNL A   1      43.282  29.153  33.688  1.00  0.00     0.031 A 
BRANCH  49  63
ATOM     63  C   UNL A   1      40.653  27.431  28.363  1.00  0.00    -0.014 A 
ATOM     64  C   UNL A   1      41.308  27.685  27.147  1.00  0.00     0.009 A 
ATOM     65  C   UNL A   1      39.952  26.223  28.513  1.00  0.00     0.009 A 
ATOM     66  C   UNL A   1      41.219  26.777  26.089  1.00  0.00     0.001 A 
ATOM     67  C   UNL A   1      39.895  25.300  27.467  1.00  0.00     0.001 A 
ATOM     68  C   UNL A   1      40.516  25.584  26.252  1.00  0.00     0.000 A 
ENDBRANCH  49  63
BRANCH  50  69
ATOM     69  C   UNL A   1      40.203  33.820  36.022  1.00  0.00    -0.014 A 
ATOM     70  C   UNL A   1      40.924  35.023  36.055  1.00  0.00     0.009 A 
ATOM     71  C   UNL A   1      39.362  33.504  37.101  1.00  0.00     0.009 A 
ATOM     72  C   UNL A   1      40.822  35.880  37.153  1.00  0.00     0.001 A 
ATOM     73  C   UNL A   1      39.237  34.378  38.183  1.00  0.00     0.001 A 
ATOM     74  C   UNL A   1      39.974  35.561  38.211  1.00  0.00     0.000 A 
ENDBRANCH  50  69
BRANCH  62  75
ATOM     75  C   UNL A   1      44.498  28.578  34.362  1.00  0.00    -0.014 A 
ATOM     76  C   UNL A   1      44.403  27.500  35.257  1.00  0.00     0.009 A 
ATOM     77  C   UNL A   1      45.766  29.093  34.052  1.00  0.00     0.009 A 
ATOM     78  C   UNL A   1      45.552  26.974  35.851  1.00  0.00     0.001 A 
ATOM     79  C   UNL A   1      46.915  28.543  34.622  1.00  0.00     0.001 A 
ATOM     80  C   UNL A   1      46.806  27.489  35.527  1.00  0.00     0.000 A 
ENDBRANCH  62  75
ENDBRANCH  36  37
ENDBRANCH  28  31
ENDBRANCH  26  27
ENDBRANCH  25  26
ENDBRANCH  24  25
ENDBRANCH  23  24
ENDBRANCH   1  23
TORSDOF 18
ENDMDL
