MODEL 1
REMARK VINA RESULT:      -9.5      0.000      0.000
REMARK SMILES [NH3+][C@H](CC[S@@](=O)[O-])C(=O)NCCCCCCNC(=O)c1ccc(-c2c3nc(c(-c4ccccc4)c4ccc([nH]4)c(-c4ccccc4)c4nc(c(-c5ccccc5)c5ccc2[nH]5)C=C4)C=C3)cc1
REMARK SMILES IDX 13 1 12 2 11 3 10 4 8 5 9 6 2 8 1 9 3 13 4 14 5 15 6 16 7 17
REMARK SMILES IDX 14 18 15 19 16 20 17 21 18 22 19 24 20 25 21 26 67 27 22 28
REMARK SMILES IDX 66 29 23 30 24 31 25 32 60 33 26 34 65 35 59 36 61 37 27 38
REMARK SMILES IDX 64 39 58 40 57 41 28 43 50 44 35 45 49 46 36 47 39 48 48 49
REMARK SMILES IDX 62 50 37 51 38 52 47 54 63 55 40 56 29 57 30 58 34 59 31 60
REMARK SMILES IDX 33 61 32 62 51 63 52 64 56 65 53 66 55 67 54 68 41 69 42 70
REMARK SMILES IDX 46 71 43 72 45 73 44 74
REMARK H PARENT 10 7 1 10 1 11 1 12 17 23 61 42 39 53
REMARK Flexibility Score: inf
ROOT
ATOM      1  C   UNL A   1      31.992  29.759  27.016  1.00  0.00     0.002 C 
ENDROOT
BRANCH   1   2
ATOM      2  C   UNL A   1      31.733  28.293  26.666  1.00  0.00     0.021 C 
BRANCH   2   3
ATOM      3  C   UNL A   1      31.755  28.003  25.161  1.00  0.00     0.116 C 
BRANCH   3   4
ATOM      4  N   UNL A   1      30.665  27.125  24.801  1.00  0.00    -0.351 N 
ATOM      5  C   UNL A   1      29.723  27.189  23.823  1.00  0.00     0.278 C 
ATOM      6  O   UNL A   1      28.857  26.304  23.848  1.00  0.00    -0.268 OA
ATOM      7  H   UNL A   1      30.590  26.327  25.373  1.00  0.00     0.163 HD
BRANCH   5   8
ATOM      8  C   UNL A   1      29.670  28.284  22.726  1.00  0.00     0.271 C 
BRANCH   8   9
ATOM      9  N   UNL A   1      30.927  28.369  21.971  1.00  0.00    -0.347 N 
ATOM     10  H   UNL A   1      30.961  29.254  21.464  1.00  0.00     0.345 HD
ATOM     11  H   UNL A   1      30.979  27.595  21.309  1.00  0.00     0.345 HD
ATOM     12  H   UNL A   1      31.716  28.317  22.617  1.00  0.00     0.345 HD
ENDBRANCH   8   9
BRANCH   8  13
ATOM     13  C   UNL A   1      29.006  29.623  23.103  1.00  0.00     0.088 C 
BRANCH  13  14
ATOM     14  C   UNL A   1      29.200  30.866  22.246  1.00  0.00     0.096 C 
BRANCH  14  15
ATOM     15  S   UNL A   1      28.500  32.427  22.878  1.00  0.00    -0.055 S 
ATOM     16  O   UNL A   1      27.962  33.186  21.703  1.00  0.00    -0.275 OA
ATOM     17  O   UNL A   1      27.194  31.790  23.548  1.00  0.00    -0.772 OA
ENDBRANCH  14  15
ENDBRANCH  13  14
ENDBRANCH   8  13
ENDBRANCH   5   8
ENDBRANCH   3   4
ENDBRANCH   2   3
ENDBRANCH   1   2
BRANCH   1  18
ATOM     18  C   UNL A   1      31.392  30.764  26.027  1.00  0.00     0.002 C 
BRANCH  18  19
ATOM     19  C   UNL A   1      31.312  32.210  26.525  1.00  0.00     0.021 C 
BRANCH  19  20
ATOM     20  C   UNL A   1      32.595  32.741  27.158  1.00  0.00     0.116 C 
BRANCH  20  21
ATOM     21  N   UNL A   1      32.436  34.104  27.644  1.00  0.00    -0.352 N 
ATOM     22  C   UNL A   1      33.098  34.755  28.651  1.00  0.00     0.251 C 
ATOM     23  H   UNL A   1      31.751  34.637  27.179  1.00  0.00     0.163 HD
ATOM     24  O   UNL A   1      32.674  35.833  29.073  1.00  0.00    -0.269 OA
BRANCH  22  25
ATOM     25  C   UNL A   1      34.317  34.169  29.238  1.00  0.00     0.039 A 
ATOM     26  C   UNL A   1      35.561  34.490  28.688  1.00  0.00     0.014 A 
ATOM     27  C   UNL A   1      34.232  33.278  30.313  1.00  0.00     0.014 A 
ATOM     28  C   UNL A   1      36.725  33.959  29.249  1.00  0.00     0.010 A 
ATOM     29  C   UNL A   1      35.395  32.807  30.914  1.00  0.00     0.010 A 
ATOM     30  C   UNL A   1      36.652  33.134  30.383  1.00  0.00    -0.014 A 
BRANCH  30  31
ATOM     31  C   UNL A   1      37.872  32.583  31.024  1.00  0.00     0.031 A 
ATOM     32  C   UNL A   1      38.550  31.378  30.429  1.00  0.00     0.074 A 
ATOM     33  C   UNL A   1      38.324  33.115  32.176  1.00  0.00     0.049 A 
ATOM     34  N   UNL A   1      39.555  30.681  30.895  1.00  0.00    -0.248 NA
ATOM     35  C   UNL A   1      38.010  30.872  29.154  1.00  0.00     0.031 C 
ATOM     36  C   UNL A   1      37.741  34.266  32.869  1.00  0.00     0.029 A 
ATOM     37  N   UNL A   1      39.375  32.743  32.978  1.00  0.00    -0.354 N 
ATOM     38  C   UNL A   1      39.748  29.645  29.989  1.00  0.00     0.074 A 
ATOM     39  C   UNL A   1      38.734  29.780  28.967  1.00  0.00     0.031 C 
ATOM     40  C   UNL A   1      38.451  34.515  33.982  1.00  0.00     0.029 A 
ATOM     41  C   UNL A   1      39.508  33.517  34.106  1.00  0.00     0.049 A 
ATOM     42  H   UNL A   1      39.977  31.993  32.764  1.00  0.00     0.167 HD
ATOM     43  C   UNL A   1      40.693  28.676  30.001  1.00  0.00     0.031 A 
ATOM     44  C   UNL A   1      40.373  33.420  35.134  1.00  0.00     0.031 A 
ATOM     45  C   UNL A   1      41.716  28.558  31.004  1.00  0.00     0.049 A 
ATOM     46  C   UNL A   1      41.405  32.325  35.125  1.00  0.00     0.074 A 
ATOM     47  C   UNL A   1      42.757  27.648  31.067  1.00  0.00     0.029 A 
ATOM     48  N   UNL A   1      41.828  29.375  32.117  1.00  0.00    -0.354 N 
ATOM     49  N   UNL A   1      41.615  31.394  34.227  1.00  0.00    -0.248 NA
ATOM     50  C   UNL A   1      42.326  32.274  36.271  1.00  0.00     0.031 C 
ATOM     51  C   UNL A   1      43.470  27.883  32.246  1.00  0.00     0.029 A 
ATOM     52  C   UNL A   1      42.908  28.977  32.885  1.00  0.00     0.049 A 
ATOM     53  H   UNL A   1      41.229  30.127  32.330  1.00  0.00     0.167 HD
ATOM     54  C   UNL A   1      42.715  30.674  34.677  1.00  0.00     0.074 A 
ATOM     55  C   UNL A   1      43.133  31.282  35.923  1.00  0.00     0.031 C 
ATOM     56  C   UNL A   1      43.324  29.606  34.110  1.00  0.00     0.031 A 
BRANCH  43  57
ATOM     57  C   UNL A   1      40.669  27.658  28.896  1.00  0.00    -0.014 A 
ATOM     58  C   UNL A   1      41.495  27.786  27.768  1.00  0.00     0.009 A 
ATOM     59  C   UNL A   1      39.855  26.520  29.016  1.00  0.00     0.009 A 
ATOM     60  C   UNL A   1      41.489  26.806  26.772  1.00  0.00     0.001 A 
ATOM     61  C   UNL A   1      39.873  25.529  28.033  1.00  0.00     0.001 A 
ATOM     62  C   UNL A   1      40.684  25.676  26.909  1.00  0.00     0.000 A 
ENDBRANCH  43  57
BRANCH  44  63
ATOM     63  C   UNL A   1      40.310  34.384  36.265  1.00  0.00    -0.014 A 
ATOM     64  C   UNL A   1      39.550  34.091  37.409  1.00  0.00     0.009 A 
ATOM     65  C   UNL A   1      40.975  35.617  36.192  1.00  0.00     0.009 A 
ATOM     66  C   UNL A   1      39.423  35.030  38.435  1.00  0.00     0.001 A 
ATOM     67  C   UNL A   1      40.873  36.541  37.235  1.00  0.00     0.001 A 
ATOM     68  C   UNL A   1      40.086  36.253  38.348  1.00  0.00     0.000 A 
ENDBRANCH  44  63
BRANCH  56  69
ATOM     69  C   UNL A   1      44.547  29.063  34.792  1.00  0.00    -0.014 A 
ATOM     70  C   UNL A   1      44.460  28.038  35.745  1.00  0.00     0.009 A 
ATOM     71  C   UNL A   1      45.813  29.549  34.426  1.00  0.00     0.009 A 
ATOM     72  C   UNL A   1      45.617  27.531  36.341  1.00  0.00     0.001 A 
ATOM     73  C   UNL A   1      46.969  29.019  35.001  1.00  0.00     0.001 A 
ATOM     74  C   UNL A   1      46.869  28.016  35.963  1.00  0.00     0.000 A 
ENDBRANCH  56  69
ENDBRANCH  30  31
ENDBRANCH  22  25
ENDBRANCH  20  21
ENDBRANCH  19  20
ENDBRANCH  18  19
ENDBRANCH   1  18
TORSDOF 17
ENDMDL
MODEL 2
REMARK VINA RESULT:      -9.4      6.079     10.684
REMARK SMILES [NH3+][C@H](CC[S@@](=O)[O-])C(=O)NCCCCCCNC(=O)c1ccc(-c2c3nc(c(-c4ccccc4)c4ccc([nH]4)c(-c4ccccc4)c4nc(c(-c5ccccc5)c5ccc2[nH]5)C=C4)C=C3)cc1
REMARK SMILES IDX 13 1 12 2 11 3 10 4 8 5 9 6 2 8 1 9 3 13 4 14 5 15 6 16 7 17
REMARK SMILES IDX 14 18 15 19 16 20 17 21 18 22 19 24 20 25 21 26 67 27 22 28
REMARK SMILES IDX 66 29 23 30 24 31 25 32 60 33 26 34 65 35 59 36 61 37 27 38
REMARK SMILES IDX 64 39 58 40 57 41 28 43 50 44 35 45 49 46 36 47 39 48 48 49
REMARK SMILES IDX 62 50 37 51 38 52 47 54 63 55 40 56 29 57 30 58 34 59 31 60
REMARK SMILES IDX 33 61 32 62 51 63 52 64 56 65 53 66 55 67 54 68 41 69 42 70
REMARK SMILES IDX 46 71 43 72 45 73 44 74
REMARK H PARENT 10 7 1 10 1 11 1 12 17 23 61 42 39 53
REMARK Flexibility Score: inf
ROOT
ATOM      1  C   UNL A   1      36.797  22.101  25.283  1.00  0.00     0.002 C 
ENDROOT
BRANCH   1   2
ATOM      2  C   UNL A   1      35.895  23.110  24.571  1.00  0.00     0.021 C 
BRANCH   2   3
ATOM      3  C   UNL A   1      34.736  22.468  23.800  1.00  0.00     0.116 C 
BRANCH   3   4
ATOM      4  N   UNL A   1      33.468  22.872  24.366  1.00  0.00    -0.351 N 
ATOM      5  C   UNL A   1      32.527  22.197  25.076  1.00  0.00     0.278 C 
ATOM      6  O   UNL A   1      31.491  22.824  25.334  1.00  0.00    -0.268 OA
ATOM      7  H   UNL A   1      33.244  23.817  24.206  1.00  0.00     0.163 HD
BRANCH   5   8
ATOM      8  C   UNL A   1      32.671  20.727  25.550  1.00  0.00     0.271 C 
BRANCH   8   9
ATOM      9  N   UNL A   1      33.475  20.619  26.774  1.00  0.00    -0.347 N 
ATOM     10  H   UNL A   1      33.176  21.329  27.443  1.00  0.00     0.345 HD
ATOM     11  H   UNL A   1      34.460  20.759  26.548  1.00  0.00     0.345 HD
ATOM     12  H   UNL A   1      33.348  19.693  27.183  1.00  0.00     0.345 HD
ENDBRANCH   8   9
BRANCH   8  13
ATOM     13  C   UNL A   1      32.930  19.663  24.465  1.00  0.00     0.088 C 
BRANCH  13  14
ATOM     14  C   UNL A   1      32.830  18.177  24.782  1.00  0.00     0.096 C 
BRANCH  14  15
ATOM     15  S   UNL A   1      33.902  17.051  23.827  1.00  0.00    -0.055 S 
ATOM     16  O   UNL A   1      33.595  15.654  24.272  1.00  0.00    -0.275 OA
ATOM     17  O   UNL A   1      33.125  17.186  22.435  1.00  0.00    -0.772 OA
ENDBRANCH  14  15
ENDBRANCH  13  14
ENDBRANCH   8  13
ENDBRANCH   5   8
ENDBRANCH   3   4
ENDBRANCH   2   3
ENDBRANCH   1   2
BRANCH   1  18
ATOM     18  C   UNL A   1      36.597  20.648  24.840  1.00  0.00     0.002 C 
BRANCH  18  19
ATOM     19  C   UNL A   1      37.862  19.782  24.836  1.00  0.00     0.021 C 
BRANCH  19  20
ATOM     20  C   UNL A   1      38.958  20.245  25.792  1.00  0.00     0.116 C 
BRANCH  20  21
ATOM     21  N   UNL A   1      40.069  19.306  25.838  1.00  0.00    -0.352 N 
ATOM     22  C   UNL A   1      41.399  19.538  26.065  1.00  0.00     0.251 C 
ATOM     23  H   UNL A   1      39.828  18.365  25.683  1.00  0.00     0.163 HD
ATOM     24  O   UNL A   1      42.228  18.653  25.842  1.00  0.00    -0.269 OA
BRANCH  22  25
ATOM     25  C   UNL A   1      41.849  20.847  26.574  1.00  0.00     0.039 A 
ATOM     26  C   UNL A   1      42.265  21.825  25.667  1.00  0.00     0.014 A 
ATOM     27  C   UNL A   1      41.889  21.100  27.949  1.00  0.00     0.014 A 
ATOM     28  C   UNL A   1      42.672  23.077  26.135  1.00  0.00     0.010 A 
ATOM     29  C   UNL A   1      42.228  22.369  28.409  1.00  0.00     0.010 A 
ATOM     30  C   UNL A   1      42.632  23.366  27.509  1.00  0.00    -0.014 A 
BRANCH  30  31
ATOM     31  C   UNL A   1      43.024  24.698  28.035  1.00  0.00     0.031 A 
ATOM     32  C   UNL A   1      41.968  25.735  28.309  1.00  0.00     0.074 A 
ATOM     33  C   UNL A   1      44.328  25.000  28.192  1.00  0.00     0.049 A 
ATOM     34  N   UNL A   1      42.112  26.986  28.663  1.00  0.00    -0.248 NA
ATOM     35  C   UNL A   1      40.566  25.317  28.137  1.00  0.00     0.031 C 
ATOM     36  C   UNL A   1      45.449  24.093  27.936  1.00  0.00     0.029 A 
ATOM     37  N   UNL A   1      44.931  26.167  28.593  1.00  0.00    -0.354 N 
ATOM     38  C   UNL A   1      40.826  27.510  28.729  1.00  0.00     0.074 A 
ATOM     39  C   UNL A   1      39.917  26.453  28.342  1.00  0.00     0.031 C 
ATOM     40  C   UNL A   1      46.600  24.732  28.200  1.00  0.00     0.029 A 
ATOM     41  C   UNL A   1      46.304  26.103  28.599  1.00  0.00     0.049 A 
ATOM     42  H   UNL A   1      44.427  26.972  28.852  1.00  0.00     0.167 HD
ATOM     43  C   UNL A   1      40.437  28.755  29.091  1.00  0.00     0.031 A 
ATOM     44  C   UNL A   1      47.220  27.051  28.878  1.00  0.00     0.031 A 
ATOM     45  C   UNL A   1      41.340  29.796  29.500  1.00  0.00     0.049 A 
ATOM     46  C   UNL A   1      46.757  28.429  29.266  1.00  0.00     0.074 A 
ATOM     47  C   UNL A   1      41.036  31.070  29.947  1.00  0.00     0.029 A 
ATOM     48  N   UNL A   1      42.720  29.683  29.513  1.00  0.00    -0.354 N 
ATOM     49  N   UNL A   1      45.535  28.887  29.387  1.00  0.00    -0.248 NA
ATOM     50  C   UNL A   1      47.803  29.419  29.566  1.00  0.00     0.031 C 
ATOM     51  C   UNL A   1      42.236  31.746  30.183  1.00  0.00     0.029 A 
ATOM     52  C   UNL A   1      43.284  30.873  29.940  1.00  0.00     0.049 A 
ATOM     53  H   UNL A   1      43.225  28.877  29.258  1.00  0.00     0.167 HD
ATOM     54  C   UNL A   1      45.664  30.203  29.816  1.00  0.00     0.074 A 
ATOM     55  C   UNL A   1      47.083  30.465  29.942  1.00  0.00     0.031 C 
ATOM     56  C   UNL A   1      44.696  31.111  30.081  1.00  0.00     0.031 A 
BRANCH  43  57
ATOM     57  C   UNL A   1      38.967  29.067  29.062  1.00  0.00    -0.014 A 
ATOM     58  C   UNL A   1      38.160  28.879  30.194  1.00  0.00     0.009 A 
ATOM     59  C   UNL A   1      38.397  29.619  27.904  1.00  0.00     0.009 A 
ATOM     60  C   UNL A   1      36.804  29.217  30.160  1.00  0.00     0.001 A 
ATOM     61  C   UNL A   1      37.049  29.981  27.882  1.00  0.00     0.001 A 
ATOM     62  C   UNL A   1      36.253  29.774  29.008  1.00  0.00     0.000 A 
ENDBRANCH  43  57
BRANCH  44  63
ATOM     63  C   UNL A   1      48.672  26.740  28.803  1.00  0.00    -0.014 A 
ATOM     64  C   UNL A   1      49.367  26.871  27.590  1.00  0.00     0.009 A 
ATOM     65  C   UNL A   1      49.364  26.272  29.931  1.00  0.00     0.009 A 
ATOM     66  C   UNL A   1      50.711  26.500  27.498  1.00  0.00     0.001 A 
ATOM     67  C   UNL A   1      50.716  25.934  29.845  1.00  0.00     0.001 A 
ATOM     68  C   UNL A   1      51.384  26.034  28.625  1.00  0.00     0.000 A 
ENDBRANCH  44  63
BRANCH  56  69
ATOM     69  C   UNL A   1      45.128  32.454  30.597  1.00  0.00    -0.014 A 
ATOM     70  C   UNL A   1      45.310  32.689  31.967  1.00  0.00     0.009 A 
ATOM     71  C   UNL A   1      45.414  33.482  29.684  1.00  0.00     0.009 A 
ATOM     72  C   UNL A   1      45.743  33.939  32.415  1.00  0.00     0.001 A 
ATOM     73  C   UNL A   1      45.876  34.720  30.133  1.00  0.00     0.001 A 
ATOM     74  C   UNL A   1      46.032  34.950  31.498  1.00  0.00     0.000 A 
ENDBRANCH  56  69
ENDBRANCH  30  31
ENDBRANCH  22  25
ENDBRANCH  20  21
ENDBRANCH  19  20
ENDBRANCH  18  19
ENDBRANCH   1  18
TORSDOF 17
ENDMDL
MODEL 3
REMARK VINA RESULT:      -9.3      5.258      9.158
REMARK SMILES [NH3+][C@H](CC[S@@](=O)[O-])C(=O)NCCCCCCNC(=O)c1ccc(-c2c3nc(c(-c4ccccc4)c4ccc([nH]4)c(-c4ccccc4)c4nc(c(-c5ccccc5)c5ccc2[nH]5)C=C4)C=C3)cc1
REMARK SMILES IDX 13 1 12 2 11 3 10 4 8 5 9 6 2 8 1 9 3 13 4 14 5 15 6 16 7 17
REMARK SMILES IDX 14 18 15 19 16 20 17 21 18 22 19 24 20 25 21 26 67 27 22 28
REMARK SMILES IDX 66 29 23 30 24 31 25 32 60 33 26 34 65 35 59 36 61 37 27 38
REMARK SMILES IDX 64 39 58 40 57 41 28 43 50 44 35 45 49 46 36 47 39 48 48 49
REMARK SMILES IDX 62 50 37 51 38 52 47 54 63 55 40 56 29 57 30 58 34 59 31 60
REMARK SMILES IDX 33 61 32 62 51 63 52 64 56 65 53 66 55 67 54 68 41 69 42 70
REMARK SMILES IDX 46 71 43 72 45 73 44 74
REMARK H PARENT 10 7 1 10 1 11 1 12 17 23 61 42 39 53
REMARK Flexibility Score: inf
ROOT
ATOM      1  C   UNL A   1      33.559  25.551  25.474  1.00  0.00     0.002 C 
ENDROOT
BRANCH   1   2
ATOM      2  C   UNL A   1      34.625  24.548  25.031  1.00  0.00     0.021 C 
BRANCH   2   3
ATOM      3  C   UNL A   1      34.053  23.219  24.524  1.00  0.00     0.116 C 
BRANCH   3   4
ATOM      4  N   UNL A   1      35.050  22.176  24.607  1.00  0.00    -0.351 N 
ATOM      5  C   UNL A   1      34.972  20.859  24.932  1.00  0.00     0.278 C 
ATOM      6  O   UNL A   1      36.050  20.254  25.000  1.00  0.00    -0.268 OA
ATOM      7  H   UNL A   1      35.961  22.478  24.385  1.00  0.00     0.163 HD
BRANCH   5   8
ATOM      8  C   UNL A   1      33.650  20.105  25.228  1.00  0.00     0.271 C 
BRANCH   8   9
ATOM      9  N   UNL A   1      33.303  20.141  26.655  1.00  0.00    -0.347 N 
ATOM     10  H   UNL A   1      34.020  20.652  27.168  1.00  0.00     0.345 HD
ATOM     11  H   UNL A   1      33.242  19.188  27.014  1.00  0.00     0.345 HD
ATOM     12  H   UNL A   1      32.402  20.606  26.774  1.00  0.00     0.345 HD
ENDBRANCH   8   9
BRANCH   8  13
ATOM     13  C   UNL A   1      33.431  18.762  24.504  1.00  0.00     0.088 C 
BRANCH  13  14
ATOM     14  C   UNL A   1      33.089  17.498  25.279  1.00  0.00     0.096 C 
BRANCH  14  15
ATOM     15  S   UNL A   1      33.495  15.904  24.489  1.00  0.00    -0.055 S 
ATOM     16  O   UNL A   1      34.049  16.206  23.130  1.00  0.00    -0.275 OA
ATOM     17  O   UNL A   1      34.794  15.585  25.367  1.00  0.00    -0.772 OA
ENDBRANCH  14  15
ENDBRANCH  13  14
ENDBRANCH   8  13
ENDBRANCH   5   8
ENDBRANCH   3   4
ENDBRANCH   2   3
ENDBRANCH   1   2
BRANCH   1  18
ATOM     18  C   UNL A   1      34.019  27.013  25.461  1.00  0.00     0.002 C 
BRANCH  18  19
ATOM     19  C   UNL A   1      33.052  28.012  26.106  1.00  0.00     0.021 C 
BRANCH  19  20
ATOM     20  C   UNL A   1      33.451  28.478  27.503  1.00  0.00     0.116 C 
BRANCH  20  21
ATOM     21  N   UNL A   1      33.484  29.931  27.601  1.00  0.00    -0.352 N 
ATOM     22  C   UNL A   1      34.470  30.752  28.077  1.00  0.00     0.251 C 
ATOM     23  H   UNL A   1      32.676  30.390  27.278  1.00  0.00     0.163 HD
ATOM     24  O   UNL A   1      34.232  31.943  28.294  1.00  0.00    -0.269 OA
BRANCH  22  25
ATOM     25  C   UNL A   1      35.821  30.218  28.336  1.00  0.00     0.039 A 
ATOM     26  C   UNL A   1      36.760  30.207  27.301  1.00  0.00     0.014 A 
ATOM     27  C   UNL A   1      36.151  29.700  29.592  1.00  0.00     0.014 A 
ATOM     28  C   UNL A   1      38.049  29.725  27.540  1.00  0.00     0.010 A 
ATOM     29  C   UNL A   1      37.454  29.285  29.848  1.00  0.00     0.010 A 
ATOM     30  C   UNL A   1      38.413  29.284  28.823  1.00  0.00    -0.014 A 
BRANCH  30  31
ATOM     31  C   UNL A   1      39.784  28.798  29.117  1.00  0.00     0.031 A 
ATOM     32  C   UNL A   1      40.786  29.725  29.752  1.00  0.00     0.074 A 
ATOM     33  C   UNL A   1      40.151  27.556  28.748  1.00  0.00     0.049 A 
ATOM     34  N   UNL A   1      42.058  29.531  29.987  1.00  0.00    -0.248 NA
ATOM     35  C   UNL A   1      40.300  31.058  30.151  1.00  0.00     0.031 C 
ATOM     36  C   UNL A   1      39.283  26.569  28.100  1.00  0.00     0.029 A 
ATOM     37  N   UNL A   1      41.361  26.915  28.850  1.00  0.00    -0.354 N 
ATOM     38  C   UNL A   1      42.527  30.720  30.533  1.00  0.00     0.074 A 
ATOM     39  C   UNL A   1      41.415  31.643  30.560  1.00  0.00     0.031 C 
ATOM     40  C   UNL A   1      39.984  25.445  27.879  1.00  0.00     0.029 A 
ATOM     41  C   UNL A   1      41.359  25.645  28.323  1.00  0.00     0.049 A 
ATOM     42  H   UNL A   1      42.156  27.326  29.262  1.00  0.00     0.167 HD
ATOM     43  C   UNL A   1      43.770  31.012  30.984  1.00  0.00     0.031 A 
ATOM     44  C   UNL A   1      42.358  24.750  28.198  1.00  0.00     0.031 A 
ATOM     45  C   UNL A   1      44.869  30.085  30.980  1.00  0.00     0.049 A 
ATOM     46  C   UNL A   1      43.732  25.108  28.697  1.00  0.00     0.074 A 
ATOM     47  C   UNL A   1      46.149  30.267  31.474  1.00  0.00     0.029 A 
ATOM     48  N   UNL A   1      44.818  28.802  30.459  1.00  0.00    -0.354 N 
ATOM     49  N   UNL A   1      44.141  26.213  29.271  1.00  0.00    -0.248 NA
ATOM     50  C   UNL A   1      44.780  24.089  28.538  1.00  0.00     0.031 C 
ATOM     51  C   UNL A   1      46.888  29.111  31.206  1.00  0.00     0.029 A 
ATOM     52  C   UNL A   1      46.050  28.189  30.600  1.00  0.00     0.049 A 
ATOM     53  H   UNL A   1      44.023  28.389  30.050  1.00  0.00     0.167 HD
ATOM     54  C   UNL A   1      45.480  26.007  29.578  1.00  0.00     0.074 A 
ATOM     55  C   UNL A   1      45.811  24.668  29.136  1.00  0.00     0.031 C 
ATOM     56  C   UNL A   1      46.357  26.850  30.175  1.00  0.00     0.031 A 
BRANCH  43  57
ATOM     57  C   UNL A   1      44.016  32.394  31.520  1.00  0.00    -0.014 A 
ATOM     58  C   UNL A   1      44.420  33.441  30.677  1.00  0.00     0.009 A 
ATOM     59  C   UNL A   1      43.774  32.668  32.875  1.00  0.00     0.009 A 
ATOM     60  C   UNL A   1      44.601  34.729  31.187  1.00  0.00     0.001 A 
ATOM     61  C   UNL A   1      43.928  33.962  33.375  1.00  0.00     0.001 A 
ATOM     62  C   UNL A   1      44.347  34.990  32.532  1.00  0.00     0.000 A 
ENDBRANCH  43  57
BRANCH  44  63
ATOM     63  C   UNL A   1      42.108  23.425  27.572  1.00  0.00    -0.014 A 
ATOM     64  C   UNL A   1      41.571  22.370  28.327  1.00  0.00     0.009 A 
ATOM     65  C   UNL A   1      42.442  23.193  26.229  1.00  0.00     0.009 A 
ATOM     66  C   UNL A   1      41.413  21.102  27.763  1.00  0.00     0.001 A 
ATOM     67  C   UNL A   1      42.252  21.933  25.657  1.00  0.00     0.001 A 
ATOM     68  C   UNL A   1      41.752  20.885  26.429  1.00  0.00     0.000 A 
ENDBRANCH  44  63
BRANCH  56  69
ATOM     69  C   UNL A   1      47.741  26.332  30.444  1.00  0.00    -0.014 A 
ATOM     70  C   UNL A   1      48.095  25.800  31.692  1.00  0.00     0.009 A 
ATOM     71  C   UNL A   1      48.688  26.326  29.406  1.00  0.00     0.009 A 
ATOM     72  C   UNL A   1      49.381  25.297  31.904  1.00  0.00     0.001 A 
ATOM     73  C   UNL A   1      49.962  25.795  29.612  1.00  0.00     0.001 A 
ATOM     74  C   UNL A   1      50.309  25.289  30.863  1.00  0.00     0.000 A 
ENDBRANCH  56  69
ENDBRANCH  30  31
ENDBRANCH  22  25
ENDBRANCH  20  21
ENDBRANCH  19  20
ENDBRANCH  18  19
ENDBRANCH   1  18
TORSDOF 17
ENDMDL
