MODEL 1
REMARK VINA RESULT:     -11.1      0.000      0.000
REMARK SMILES COc1ccc(C(=O)Nc2ccccc2C(=O)N[C@@H](C(=O)NCCCCCCNC(=O)c2ccc(-c3c4nc(c(-c5ccccc5)c5ccc([nH]5)c(-c5ccccc5)c5nc(c(-c6ccccc6)c6ccc3[nH]6)C=C5)C=C4)cc2)C(C)C)cc1
REMARK SMILES IDX 24 1 23 2 22 3 20 4 21 5 19 7 18 8 16 9 17 10 15 12 10 13
REMARK SMILES IDX 11 14 12 15 14 16 13 17 9 18 7 19 8 20 6 22 3 23 4 24 84 25
REMARK SMILES IDX 5 26 83 27 2 28 1 29 80 30 81 31 82 32 25 33 26 34 27 35
REMARK SMILES IDX 28 36 29 37 30 38 31 40 32 41 33 42 79 43 34 44 78 45 35 46
REMARK SMILES IDX 36 47 37 48 72 49 38 50 77 51 71 52 73 53 39 54 76 55 70 56
REMARK SMILES IDX 69 57 40 59 62 60 47 61 61 62 48 63 51 64 60 65 74 66 49 67
REMARK SMILES IDX 50 68 59 70 75 71 52 72 41 73 42 74 46 75 43 76 45 77 44 78
REMARK SMILES IDX 63 79 64 80 68 81 65 82 67 83 66 84 53 85 54 86 58 87 55 88
REMARK SMILES IDX 57 89 56 90
REMARK H PARENT 22 6 18 11 9 21 29 39 73 58 51 69
REMARK Flexibility Score: inf
ROOT
ATOM      1  C   UNL A   1      36.996  23.029  24.856  1.00  0.00     0.021 C 
ENDROOT
BRANCH   1   2
ATOM      2  C   UNL A   1      36.487  23.634  26.167  1.00  0.00     0.116 C 
BRANCH   2   3
ATOM      3  N   UNL A   1      35.434  22.808  26.698  1.00  0.00    -0.354 N 
ATOM      4  C   UNL A   1      34.096  22.989  26.561  1.00  0.00     0.242 C 
ATOM      5  O   UNL A   1      33.405  22.640  27.523  1.00  0.00    -0.273 OA
ATOM      6  H   UNL A   1      35.716  22.022  27.220  1.00  0.00     0.163 HD
BRANCH   4   7
ATOM      7  C   UNL A   1      33.487  23.626  25.269  1.00  0.00     0.174 C 
BRANCH   7   8
ATOM      8  N   UNL A   1      32.151  24.141  25.614  1.00  0.00    -0.340 N 
ATOM      9  C   UNL A   1      31.653  25.327  26.120  1.00  0.00     0.254 C 
ATOM     10  O   UNL A   1      30.545  25.239  26.660  1.00  0.00    -0.269 OA
ATOM     11  H   UNL A   1      31.440  23.480  25.444  1.00  0.00     0.164 HD
BRANCH   9  12
ATOM     12  C   UNL A   1      32.314  26.682  26.130  1.00  0.00     0.063 A 
ATOM     13  C   UNL A   1      33.307  27.172  25.270  1.00  0.00     0.054 A 
ATOM     14  C   UNL A   1      33.951  28.399  25.546  1.00  0.00     0.027 A 
ATOM     15  C   UNL A   1      33.487  29.241  26.552  1.00  0.00     0.002 A 
ATOM     16  C   UNL A   1      31.847  27.572  27.129  1.00  0.00     0.016 A 
ATOM     17  C   UNL A   1      32.401  28.845  27.317  1.00  0.00     0.001 A 
BRANCH  13  18
ATOM     18  N   UNL A   1      33.624  26.646  24.010  1.00  0.00    -0.321 N 
ATOM     19  C   UNL A   1      32.927  26.886  22.842  1.00  0.00     0.255 C 
ATOM     20  O   UNL A   1      33.428  26.592  21.759  1.00  0.00    -0.269 OA
ATOM     21  H   UNL A   1      34.411  26.057  23.952  1.00  0.00     0.170 HD
BRANCH  19  22
ATOM     22  C   UNL A   1      31.622  27.575  22.865  1.00  0.00     0.040 A 
ATOM     23  C   UNL A   1      29.119  28.796  22.879  1.00  0.00     0.118 A 
ATOM     24  C   UNL A   1      29.228  27.447  23.186  1.00  0.00     0.047 A 
ATOM     25  C   UNL A   1      30.262  29.549  22.594  1.00  0.00     0.047 A 
ATOM     26  C   UNL A   1      30.473  26.838  23.142  1.00  0.00     0.017 A 
ATOM     27  C   UNL A   1      31.523  28.938  22.585  1.00  0.00     0.017 A 
BRANCH  23  28
ATOM     28  O   UNL A   1      27.852  29.305  22.914  1.00  0.00    -0.497 OA
ATOM     29  C   UNL A   1      27.744  30.575  22.283  1.00  0.00     0.278 C 
ENDBRANCH  23  28
ENDBRANCH  19  22
ENDBRANCH  13  18
ENDBRANCH   9  12
ENDBRANCH   7   8
BRANCH   7  30
ATOM     30  C   UNL A   1      33.474  22.436  24.231  1.00  0.00     0.015 C 
ATOM     31  C   UNL A   1      32.481  21.301  24.429  1.00  0.00     0.010 C 
ATOM     32  C   UNL A   1      33.287  22.986  22.810  1.00  0.00     0.010 C 
ENDBRANCH   7  30
ENDBRANCH   4   7
ENDBRANCH   2   3
ENDBRANCH   1   2
BRANCH   1  33
ATOM     33  C   UNL A   1      37.896  21.803  25.071  1.00  0.00     0.002 C 
BRANCH  33  34
ATOM     34  C   UNL A   1      39.025  22.020  26.083  1.00  0.00     0.002 C 
BRANCH  34  35
ATOM     35  C   UNL A   1      39.633  20.731  26.637  1.00  0.00     0.021 C 
BRANCH  35  36
ATOM     36  C   UNL A   1      39.908  19.664  25.580  1.00  0.00     0.116 C 
BRANCH  36  37
ATOM     37  N   UNL A   1      41.172  18.984  25.816  1.00  0.00    -0.352 N 
ATOM     38  C   UNL A   1      42.392  19.507  26.164  1.00  0.00     0.251 C 
ATOM     39  H   UNL A   1      41.151  18.006  25.709  1.00  0.00     0.163 HD
ATOM     40  O   UNL A   1      43.404  18.821  26.102  1.00  0.00    -0.269 OA
BRANCH  38  41
ATOM     41  C   UNL A   1      42.480  20.915  26.600  1.00  0.00     0.039 A 
ATOM     42  C   UNL A   1      42.315  21.216  27.953  1.00  0.00     0.014 A 
ATOM     43  C   UNL A   1      42.721  21.933  25.671  1.00  0.00     0.014 A 
ATOM     44  C   UNL A   1      42.463  22.533  28.388  1.00  0.00     0.010 A 
ATOM     45  C   UNL A   1      42.925  23.235  26.114  1.00  0.00     0.010 A 
ATOM     46  C   UNL A   1      42.807  23.545  27.478  1.00  0.00    -0.014 A 
BRANCH  46  47
ATOM     47  C   UNL A   1      43.080  24.929  27.934  1.00  0.00     0.031 A 
ATOM     48  C   UNL A   1      44.477  25.350  28.287  1.00  0.00     0.074 A 
ATOM     49  C   UNL A   1      42.052  25.781  28.103  1.00  0.00     0.049 A 
ATOM     50  N   UNL A   1      44.893  26.491  28.778  1.00  0.00    -0.248 NA
ATOM     51  C   UNL A   1      45.543  24.356  28.084  1.00  0.00     0.031 C 
ATOM     52  C   UNL A   1      40.644  25.475  27.834  1.00  0.00     0.029 A 
ATOM     53  N   UNL A   1      42.029  27.075  28.556  1.00  0.00    -0.354 N 
ATOM     54  C   UNL A   1      46.264  26.349  28.949  1.00  0.00     0.074 A 
ATOM     55  C   UNL A   1      46.603  24.999  28.553  1.00  0.00     0.031 C 
ATOM     56  C   UNL A   1      39.899  26.557  28.113  1.00  0.00     0.029 A 
ATOM     57  C   UNL A   1      40.769  27.616  28.615  1.00  0.00     0.049 A 
ATOM     58  H   UNL A   1      42.841  27.570  28.814  1.00  0.00     0.167 HD
ATOM     59  C   UNL A   1      47.162  27.265  29.382  1.00  0.00     0.031 A 
ATOM     60  C   UNL A   1      40.355  28.823  29.040  1.00  0.00     0.031 A 
ATOM     61  C   UNL A   1      46.826  28.608  29.774  1.00  0.00     0.049 A 
ATOM     62  C   UNL A   1      41.369  29.815  29.536  1.00  0.00     0.074 A 
ATOM     63  C   UNL A   1      47.672  29.625  30.178  1.00  0.00     0.029 A 
ATOM     64  N   UNL A   1      45.538  29.118  29.814  1.00  0.00    -0.354 N 
ATOM     65  N   UNL A   1      42.670  29.684  29.635  1.00  0.00    -0.248 NA
ATOM     66  C   UNL A   1      40.857  31.121  29.975  1.00  0.00     0.031 C 
ATOM     67  C   UNL A   1      46.892  30.739  30.506  1.00  0.00     0.029 A 
ATOM     68  C   UNL A   1      45.563  30.429  30.261  1.00  0.00     0.049 A 
ATOM     69  H   UNL A   1      44.725  28.623  29.562  1.00  0.00     0.167 HD
ATOM     70  C   UNL A   1      43.133  30.895  30.130  1.00  0.00     0.074 A 
ATOM     71  C   UNL A   1      41.978  31.753  30.293  1.00  0.00     0.031 C 
ATOM     72  C   UNL A   1      44.403  31.262  30.427  1.00  0.00     0.031 A 
BRANCH  59  73
ATOM     73  C   UNL A   1      48.601  26.841  29.455  1.00  0.00    -0.014 A 
ATOM     74  C   UNL A   1      49.472  27.051  28.373  1.00  0.00     0.009 A 
ATOM     75  C   UNL A   1      49.102  26.261  30.631  1.00  0.00     0.009 A 
ATOM     76  C   UNL A   1      50.810  26.660  28.459  1.00  0.00     0.001 A 
ATOM     77  C   UNL A   1      50.446  25.895  30.721  1.00  0.00     0.001 A 
ATOM     78  C   UNL A   1      51.296  26.087  29.633  1.00  0.00     0.000 A 
ENDBRANCH  59  73
BRANCH  60  79
ATOM     79  C   UNL A   1      38.910  29.164  29.019  1.00  0.00    -0.014 A 
ATOM     80  C   UNL A   1      38.125  29.013  30.171  1.00  0.00     0.009 A 
ATOM     81  C   UNL A   1      38.308  29.640  27.844  1.00  0.00     0.009 A 
ATOM     82  C   UNL A   1      36.760  29.306  30.140  1.00  0.00     0.001 A 
ATOM     83  C   UNL A   1      36.949  29.958  27.823  1.00  0.00     0.001 A 
ATOM     84  C   UNL A   1      36.175  29.783  28.968  1.00  0.00     0.000 A 
ENDBRANCH  60  79
BRANCH  72  85
ATOM     85  C   UNL A   1      44.606  32.656  30.947  1.00  0.00    -0.014 A 
ATOM     86  C   UNL A   1      44.547  32.930  32.323  1.00  0.00     0.009 A 
ATOM     87  C   UNL A   1      44.893  33.700  30.055  1.00  0.00     0.009 A 
ATOM     88  C   UNL A   1      44.744  34.230  32.790  1.00  0.00     0.001 A 
ATOM     89  C   UNL A   1      45.114  34.994  30.527  1.00  0.00     0.001 A 
ATOM     90  C   UNL A   1      45.031  35.260  31.893  1.00  0.00     0.000 A 
ENDBRANCH  72  85
ENDBRANCH  46  47
ENDBRANCH  38  41
ENDBRANCH  36  37
ENDBRANCH  35  36
ENDBRANCH  34  35
ENDBRANCH  33  34
ENDBRANCH   1  33
TORSDOF 19
ENDMDL
MODEL 2
REMARK VINA RESULT:     -11.0      1.021      5.833
REMARK SMILES COc1ccc(C(=O)Nc2ccccc2C(=O)N[C@@H](C(=O)NCCCCCCNC(=O)c2ccc(-c3c4nc(c(-c5ccccc5)c5ccc([nH]5)c(-c5ccccc5)c5nc(c(-c6ccccc6)c6ccc3[nH]6)C=C5)C=C4)cc2)C(C)C)cc1
REMARK SMILES IDX 24 1 23 2 22 3 20 4 21 5 19 7 18 8 16 9 17 10 15 12 10 13
REMARK SMILES IDX 11 14 12 15 14 16 13 17 9 18 7 19 8 20 6 22 3 23 4 24 84 25
REMARK SMILES IDX 5 26 83 27 2 28 1 29 80 30 81 31 82 32 25 33 26 34 27 35
REMARK SMILES IDX 28 36 29 37 30 38 31 40 32 41 33 42 79 43 34 44 78 45 35 46
REMARK SMILES IDX 36 47 37 48 72 49 38 50 77 51 71 52 73 53 39 54 76 55 70 56
REMARK SMILES IDX 69 57 40 59 62 60 47 61 61 62 48 63 51 64 60 65 74 66 49 67
REMARK SMILES IDX 50 68 59 70 75 71 52 72 41 73 42 74 46 75 43 76 45 77 44 78
REMARK SMILES IDX 63 79 64 80 68 81 65 82 67 83 66 84 53 85 54 86 58 87 55 88
REMARK SMILES IDX 57 89 56 90
REMARK H PARENT 22 6 18 11 9 21 29 39 73 58 51 69
REMARK Flexibility Score: inf
ROOT
ATOM      1  C   UNL A   1      37.799  23.744  26.066  1.00  0.00     0.021 C 
ENDROOT
BRANCH   1   2
ATOM      2  C   UNL A   1      36.554  23.842  25.180  1.00  0.00     0.116 C 
BRANCH   2   3
ATOM      3  N   UNL A   1      35.375  23.798  26.007  1.00  0.00    -0.354 N 
ATOM      4  C   UNL A   1      34.095  24.050  25.632  1.00  0.00     0.242 C 
ATOM      5  O   UNL A   1      33.379  24.582  26.486  1.00  0.00    -0.273 OA
ATOM      6  H   UNL A   1      35.513  23.559  26.952  1.00  0.00     0.163 HD
BRANCH   4   7
ATOM      7  C   UNL A   1      33.585  23.706  24.194  1.00  0.00     0.174 C 
BRANCH   7   8
ATOM      8  N   UNL A   1      33.782  24.900  23.354  1.00  0.00    -0.340 N 
ATOM      9  C   UNL A   1      33.355  26.214  23.395  1.00  0.00     0.254 C 
ATOM     10  O   UNL A   1      33.380  26.804  22.309  1.00  0.00    -0.269 OA
ATOM     11  H   UNL A   1      34.355  24.718  22.574  1.00  0.00     0.164 HD
BRANCH   9  12
ATOM     12  C   UNL A   1      32.828  26.983  24.580  1.00  0.00     0.063 A 
ATOM     13  C   UNL A   1      31.501  27.112  25.013  1.00  0.00     0.054 A 
ATOM     14  C   UNL A   1      31.167  28.032  26.032  1.00  0.00     0.027 A 
ATOM     15  C   UNL A   1      32.157  28.682  26.763  1.00  0.00     0.002 A 
ATOM     16  C   UNL A   1      33.814  27.639  25.358  1.00  0.00     0.016 A 
ATOM     17  C   UNL A   1      33.487  28.450  26.453  1.00  0.00     0.001 A 
BRANCH  13  18
ATOM     18  N   UNL A   1      30.444  26.261  24.659  1.00  0.00    -0.321 N 
ATOM     19  C   UNL A   1      29.428  26.569  23.776  1.00  0.00     0.255 C 
ATOM     20  O   UNL A   1      28.705  25.676  23.341  1.00  0.00    -0.269 OA
ATOM     21  H   UNL A   1      30.425  25.368  25.075  1.00  0.00     0.170 HD
BRANCH  19  22
ATOM     22  C   UNL A   1      29.251  27.945  23.272  1.00  0.00     0.040 A 
ATOM     23  C   UNL A   1      29.011  30.550  22.316  1.00  0.00     0.118 A 
ATOM     24  C   UNL A   1      30.091  29.771  21.926  1.00  0.00     0.047 A 
ATOM     25  C   UNL A   1      28.030  30.021  23.161  1.00  0.00     0.047 A 
ATOM     26  C   UNL A   1      30.223  28.487  22.434  1.00  0.00     0.017 A 
ATOM     27  C   UNL A   1      28.147  28.712  23.644  1.00  0.00     0.017 A 
BRANCH  23  28
ATOM     28  O   UNL A   1      28.979  31.812  21.796  1.00  0.00    -0.497 OA
ATOM     29  C   UNL A   1      28.192  31.907  20.615  1.00  0.00     0.278 C 
ENDBRANCH  23  28
ENDBRANCH  19  22
ENDBRANCH  13  18
ENDBRANCH   9  12
ENDBRANCH   7   8
BRANCH   7  30
ATOM     30  C   UNL A   1      32.072  23.313  24.415  1.00  0.00     0.015 C 
ATOM     31  C   UNL A   1      31.161  23.188  23.202  1.00  0.00     0.010 C 
ATOM     32  C   UNL A   1      31.984  22.002  25.209  1.00  0.00     0.010 C 
ENDBRANCH   7  30
ENDBRANCH   4   7
ENDBRANCH   2   3
ENDBRANCH   1   2
BRANCH   1  33
ATOM     33  C   UNL A   1      38.478  22.368  25.997  1.00  0.00     0.002 C 
BRANCH  33  34
ATOM     34  C   UNL A   1      37.791  21.374  25.054  1.00  0.00     0.002 C 
BRANCH  34  35
ATOM     35  C   UNL A   1      38.473  20.007  24.972  1.00  0.00     0.021 C 
BRANCH  35  36
ATOM     36  C   UNL A   1      39.305  19.648  26.200  1.00  0.00     0.116 C 
BRANCH  36  37
ATOM     37  N   UNL A   1      40.605  19.107  25.833  1.00  0.00    -0.352 N 
ATOM     38  C   UNL A   1      41.827  19.731  25.785  1.00  0.00     0.251 C 
ATOM     39  H   UNL A   1      40.610  18.156  25.581  1.00  0.00     0.163 HD
ATOM     40  O   UNL A   1      42.780  19.191  25.238  1.00  0.00    -0.269 OA
BRANCH  38  41
ATOM     41  C   UNL A   1      41.981  21.071  26.384  1.00  0.00     0.039 A 
ATOM     42  C   UNL A   1      41.892  21.206  27.771  1.00  0.00     0.014 A 
ATOM     43  C   UNL A   1      42.209  22.189  25.576  1.00  0.00     0.014 A 
ATOM     44  C   UNL A   1      42.103  22.455  28.356  1.00  0.00     0.010 A 
ATOM     45  C   UNL A   1      42.477  23.421  26.163  1.00  0.00     0.010 A 
ATOM     46  C   UNL A   1      42.435  23.563  27.559  1.00  0.00    -0.014 A 
BRANCH  46  47
ATOM     47  C   UNL A   1      42.775  24.872  28.166  1.00  0.00     0.031 A 
ATOM     48  C   UNL A   1      41.714  25.916  28.361  1.00  0.00     0.074 A 
ATOM     49  C   UNL A   1      44.057  25.142  28.472  1.00  0.00     0.049 A 
ATOM     50  N   UNL A   1      41.839  27.143  28.802  1.00  0.00    -0.248 NA
ATOM     51  C   UNL A   1      40.339  25.544  27.993  1.00  0.00     0.031 C 
ATOM     52  C   UNL A   1      45.185  24.224  28.289  1.00  0.00     0.029 A 
ATOM     53  N   UNL A   1      44.633  26.276  28.986  1.00  0.00    -0.354 N 
ATOM     54  C   UNL A   1      40.564  27.690  28.757  1.00  0.00     0.074 A 
ATOM     55  C   UNL A   1      39.688  26.680  28.204  1.00  0.00     0.031 C 
ATOM     56  C   UNL A   1      46.312  24.826  28.700  1.00  0.00     0.029 A 
ATOM     57  C   UNL A   1      45.994  26.182  29.137  1.00  0.00     0.049 A 
ATOM     58  H   UNL A   1      44.119  27.081  29.224  1.00  0.00     0.167 HD
ATOM     59  C   UNL A   1      40.156  28.919  29.154  1.00  0.00     0.031 A 
ATOM     60  C   UNL A   1      46.891  27.090  29.564  1.00  0.00     0.031 A 
ATOM     61  C   UNL A   1      41.025  29.924  29.706  1.00  0.00     0.049 A 
ATOM     62  C   UNL A   1      46.415  28.453  29.979  1.00  0.00     0.074 A 
ATOM     63  C   UNL A   1      40.697  31.180  30.184  1.00  0.00     0.029 A 
ATOM     64  N   UNL A   1      42.397  29.787  29.848  1.00  0.00    -0.354 N 
ATOM     65  N   UNL A   1      45.196  28.934  29.987  1.00  0.00    -0.248 NA
ATOM     66  C   UNL A   1      47.440  29.396  30.449  1.00  0.00     0.031 C 
ATOM     67  C   UNL A   1      41.877  31.821  30.575  1.00  0.00     0.029 A 
ATOM     68  C   UNL A   1      42.934  30.946  30.383  1.00  0.00     0.049 A 
ATOM     69  H   UNL A   1      42.914  28.985  29.604  1.00  0.00     0.167 HD
ATOM     70  C   UNL A   1      45.304  30.228  30.476  1.00  0.00     0.074 A 
ATOM     71  C   UNL A   1      46.704  30.451  30.773  1.00  0.00     0.031 C 
ATOM     72  C   UNL A   1      44.330  31.152  30.660  1.00  0.00     0.031 A 
BRANCH  59  73
ATOM     73  C   UNL A   1      38.697  29.244  29.005  1.00  0.00    -0.014 A 
ATOM     74  C   UNL A   1      37.815  29.129  30.093  1.00  0.00     0.009 A 
ATOM     75  C   UNL A   1      38.204  29.707  27.775  1.00  0.00     0.009 A 
ATOM     76  C   UNL A   1      36.463  29.444  29.941  1.00  0.00     0.001 A 
ATOM     77  C   UNL A   1      36.857  30.044  27.635  1.00  0.00     0.001 A 
ATOM     78  C   UNL A   1      35.986  29.905  28.715  1.00  0.00     0.000 A 
ENDBRANCH  59  73
BRANCH  60  79
ATOM     79  C   UNL A   1      48.333  26.742  29.620  1.00  0.00    -0.014 A 
ATOM     80  C   UNL A   1      49.170  26.998  28.524  1.00  0.00     0.009 A 
ATOM     81  C   UNL A   1      48.878  26.148  30.768  1.00  0.00     0.009 A 
ATOM     82  C   UNL A   1      50.520  26.642  28.569  1.00  0.00     0.001 A 
ATOM     83  C   UNL A   1      50.234  25.818  30.820  1.00  0.00     0.001 A 
ATOM     84  C   UNL A   1      51.051  26.057  29.718  1.00  0.00     0.000 A 
ENDBRANCH  60  79
BRANCH  72  85
ATOM     85  C   UNL A   1      44.748  32.482  31.219  1.00  0.00    -0.014 A 
ATOM     86  C   UNL A   1      44.812  32.695  32.605  1.00  0.00     0.009 A 
ATOM     87  C   UNL A   1      45.112  33.521  30.350  1.00  0.00     0.009 A 
ATOM     88  C   UNL A   1      45.208  33.935  33.108  1.00  0.00     0.001 A 
ATOM     89  C   UNL A   1      45.531  34.752  30.857  1.00  0.00     0.001 A 
ATOM     90  C   UNL A   1      45.570  34.961  32.235  1.00  0.00     0.000 A 
ENDBRANCH  72  85
ENDBRANCH  46  47
ENDBRANCH  38  41
ENDBRANCH  36  37
ENDBRANCH  35  36
ENDBRANCH  34  35
ENDBRANCH  33  34
ENDBRANCH   1  33
TORSDOF 19
ENDMDL
MODEL 3
REMARK VINA RESULT:     -10.9      2.160      8.041
REMARK SMILES COc1ccc(C(=O)Nc2ccccc2C(=O)N[C@@H](C(=O)NCCCCCCNC(=O)c2ccc(-c3c4nc(c(-c5ccccc5)c5ccc([nH]5)c(-c5ccccc5)c5nc(c(-c6ccccc6)c6ccc3[nH]6)C=C5)C=C4)cc2)C(C)C)cc1
REMARK SMILES IDX 24 1 23 2 22 3 20 4 21 5 19 7 18 8 16 9 17 10 15 12 10 13
REMARK SMILES IDX 11 14 12 15 14 16 13 17 9 18 7 19 8 20 6 22 3 23 4 24 84 25
REMARK SMILES IDX 5 26 83 27 2 28 1 29 80 30 81 31 82 32 25 33 26 34 27 35
REMARK SMILES IDX 28 36 29 37 30 38 31 40 32 41 33 42 79 43 34 44 78 45 35 46
REMARK SMILES IDX 36 47 37 48 72 49 38 50 77 51 71 52 73 53 39 54 76 55 70 56
REMARK SMILES IDX 69 57 40 59 62 60 47 61 61 62 48 63 51 64 60 65 74 66 49 67
REMARK SMILES IDX 50 68 59 70 75 71 52 72 41 73 42 74 46 75 43 76 45 77 44 78
REMARK SMILES IDX 63 79 64 80 68 81 65 82 67 83 66 84 53 85 54 86 58 87 55 88
REMARK SMILES IDX 57 89 56 90
REMARK H PARENT 22 6 18 11 9 21 29 39 73 58 51 69
REMARK Flexibility Score: inf
ROOT
ATOM      1  C   UNL A   1      33.652  26.595  23.589  1.00  0.00     0.021 C 
ENDROOT
BRANCH   1   2
ATOM      2  C   UNL A   1      33.413  25.890  22.251  1.00  0.00     0.116 C 
BRANCH   2   3
ATOM      3  N   UNL A   1      32.059  25.402  22.203  1.00  0.00    -0.354 N 
ATOM      4  C   UNL A   1      31.279  25.032  23.250  1.00  0.00     0.242 C 
ATOM      5  O   UNL A   1      30.493  24.104  23.033  1.00  0.00    -0.273 OA
ATOM      6  H   UNL A   1      31.653  25.329  21.309  1.00  0.00     0.163 HD
BRANCH   4   7
ATOM      7  C   UNL A   1      31.400  25.730  24.644  1.00  0.00     0.174 C 
BRANCH   7   8
ATOM      8  N   UNL A   1      31.324  24.681  25.675  1.00  0.00    -0.340 N 
ATOM      9  C   UNL A   1      32.039  23.535  25.969  1.00  0.00     0.254 C 
ATOM     10  O   UNL A   1      31.431  22.700  26.647  1.00  0.00    -0.269 OA
ATOM     11  H   UNL A   1      30.583  24.831  26.307  1.00  0.00     0.164 HD
BRANCH   9  12
ATOM     12  C   UNL A   1      33.436  23.173  25.528  1.00  0.00     0.063 A 
ATOM     13  C   UNL A   1      33.828  22.426  24.409  1.00  0.00     0.054 A 
ATOM     14  C   UNL A   1      35.171  22.019  24.255  1.00  0.00     0.027 A 
ATOM     15  C   UNL A   1      36.169  22.508  25.093  1.00  0.00     0.002 A 
ATOM     16  C   UNL A   1      34.475  23.677  26.348  1.00  0.00     0.016 A 
ATOM     17  C   UNL A   1      35.824  23.377  26.117  1.00  0.00     0.001 A 
BRANCH  13  18
ATOM     18  N   UNL A   1      33.036  22.178  23.278  1.00  0.00    -0.321 N 
ATOM     19  C   UNL A   1      32.382  20.994  23.000  1.00  0.00     0.255 C 
ATOM     20  O   UNL A   1      31.516  20.964  22.129  1.00  0.00    -0.269 OA
ATOM     21  H   UNL A   1      32.936  22.912  22.628  1.00  0.00     0.170 HD
BRANCH  19  22
ATOM     22  C   UNL A   1      32.642  19.779  23.796  1.00  0.00     0.040 A 
ATOM     23  C   UNL A   1      33.096  17.433  25.228  1.00  0.00     0.118 A 
ATOM     24  C   UNL A   1      33.168  17.418  23.843  1.00  0.00     0.047 A 
ATOM     25  C   UNL A   1      32.827  18.626  25.907  1.00  0.00     0.047 A 
ATOM     26  C   UNL A   1      32.906  18.582  23.134  1.00  0.00     0.017 A 
ATOM     27  C   UNL A   1      32.597  19.808  25.190  1.00  0.00     0.017 A 
BRANCH  23  28
ATOM     28  O   UNL A   1      33.334  16.237  25.842  1.00  0.00    -0.497 OA
ATOM     29  C   UNL A   1      32.441  15.210  25.427  1.00  0.00     0.278 C 
ENDBRANCH  23  28
ENDBRANCH  19  22
ENDBRANCH  13  18
ENDBRANCH   9  12
ENDBRANCH   7   8
BRANCH   7  30
ATOM     30  C   UNL A   1      30.191  26.746  24.664  1.00  0.00     0.015 C 
ATOM     31  C   UNL A   1      30.009  27.693  23.487  1.00  0.00     0.010 C 
ATOM     32  C   UNL A   1      28.874  25.984  24.866  1.00  0.00     0.010 C 
ENDBRANCH   7  30
ENDBRANCH   4   7
ENDBRANCH   2   3
ENDBRANCH   1   2
BRANCH   1  33
ATOM     33  C   UNL A   1      33.673  28.126  23.465  1.00  0.00     0.002 C 
BRANCH  33  34
ATOM     34  C   UNL A   1      33.448  28.867  24.787  1.00  0.00     0.002 C 
BRANCH  34  35
ATOM     35  C   UNL A   1      34.024  28.160  26.015  1.00  0.00     0.021 C 
BRANCH  35  36
ATOM     36  C   UNL A   1      33.391  28.586  27.337  1.00  0.00     0.116 C 
BRANCH  36  37
ATOM     37  N   UNL A   1      33.454  30.027  27.526  1.00  0.00    -0.352 N 
ATOM     38  C   UNL A   1      34.455  30.792  28.070  1.00  0.00     0.251 C 
ATOM     39  H   UNL A   1      32.663  30.526  27.220  1.00  0.00     0.163 HD
ATOM     40  O   UNL A   1      34.253  31.965  28.361  1.00  0.00    -0.269 OA
BRANCH  38  41
ATOM     41  C   UNL A   1      35.777  30.186  28.321  1.00  0.00     0.039 A 
ATOM     42  C   UNL A   1      36.720  30.170  27.291  1.00  0.00     0.014 A 
ATOM     43  C   UNL A   1      36.080  29.632  29.569  1.00  0.00     0.014 A 
ATOM     44  C   UNL A   1      37.996  29.662  27.535  1.00  0.00     0.010 A 
ATOM     45  C   UNL A   1      37.370  29.180  29.827  1.00  0.00     0.010 A 
ATOM     46  C   UNL A   1      38.342  29.199  28.815  1.00  0.00    -0.014 A 
BRANCH  46  47
ATOM     47  C   UNL A   1      39.723  28.761  29.126  1.00  0.00     0.031 A 
ATOM     48  C   UNL A   1      40.692  29.706  29.775  1.00  0.00     0.074 A 
ATOM     49  C   UNL A   1      40.123  27.531  28.751  1.00  0.00     0.049 A 
ATOM     50  N   UNL A   1      41.960  29.526  30.050  1.00  0.00    -0.248 NA
ATOM     51  C   UNL A   1      40.178  31.035  30.144  1.00  0.00     0.031 C 
ATOM     52  C   UNL A   1      39.287  26.536  28.075  1.00  0.00     0.029 A 
ATOM     53  N   UNL A   1      41.342  26.913  28.871  1.00  0.00    -0.354 N 
ATOM     54  C   UNL A   1      42.395  30.717  30.615  1.00  0.00     0.074 A 
ATOM     55  C   UNL A   1      41.271  31.628  30.603  1.00  0.00     0.031 C 
ATOM     56  C   UNL A   1      40.013  25.429  27.855  1.00  0.00     0.029 A 
ATOM     57  C   UNL A   1      41.373  25.649  28.338  1.00  0.00     0.049 A 
ATOM     58  H   UNL A   1      42.121  27.337  29.300  1.00  0.00     0.167 HD
ATOM     59  C   UNL A   1      43.618  31.019  31.113  1.00  0.00     0.031 A 
ATOM     60  C   UNL A   1      42.385  24.768  28.235  1.00  0.00     0.031 A 
ATOM     61  C   UNL A   1      44.736  30.113  31.126  1.00  0.00     0.049 A 
ATOM     62  C   UNL A   1      43.737  25.137  28.776  1.00  0.00     0.074 A 
ATOM     63  C   UNL A   1      45.999  30.311  31.655  1.00  0.00     0.029 A 
ATOM     64  N   UNL A   1      44.723  28.839  30.582  1.00  0.00    -0.354 N 
ATOM     65  N   UNL A   1      44.116  26.246  29.362  1.00  0.00    -0.248 NA
ATOM     66  C   UNL A   1      44.798  24.129  28.645  1.00  0.00     0.031 C 
ATOM     67  C   UNL A   1      46.766  29.172  31.391  1.00  0.00     0.029 A 
ATOM     68  C   UNL A   1      45.966  28.247  30.739  1.00  0.00     0.049 A 
ATOM     69  H   UNL A   1      43.947  28.417  30.147  1.00  0.00     0.167 HD
ATOM     70  C   UNL A   1      45.453  26.064  29.684  1.00  0.00     0.074 A 
ATOM     71  C   UNL A   1      45.815  24.731  29.247  1.00  0.00     0.031 C 
ATOM     72  C   UNL A   1      46.308  26.926  30.286  1.00  0.00     0.031 A 
BRANCH  59  73
ATOM     73  C   UNL A   1      43.809  32.394  31.686  1.00  0.00    -0.014 A 
ATOM     74  C   UNL A   1      43.573  32.649  33.047  1.00  0.00     0.009 A 
ATOM     75  C   UNL A   1      44.266  33.438  30.867  1.00  0.00     0.009 A 
ATOM     76  C   UNL A   1      43.764  33.931  33.569  1.00  0.00     0.001 A 
ATOM     77  C   UNL A   1      44.479  34.711  31.398  1.00  0.00     0.001 A 
ATOM     78  C   UNL A   1      44.221  34.959  32.745  1.00  0.00     0.000 A 
ENDBRANCH  59  73
BRANCH  60  79
ATOM     79  C   UNL A   1      42.161  23.451  27.589  1.00  0.00    -0.014 A 
ATOM     80  C   UNL A   1      42.502  23.249  26.244  1.00  0.00     0.009 A 
ATOM     81  C   UNL A   1      41.601  22.388  28.315  1.00  0.00     0.009 A 
ATOM     82  C   UNL A   1      42.263  22.017  25.631  1.00  0.00     0.001 A 
ATOM     83  C   UNL A   1      41.388  21.149  27.707  1.00  0.00     0.001 A 
ATOM     84  C   UNL A   1      41.711  20.968  26.364  1.00  0.00     0.000 A 
ENDBRANCH  60  79
BRANCH  72  85
ATOM     85  C   UNL A   1      47.712  26.446  30.516  1.00  0.00    -0.014 A 
ATOM     86  C   UNL A   1      48.087  25.864  31.737  1.00  0.00     0.009 A 
ATOM     87  C   UNL A   1      48.662  26.547  29.488  1.00  0.00     0.009 A 
ATOM     88  C   UNL A   1      49.395  25.417  31.932  1.00  0.00     0.001 A 
ATOM     89  C   UNL A   1      49.962  26.077  29.677  1.00  0.00     0.001 A 
ATOM     90  C   UNL A   1      50.329  25.520  30.902  1.00  0.00     0.000 A 
ENDBRANCH  72  85
ENDBRANCH  46  47
ENDBRANCH  38  41
ENDBRANCH  36  37
ENDBRANCH  35  36
ENDBRANCH  34  35
ENDBRANCH  33  34
ENDBRANCH   1  33
TORSDOF 19
ENDMDL
