MODEL 1
REMARK VINA RESULT:     -11.8      0.000      0.000
REMARK SMILES O=C(NCCCCCCNC(=O)c1ccccc1NC(=O)c1ccc(C[NH+]2CCOCC2)cc1)c1ccc(-c2c3nc(c(-c4ccccc4)c4ccc([nH]4)c(-c4ccccc4)c4nc(c(-c5ccccc5)c5ccc2[nH]5)C=C4)C=C3)cc1
REMARK SMILES IDX 7 1 6 2 5 3 4 4 3 5 1 6 2 7 35 9 36 10 82 11 37 12 81 13
REMARK SMILES IDX 38 14 39 15 40 16 75 17 41 18 80 19 74 20 76 21 42 22 79 23
REMARK SMILES IDX 73 24 72 25 43 27 65 28 50 29 64 30 51 31 54 32 63 33 77 34
REMARK SMILES IDX 52 35 53 36 62 38 78 39 55 40 44 41 45 42 49 43 46 44 48 45
REMARK SMILES IDX 47 46 66 47 67 48 71 49 68 50 70 51 69 52 56 53 57 54 61 55
REMARK SMILES IDX 58 56 60 57 59 58 8 59 9 60 10 61 11 62 12 64 13 65 14 66
REMARK SMILES IDX 18 67 15 68 17 69 16 70 19 71 20 72 21 74 22 75 23 76 34 77
REMARK SMILES IDX 24 78 33 79 25 80 26 81 27 82 28 83 32 84 29 86 31 87 30 88
REMARK H PARENT 3 8 76 26 54 37 10 63 19 73 27 85
REMARK Flexibility Score: inf
ROOT
ATOM      1  C   UNL A   1      33.264  28.918  24.582  1.00  0.00     0.002 C 
ENDROOT
BRANCH   1   2
ATOM      2  C   UNL A   1      32.117  28.621  25.555  1.00  0.00     0.002 C 
BRANCH   2   3
ATOM      3  C   UNL A   1      32.535  28.419  27.010  1.00  0.00     0.021 C 
BRANCH   3   4
ATOM      4  C   UNL A   1      33.894  29.003  27.367  1.00  0.00     0.116 C 
BRANCH   4   5
ATOM      5  N   UNL A   1      33.799  30.354  27.892  1.00  0.00    -0.352 N 
ATOM      6  O   UNL A   1      34.437  32.133  29.129  1.00  0.00    -0.269 OA
ATOM      7  C   UNL A   1      34.726  31.060  28.619  1.00  0.00     0.251 C 
ATOM      8  H   UNL A   1      32.957  30.827  27.702  1.00  0.00     0.163 HD
BRANCH   7   9
ATOM      9  C   UNL A   1      36.084  30.500  28.789  1.00  0.00     0.039 A 
ATOM     10  C   UNL A   1      36.998  30.526  27.731  1.00  0.00     0.014 A 
ATOM     11  C   UNL A   1      36.447  29.960  30.024  1.00  0.00     0.014 A 
ATOM     12  C   UNL A   1      38.239  29.918  27.875  1.00  0.00     0.010 A 
ATOM     13  C   UNL A   1      37.725  29.423  30.194  1.00  0.00     0.010 A 
ATOM     14  C   UNL A   1      38.627  29.394  29.118  1.00  0.00    -0.014 A 
BRANCH  14  15
ATOM     15  C   UNL A   1      40.026  28.943  29.312  1.00  0.00     0.031 A 
ATOM     16  C   UNL A   1      41.074  29.857  29.876  1.00  0.00     0.074 A 
ATOM     17  C   UNL A   1      40.341  27.686  28.943  1.00  0.00     0.049 A 
ATOM     18  N   UNL A   1      42.348  29.621  30.066  1.00  0.00    -0.248 NA
ATOM     19  C   UNL A   1      40.647  31.208  30.273  1.00  0.00     0.031 C 
ATOM     20  C   UNL A   1      39.402  26.714  28.372  1.00  0.00     0.029 A 
ATOM     21  N   UNL A   1      41.531  27.007  28.988  1.00  0.00    -0.354 N 
ATOM     22  C   UNL A   1      42.880  30.797  30.578  1.00  0.00     0.074 A 
ATOM     23  C   UNL A   1      41.794  31.750  30.662  1.00  0.00     0.031 C 
ATOM     24  C   UNL A   1      40.045  25.561  28.144  1.00  0.00     0.029 A 
ATOM     25  C   UNL A   1      41.452  25.732  28.481  1.00  0.00     0.049 A 
ATOM     26  H   UNL A   1      42.361  27.395  29.349  1.00  0.00     0.167 HD
ATOM     27  C   UNL A   1      44.161  31.052  30.940  1.00  0.00     0.031 A 
ATOM     28  C   UNL A   1      42.411  24.814  28.268  1.00  0.00     0.031 A 
ATOM     29  C   UNL A   1      45.232  30.093  30.854  1.00  0.00     0.049 A 
ATOM     30  C   UNL A   1      43.827  25.149  28.631  1.00  0.00     0.074 A 
ATOM     31  C   UNL A   1      46.548  30.236  31.259  1.00  0.00     0.029 A 
ATOM     32  N   UNL A   1      45.117  28.824  30.309  1.00  0.00    -0.354 N 
ATOM     33  N   UNL A   1      44.299  26.238  29.188  1.00  0.00    -0.248 NA
ATOM     34  C   UNL A   1      44.844  24.132  28.333  1.00  0.00     0.031 C 
ATOM     35  C   UNL A   1      47.246  29.081  30.895  1.00  0.00     0.029 A 
ATOM     36  C   UNL A   1      46.351  28.193  30.322  1.00  0.00     0.049 A 
ATOM     37  H   UNL A   1      44.284  28.428  29.965  1.00  0.00     0.167 HD
ATOM     38  C   UNL A   1      45.665  26.033  29.318  1.00  0.00     0.074 A 
ATOM     39  C   UNL A   1      45.941  24.705  28.809  1.00  0.00     0.031 C 
ATOM     40  C   UNL A   1      46.608  26.873  29.806  1.00  0.00     0.031 A 
BRANCH  27  41
ATOM     41  C   UNL A   1      44.499  32.432  31.430  1.00  0.00    -0.014 A 
ATOM     42  C   UNL A   1      44.840  33.464  30.541  1.00  0.00     0.009 A 
ATOM     43  C   UNL A   1      44.385  32.725  32.799  1.00  0.00     0.009 A 
ATOM     44  C   UNL A   1      45.076  34.756  31.019  1.00  0.00     0.001 A 
ATOM     45  C   UNL A   1      44.598  34.023  33.269  1.00  0.00     0.001 A 
ATOM     46  C   UNL A   1      44.948  35.036  32.379  1.00  0.00     0.000 A 
ENDBRANCH  27  41
BRANCH  28  47
ATOM     47  C   UNL A   1      42.071  23.517  27.626  1.00  0.00    -0.014 A 
ATOM     48  C   UNL A   1      42.457  23.244  26.307  1.00  0.00     0.009 A 
ATOM     49  C   UNL A   1      41.345  22.546  28.337  1.00  0.00     0.009 A 
ATOM     50  C   UNL A   1      42.095  22.038  25.701  1.00  0.00     0.001 A 
ATOM     51  C   UNL A   1      41.017  21.327  27.742  1.00  0.00     0.001 A 
ATOM     52  C   UNL A   1      41.380  21.080  26.420  1.00  0.00     0.000 A 
ENDBRANCH  28  47
BRANCH  40  53
ATOM     53  C   UNL A   1      48.024  26.373  29.829  1.00  0.00    -0.014 A 
ATOM     54  C   UNL A   1      48.552  25.747  30.969  1.00  0.00     0.009 A 
ATOM     55  C   UNL A   1      48.824  26.491  28.683  1.00  0.00     0.009 A 
ATOM     56  C   UNL A   1      49.864  25.271  30.967  1.00  0.00     0.001 A 
ATOM     57  C   UNL A   1      50.123  25.985  28.673  1.00  0.00     0.001 A 
ATOM     58  C   UNL A   1      50.645  25.384  29.817  1.00  0.00     0.000 A 
ENDBRANCH  40  53
ENDBRANCH  14  15
ENDBRANCH   7   9
ENDBRANCH   4   5
ENDBRANCH   3   4
ENDBRANCH   2   3
ENDBRANCH   1   2
BRANCH   1  59
ATOM     59  C   UNL A   1      32.883  28.953  23.096  1.00  0.00     0.021 C 
BRANCH  59  60
ATOM     60  C   UNL A   1      31.441  28.555  22.794  1.00  0.00     0.116 C 
BRANCH  60  61
ATOM     61  N   UNL A   1      31.379  27.374  21.951  1.00  0.00    -0.352 N 
ATOM     62  C   UNL A   1      31.499  26.052  22.283  1.00  0.00     0.253 C 
ATOM     63  H   UNL A   1      31.227  27.551  20.994  1.00  0.00     0.163 HD
ATOM     64  O   UNL A   1      31.641  25.210  21.400  1.00  0.00    -0.269 OA
BRANCH  62  65
ATOM     65  C   UNL A   1      31.428  25.612  23.691  1.00  0.00     0.063 A 
ATOM     66  C   UNL A   1      30.196  25.792  24.339  1.00  0.00     0.016 A 
ATOM     67  C   UNL A   1      32.548  25.119  24.389  1.00  0.00     0.054 A 
ATOM     68  C   UNL A   1      30.064  25.487  25.691  1.00  0.00     0.001 A 
ATOM     69  C   UNL A   1      32.409  24.917  25.767  1.00  0.00     0.027 A 
ATOM     70  C   UNL A   1      31.177  25.072  26.409  1.00  0.00     0.002 A 
BRANCH  67  71
ATOM     71  N   UNL A   1      33.740  24.846  23.676  1.00  0.00    -0.321 N 
ATOM     72  C   UNL A   1      34.441  23.686  23.451  1.00  0.00     0.255 C 
ATOM     73  H   UNL A   1      34.145  25.642  23.262  1.00  0.00     0.170 HD
ATOM     74  O   UNL A   1      35.422  23.681  22.711  1.00  0.00    -0.269 OA
BRANCH  72  75
ATOM     75  C   UNL A   1      34.021  22.422  24.063  1.00  0.00     0.040 A 
ATOM     76  C   UNL A   1      32.993  21.722  23.433  1.00  0.00     0.014 A 
ATOM     77  C   UNL A   1      34.691  21.894  25.171  1.00  0.00     0.014 A 
ATOM     78  C   UNL A   1      32.660  20.452  23.888  1.00  0.00     0.010 A 
ATOM     79  C   UNL A   1      34.353  20.619  25.620  1.00  0.00     0.010 A 
ATOM     80  C   UNL A   1      33.320  19.898  24.998  1.00  0.00     0.006 A 
BRANCH  80  81
ATOM     81  C   UNL A   1      32.873  18.565  25.546  1.00  0.00     0.299 C 
BRANCH  81  82
ATOM     82  N   UNL A   1      33.013  17.418  24.649  1.00  0.00    -0.327 N 
ATOM     83  C   UNL A   1      32.167  16.253  24.953  1.00  0.00     0.291 C 
ATOM     84  C   UNL A   1      34.393  17.008  24.346  1.00  0.00     0.291 C 
ATOM     85  H   UNL A   1      32.640  17.817  23.787  1.00  0.00     0.348 HD
ATOM     86  C   UNL A   1      32.821  15.166  25.828  1.00  0.00     0.221 C 
ATOM     87  C   UNL A   1      34.968  15.898  25.243  1.00  0.00     0.221 C 
ATOM     88  O   UNL A   1      34.091  14.769  25.299  1.00  0.00    -0.370 OA
ENDBRANCH  81  82
ENDBRANCH  80  81
ENDBRANCH  72  75
ENDBRANCH  67  71
ENDBRANCH  62  65
ENDBRANCH  60  61
ENDBRANCH  59  60
ENDBRANCH   1  59
TORSDOF 17
ENDMDL
MODEL 2
REMARK VINA RESULT:     -11.8      2.030      6.970
REMARK SMILES O=C(NCCCCCCNC(=O)c1ccccc1NC(=O)c1ccc(C[NH+]2CCOCC2)cc1)c1ccc(-c2c3nc(c(-c4ccccc4)c4ccc([nH]4)c(-c4ccccc4)c4nc(c(-c5ccccc5)c5ccc2[nH]5)C=C4)C=C3)cc1
REMARK SMILES IDX 7 1 6 2 5 3 4 4 3 5 1 6 2 7 35 9 36 10 82 11 37 12 81 13
REMARK SMILES IDX 38 14 39 15 40 16 75 17 41 18 80 19 74 20 76 21 42 22 79 23
REMARK SMILES IDX 73 24 72 25 43 27 65 28 50 29 64 30 51 31 54 32 63 33 77 34
REMARK SMILES IDX 52 35 53 36 62 38 78 39 55 40 44 41 45 42 49 43 46 44 48 45
REMARK SMILES IDX 47 46 66 47 67 48 71 49 68 50 70 51 69 52 56 53 57 54 61 55
REMARK SMILES IDX 58 56 60 57 59 58 8 59 9 60 10 61 11 62 12 64 13 65 14 66
REMARK SMILES IDX 18 67 15 68 17 69 16 70 19 71 20 72 21 74 22 75 23 76 34 77
REMARK SMILES IDX 24 78 33 79 25 80 26 81 27 82 28 83 32 84 29 86 31 87 30 88
REMARK H PARENT 3 8 76 26 54 37 10 63 19 73 27 85
REMARK Flexibility Score: inf
ROOT
ATOM      1  C   UNL A   1      36.501  22.031  25.797  1.00  0.00     0.002 C 
ENDROOT
BRANCH   1   2
ATOM      2  C   UNL A   1      36.999  21.256  24.572  1.00  0.00     0.002 C 
BRANCH   2   3
ATOM      3  C   UNL A   1      37.862  20.035  24.882  1.00  0.00     0.021 C 
BRANCH   3   4
ATOM      4  C   UNL A   1      38.912  20.257  25.960  1.00  0.00     0.116 C 
BRANCH   4   5
ATOM      5  N   UNL A   1      40.017  19.319  25.863  1.00  0.00    -0.352 N 
ATOM      6  O   UNL A   1      42.185  18.693  25.760  1.00  0.00    -0.269 OA
ATOM      7  C   UNL A   1      41.360  19.553  26.033  1.00  0.00     0.251 C 
ATOM      8  H   UNL A   1      39.771  18.391  25.645  1.00  0.00     0.163 HD
BRANCH   7   9
ATOM      9  C   UNL A   1      41.800  20.869  26.543  1.00  0.00     0.039 A 
ATOM     10  C   UNL A   1      42.150  21.892  25.654  1.00  0.00     0.014 A 
ATOM     11  C   UNL A   1      41.847  21.084  27.922  1.00  0.00     0.014 A 
ATOM     12  C   UNL A   1      42.645  23.093  26.145  1.00  0.00     0.010 A 
ATOM     13  C   UNL A   1      42.267  22.322  28.413  1.00  0.00     0.010 A 
ATOM     14  C   UNL A   1      42.674  23.333  27.527  1.00  0.00    -0.014 A 
BRANCH  14  15
ATOM     15  C   UNL A   1      43.004  24.690  28.023  1.00  0.00     0.031 A 
ATOM     16  C   UNL A   1      41.934  25.704  28.305  1.00  0.00     0.074 A 
ATOM     17  C   UNL A   1      44.303  25.002  28.194  1.00  0.00     0.049 A 
ATOM     18  N   UNL A   1      42.067  26.944  28.703  1.00  0.00    -0.248 NA
ATOM     19  C   UNL A   1      40.538  25.280  28.113  1.00  0.00     0.031 C 
ATOM     20  C   UNL A   1      45.429  24.096  27.939  1.00  0.00     0.029 A 
ATOM     21  N   UNL A   1      44.903  26.159  28.618  1.00  0.00    -0.354 N 
ATOM     22  C   UNL A   1      40.779  27.458  28.784  1.00  0.00     0.074 A 
ATOM     23  C   UNL A   1      39.877  26.398  28.386  1.00  0.00     0.031 C 
ATOM     24  C   UNL A   1      46.576  24.723  28.234  1.00  0.00     0.029 A 
ATOM     25  C   UNL A   1      46.275  26.093  28.627  1.00  0.00     0.049 A 
ATOM     26  H   UNL A   1      44.398  26.961  28.890  1.00  0.00     0.167 HD
ATOM     27  C   UNL A   1      40.393  28.702  29.154  1.00  0.00     0.031 A 
ATOM     28  C   UNL A   1      47.195  27.040  28.879  1.00  0.00     0.031 A 
ATOM     29  C   UNL A   1      41.302  29.747  29.551  1.00  0.00     0.049 A 
ATOM     30  C   UNL A   1      46.733  28.422  29.235  1.00  0.00     0.074 A 
ATOM     31  C   UNL A   1      41.003  31.020  30.008  1.00  0.00     0.029 A 
ATOM     32  N   UNL A   1      42.684  29.649  29.520  1.00  0.00    -0.354 N 
ATOM     33  N   UNL A   1      45.510  28.869  29.383  1.00  0.00    -0.248 NA
ATOM     34  C   UNL A   1      47.777  29.432  29.453  1.00  0.00     0.031 C 
ATOM     35  C   UNL A   1      42.203  31.715  30.184  1.00  0.00     0.029 A 
ATOM     36  C   UNL A   1      43.251  30.855  29.900  1.00  0.00     0.049 A 
ATOM     37  H   UNL A   1      43.189  28.843  29.266  1.00  0.00     0.167 HD
ATOM     38  C   UNL A   1      45.637  30.207  29.724  1.00  0.00     0.074 A 
ATOM     39  C   UNL A   1      47.056  30.492  29.788  1.00  0.00     0.031 C 
ATOM     40  C   UNL A   1      44.665  31.121  29.953  1.00  0.00     0.031 A 
BRANCH  27  41
ATOM     41  C   UNL A   1      38.927  29.032  29.117  1.00  0.00    -0.014 A 
ATOM     42  C   UNL A   1      38.120  28.926  30.261  1.00  0.00     0.009 A 
ATOM     43  C   UNL A   1      38.366  29.544  27.936  1.00  0.00     0.009 A 
ATOM     44  C   UNL A   1      36.778  29.311  30.215  1.00  0.00     0.001 A 
ATOM     45  C   UNL A   1      37.030  29.951  27.900  1.00  0.00     0.001 A 
ATOM     46  C   UNL A   1      36.236  29.829  29.039  1.00  0.00     0.000 A 
ENDBRANCH  27  41
BRANCH  28  47
ATOM     47  C   UNL A   1      48.642  26.726  28.746  1.00  0.00    -0.014 A 
ATOM     48  C   UNL A   1      49.286  26.815  27.503  1.00  0.00     0.009 A 
ATOM     49  C   UNL A   1      49.386  26.326  29.869  1.00  0.00     0.009 A 
ATOM     50  C   UNL A   1      50.637  26.478  27.383  1.00  0.00     0.001 A 
ATOM     51  C   UNL A   1      50.743  26.025  29.752  1.00  0.00     0.001 A 
ATOM     52  C   UNL A   1      51.364  26.088  28.508  1.00  0.00     0.000 A 
ENDBRANCH  28  47
BRANCH  40  53
ATOM     53  C   UNL A   1      45.104  32.512  30.313  1.00  0.00    -0.014 A 
ATOM     54  C   UNL A   1      45.502  32.831  31.621  1.00  0.00     0.009 A 
ATOM     55  C   UNL A   1      45.163  33.503  29.321  1.00  0.00     0.009 A 
ATOM     56  C   UNL A   1      45.926  34.122  31.933  1.00  0.00     0.001 A 
ATOM     57  C   UNL A   1      45.618  34.785  29.630  1.00  0.00     0.001 A 
ATOM     58  C   UNL A   1      45.990  35.096  30.936  1.00  0.00     0.000 A 
ENDBRANCH  40  53
ENDBRANCH  14  15
ENDBRANCH   7   9
ENDBRANCH   4   5
ENDBRANCH   3   4
ENDBRANCH   2   3
ENDBRANCH   1   2
BRANCH   1  59
ATOM     59  C   UNL A   1      36.411  23.553  25.629  1.00  0.00     0.021 C 
BRANCH  59  60
ATOM     60  C   UNL A   1      35.135  24.050  24.955  1.00  0.00     0.116 C 
BRANCH  60  61
ATOM     61  N   UNL A   1      34.548  25.165  25.679  1.00  0.00    -0.352 N 
ATOM     62  C   UNL A   1      33.680  26.131  25.247  1.00  0.00     0.253 C 
ATOM     63  H   UNL A   1      34.815  25.236  26.624  1.00  0.00     0.163 HD
ATOM     64  O   UNL A   1      33.469  27.119  25.944  1.00  0.00    -0.269 OA
BRANCH  62  65
ATOM     65  C   UNL A   1      32.963  25.991  23.963  1.00  0.00     0.063 A 
ATOM     66  C   UNL A   1      33.737  26.120  22.800  1.00  0.00     0.016 A 
ATOM     67  C   UNL A   1      31.566  25.824  23.889  1.00  0.00     0.054 A 
ATOM     68  C   UNL A   1      33.130  26.090  21.547  1.00  0.00     0.001 A 
ATOM     69  C   UNL A   1      30.977  25.898  22.622  1.00  0.00     0.027 A 
ATOM     70  C   UNL A   1      31.748  26.002  21.460  1.00  0.00     0.002 A 
BRANCH  67  71
ATOM     71  N   UNL A   1      30.835  25.585  25.077  1.00  0.00    -0.321 N 
ATOM     72  C   UNL A   1      30.734  24.489  25.899  1.00  0.00     0.255 C 
ATOM     73  H   UNL A   1      30.294  26.353  25.371  1.00  0.00     0.170 HD
ATOM     74  O   UNL A   1      30.094  24.548  26.946  1.00  0.00    -0.269 OA
BRANCH  72  75
ATOM     75  C   UNL A   1      31.412  23.233  25.565  1.00  0.00     0.040 A 
ATOM     76  C   UNL A   1      31.359  22.815  24.236  1.00  0.00     0.014 A 
ATOM     77  C   UNL A   1      32.164  22.538  26.518  1.00  0.00     0.014 A 
ATOM     78  C   UNL A   1      32.106  21.713  23.842  1.00  0.00     0.010 A 
ATOM     79  C   UNL A   1      32.914  21.435  26.115  1.00  0.00     0.010 A 
ATOM     80  C   UNL A   1      32.872  20.999  24.779  1.00  0.00     0.006 A 
BRANCH  80  81
ATOM     81  C   UNL A   1      33.591  19.742  24.357  1.00  0.00     0.299 C 
BRANCH  81  82
ATOM     82  N   UNL A   1      32.760  18.552  24.177  1.00  0.00    -0.327 N 
ATOM     83  C   UNL A   1      32.574  17.708  25.368  1.00  0.00     0.291 C 
ATOM     84  C   UNL A   1      33.060  17.737  22.989  1.00  0.00     0.291 C 
ATOM     85  H   UNL A   1      31.856  18.990  23.999  1.00  0.00     0.348 HD
ATOM     86  C   UNL A   1      33.559  16.532  25.511  1.00  0.00     0.221 C 
ATOM     87  C   UNL A   1      34.030  16.564  23.217  1.00  0.00     0.221 C 
ATOM     88  O   UNL A   1      33.610  15.748  24.315  1.00  0.00    -0.370 OA
ENDBRANCH  81  82
ENDBRANCH  80  81
ENDBRANCH  72  75
ENDBRANCH  67  71
ENDBRANCH  62  65
ENDBRANCH  60  61
ENDBRANCH  59  60
ENDBRANCH   1  59
TORSDOF 17
ENDMDL
MODEL 3
REMARK VINA RESULT:     -11.8      2.930      6.839
REMARK SMILES O=C(NCCCCCCNC(=O)c1ccccc1NC(=O)c1ccc(C[NH+]2CCOCC2)cc1)c1ccc(-c2c3nc(c(-c4ccccc4)c4ccc([nH]4)c(-c4ccccc4)c4nc(c(-c5ccccc5)c5ccc2[nH]5)C=C4)C=C3)cc1
REMARK SMILES IDX 7 1 6 2 5 3 4 4 3 5 1 6 2 7 35 9 36 10 82 11 37 12 81 13
REMARK SMILES IDX 38 14 39 15 40 16 75 17 41 18 80 19 74 20 76 21 42 22 79 23
REMARK SMILES IDX 73 24 72 25 43 27 65 28 50 29 64 30 51 31 54 32 63 33 77 34
REMARK SMILES IDX 52 35 53 36 62 38 78 39 55 40 44 41 45 42 49 43 46 44 48 45
REMARK SMILES IDX 47 46 66 47 67 48 71 49 68 50 70 51 69 52 56 53 57 54 61 55
REMARK SMILES IDX 58 56 60 57 59 58 8 59 9 60 10 61 11 62 12 64 13 65 14 66
REMARK SMILES IDX 18 67 15 68 17 69 16 70 19 71 20 72 21 74 22 75 23 76 34 77
REMARK SMILES IDX 24 78 33 79 25 80 26 81 27 82 28 83 32 84 29 86 31 87 30 88
REMARK H PARENT 3 8 76 26 54 37 10 63 19 73 27 85
REMARK Flexibility Score: inf
ROOT
ATOM      1  C   UNL A   1      32.888  29.396  25.580  1.00  0.00     0.002 C 
ENDROOT
BRANCH   1   2
ATOM      2  C   UNL A   1      31.594  30.205  25.442  1.00  0.00     0.002 C 
BRANCH   2   3
ATOM      3  C   UNL A   1      31.369  31.262  26.521  1.00  0.00     0.021 C 
BRANCH   3   4
ATOM      4  C   UNL A   1      32.620  32.022  26.936  1.00  0.00     0.116 C 
BRANCH   4   5
ATOM      5  N   UNL A   1      32.340  33.401  27.296  1.00  0.00    -0.352 N 
ATOM      6  O   UNL A   1      32.530  35.289  28.520  1.00  0.00    -0.269 OA
ATOM      7  C   UNL A   1      32.984  34.197  28.211  1.00  0.00     0.251 C 
ATOM      8  H   UNL A   1      31.587  33.821  26.820  1.00  0.00     0.163 HD
BRANCH   7   9
ATOM      9  C   UNL A   1      34.235  33.711  28.831  1.00  0.00     0.039 A 
ATOM     10  C   UNL A   1      34.193  32.776  29.870  1.00  0.00     0.014 A 
ATOM     11  C   UNL A   1      35.459  34.185  28.355  1.00  0.00     0.014 A 
ATOM     12  C   UNL A   1      35.369  32.394  30.503  1.00  0.00     0.010 A 
ATOM     13  C   UNL A   1      36.647  33.736  28.938  1.00  0.00     0.010 A 
ATOM     14  C   UNL A   1      36.608  32.842  30.020  1.00  0.00    -0.014 A 
BRANCH  14  15
ATOM     15  C   UNL A   1      37.856  32.261  30.570  1.00  0.00     0.031 A 
ATOM     16  C   UNL A   1      38.480  31.034  29.971  1.00  0.00     0.074 A 
ATOM     17  C   UNL A   1      38.409  32.853  31.646  1.00  0.00     0.049 A 
ATOM     18  N   UNL A   1      39.547  30.384  30.365  1.00  0.00    -0.248 NA
ATOM     19  C   UNL A   1      37.828  30.457  28.785  1.00  0.00     0.031 C 
ATOM     20  C   UNL A   1      37.879  34.045  32.317  1.00  0.00     0.029 A 
ATOM     21  N   UNL A   1      39.531  32.541  32.368  1.00  0.00    -0.354 N 
ATOM     22  C   UNL A   1      39.679  29.309  29.495  1.00  0.00     0.074 A 
ATOM     23  C   UNL A   1      38.580  29.388  28.556  1.00  0.00     0.031 C 
ATOM     24  C   UNL A   1      38.687  34.375  33.334  1.00  0.00     0.029 A 
ATOM     25  C   UNL A   1      39.747  33.380  33.433  1.00  0.00     0.049 A 
ATOM     26  H   UNL A   1      40.125  31.787  32.144  1.00  0.00     0.167 HD
ATOM     27  C   UNL A   1      40.633  28.347  29.488  1.00  0.00     0.031 A 
ATOM     28  C   UNL A   1      40.668  33.334  34.411  1.00  0.00     0.031 A 
ATOM     29  C   UNL A   1      41.723  28.282  30.427  1.00  0.00     0.049 A 
ATOM     30  C   UNL A   1      41.677  32.224  34.404  1.00  0.00     0.074 A 
ATOM     31  C   UNL A   1      42.777  27.384  30.460  1.00  0.00     0.029 A 
ATOM     32  N   UNL A   1      41.890  29.134  31.508  1.00  0.00    -0.354 N 
ATOM     33  N   UNL A   1      41.836  31.261  33.529  1.00  0.00    -0.248 NA
ATOM     34  C   UNL A   1      42.631  32.190  35.521  1.00  0.00     0.031 C 
ATOM     35  C   UNL A   1      43.541  27.648  31.601  1.00  0.00     0.029 A 
ATOM     36  C   UNL A   1      43.001  28.751  32.242  1.00  0.00     0.049 A 
ATOM     37  H   UNL A   1      41.308  29.899  31.721  1.00  0.00     0.167 HD
ATOM     38  C   UNL A   1      42.913  30.514  33.981  1.00  0.00     0.074 A 
ATOM     39  C   UNL A   1      43.388  31.152  35.192  1.00  0.00     0.031 C 
ATOM     40  C   UNL A   1      43.455  29.395  33.447  1.00  0.00     0.031 A 
BRANCH  27  41
ATOM     41  C   UNL A   1      40.532  27.254  28.462  1.00  0.00    -0.014 A 
ATOM     42  C   UNL A   1      39.831  26.065  28.720  1.00  0.00     0.009 A 
ATOM     43  C   UNL A   1      41.072  27.459  27.181  1.00  0.00     0.009 A 
ATOM     44  C   UNL A   1      39.690  25.098  27.721  1.00  0.00     0.001 A 
ATOM     45  C   UNL A   1      40.907  26.501  26.178  1.00  0.00     0.001 A 
ATOM     46  C   UNL A   1      40.220  25.320  26.450  1.00  0.00     0.000 A 
ENDBRANCH  27  41
BRANCH  28  47
ATOM     47  C   UNL A   1      40.640  34.337  35.509  1.00  0.00    -0.014 A 
ATOM     48  C   UNL A   1      39.854  34.131  36.651  1.00  0.00     0.009 A 
ATOM     49  C   UNL A   1      41.400  35.515  35.410  1.00  0.00     0.009 A 
ATOM     50  C   UNL A   1      39.804  35.099  37.657  1.00  0.00     0.001 A 
ATOM     51  C   UNL A   1      41.376  36.464  36.432  1.00  0.00     0.001 A 
ATOM     52  C   UNL A   1      40.568  36.262  37.549  1.00  0.00     0.000 A 
ENDBRANCH  28  47
BRANCH  40  53
ATOM     53  C   UNL A   1      44.635  28.798  34.161  1.00  0.00    -0.014 A 
ATOM     54  C   UNL A   1      45.943  29.220  33.876  1.00  0.00     0.009 A 
ATOM     55  C   UNL A   1      44.431  27.835  35.160  1.00  0.00     0.009 A 
ATOM     56  C   UNL A   1      47.026  28.669  34.561  1.00  0.00     0.001 A 
ATOM     57  C   UNL A   1      45.513  27.309  35.866  1.00  0.00     0.001 A 
ATOM     58  C   UNL A   1      46.809  27.721  35.561  1.00  0.00     0.000 A 
ENDBRANCH  40  53
ENDBRANCH  14  15
ENDBRANCH   7   9
ENDBRANCH   4   5
ENDBRANCH   3   4
ENDBRANCH   2   3
ENDBRANCH   1   2
BRANCH   1  59
ATOM     59  C   UNL A   1      33.688  29.194  24.287  1.00  0.00     0.021 C 
BRANCH  59  60
ATOM     60  C   UNL A   1      32.841  29.053  23.024  1.00  0.00     0.116 C 
BRANCH  60  61
ATOM     61  N   UNL A   1      33.165  27.838  22.297  1.00  0.00    -0.352 N 
ATOM     62  C   UNL A   1      32.974  26.529  22.648  1.00  0.00     0.253 C 
ATOM     63  H   UNL A   1      33.586  27.978  21.417  1.00  0.00     0.163 HD
ATOM     64  O   UNL A   1      33.515  25.638  21.999  1.00  0.00    -0.269 OA
BRANCH  62  65
ATOM     65  C   UNL A   1      32.098  26.165  23.779  1.00  0.00     0.063 A 
ATOM     66  C   UNL A   1      30.716  26.248  23.548  1.00  0.00     0.016 A 
ATOM     67  C   UNL A   1      32.600  25.835  25.053  1.00  0.00     0.054 A 
ATOM     68  C   UNL A   1      29.817  26.008  24.584  1.00  0.00     0.001 A 
ATOM     69  C   UNL A   1      31.675  25.699  26.093  1.00  0.00     0.027 A 
ATOM     70  C   UNL A   1      30.298  25.756  25.861  1.00  0.00     0.002 A 
BRANCH  67  71
ATOM     71  N   UNL A   1      33.995  25.653  25.218  1.00  0.00    -0.321 N 
ATOM     72  C   UNL A   1      34.776  24.527  25.321  1.00  0.00     0.255 C 
ATOM     73  H   UNL A   1      34.501  26.495  25.270  1.00  0.00     0.170 HD
ATOM     74  O   UNL A   1      36.001  24.618  25.370  1.00  0.00    -0.269 OA
BRANCH  72  75
ATOM     75  C   UNL A   1      34.173  23.192  25.343  1.00  0.00     0.040 A 
ATOM     76  C   UNL A   1      33.764  22.658  24.122  1.00  0.00     0.014 A 
ATOM     77  C   UNL A   1      34.105  22.446  26.525  1.00  0.00     0.014 A 
ATOM     78  C   UNL A   1      33.324  21.342  24.071  1.00  0.00     0.010 A 
ATOM     79  C   UNL A   1      33.665  21.125  26.466  1.00  0.00     0.010 A 
ATOM     80  C   UNL A   1      33.249  20.570  25.244  1.00  0.00     0.006 A 
BRANCH  80  81
ATOM     81  C   UNL A   1      32.667  19.179  25.188  1.00  0.00     0.299 C 
BRANCH  81  82
ATOM     82  N   UNL A   1      33.591  18.080  25.467  1.00  0.00    -0.327 N 
ATOM     83  C   UNL A   1      34.571  17.778  24.411  1.00  0.00     0.291 C 
ATOM     84  C   UNL A   1      32.981  16.850  25.994  1.00  0.00     0.291 C 
ATOM     85  H   UNL A   1      34.124  18.486  26.237  1.00  0.00     0.348 HD
ATOM     86  C   UNL A   1      34.160  16.675  23.417  1.00  0.00     0.221 C 
ATOM     87  C   UNL A   1      32.624  15.784  24.944  1.00  0.00     0.221 C 
ATOM     88  O   UNL A   1      33.742  15.489  24.101  1.00  0.00    -0.370 OA
ENDBRANCH  81  82
ENDBRANCH  80  81
ENDBRANCH  72  75
ENDBRANCH  67  71
ENDBRANCH  62  65
ENDBRANCH  60  61
ENDBRANCH  59  60
ENDBRANCH   1  59
TORSDOF 17
ENDMDL
