MODEL 1
REMARK VINA RESULT:     -15.2      0.000      0.000
REMARK SMILES O=C(NCCCCCCNC(=O)[C@]1(NC(=O)C2CCN(C(=O)C3CC3)CC2)CCCc2ccccc21)c1ccc(-c2c3nc(c(-c4ccccc4)c4ccc([nH]4)c(-c4ccccc4)c4nc(c(-c5ccccc5)c5ccc2[nH]5)C=C4)C=C3)cc1
REMARK SMILES IDX 7 1 6 2 5 3 4 4 3 5 1 6 2 7 37 9 38 10 84 11 39 12 83 13
REMARK SMILES IDX 40 14 41 15 42 16 77 17 43 18 82 19 76 20 78 21 44 22 81 23
REMARK SMILES IDX 75 24 74 25 45 27 67 28 52 29 66 30 53 31 56 32 65 33 79 34
REMARK SMILES IDX 54 35 55 36 64 38 80 39 57 40 46 41 47 42 51 43 48 44 50 45
REMARK SMILES IDX 49 46 68 47 69 48 73 49 70 50 72 51 71 52 58 53 59 54 63 55
REMARK SMILES IDX 60 56 62 57 61 58 8 59 9 60 10 61 11 62 12 64 13 65 28 66
REMARK SMILES IDX 36 67 29 68 31 69 35 70 30 71 32 72 34 73 33 74 14 75 15 76
REMARK SMILES IDX 16 78 17 79 18 80 27 81 19 82 26 83 20 84 21 85 22 86 23 87
REMARK SMILES IDX 24 88 25 89
REMARK H PARENT 3 8 78 26 56 37 10 63 14 77
REMARK Flexibility Score: inf
ROOT
ATOM      1  C   UNL A   1      35.130  31.461  28.644  1.00  0.00     0.002 C 
ENDROOT
BRANCH   1   2
ATOM      2  C   UNL A   1      35.112  33.314  28.111  1.00  0.00     0.002 C 
BRANCH   2   3
ATOM      3  C   UNL A   1      33.650  34.487  28.543  1.00  0.00     0.021 C 
BRANCH   3   4
ATOM      4  C   UNL A   1      33.543  35.952  29.492  1.00  0.00     0.116 C 
BRANCH   4   5
ATOM      5  N   UNL A   1      32.953  36.022  30.881  1.00  0.00    -0.352 N 
ATOM      6  O   UNL A   1      32.118  34.985  32.777  1.00  0.00    -0.269 OA
ATOM      7  C   UNL A   1      32.981  35.150  31.950  1.00  0.00     0.251 C 
ATOM      8  H   UNL A   1      32.452  36.851  31.058  1.00  0.00     0.163 HD
BRANCH   7   9
ATOM      9  C   UNL A   1      34.301  34.612  32.145  1.00  0.00     0.039 A 
ATOM     10  C   UNL A   1      34.243  33.237  32.373  1.00  0.00     0.014 A 
ATOM     11  C   UNL A   1      35.417  35.417  32.341  1.00  0.00     0.014 A 
ATOM     12  C   UNL A   1      35.294  32.661  33.001  1.00  0.00     0.010 A 
ATOM     13  C   UNL A   1      36.536  34.798  32.848  1.00  0.00     0.010 A 
ATOM     14  C   UNL A   1      36.449  33.434  33.174  1.00  0.00    -0.014 A 
BRANCH  14  15
ATOM     15  C   UNL A   1      37.638  32.667  33.483  1.00  0.00     0.031 A 
ATOM     16  C   UNL A   1      38.226  31.783  32.461  1.00  0.00     0.074 A 
ATOM     17  C   UNL A   1      38.179  32.970  34.674  1.00  0.00     0.049 A 
ATOM     18  N   UNL A   1      39.326  31.096  32.541  1.00  0.00    -0.248 NA
ATOM     19  C   UNL A   1      37.497  31.639  31.189  1.00  0.00     0.031 C 
ATOM     20  C   UNL A   1      37.595  33.914  35.645  1.00  0.00     0.029 A 
ATOM     21  N   UNL A   1      39.348  32.588  35.243  1.00  0.00    -0.354 N 
ATOM     22  C   UNL A   1      39.408  30.400  31.349  1.00  0.00     0.074 A 
ATOM     23  C   UNL A   1      38.254  30.756  30.552  1.00  0.00     0.031 C 
ATOM     24  C   UNL A   1      38.451  34.090  36.655  1.00  0.00     0.029 A 
ATOM     25  C   UNL A   1      39.567  33.186  36.457  1.00  0.00     0.049 A 
ATOM     26  H   UNL A   1      39.972  31.950  34.829  1.00  0.00     0.167 HD
ATOM     27  C   UNL A   1      40.371  29.521  31.001  1.00  0.00     0.031 A 
ATOM     28  C   UNL A   1      40.552  32.969  37.337  1.00  0.00     0.031 A 
ATOM     29  C   UNL A   1      41.464  29.199  31.883  1.00  0.00     0.049 A 
ATOM     30  C   UNL A   1      41.571  31.956  36.940  1.00  0.00     0.074 A 
ATOM     31  C   UNL A   1      42.504  28.315  31.687  1.00  0.00     0.029 A 
ATOM     32  N   UNL A   1      41.638  29.757  33.149  1.00  0.00    -0.354 N 
ATOM     33  N   UNL A   1      41.647  31.273  35.820  1.00  0.00    -0.248 NA
ATOM     34  C   UNL A   1      42.624  31.670  37.910  1.00  0.00     0.031 C 
ATOM     35  C   UNL A   1      43.276  28.298  32.857  1.00  0.00     0.029 A 
ATOM     36  C   UNL A   1      42.757  29.221  33.757  1.00  0.00     0.049 A 
ATOM     37  H   UNL A   1      41.050  30.437  33.551  1.00  0.00     0.167 HD
ATOM     38  C   UNL A   1      42.762  30.470  35.941  1.00  0.00     0.074 A 
ATOM     39  C   UNL A   1      43.340  30.773  37.243  1.00  0.00     0.031 C 
ATOM     40  C   UNL A   1      43.268  29.566  35.064  1.00  0.00     0.031 A 
BRANCH  27  41
ATOM     41  C   UNL A   1      40.209  28.808  29.691  1.00  0.00    -0.014 A 
ATOM     42  C   UNL A   1      39.563  27.565  29.596  1.00  0.00     0.009 A 
ATOM     43  C   UNL A   1      40.747  29.380  28.528  1.00  0.00     0.009 A 
ATOM     44  C   UNL A   1      39.490  26.895  28.371  1.00  0.00     0.001 A 
ATOM     45  C   UNL A   1      40.648  28.723  27.300  1.00  0.00     0.001 A 
ATOM     46  C   UNL A   1      40.030  27.477  27.224  1.00  0.00     0.000 A 
ENDBRANCH  27  41
BRANCH  28  47
ATOM     47  C   UNL A   1      40.521  33.681  38.636  1.00  0.00    -0.014 A 
ATOM     48  C   UNL A   1      39.903  33.113  39.754  1.00  0.00     0.009 A 
ATOM     49  C   UNL A   1      41.250  34.877  38.793  1.00  0.00     0.009 A 
ATOM     50  C   UNL A   1      40.017  33.726  41.006  1.00  0.00     0.001 A 
ATOM     51  C   UNL A   1      41.388  35.466  40.049  1.00  0.00     0.001 A 
ATOM     52  C   UNL A   1      40.768  34.893  41.155  1.00  0.00     0.000 A 
ENDBRANCH  28  47
BRANCH  40  53
ATOM     53  C   UNL A   1      44.529  28.887  35.495  1.00  0.00    -0.014 A 
ATOM     54  C   UNL A   1      44.500  27.639  36.134  1.00  0.00     0.009 A 
ATOM     55  C   UNL A   1      45.760  29.497  35.217  1.00  0.00     0.009 A 
ATOM     56  C   UNL A   1      45.692  27.025  36.513  1.00  0.00     0.001 A 
ATOM     57  C   UNL A   1      46.949  28.866  35.569  1.00  0.00     0.001 A 
ATOM     58  C   UNL A   1      46.913  27.635  36.224  1.00  0.00     0.000 A 
ENDBRANCH  40  53
ENDBRANCH  14  15
ENDBRANCH   7   9
ENDBRANCH   4   5
ENDBRANCH   3   4
ENDBRANCH   2   3
ENDBRANCH   1   2
BRANCH   1  59
ATOM     59  C   UNL A   1      35.610  29.955  27.237  1.00  0.00     0.021 C 
BRANCH  59  60
ATOM     60  C   UNL A   1      34.400  28.748  26.454  1.00  0.00     0.116 C 
BRANCH  60  61
ATOM     61  N   UNL A   1      33.159  28.142  27.261  1.00  0.00    -0.354 N 
ATOM     62  C   UNL A   1      31.935  27.515  26.898  1.00  0.00     0.250 C 
ATOM     63  H   UNL A   1      33.267  28.224  28.237  1.00  0.00     0.163 HD
ATOM     64  O   UNL A   1      30.892  27.782  27.489  1.00  0.00    -0.272 OA
BRANCH  62  65
ATOM     65  C   UNL A   1      32.146  26.253  26.037  1.00  0.00     0.145 C 
ATOM     66  C   UNL A   1      33.468  25.454  25.927  1.00  0.00     0.044 C 
ATOM     67  C   UNL A   1      31.704  26.796  24.616  1.00  0.00    -0.010 A 
ATOM     68  C   UNL A   1      34.534  25.961  24.984  1.00  0.00     0.008 C 
ATOM     69  C   UNL A   1      32.746  27.098  23.700  1.00  0.00    -0.042 A 
ATOM     70  C   UNL A   1      30.517  27.554  24.477  1.00  0.00     0.007 A 
ATOM     71  C   UNL A   1      33.964  26.228  23.609  1.00  0.00     0.036 C 
ATOM     72  C   UNL A   1      32.690  28.251  22.895  1.00  0.00     0.004 A 
ATOM     73  C   UNL A   1      30.504  28.744  23.732  1.00  0.00     0.000 A 
ATOM     74  C   UNL A   1      31.607  29.112  22.972  1.00  0.00     0.000 A 
BRANCH  65  75
ATOM     75  N   UNL A   1      31.332  25.391  26.879  1.00  0.00    -0.338 N 
ATOM     76  C   UNL A   1      30.316  24.656  26.262  1.00  0.00     0.224 C 
ATOM     77  H   UNL A   1      31.489  25.329  27.849  1.00  0.00     0.164 HD
ATOM     78  O   UNL A   1      29.196  24.935  26.708  1.00  0.00    -0.275 OA
BRANCH  76  79
ATOM     79  C   UNL A   1      30.518  23.375  25.036  1.00  0.00     0.082 C 
ATOM     80  C   UNL A   1      30.932  22.014  26.344  1.00  0.00     0.035 C 
ATOM     81  C   UNL A   1      31.767  23.372  23.455  1.00  0.00     0.035 C 
ATOM     82  C   UNL A   1      32.708  21.445  26.581  1.00  0.00     0.120 C 
ATOM     83  C   UNL A   1      33.619  22.710  23.844  1.00  0.00     0.120 C 
ATOM     84  N   UNL A   1      33.662  21.234  25.117  1.00  0.00    -0.342 N 
ATOM     85  C   UNL A   1      33.421  19.543  24.858  1.00  0.00     0.225 C 
ATOM     86  O   UNL A   1      33.036  18.954  25.884  1.00  0.00    -0.275 OA
BRANCH  85  87
ATOM     87  C   UNL A   1      33.618  18.388  23.624  1.00  0.00     0.079 C 
ATOM     88  C   UNL A   1      33.422  16.878  23.401  1.00  0.00     0.014 C 
ATOM     89  C   UNL A   1      32.616  17.826  22.590  1.00  0.00     0.014 C 
ENDBRANCH  85  87
ENDBRANCH  76  79
ENDBRANCH  65  75
ENDBRANCH  62  65
ENDBRANCH  60  61
ENDBRANCH  59  60
ENDBRANCH   1  59
TORSDOF 16
ENDMDL
MODEL 2
REMARK VINA RESULT:     -15.1      0.303      5.698
REMARK SMILES O=C(NCCCCCCNC(=O)[C@]1(NC(=O)C2CCN(C(=O)C3CC3)CC2)CCCc2ccccc21)c1ccc(-c2c3nc(c(-c4ccccc4)c4ccc([nH]4)c(-c4ccccc4)c4nc(c(-c5ccccc5)c5ccc2[nH]5)C=C4)C=C3)cc1
REMARK SMILES IDX 7 1 6 2 5 3 4 4 3 5 1 6 2 7 37 9 38 10 84 11 39 12 83 13
REMARK SMILES IDX 40 14 41 15 42 16 77 17 43 18 82 19 76 20 78 21 44 22 81 23
REMARK SMILES IDX 75 24 74 25 45 27 67 28 52 29 66 30 53 31 56 32 65 33 79 34
REMARK SMILES IDX 54 35 55 36 64 38 80 39 57 40 46 41 47 42 51 43 48 44 50 45
REMARK SMILES IDX 49 46 68 47 69 48 73 49 70 50 72 51 71 52 58 53 59 54 63 55
REMARK SMILES IDX 60 56 62 57 61 58 8 59 9 60 10 61 11 62 12 64 13 65 28 66
REMARK SMILES IDX 36 67 29 68 31 69 35 70 30 71 32 72 34 73 33 74 14 75 15 76
REMARK SMILES IDX 16 78 17 79 18 80 27 81 19 82 26 83 20 84 21 85 22 86 23 87
REMARK SMILES IDX 24 88 25 89
REMARK H PARENT 3 8 78 26 56 37 10 63 14 77
REMARK Flexibility Score: inf
ROOT
ATOM      1  C   UNL A   1      35.113  31.587  28.700  1.00  0.00     0.002 C 
ENDROOT
BRANCH   1   2
ATOM      2  C   UNL A   1      34.944  33.407  28.083  1.00  0.00     0.002 C 
BRANCH   2   3
ATOM      3  C   UNL A   1      33.471  34.529  28.603  1.00  0.00     0.021 C 
BRANCH   3   4
ATOM      4  C   UNL A   1      33.357  35.937  29.635  1.00  0.00     0.116 C 
BRANCH   4   5
ATOM      5  N   UNL A   1      32.785  35.919  31.033  1.00  0.00    -0.352 N 
ATOM      6  O   UNL A   1      32.044  34.764  32.900  1.00  0.00    -0.269 OA
ATOM      7  C   UNL A   1      32.882  35.012  32.068  1.00  0.00     0.251 C 
ATOM      8  H   UNL A   1      32.235  36.708  31.246  1.00  0.00     0.163 HD
BRANCH   7   9
ATOM      9  C   UNL A   1      34.236  34.553  32.227  1.00  0.00     0.039 A 
ATOM     10  C   UNL A   1      34.258  33.220  32.641  1.00  0.00     0.014 A 
ATOM     11  C   UNL A   1      35.326  35.415  32.223  1.00  0.00     0.014 A 
ATOM     12  C   UNL A   1      35.379  32.772  33.254  1.00  0.00     0.010 A 
ATOM     13  C   UNL A   1      36.508  34.910  32.717  1.00  0.00     0.010 A 
ATOM     14  C   UNL A   1      36.508  33.602  33.228  1.00  0.00    -0.014 A 
BRANCH  14  15
ATOM     15  C   UNL A   1      37.750  32.926  33.541  1.00  0.00     0.031 A 
ATOM     16  C   UNL A   1      38.379  33.121  34.859  1.00  0.00     0.074 A 
ATOM     17  C   UNL A   1      38.131  32.044  32.604  1.00  0.00     0.049 A 
ATOM     18  N   UNL A   1      39.437  32.532  35.330  1.00  0.00    -0.248 NA
ATOM     19  C   UNL A   1      37.757  34.098  35.768  1.00  0.00     0.031 C 
ATOM     20  C   UNL A   1      37.435  31.827  31.321  1.00  0.00     0.029 A 
ATOM     21  N   UNL A   1      39.131  31.129  32.598  1.00  0.00    -0.354 N 
ATOM     22  C   UNL A   1      39.641  33.093  36.577  1.00  0.00     0.074 A 
ATOM     23  C   UNL A   1      38.590  34.062  36.799  1.00  0.00     0.031 C 
ATOM     24  C   UNL A   1      37.991  30.789  30.690  1.00  0.00     0.029 A 
ATOM     25  C   UNL A   1      39.141  30.361  31.462  1.00  0.00     0.049 A 
ATOM     26  H   UNL A   1      39.781  31.027  33.329  1.00  0.00     0.167 HD
ATOM     27  C   UNL A   1      40.656  32.816  37.422  1.00  0.00     0.031 A 
ATOM     28  C   UNL A   1      40.035  29.444  31.073  1.00  0.00     0.031 A 
ATOM     29  C   UNL A   1      41.684  31.862  37.092  1.00  0.00     0.049 A 
ATOM     30  C   UNL A   1      41.169  29.198  32.010  1.00  0.00     0.074 A 
ATOM     31  C   UNL A   1      42.787  31.486  37.829  1.00  0.00     0.029 A 
ATOM     32  N   UNL A   1      41.726  31.138  35.901  1.00  0.00    -0.354 N 
ATOM     33  N   UNL A   1      41.385  29.742  33.187  1.00  0.00    -0.248 NA
ATOM     34  C   UNL A   1      42.181  28.238  31.579  1.00  0.00     0.031 C 
ATOM     35  C   UNL A   1      43.525  30.578  37.060  1.00  0.00     0.029 A 
ATOM     36  C   UNL A   1      42.849  30.334  35.870  1.00  0.00     0.049 A 
ATOM     37  H   UNL A   1      41.052  31.192  35.184  1.00  0.00     0.167 HD
ATOM     38  C   UNL A   1      42.561  29.189  33.650  1.00  0.00     0.074 A 
ATOM     39  C   UNL A   1      42.996  28.250  32.625  1.00  0.00     0.031 C 
ATOM     40  C   UNL A   1      43.225  29.429  34.808  1.00  0.00     0.031 A 
BRANCH  27  41
ATOM     41  C   UNL A   1      40.734  33.617  38.689  1.00  0.00    -0.014 A 
ATOM     42  C   UNL A   1      41.466  34.812  38.769  1.00  0.00     0.009 A 
ATOM     43  C   UNL A   1      40.083  33.145  39.839  1.00  0.00     0.009 A 
ATOM     44  C   UNL A   1      41.574  35.497  39.982  1.00  0.00     0.001 A 
ATOM     45  C   UNL A   1      40.169  33.846  41.044  1.00  0.00     0.001 A 
ATOM     46  C   UNL A   1      40.923  35.015  41.117  1.00  0.00     0.000 A 
ENDBRANCH  27  41
BRANCH  28  47
ATOM     47  C   UNL A   1      39.875  28.807  29.746  1.00  0.00    -0.014 A 
ATOM     48  C   UNL A   1      40.396  29.403  28.593  1.00  0.00     0.009 A 
ATOM     49  C   UNL A   1      39.326  27.512  29.655  1.00  0.00     0.009 A 
ATOM     50  C   UNL A   1      40.372  28.716  27.374  1.00  0.00     0.001 A 
ATOM     51  C   UNL A   1      39.335  26.818  28.445  1.00  0.00     0.001 A 
ATOM     52  C   UNL A   1      39.854  27.423  27.304  1.00  0.00     0.000 A 
ENDBRANCH  28  47
BRANCH  40  53
ATOM     53  C   UNL A   1      44.464  28.620  35.020  1.00  0.00    -0.014 A 
ATOM     54  C   UNL A   1      44.411  27.350  35.613  1.00  0.00     0.009 A 
ATOM     55  C   UNL A   1      45.694  29.129  34.578  1.00  0.00     0.009 A 
ATOM     56  C   UNL A   1      45.582  26.614  35.786  1.00  0.00     0.001 A 
ATOM     57  C   UNL A   1      46.856  28.377  34.723  1.00  0.00     0.001 A 
ATOM     58  C   UNL A   1      46.799  27.125  35.335  1.00  0.00     0.000 A 
ENDBRANCH  40  53
ENDBRANCH  14  15
ENDBRANCH   7   9
ENDBRANCH   4   5
ENDBRANCH   3   4
ENDBRANCH   2   3
ENDBRANCH   1   2
BRANCH   1  59
ATOM     59  C   UNL A   1      35.623  30.048  27.341  1.00  0.00     0.021 C 
BRANCH  59  60
ATOM     60  C   UNL A   1      34.429  28.828  26.553  1.00  0.00     0.116 C 
BRANCH  60  61
ATOM     61  N   UNL A   1      33.192  28.208  27.355  1.00  0.00    -0.354 N 
ATOM     62  C   UNL A   1      31.965  27.590  26.987  1.00  0.00     0.250 C 
ATOM     63  H   UNL A   1      33.306  28.270  28.331  1.00  0.00     0.163 HD
ATOM     64  O   UNL A   1      30.926  27.846  27.590  1.00  0.00    -0.272 OA
BRANCH  62  65
ATOM     65  C   UNL A   1      32.169  26.345  26.099  1.00  0.00     0.145 C 
ATOM     66  C   UNL A   1      33.475  25.520  25.999  1.00  0.00     0.044 C 
ATOM     67  C   UNL A   1      31.773  26.933  24.683  1.00  0.00    -0.010 A 
ATOM     68  C   UNL A   1      34.574  26.026  25.095  1.00  0.00     0.008 C 
ATOM     69  C   UNL A   1      32.843  27.235  23.800  1.00  0.00    -0.042 A 
ATOM     70  C   UNL A   1      30.607  27.721  24.535  1.00  0.00     0.007 A 
ATOM     71  C   UNL A   1      34.043  26.340  23.715  1.00  0.00     0.036 C 
ATOM     72  C   UNL A   1      32.832  28.408  23.023  1.00  0.00     0.004 A 
ATOM     73  C   UNL A   1      30.638  28.930  23.821  1.00  0.00     0.000 A 
ATOM     74  C   UNL A   1      31.766  29.292  23.097  1.00  0.00     0.000 A 
BRANCH  65  75
ATOM     75  N   UNL A   1      31.316  25.481  26.900  1.00  0.00    -0.338 N 
ATOM     76  C   UNL A   1      30.301  24.783  26.240  1.00  0.00     0.224 C 
ATOM     77  H   UNL A   1      31.448  25.393  27.871  1.00  0.00     0.164 HD
ATOM     78  O   UNL A   1      29.176  25.075  26.665  1.00  0.00    -0.275 OA
BRANCH  76  79
ATOM     79  C   UNL A   1      30.507  23.528  24.989  1.00  0.00     0.082 C 
ATOM     80  C   UNL A   1      30.870  22.130  26.272  1.00  0.00     0.035 C 
ATOM     81  C   UNL A   1      31.789  23.540  23.434  1.00  0.00     0.035 C 
ATOM     82  C   UNL A   1      32.632  21.525  26.532  1.00  0.00     0.120 C 
ATOM     83  C   UNL A   1      33.621  22.837  23.845  1.00  0.00     0.120 C 
ATOM     84  N   UNL A   1      33.613  21.331  25.084  1.00  0.00    -0.342 N 
ATOM     85  C   UNL A   1      33.348  19.651  24.780  1.00  0.00     0.225 C 
ATOM     86  O   UNL A   1      32.932  19.046  25.783  1.00  0.00    -0.275 OA
BRANCH  85  87
ATOM     87  C   UNL A   1      33.552  18.523  23.523  1.00  0.00     0.079 C 
ATOM     88  C   UNL A   1      33.530  16.998  23.313  1.00  0.00     0.014 C 
ATOM     89  C   UNL A   1      32.520  17.827  22.607  1.00  0.00     0.014 C 
ENDBRANCH  85  87
ENDBRANCH  76  79
ENDBRANCH  65  75
ENDBRANCH  62  65
ENDBRANCH  60  61
ENDBRANCH  59  60
ENDBRANCH   1  59
TORSDOF 16
ENDMDL
MODEL 3
REMARK VINA RESULT:     -14.9      4.989     10.633
REMARK SMILES O=C(NCCCCCCNC(=O)[C@]1(NC(=O)C2CCN(C(=O)C3CC3)CC2)CCCc2ccccc21)c1ccc(-c2c3nc(c(-c4ccccc4)c4ccc([nH]4)c(-c4ccccc4)c4nc(c(-c5ccccc5)c5ccc2[nH]5)C=C4)C=C3)cc1
REMARK SMILES IDX 7 1 6 2 5 3 4 4 3 5 1 6 2 7 37 9 38 10 84 11 39 12 83 13
REMARK SMILES IDX 40 14 41 15 42 16 77 17 43 18 82 19 76 20 78 21 44 22 81 23
REMARK SMILES IDX 75 24 74 25 45 27 67 28 52 29 66 30 53 31 56 32 65 33 79 34
REMARK SMILES IDX 54 35 55 36 64 38 80 39 57 40 46 41 47 42 51 43 48 44 50 45
REMARK SMILES IDX 49 46 68 47 69 48 73 49 70 50 72 51 71 52 58 53 59 54 63 55
REMARK SMILES IDX 60 56 62 57 61 58 8 59 9 60 10 61 11 62 12 64 13 65 28 66
REMARK SMILES IDX 36 67 29 68 31 69 35 70 30 71 32 72 34 73 33 74 14 75 15 76
REMARK SMILES IDX 16 78 17 79 18 80 27 81 19 82 26 83 20 84 21 85 22 86 23 87
REMARK SMILES IDX 24 88 25 89
REMARK H PARENT 3 8 78 26 56 37 10 63 14 77
REMARK Flexibility Score: inf
ROOT
ATOM      1  C   UNL A   1      36.138  23.138  25.351  1.00  0.00     0.002 C 
ENDROOT
BRANCH   1   2
ATOM      2  C   UNL A   1      37.949  23.464  25.932  1.00  0.00     0.002 C 
BRANCH   2   3
ATOM      3  C   UNL A   1      39.152  22.031  26.377  1.00  0.00     0.021 C 
BRANCH   3   4
ATOM      4  C   UNL A   1      39.406  20.439  25.698  1.00  0.00     0.116 C 
BRANCH   4   5
ATOM      5  N   UNL A   1      40.418  19.446  26.220  1.00  0.00    -0.352 N 
ATOM      6  O   UNL A   1      42.459  18.363  26.054  1.00  0.00    -0.269 OA
ATOM      7  C   UNL A   1      41.790  19.366  26.103  1.00  0.00     0.251 C 
ATOM      8  H   UNL A   1      40.020  18.714  26.745  1.00  0.00     0.163 HD
BRANCH   7   9
ATOM      9  C   UNL A   1      42.403  20.650  26.314  1.00  0.00     0.039 A 
ATOM     10  C   UNL A   1      42.449  20.956  27.674  1.00  0.00     0.014 A 
ATOM     11  C   UNL A   1      42.651  21.541  25.277  1.00  0.00     0.014 A 
ATOM     12  C   UNL A   1      42.570  22.259  28.020  1.00  0.00     0.010 A 
ATOM     13  C   UNL A   1      42.917  22.842  25.639  1.00  0.00     0.010 A 
ATOM     14  C   UNL A   1      42.864  23.176  27.002  1.00  0.00    -0.014 A 
BRANCH  14  15
ATOM     15  C   UNL A   1      43.359  24.451  27.475  1.00  0.00     0.031 A 
ATOM     16  C   UNL A   1      44.766  24.824  27.240  1.00  0.00     0.074 A 
ATOM     17  C   UNL A   1      42.401  25.249  27.972  1.00  0.00     0.049 A 
ATOM     18  N   UNL A   1      45.347  25.952  27.519  1.00  0.00    -0.248 NA
ATOM     19  C   UNL A   1      45.640  23.814  26.620  1.00  0.00     0.031 C 
ATOM     20  C   UNL A   1      40.985  24.864  28.130  1.00  0.00     0.029 A 
ATOM     21  N   UNL A   1      42.438  26.545  28.365  1.00  0.00    -0.354 N 
ATOM     22  C   UNL A   1      46.668  25.782  27.151  1.00  0.00     0.074 A 
ATOM     23  C   UNL A   1      46.805  24.445  26.615  1.00  0.00     0.031 C 
ATOM     24  C   UNL A   1      40.281  25.930  28.517  1.00  0.00     0.029 A 
ATOM     25  C   UNL A   1      41.210  27.019  28.748  1.00  0.00     0.049 A 
ATOM     26  H   UNL A   1      43.258  27.088  28.375  1.00  0.00     0.167 HD
ATOM     27  C   UNL A   1      47.661  26.684  27.297  1.00  0.00     0.031 A 
ATOM     28  C   UNL A   1      40.894  28.204  29.286  1.00  0.00     0.031 A 
ATOM     29  C   UNL A   1      47.434  27.980  27.884  1.00  0.00     0.049 A 
ATOM     30  C   UNL A   1      42.024  29.157  29.476  1.00  0.00     0.074 A 
ATOM     31  C   UNL A   1      48.337  28.995  28.120  1.00  0.00     0.029 A 
ATOM     32  N   UNL A   1      46.194  28.426  28.339  1.00  0.00    -0.354 N 
ATOM     33  N   UNL A   1      43.288  28.997  29.151  1.00  0.00    -0.248 NA
ATOM     34  C   UNL A   1      41.707  30.434  30.108  1.00  0.00     0.031 C 
ATOM     35  C   UNL A   1      47.654  30.031  28.769  1.00  0.00     0.029 A 
ATOM     36  C   UNL A   1      46.310  29.693  28.878  1.00  0.00     0.049 A 
ATOM     37  H   UNL A   1      45.355  27.912  28.284  1.00  0.00     0.167 HD
ATOM     38  C   UNL A   1      43.928  30.158  29.534  1.00  0.00     0.074 A 
ATOM     39  C   UNL A   1      42.898  31.019  30.099  1.00  0.00     0.031 C 
ATOM     40  C   UNL A   1      45.239  30.489  29.432  1.00  0.00     0.031 A 
BRANCH  27  41
ATOM     41  C   UNL A   1      49.045  26.250  26.913  1.00  0.00    -0.014 A 
ATOM     42  C   UNL A   1      49.935  25.695  27.847  1.00  0.00     0.009 A 
ATOM     43  C   UNL A   1      49.480  26.431  25.591  1.00  0.00     0.009 A 
ATOM     44  C   UNL A   1      51.241  25.364  27.472  1.00  0.00     0.001 A 
ATOM     45  C   UNL A   1      50.775  26.074  25.212  1.00  0.00     0.001 A 
ATOM     46  C   UNL A   1      51.658  25.551  26.154  1.00  0.00     0.000 A 
ENDBRANCH  27  41
BRANCH  28  47
ATOM     47  C   UNL A   1      39.494  28.449  29.705  1.00  0.00    -0.014 A 
ATOM     48  C   UNL A   1      39.086  28.221  31.023  1.00  0.00     0.009 A 
ATOM     49  C   UNL A   1      38.595  29.062  28.810  1.00  0.00     0.009 A 
ATOM     50  C   UNL A   1      37.807  28.603  31.438  1.00  0.00     0.001 A 
ATOM     51  C   UNL A   1      37.333  29.471  29.237  1.00  0.00     0.001 A 
ATOM     52  C   UNL A   1      36.937  29.237  30.551  1.00  0.00     0.000 A 
ENDBRANCH  28  47
BRANCH  40  53
ATOM     53  C   UNL A   1      45.597  31.858  29.913  1.00  0.00    -0.014 A 
ATOM     54  C   UNL A   1      45.461  32.979  29.081  1.00  0.00     0.009 A 
ATOM     55  C   UNL A   1      46.038  32.024  31.234  1.00  0.00     0.009 A 
ATOM     56  C   UNL A   1      45.791  34.245  29.561  1.00  0.00     0.001 A 
ATOM     57  C   UNL A   1      46.336  33.293  31.719  1.00  0.00     0.001 A 
ATOM     58  C   UNL A   1      46.220  34.401  30.879  1.00  0.00     0.000 A 
ENDBRANCH  40  53
ENDBRANCH  14  15
ENDBRANCH   7   9
ENDBRANCH   4   5
ENDBRANCH   3   4
ENDBRANCH   2   3
ENDBRANCH   1   2
BRANCH   1  59
ATOM     59  C   UNL A   1      34.510  23.859  26.494  1.00  0.00     0.021 C 
BRANCH  59  60
ATOM     60  C   UNL A   1      33.257  25.147  25.943  1.00  0.00     0.116 C 
BRANCH  60  61
ATOM     61  N   UNL A   1      33.658  26.676  25.697  1.00  0.00    -0.354 N 
ATOM     62  C   UNL A   1      33.433  27.617  24.655  1.00  0.00     0.250 C 
ATOM     63  H   UNL A   1      34.185  27.051  26.439  1.00  0.00     0.163 HD
ATOM     64  O   UNL A   1      34.327  28.377  24.291  1.00  0.00    -0.272 OA
BRANCH  62  65
ATOM     65  C   UNL A   1      31.934  27.838  24.367  1.00  0.00     0.145 C 
ATOM     66  C   UNL A   1      30.793  27.707  25.405  1.00  0.00     0.044 C 
ATOM     67  C   UNL A   1      31.717  26.823  23.172  1.00  0.00    -0.010 A 
ATOM     68  C   UNL A   1      30.264  26.327  25.718  1.00  0.00     0.008 C 
ATOM     69  C   UNL A   1      31.059  25.605  23.485  1.00  0.00    -0.042 A 
ATOM     70  C   UNL A   1      32.641  26.770  22.100  1.00  0.00     0.007 A 
ATOM     71  C   UNL A   1      29.912  25.579  24.452  1.00  0.00     0.036 C 
ATOM     72  C   UNL A   1      31.499  24.383  22.942  1.00  0.00     0.004 A 
ATOM     73  C   UNL A   1      33.127  25.541  21.626  1.00  0.00     0.000 A 
ATOM     74  C   UNL A   1      32.582  24.346  22.078  1.00  0.00     0.000 A 
BRANCH  65  75
ATOM     75  N   UNL A   1      32.049  29.280  24.212  1.00  0.00    -0.338 N 
ATOM     76  C   UNL A   1      31.545  30.084  25.238  1.00  0.00     0.224 C 
ATOM     77  H   UNL A   1      32.467  29.676  23.413  1.00  0.00     0.164 HD
ATOM     78  O   UNL A   1      30.648  30.840  24.845  1.00  0.00    -0.275 OA
BRANCH  76  79
ATOM     79  C   UNL A   1      32.126  30.154  26.924  1.00  0.00     0.082 C 
ATOM     80  C   UNL A   1      31.475  31.951  27.206  1.00  0.00     0.035 C 
ATOM     81  C   UNL A   1      34.007  29.869  27.590  1.00  0.00     0.035 C 
ATOM     82  C   UNL A   1      32.676  33.398  27.204  1.00  0.00     0.120 C 
ATOM     83  C   UNL A   1      35.167  31.505  27.564  1.00  0.00     0.120 C 
ATOM     84  N   UNL A   1      34.211  33.140  28.026  1.00  0.00    -0.342 N 
ATOM     85  C   UNL A   1      33.820  33.791  29.578  1.00  0.00     0.225 C 
ATOM     86  O   UNL A   1      32.829  34.541  29.543  1.00  0.00    -0.275 OA
BRANCH  85  87
ATOM     87  C   UNL A   1      34.427  33.784  31.167  1.00  0.00     0.079 C 
ATOM     88  C   UNL A   1      35.247  32.870  32.096  1.00  0.00     0.014 C 
ATOM     89  C   UNL A   1      35.808  34.195  31.727  1.00  0.00     0.014 C 
ENDBRANCH  85  87
ENDBRANCH  76  79
ENDBRANCH  65  75
ENDBRANCH  62  65
ENDBRANCH  60  61
ENDBRANCH  59  60
ENDBRANCH   1  59
TORSDOF 16
ENDMDL
