MODEL 1
REMARK VINA RESULT:     -10.6      0.000      0.000
REMARK SMILES NC(=O)C[C@H](NC(=O)C1(c2ccccc2)CCN(C(=O)[C@@H]2CCC[NH2+]2)CC1)C(=O)NCCCCCCNC(=O)c1ccc(-c2c3nc(c(-c4ccccc4)c4ccc([nH]4)c(-c4ccccc4)c4nc(c(-c5ccccc5)c5ccc2[nH]5)C=C4)C=C3)cc1
REMARK SMILES IDX 33 1 32 2 31 3 30 4 28 5 29 6 5 8 4 9 2 10 1 11 3 14 6 15
REMARK SMILES IDX 7 16 8 18 9 19 16 20 27 21 17 22 26 23 18 24 19 25 20 26
REMARK SMILES IDX 10 27 11 28 15 29 12 30 14 31 13 32 21 33 22 34 25 35 23 36
REMARK SMILES IDX 24 37 34 40 35 41 36 42 37 43 38 44 39 46 40 47 41 48 87 49
REMARK SMILES IDX 42 50 86 51 43 52 44 53 45 54 80 55 46 56 85 57 79 58 81 59
REMARK SMILES IDX 47 60 84 61 78 62 77 63 48 65 70 66 55 67 69 68 56 69 59 70
REMARK SMILES IDX 68 71 82 72 57 73 58 74 67 76 83 77 60 78 49 79 50 80 54 81
REMARK SMILES IDX 51 82 53 83 52 84 71 85 72 86 76 87 73 88 75 89 74 90 61 91
REMARK SMILES IDX 62 92 66 93 63 94 65 95 64 96
REMARK H PARENT 30 7 1 12 1 13 6 17 25 38 25 39 37 45 81 64 59 75
REMARK Flexibility Score: inf
ROOT
ATOM      1  C   UNL A   1      35.354  33.942  29.040  1.00  0.00     0.002 C 
ENDROOT
BRANCH   1   2
ATOM      2  C   UNL A   1      34.422  32.727  29.067  1.00  0.00     0.021 C 
BRANCH   2   3
ATOM      3  C   UNL A   1      34.417  31.938  27.769  1.00  0.00     0.116 C 
BRANCH   3   4
ATOM      4  N   UNL A   1      34.134  30.548  27.985  1.00  0.00    -0.354 N 
ATOM      5  C   UNL A   1      33.425  29.677  27.236  1.00  0.00     0.243 C 
ATOM      6  O   UNL A   1      33.303  28.541  27.711  1.00  0.00    -0.273 OA
ATOM      7  H   UNL A   1      34.519  30.169  28.808  1.00  0.00     0.163 HD
BRANCH   5   8
ATOM      8  C   UNL A   1      32.839  29.992  25.832  1.00  0.00     0.180 C 
BRANCH   8   9
ATOM      9  C   UNL A   1      31.373  30.387  26.057  1.00  0.00     0.134 C 
BRANCH   9  10
ATOM     10  C   UNL A   1      31.065  31.864  26.022  1.00  0.00     0.220 C 
ATOM     11  N   UNL A   1      30.315  32.249  24.947  1.00  0.00    -0.370 N 
ATOM     12  H   UNL A   1      30.062  33.194  24.836  1.00  0.00     0.159 HD
ATOM     13  H   UNL A   1      30.028  31.581  24.282  1.00  0.00     0.159 HD
ATOM     14  O   UNL A   1      31.437  32.681  26.846  1.00  0.00    -0.275 OA
ENDBRANCH   9  10
ENDBRANCH   8   9
BRANCH   8  15
ATOM     15  N   UNL A   1      33.194  29.302  24.565  1.00  0.00    -0.343 N 
ATOM     16  C   UNL A   1      32.677  28.700  23.472  1.00  0.00     0.231 C 
ATOM     17  H   UNL A   1      34.176  29.273  24.495  1.00  0.00     0.164 HD
ATOM     18  O   UNL A   1      33.399  28.905  22.477  1.00  0.00    -0.274 OA
BRANCH  16  19
ATOM     19  C   UNL A   1      31.488  27.677  23.317  1.00  0.00     0.077 C 
ATOM     20  C   UNL A   1      31.144  27.110  24.740  1.00  0.00     0.043 C 
ATOM     21  C   UNL A   1      31.732  26.471  22.398  1.00  0.00     0.043 C 
ATOM     22  C   UNL A   1      32.111  26.041  25.245  1.00  0.00     0.121 C 
ATOM     23  C   UNL A   1      32.628  25.390  22.960  1.00  0.00     0.121 C 
ATOM     24  N   UNL A   1      32.287  24.951  24.286  1.00  0.00    -0.337 N 
ATOM     25  C   UNL A   1      32.532  23.666  24.776  1.00  0.00     0.280 C 
ATOM     26  O   UNL A   1      32.462  23.434  25.989  1.00  0.00    -0.268 OA
BRANCH  19  27
ATOM     27  C   UNL A   1      30.195  28.481  22.879  1.00  0.00    -0.032 A 
ATOM     28  C   UNL A   1      28.886  28.078  23.212  1.00  0.00     0.005 A 
ATOM     29  C   UNL A   1      30.314  29.706  22.188  1.00  0.00     0.005 A 
ATOM     30  C   UNL A   1      27.770  28.864  22.895  1.00  0.00     0.000 A 
ATOM     31  C   UNL A   1      29.196  30.479  21.849  1.00  0.00     0.000 A 
ATOM     32  C   UNL A   1      27.922  30.060  22.209  1.00  0.00     0.000 A 
ENDBRANCH  19  27
BRANCH  25  33
ATOM     33  C   UNL A   1      32.931  22.499  23.830  1.00  0.00     0.272 C 
ATOM     34  C   UNL A   1      31.860  22.009  22.866  1.00  0.00     0.081 C 
ATOM     35  N   UNL A   1      33.460  21.306  24.533  1.00  0.00    -0.336 N 
ATOM     36  C   UNL A   1      32.213  20.549  22.651  1.00  0.00     0.068 C 
ATOM     37  C   UNL A   1      32.825  20.116  23.970  1.00  0.00     0.261 C 
ATOM     38  H   UNL A   1      33.248  21.371  25.529  1.00  0.00     0.346 HD
ATOM     39  H   UNL A   1      34.472  21.251  24.415  1.00  0.00     0.346 HD
ENDBRANCH  25  33
ENDBRANCH  16  19
ENDBRANCH   8  15
ENDBRANCH   5   8
ENDBRANCH   3   4
ENDBRANCH   2   3
ENDBRANCH   1   2
BRANCH   1  40
ATOM     40  C   UNL A   1      36.708  33.742  29.730  1.00  0.00     0.002 C 
BRANCH  40  41
ATOM     41  C   UNL A   1      37.762  33.011  28.894  1.00  0.00     0.021 C 
BRANCH  41  42
ATOM     42  C   UNL A   1      38.326  31.749  29.537  1.00  0.00     0.116 C 
BRANCH  42  43
ATOM     43  N   UNL A   1      37.270  30.916  30.083  1.00  0.00    -0.352 N 
ATOM     44  C   UNL A   1      36.990  30.614  31.389  1.00  0.00     0.251 C 
ATOM     45  H   UNL A   1      36.669  30.510  29.418  1.00  0.00     0.163 HD
ATOM     46  O   UNL A   1      36.201  29.710  31.653  1.00  0.00    -0.269 OA
BRANCH  44  47
ATOM     47  C   UNL A   1      37.641  31.364  32.484  1.00  0.00     0.039 A 
ATOM     48  C   UNL A   1      37.047  32.547  32.932  1.00  0.00     0.014 A 
ATOM     49  C   UNL A   1      38.851  30.935  33.037  1.00  0.00     0.014 A 
ATOM     50  C   UNL A   1      37.645  33.280  33.957  1.00  0.00     0.010 A 
ATOM     51  C   UNL A   1      39.415  31.632  34.103  1.00  0.00     0.010 A 
ATOM     52  C   UNL A   1      38.824  32.818  34.566  1.00  0.00    -0.014 A 
BRANCH  52  53
ATOM     53  C   UNL A   1      39.455  33.571  35.677  1.00  0.00     0.031 A 
ATOM     54  C   UNL A   1      38.971  33.387  37.089  1.00  0.00     0.074 A 
ATOM     55  C   UNL A   1      40.435  34.454  35.409  1.00  0.00     0.049 A 
ATOM     56  N   UNL A   1      39.372  33.985  38.183  1.00  0.00    -0.248 NA
ATOM     57  C   UNL A   1      37.879  32.422  37.298  1.00  0.00     0.031 C 
ATOM     58  C   UNL A   1      40.973  34.747  34.079  1.00  0.00     0.029 A 
ATOM     59  N   UNL A   1      41.152  35.273  36.245  1.00  0.00    -0.354 N 
ATOM     60  C   UNL A   1      38.575  33.482  39.203  1.00  0.00     0.074 A 
ATOM     61  C   UNL A   1      37.638  32.564  38.593  1.00  0.00     0.031 C 
ATOM     62  C   UNL A   1      41.950  35.661  34.193  1.00  0.00     0.029 A 
ATOM     63  C   UNL A   1      42.083  36.045  35.594  1.00  0.00     0.049 A 
ATOM     64  H   UNL A   1      41.012  35.303  37.220  1.00  0.00     0.167 HD
ATOM     65  C   UNL A   1      38.628  33.747  40.530  1.00  0.00     0.031 A 
ATOM     66  C   UNL A   1      42.944  36.963  36.072  1.00  0.00     0.031 A 
ATOM     67  C   UNL A   1      39.568  34.650  41.139  1.00  0.00     0.049 A 
ATOM     68  C   UNL A   1      42.975  37.246  37.547  1.00  0.00     0.074 A 
ATOM     69  C   UNL A   1      39.736  34.942  42.482  1.00  0.00     0.029 A 
ATOM     70  N   UNL A   1      40.496  35.408  40.445  1.00  0.00    -0.354 N 
ATOM     71  N   UNL A   1      42.258  36.712  38.506  1.00  0.00    -0.248 NA
ATOM     72  C   UNL A   1      43.942  38.253  38.006  1.00  0.00     0.031 C 
ATOM     73  C   UNL A   1      40.735  35.913  42.596  1.00  0.00     0.029 A 
ATOM     74  C   UNL A   1      41.226  36.185  41.330  1.00  0.00     0.049 A 
ATOM     75  H   UNL A   1      40.621  35.397  39.469  1.00  0.00     0.167 HD
ATOM     76  C   UNL A   1      42.707  37.296  39.684  1.00  0.00     0.074 A 
ATOM     77  C   UNL A   1      43.768  38.212  39.320  1.00  0.00     0.031 C 
ATOM     78  C   UNL A   1      42.279  37.090  40.953  1.00  0.00     0.031 A 
BRANCH  65  79
ATOM     79  C   UNL A   1      37.632  33.052  41.416  1.00  0.00    -0.014 A 
ATOM     80  C   UNL A   1      37.938  31.831  42.037  1.00  0.00     0.009 A 
ATOM     81  C   UNL A   1      36.386  33.648  41.667  1.00  0.00     0.009 A 
ATOM     82  C   UNL A   1      37.004  31.204  42.865  1.00  0.00     0.001 A 
ATOM     83  C   UNL A   1      35.465  33.033  42.517  1.00  0.00     0.001 A 
ATOM     84  C   UNL A   1      35.771  31.808  43.107  1.00  0.00     0.000 A 
ENDBRANCH  65  79
BRANCH  66  85
ATOM     85  C   UNL A   1      43.861  37.675  35.146  1.00  0.00    -0.014 A 
ATOM     86  C   UNL A   1      43.396  38.747  34.368  1.00  0.00     0.009 A 
ATOM     87  C   UNL A   1      45.203  37.281  35.026  1.00  0.00     0.009 A 
ATOM     88  C   UNL A   1      44.249  39.392  33.469  1.00  0.00     0.001 A 
ATOM     89  C   UNL A   1      46.060  37.945  34.146  1.00  0.00     0.001 A 
ATOM     90  C   UNL A   1      45.581  38.993  33.362  1.00  0.00     0.000 A 
ENDBRANCH  66  85
BRANCH  78  91
ATOM     91  C   UNL A   1      42.983  37.845  42.045  1.00  0.00    -0.014 A 
ATOM     92  C   UNL A   1      42.558  39.121  42.441  1.00  0.00     0.009 A 
ATOM     93  C   UNL A   1      44.065  37.248  42.713  1.00  0.00     0.009 A 
ATOM     94  C   UNL A   1      43.224  39.799  43.465  1.00  0.00     0.001 A 
ATOM     95  C   UNL A   1      44.710  37.917  43.754  1.00  0.00     0.001 A 
ATOM     96  C   UNL A   1      44.295  39.195  44.122  1.00  0.00     0.000 A 
ENDBRANCH  78  91
ENDBRANCH  52  53
ENDBRANCH  44  47
ENDBRANCH  42  43
ENDBRANCH  41  42
ENDBRANCH  40  41
ENDBRANCH   1  40
TORSDOF 19
ENDMDL
MODEL 2
REMARK VINA RESULT:     -10.5      5.470      9.112
REMARK SMILES NC(=O)C[C@H](NC(=O)C1(c2ccccc2)CCN(C(=O)[C@@H]2CCC[NH2+]2)CC1)C(=O)NCCCCCCNC(=O)c1ccc(-c2c3nc(c(-c4ccccc4)c4ccc([nH]4)c(-c4ccccc4)c4nc(c(-c5ccccc5)c5ccc2[nH]5)C=C4)C=C3)cc1
REMARK SMILES IDX 33 1 32 2 31 3 30 4 28 5 29 6 5 8 4 9 2 10 1 11 3 14 6 15
REMARK SMILES IDX 7 16 8 18 9 19 16 20 27 21 17 22 26 23 18 24 19 25 20 26
REMARK SMILES IDX 10 27 11 28 15 29 12 30 14 31 13 32 21 33 22 34 25 35 23 36
REMARK SMILES IDX 24 37 34 40 35 41 36 42 37 43 38 44 39 46 40 47 41 48 87 49
REMARK SMILES IDX 42 50 86 51 43 52 44 53 45 54 80 55 46 56 85 57 79 58 81 59
REMARK SMILES IDX 47 60 84 61 78 62 77 63 48 65 70 66 55 67 69 68 56 69 59 70
REMARK SMILES IDX 68 71 82 72 57 73 58 74 67 76 83 77 60 78 49 79 50 80 54 81
REMARK SMILES IDX 51 82 53 83 52 84 71 85 72 86 76 87 73 88 75 89 74 90 61 91
REMARK SMILES IDX 62 92 66 93 63 94 65 95 64 96
REMARK H PARENT 30 7 1 12 1 13 6 17 25 38 25 39 37 45 81 64 59 75
REMARK Flexibility Score: inf
ROOT
ATOM      1  C   UNL A   1      34.471  25.044  26.011  1.00  0.00     0.002 C 
ENDROOT
BRANCH   1   2
ATOM      2  C   UNL A   1      33.807  26.422  26.094  1.00  0.00     0.021 C 
BRANCH   2   3
ATOM      3  C   UNL A   1      34.794  27.575  26.029  1.00  0.00     0.116 C 
BRANCH   3   4
ATOM      4  N   UNL A   1      34.463  28.620  26.953  1.00  0.00    -0.354 N 
ATOM      5  C   UNL A   1      33.663  29.697  26.801  1.00  0.00     0.243 C 
ATOM      6  O   UNL A   1      33.613  30.467  27.769  1.00  0.00    -0.273 OA
ATOM      7  H   UNL A   1      34.885  28.540  27.840  1.00  0.00     0.163 HD
BRANCH   5   8
ATOM      8  C   UNL A   1      32.779  29.971  25.554  1.00  0.00     0.180 C 
BRANCH   8   9
ATOM      9  C   UNL A   1      31.394  30.366  26.087  1.00  0.00     0.134 C 
BRANCH   9  10
ATOM     10  C   UNL A   1      31.020  31.824  25.966  1.00  0.00     0.220 C 
ATOM     11  N   UNL A   1      30.251  32.110  24.874  1.00  0.00    -0.370 N 
ATOM     12  H   UNL A   1      29.956  33.035  24.708  1.00  0.00     0.159 HD
ATOM     13  H   UNL A   1      29.992  31.392  24.251  1.00  0.00     0.159 HD
ATOM     14  O   UNL A   1      31.359  32.704  26.737  1.00  0.00    -0.275 OA
ENDBRANCH   9  10
ENDBRANCH   8   9
BRANCH   8  15
ATOM     15  N   UNL A   1      32.852  29.250  24.257  1.00  0.00    -0.343 N 
ATOM     16  C   UNL A   1      32.113  28.784  23.227  1.00  0.00     0.231 C 
ATOM     17  H   UNL A   1      33.795  29.028  24.082  1.00  0.00     0.164 HD
ATOM     18  O   UNL A   1      32.752  28.861  22.160  1.00  0.00    -0.274 OA
BRANCH  16  19
ATOM     19  C   UNL A   1      30.733  28.022  23.203  1.00  0.00     0.077 C 
ATOM     20  C   UNL A   1      30.329  27.699  24.686  1.00  0.00     0.043 C 
ATOM     21  C   UNL A   1      30.692  26.698  22.425  1.00  0.00     0.043 C 
ATOM     22  C   UNL A   1      31.071  26.513  25.298  1.00  0.00     0.121 C 
ATOM     23  C   UNL A   1      31.364  25.522  23.097  1.00  0.00     0.121 C 
ATOM     24  N   UNL A   1      30.986  25.311  24.468  1.00  0.00    -0.337 N 
ATOM     25  C   UNL A   1      30.977  24.065  25.100  1.00  0.00     0.280 C 
ATOM     26  O   UNL A   1      30.903  23.987  26.332  1.00  0.00    -0.268 OA
BRANCH  19  27
ATOM     27  C   UNL A   1      29.620  29.025  22.690  1.00  0.00    -0.032 A 
ATOM     28  C   UNL A   1      28.262  28.922  23.055  1.00  0.00     0.005 A 
ATOM     29  C   UNL A   1      29.970  30.135  21.891  1.00  0.00     0.005 A 
ATOM     30  C   UNL A   1      27.320  29.884  22.665  1.00  0.00     0.000 A 
ATOM     31  C   UNL A   1      29.023  31.082  21.480  1.00  0.00     0.000 A 
ATOM     32  C   UNL A   1      27.697  30.959  21.873  1.00  0.00     0.000 A 
ENDBRANCH  19  27
BRANCH  25  33
ATOM     33  C   UNL A   1      31.094  22.744  24.288  1.00  0.00     0.272 C 
ATOM     34  C   UNL A   1      32.049  21.692  24.836  1.00  0.00     0.081 C 
ATOM     35  N   UNL A   1      31.441  22.942  22.861  1.00  0.00    -0.336 N 
ATOM     36  C   UNL A   1      32.504  20.943  23.599  1.00  0.00     0.068 C 
ATOM     37  C   UNL A   1      32.493  21.992  22.503  1.00  0.00     0.261 C 
ATOM     38  H   UNL A   1      31.773  23.896  22.716  1.00  0.00     0.346 HD
ATOM     39  H   UNL A   1      30.618  22.789  22.277  1.00  0.00     0.346 HD
ENDBRANCH  25  33
ENDBRANCH  16  19
ENDBRANCH   8  15
ENDBRANCH   5   8
ENDBRANCH   3   4
ENDBRANCH   2   3
ENDBRANCH   1   2
BRANCH   1  40
ATOM     40  C   UNL A   1      34.599  24.466  24.597  1.00  0.00     0.002 C 
BRANCH  40  41
ATOM     41  C   UNL A   1      35.636  23.350  24.441  1.00  0.00     0.021 C 
BRANCH  41  42
ATOM     42  C   UNL A   1      37.072  23.767  24.733  1.00  0.00     0.116 C 
BRANCH  42  43
ATOM     43  N   UNL A   1      37.830  22.678  25.321  1.00  0.00    -0.352 N 
ATOM     44  C   UNL A   1      38.928  22.726  26.140  1.00  0.00     0.251 C 
ATOM     45  H   UNL A   1      37.509  21.774  25.101  1.00  0.00     0.163 HD
ATOM     46  O   UNL A   1      39.577  21.706  26.355  1.00  0.00    -0.269 OA
BRANCH  44  47
ATOM     47  C   UNL A   1      39.342  24.005  26.756  1.00  0.00     0.039 A 
ATOM     48  C   UNL A   1      40.128  24.885  26.008  1.00  0.00     0.014 A 
ATOM     49  C   UNL A   1      39.000  24.317  28.075  1.00  0.00     0.014 A 
ATOM     50  C   UNL A   1      40.540  26.095  26.569  1.00  0.00     0.010 A 
ATOM     51  C   UNL A   1      39.359  25.551  28.613  1.00  0.00     0.010 A 
ATOM     52  C   UNL A   1      40.142  26.447  27.869  1.00  0.00    -0.014 A 
BRANCH  52  53
ATOM     53  C   UNL A   1      40.549  27.742  28.466  1.00  0.00     0.031 A 
ATOM     54  C   UNL A   1      41.964  27.953  28.932  1.00  0.00     0.074 A 
ATOM     55  C   UNL A   1      39.633  28.716  28.630  1.00  0.00     0.049 A 
ATOM     56  N   UNL A   1      42.494  29.000  29.512  1.00  0.00    -0.248 NA
ATOM     57  C   UNL A   1      42.900  26.833  28.741  1.00  0.00     0.031 C 
ATOM     58  C   UNL A   1      38.222  28.626  28.249  1.00  0.00     0.029 A 
ATOM     59  N   UNL A   1      39.754  29.973  29.166  1.00  0.00    -0.354 N 
ATOM     60  C   UNL A   1      43.817  28.661  29.768  1.00  0.00     0.074 A 
ATOM     61  C   UNL A   1      43.997  27.296  29.322  1.00  0.00     0.031 C 
ATOM     62  C   UNL A   1      37.614  29.787  28.541  1.00  0.00     0.029 A 
ATOM     63  C   UNL A   1      38.580  30.688  29.162  1.00  0.00     0.049 A 
ATOM     64  H   UNL A   1      40.601  30.330  29.519  1.00  0.00     0.167 HD
ATOM     65  C   UNL A   1      44.797  29.420  30.311  1.00  0.00     0.031 A 
ATOM     66  C   UNL A   1      38.311  31.928  29.612  1.00  0.00     0.031 A 
ATOM     67  C   UNL A   1      44.623  30.781  30.744  1.00  0.00     0.049 A 
ATOM     68  C   UNL A   1      39.415  32.746  30.220  1.00  0.00     0.074 A 
ATOM     69  C   UNL A   1      45.570  31.651  31.256  1.00  0.00     0.029 A 
ATOM     70  N   UNL A   1      43.420  31.468  30.719  1.00  0.00    -0.354 N 
ATOM     71  N   UNL A   1      40.676  32.432  30.395  1.00  0.00    -0.248 NA
ATOM     72  C   UNL A   1      39.059  34.094  30.685  1.00  0.00     0.031 C 
ATOM     73  C   UNL A   1      44.930  32.850  31.584  1.00  0.00     0.029 A 
ATOM     74  C   UNL A   1      43.596  32.745  31.226  1.00  0.00     0.049 A 
ATOM     75  H   UNL A   1      42.567  31.105  30.388  1.00  0.00     0.167 HD
ATOM     76  C   UNL A   1      41.270  33.553  30.961  1.00  0.00     0.074 A 
ATOM     77  C   UNL A   1      40.234  34.558  31.087  1.00  0.00     0.031 C 
ATOM     78  C   UNL A   1      42.557  33.734  31.343  1.00  0.00     0.031 A 
BRANCH  65  79
ATOM     79  C   UNL A   1      46.153  28.790  30.474  1.00  0.00    -0.014 A 
ATOM     80  C   UNL A   1      46.492  28.086  31.640  1.00  0.00     0.009 A 
ATOM     81  C   UNL A   1      47.088  28.866  29.430  1.00  0.00     0.009 A 
ATOM     82  C   UNL A   1      47.753  27.499  31.771  1.00  0.00     0.001 A 
ATOM     83  C   UNL A   1      48.337  28.255  29.552  1.00  0.00     0.001 A 
ATOM     84  C   UNL A   1      48.671  27.580  30.725  1.00  0.00     0.000 A 
ENDBRANCH  65  79
BRANCH  66  85
ATOM     85  C   UNL A   1      36.938  32.480  29.493  1.00  0.00    -0.014 A 
ATOM     86  C   UNL A   1      36.016  32.330  30.540  1.00  0.00     0.009 A 
ATOM     87  C   UNL A   1      36.537  33.152  28.327  1.00  0.00     0.009 A 
ATOM     88  C   UNL A   1      34.713  32.816  30.412  1.00  0.00     0.001 A 
ATOM     89  C   UNL A   1      35.242  33.661  28.213  1.00  0.00     0.001 A 
ATOM     90  C   UNL A   1      34.328  33.485  29.251  1.00  0.00     0.000 A 
ENDBRANCH  66  85
BRANCH  78  91
ATOM     91  C   UNL A   1      42.926  35.080  31.900  1.00  0.00    -0.014 A 
ATOM     92  C   UNL A   1      42.731  35.387  33.255  1.00  0.00     0.009 A 
ATOM     93  C   UNL A   1      43.513  36.040  31.060  1.00  0.00     0.009 A 
ATOM     94  C   UNL A   1      43.089  36.642  33.750  1.00  0.00     0.001 A 
ATOM     95  C   UNL A   1      43.895  37.282  31.565  1.00  0.00     0.001 A 
ATOM     96  C   UNL A   1      43.674  37.587  32.907  1.00  0.00     0.000 A 
ENDBRANCH  78  91
ENDBRANCH  52  53
ENDBRANCH  44  47
ENDBRANCH  42  43
ENDBRANCH  41  42
ENDBRANCH  40  41
ENDBRANCH   1  40
TORSDOF 19
ENDMDL
MODEL 3
REMARK VINA RESULT:     -10.4      0.432      5.568
REMARK SMILES NC(=O)C[C@H](NC(=O)C1(c2ccccc2)CCN(C(=O)[C@@H]2CCC[NH2+]2)CC1)C(=O)NCCCCCCNC(=O)c1ccc(-c2c3nc(c(-c4ccccc4)c4ccc([nH]4)c(-c4ccccc4)c4nc(c(-c5ccccc5)c5ccc2[nH]5)C=C4)C=C3)cc1
REMARK SMILES IDX 33 1 32 2 31 3 30 4 28 5 29 6 5 8 4 9 2 10 1 11 3 14 6 15
REMARK SMILES IDX 7 16 8 18 9 19 16 20 27 21 17 22 26 23 18 24 19 25 20 26
REMARK SMILES IDX 10 27 11 28 15 29 12 30 14 31 13 32 21 33 22 34 25 35 23 36
REMARK SMILES IDX 24 37 34 40 35 41 36 42 37 43 38 44 39 46 40 47 41 48 87 49
REMARK SMILES IDX 42 50 86 51 43 52 44 53 45 54 80 55 46 56 85 57 79 58 81 59
REMARK SMILES IDX 47 60 84 61 78 62 77 63 48 65 70 66 55 67 69 68 56 69 59 70
REMARK SMILES IDX 68 71 82 72 57 73 58 74 67 76 83 77 60 78 49 79 50 80 54 81
REMARK SMILES IDX 51 82 53 83 52 84 71 85 72 86 76 87 73 88 75 89 74 90 61 91
REMARK SMILES IDX 62 92 66 93 63 94 65 95 64 96
REMARK H PARENT 30 7 1 12 1 13 6 17 25 38 25 39 37 45 81 64 59 75
REMARK Flexibility Score: inf
ROOT
ATOM      1  C   UNL A   1      35.013  34.108  29.190  1.00  0.00     0.002 C 
ENDROOT
BRANCH   1   2
ATOM      2  C   UNL A   1      34.134  32.867  29.004  1.00  0.00     0.021 C 
BRANCH   2   3
ATOM      3  C   UNL A   1      34.460  32.075  27.751  1.00  0.00     0.116 C 
BRANCH   3   4
ATOM      4  N   UNL A   1      34.298  30.663  27.948  1.00  0.00    -0.354 N 
ATOM      5  C   UNL A   1      33.597  29.758  27.233  1.00  0.00     0.243 C 
ATOM      6  O   UNL A   1      33.597  28.605  27.684  1.00  0.00    -0.273 OA
ATOM      7  H   UNL A   1      34.774  30.296  28.728  1.00  0.00     0.163 HD
BRANCH   5   8
ATOM      8  C   UNL A   1      32.879  30.059  25.889  1.00  0.00     0.180 C 
BRANCH   8   9
ATOM      9  C   UNL A   1      31.427  30.405  26.246  1.00  0.00     0.134 C 
BRANCH   9  10
ATOM     10  C   UNL A   1      31.029  31.855  26.100  1.00  0.00     0.220 C 
ATOM     11  N   UNL A   1      30.312  32.121  24.968  1.00  0.00    -0.370 N 
ATOM     12  H   UNL A   1      30.006  33.039  24.784  1.00  0.00     0.159 HD
ATOM     13  H   UNL A   1      30.100  31.396  24.336  1.00  0.00     0.159 HD
ATOM     14  O   UNL A   1      31.309  32.744  26.884  1.00  0.00    -0.275 OA
ENDBRANCH   9  10
ENDBRANCH   8   9
BRANCH   8  15
ATOM     15  N   UNL A   1      33.142  29.385  24.591  1.00  0.00    -0.343 N 
ATOM     16  C   UNL A   1      32.552  28.742  23.560  1.00  0.00     0.231 C 
ATOM     17  H   UNL A   1      34.110  29.421  24.417  1.00  0.00     0.164 HD
ATOM     18  O   UNL A   1      33.148  28.988  22.493  1.00  0.00    -0.274 OA
BRANCH  16  19
ATOM     19  C   UNL A   1      31.424  27.642  23.533  1.00  0.00     0.077 C 
ATOM     20  C   UNL A   1      31.175  27.163  25.007  1.00  0.00     0.043 C 
ATOM     21  C   UNL A   1      31.706  26.388  22.692  1.00  0.00     0.043 C 
ATOM     22  C   UNL A   1      32.227  26.193  25.542  1.00  0.00     0.121 C 
ATOM     23  C   UNL A   1      32.690  25.407  23.288  1.00  0.00     0.121 C 
ATOM     24  N   UNL A   1      32.432  25.047  24.656  1.00  0.00    -0.337 N 
ATOM     25  C   UNL A   1      32.777  23.819  25.226  1.00  0.00     0.280 C 
ATOM     26  O   UNL A   1      32.772  23.674  26.454  1.00  0.00    -0.268 OA
BRANCH  19  27
ATOM     27  C   UNL A   1      30.066  28.333  23.097  1.00  0.00    -0.032 A 
ATOM     28  C   UNL A   1      28.798  27.822  23.438  1.00  0.00     0.005 A 
ATOM     29  C   UNL A   1      30.079  29.561  22.401  1.00  0.00     0.005 A 
ATOM     30  C   UNL A   1      27.618  28.511  23.124  1.00  0.00     0.000 A 
ATOM     31  C   UNL A   1      28.898  30.236  22.065  1.00  0.00     0.000 A 
ATOM     32  C   UNL A   1      27.666  29.713  22.433  1.00  0.00     0.000 A 
ENDBRANCH  19  27
BRANCH  25  33
ATOM     33  C   UNL A   1      33.209  22.611  24.348  1.00  0.00     0.272 C 
ATOM     34  C   UNL A   1      32.138  21.572  24.047  1.00  0.00     0.081 C 
ATOM     35  N   UNL A   1      34.388  21.880  24.867  1.00  0.00    -0.336 N 
ATOM     36  C   UNL A   1      32.925  20.288  23.869  1.00  0.00     0.068 C 
ATOM     37  C   UNL A   1      34.110  20.445  24.804  1.00  0.00     0.261 C 
ATOM     38  H   UNL A   1      34.565  22.153  25.834  1.00  0.00     0.346 HD
ATOM     39  H   UNL A   1      35.212  22.101  24.308  1.00  0.00     0.346 HD
ENDBRANCH  25  33
ENDBRANCH  16  19
ENDBRANCH   8  15
ENDBRANCH   5   8
ENDBRANCH   3   4
ENDBRANCH   2   3
ENDBRANCH   1   2
BRANCH   1  40
ATOM     40  C   UNL A   1      36.273  33.893  30.037  1.00  0.00     0.002 C 
BRANCH  40  41
ATOM     41  C   UNL A   1      37.554  33.626  29.242  1.00  0.00     0.021 C 
BRANCH  41  42
ATOM     42  C   UNL A   1      38.191  32.265  29.496  1.00  0.00     0.116 C 
BRANCH  42  43
ATOM     43  N   UNL A   1      37.208  31.294  29.942  1.00  0.00    -0.352 N 
ATOM     44  C   UNL A   1      36.929  30.861  31.211  1.00  0.00     0.251 C 
ATOM     45  H   UNL A   1      36.663  30.890  29.230  1.00  0.00     0.163 HD
ATOM     46  O   UNL A   1      36.225  29.869  31.378  1.00  0.00    -0.269 OA
BRANCH  44  47
ATOM     47  C   UNL A   1      37.483  31.576  32.381  1.00  0.00     0.039 A 
ATOM     48  C   UNL A   1      38.652  31.089  32.972  1.00  0.00     0.014 A 
ATOM     49  C   UNL A   1      36.834  32.689  32.923  1.00  0.00     0.014 A 
ATOM     50  C   UNL A   1      39.191  31.739  34.083  1.00  0.00     0.010 A 
ATOM     51  C   UNL A   1      37.406  33.375  33.992  1.00  0.00     0.010 A 
ATOM     52  C   UNL A   1      38.583  32.900  34.590  1.00  0.00    -0.014 A 
BRANCH  52  53
ATOM     53  C   UNL A   1      39.162  33.618  35.752  1.00  0.00     0.031 A 
ATOM     54  C   UNL A   1      40.293  34.590  35.557  1.00  0.00     0.074 A 
ATOM     55  C   UNL A   1      38.698  33.362  36.990  1.00  0.00     0.049 A 
ATOM     56  N   UNL A   1      40.950  35.281  36.454  1.00  0.00    -0.248 NA
ATOM     57  C   UNL A   1      40.762  34.798  34.177  1.00  0.00     0.031 C 
ATOM     58  C   UNL A   1      37.626  32.419  37.316  1.00  0.00     0.029 A 
ATOM     59  N   UNL A   1      39.073  33.872  38.207  1.00  0.00    -0.354 N 
ATOM     60  C   UNL A   1      41.916  35.990  35.752  1.00  0.00     0.074 A 
ATOM     61  C   UNL A   1      41.789  35.613  34.361  1.00  0.00     0.031 C 
ATOM     62  C   UNL A   1      37.415  32.437  38.642  1.00  0.00     0.029 A 
ATOM     63  C   UNL A   1      38.357  33.362  39.262  1.00  0.00     0.049 A 
ATOM     64  H   UNL A   1      39.788  34.542  38.313  1.00  0.00     0.167 HD
ATOM     65  C   UNL A   1      42.817  36.886  36.219  1.00  0.00     0.031 A 
ATOM     66  C   UNL A   1      38.453  33.607  40.582  1.00  0.00     0.031 A 
ATOM     67  C   UNL A   1      42.936  37.272  37.599  1.00  0.00     0.049 A 
ATOM     68  C   UNL A   1      39.469  34.598  41.076  1.00  0.00     0.074 A 
ATOM     69  C   UNL A   1      43.782  38.213  38.162  1.00  0.00     0.029 A 
ATOM     70  N   UNL A   1      42.190  36.734  38.635  1.00  0.00    -0.354 N 
ATOM     71  N   UNL A   1      40.331  35.309  40.389  1.00  0.00    -0.248 NA
ATOM     72  C   UNL A   1      39.518  34.828  42.526  1.00  0.00     0.031 C 
ATOM     73  C   UNL A   1      43.579  38.211  39.545  1.00  0.00     0.029 A 
ATOM     74  C   UNL A   1      42.570  37.308  39.837  1.00  0.00     0.049 A 
ATOM     75  H   UNL A   1      41.492  36.048  38.533  1.00  0.00     0.167 HD
ATOM     76  C   UNL A   1      41.003  36.091  41.320  1.00  0.00     0.074 A 
ATOM     77  C   UNL A   1      40.439  35.777  42.616  1.00  0.00     0.031 C 
ATOM     78  C   UNL A   1      41.999  36.988  41.119  1.00  0.00     0.031 A 
BRANCH  65  79
ATOM     79  C   UNL A   1      43.755  37.511  35.223  1.00  0.00    -0.014 A 
ATOM     80  C   UNL A   1      43.397  38.668  34.513  1.00  0.00     0.009 A 
ATOM     81  C   UNL A   1      45.029  36.958  35.022  1.00  0.00     0.009 A 
ATOM     82  C   UNL A   1      44.285  39.240  33.599  1.00  0.00     0.001 A 
ATOM     83  C   UNL A   1      45.925  37.547  34.128  1.00  0.00     0.001 A 
ATOM     84  C   UNL A   1      45.548  38.682  33.411  1.00  0.00     0.000 A 
ENDBRANCH  65  79
BRANCH  66  85
ATOM     85  C   UNL A   1      37.551  32.912  41.535  1.00  0.00    -0.014 A 
ATOM     86  C   UNL A   1      37.943  31.706  42.136  1.00  0.00     0.009 A 
ATOM     87  C   UNL A   1      36.288  33.444  41.841  1.00  0.00     0.009 A 
ATOM     88  C   UNL A   1      37.078  31.033  43.003  1.00  0.00     0.001 A 
ATOM     89  C   UNL A   1      35.437  32.782  42.729  1.00  0.00     0.001 A 
ATOM     90  C   UNL A   1      35.828  31.573  43.301  1.00  0.00     0.000 A 
ENDBRANCH  66  85
BRANCH  78  91
ATOM     91  C   UNL A   1      42.517  37.720  42.324  1.00  0.00    -0.014 A 
ATOM     92  C   UNL A   1      43.487  37.151  43.162  1.00  0.00     0.009 A 
ATOM     93  C   UNL A   1      42.053  39.016  42.599  1.00  0.00     0.009 A 
ATOM     94  C   UNL A   1      43.959  37.855  44.272  1.00  0.00     0.001 A 
ATOM     95  C   UNL A   1      42.547  39.727  43.693  1.00  0.00     0.001 A 
ATOM     96  C   UNL A   1      43.492  39.143  44.533  1.00  0.00     0.000 A 
ENDBRANCH  78  91
ENDBRANCH  52  53
ENDBRANCH  44  47
ENDBRANCH  42  43
ENDBRANCH  41  42
ENDBRANCH  40  41
ENDBRANCH   1  40
TORSDOF 19
ENDMDL
