MODEL 1
REMARK VINA RESULT:     -10.5      0.000      0.000
REMARK SMILES O=C(NCCCCCCNC(=O)c1cc(-c2ccoc2)n[nH]1)c1ccc(-c2c3nc(c(-c4ccccc4)c4ccc([nH]4)c(-c4ccccc4)c4nc(c(-c5ccccc5)c5ccc2[nH]5)C=C4)C=C3)cc1
REMARK SMILES IDX 6 1 5 2 4 3 3 4 1 5 2 6 23 8 24 9 70 10 25 11 69 12 26 13
REMARK SMILES IDX 27 14 28 15 63 16 29 17 68 18 62 19 64 20 30 21 67 22 61 23
REMARK SMILES IDX 60 24 31 26 53 27 38 28 52 29 39 30 42 31 51 32 65 33 40 34
REMARK SMILES IDX 41 35 50 37 66 38 43 39 32 40 33 41 37 42 34 43 36 44 35 45
REMARK SMILES IDX 54 46 55 47 59 48 56 49 58 50 57 51 44 52 45 53 49 54 46 55
REMARK SMILES IDX 48 56 47 57 7 58 8 59 9 60 10 61 11 62 12 64 13 65 14 66
REMARK SMILES IDX 22 67 15 68 21 69 16 71 17 72 20 73 18 74 19 75
REMARK H PARENT 3 7 64 25 42 36 10 63 22 70
REMARK Flexibility Score: inf
ROOT
ATOM      1  C   UNL A   1      31.359  30.520  25.842  1.00  0.00     0.002 C 
ENDROOT
BRANCH   1   2
ATOM      2  C   UNL A   1      31.254  31.913  26.470  1.00  0.00     0.021 C 
BRANCH   2   3
ATOM      3  C   UNL A   1      32.561  32.498  27.001  1.00  0.00     0.116 C 
BRANCH   3   4
ATOM      4  N   UNL A   1      32.379  33.787  27.644  1.00  0.00    -0.352 N 
ATOM      5  O   UNL A   1      32.758  35.443  29.120  1.00  0.00    -0.269 OA
ATOM      6  C   UNL A   1      33.150  34.403  28.596  1.00  0.00     0.251 C 
ATOM      7  H   UNL A   1      31.585  34.291  27.354  1.00  0.00     0.163 HD
BRANCH   6   8
ATOM      8  C   UNL A   1      34.444  33.817  29.018  1.00  0.00     0.039 A 
ATOM      9  C   UNL A   1      34.524  32.910  30.078  1.00  0.00     0.014 A 
ATOM     10  C   UNL A   1      35.595  34.145  28.293  1.00  0.00     0.014 A 
ATOM     11  C   UNL A   1      35.764  32.406  30.470  1.00  0.00     0.010 A 
ATOM     12  C   UNL A   1      36.831  33.603  28.656  1.00  0.00     0.010 A 
ATOM     13  C   UNL A   1      36.929  32.744  29.760  1.00  0.00    -0.014 A 
BRANCH  13  14
ATOM     14  C   UNL A   1      38.230  32.150  30.151  1.00  0.00     0.031 A 
ATOM     15  C   UNL A   1      39.108  32.812  31.173  1.00  0.00     0.074 A 
ATOM     16  C   UNL A   1      38.611  30.986  29.593  1.00  0.00     0.049 A 
ATOM     17  N   UNL A   1      40.255  32.406  31.658  1.00  0.00    -0.248 NA
ATOM     18  C   UNL A   1      38.643  34.096  31.721  1.00  0.00     0.031 C 
ATOM     19  C   UNL A   1      37.852  30.246  28.582  1.00  0.00     0.029 A 
ATOM     20  N   UNL A   1      39.723  30.215  29.809  1.00  0.00    -0.354 N 
ATOM     21  C   UNL A   1      40.655  33.385  32.558  1.00  0.00     0.074 A 
ATOM     22  C   UNL A   1      39.636  34.414  32.542  1.00  0.00     0.031 C 
ATOM     23  C   UNL A   1      38.500  29.105  28.299  1.00  0.00     0.029 A 
ATOM     24  C   UNL A   1      39.731  29.052  29.081  1.00  0.00     0.049 A 
ATOM     25  H   UNL A   1      40.445  30.469  30.429  1.00  0.00     0.167 HD
ATOM     26  C   UNL A   1      41.766  33.423  33.331  1.00  0.00     0.031 A 
ATOM     27  C   UNL A   1      40.628  28.049  29.046  1.00  0.00     0.031 A 
ATOM     28  C   UNL A   1      42.782  32.404  33.357  1.00  0.00     0.049 A 
ATOM     29  C   UNL A   1      41.857  28.123  29.901  1.00  0.00     0.074 A 
ATOM     30  C   UNL A   1      43.931  32.351  34.129  1.00  0.00     0.029 A 
ATOM     31  N   UNL A   1      42.771  31.261  32.576  1.00  0.00    -0.354 N 
ATOM     32  N   UNL A   1      42.208  29.048  30.760  1.00  0.00    -0.248 NA
ATOM     33  C   UNL A   1      42.814  27.014  29.777  1.00  0.00     0.031 C 
ATOM     34  C   UNL A   1      44.629  31.184  33.794  1.00  0.00     0.029 A 
ATOM     35  C   UNL A   1      43.900  30.502  32.835  1.00  0.00     0.049 A 
ATOM     36  H   UNL A   1      42.066  31.023  31.932  1.00  0.00     0.167 HD
ATOM     37  C   UNL A   1      43.425  28.633  31.282  1.00  0.00     0.074 A 
ATOM     38  C   UNL A   1      43.743  27.366  30.656  1.00  0.00     0.031 C 
ATOM     39  C   UNL A   1      44.209  29.252  32.196  1.00  0.00     0.031 A 
BRANCH  26  40
ATOM     40  C   UNL A   1      41.949  34.624  34.209  1.00  0.00    -0.014 A 
ATOM     41  C   UNL A   1      41.534  34.605  35.550  1.00  0.00     0.009 A 
ATOM     42  C   UNL A   1      42.582  35.770  33.705  1.00  0.00     0.009 A 
ATOM     43  C   UNL A   1      41.730  35.722  36.363  1.00  0.00     0.001 A 
ATOM     44  C   UNL A   1      42.789  36.880  34.526  1.00  0.00     0.001 A 
ATOM     45  C   UNL A   1      42.359  36.857  35.852  1.00  0.00     0.000 A 
ENDBRANCH  26  40
BRANCH  27  46
ATOM     46  C   UNL A   1      40.383  26.880  28.169  1.00  0.00    -0.014 A 
ATOM     47  C   UNL A   1      40.887  26.861  26.861  1.00  0.00     0.009 A 
ATOM     48  C   UNL A   1      39.666  25.772  28.644  1.00  0.00     0.009 A 
ATOM     49  C   UNL A   1      40.671  25.753  26.040  1.00  0.00     0.001 A 
ATOM     50  C   UNL A   1      39.466  24.660  27.826  1.00  0.00     0.001 A 
ATOM     51  C   UNL A   1      39.964  24.652  26.524  1.00  0.00     0.000 A 
ENDBRANCH  27  46
BRANCH  39  52
ATOM     52  C   UNL A   1      45.484  28.560  32.571  1.00  0.00    -0.014 A 
ATOM     53  C   UNL A   1      45.511  27.625  33.617  1.00  0.00     0.009 A 
ATOM     54  C   UNL A   1      46.663  28.830  31.861  1.00  0.00     0.009 A 
ATOM     55  C   UNL A   1      46.704  26.988  33.960  1.00  0.00     0.001 A 
ATOM     56  C   UNL A   1      47.852  28.181  32.199  1.00  0.00     0.001 A 
ATOM     57  C   UNL A   1      47.873  27.265  33.251  1.00  0.00     0.000 A 
ENDBRANCH  39  52
ENDBRANCH  13  14
ENDBRANCH   6   8
ENDBRANCH   3   4
ENDBRANCH   2   3
ENDBRANCH   1   2
BRANCH   1  58
ATOM     58  C   UNL A   1      31.873  29.406  26.758  1.00  0.00     0.002 C 
BRANCH  58  59
ATOM     59  C   UNL A   1      32.101  28.044  26.094  1.00  0.00     0.021 C 
BRANCH  59  60
ATOM     60  C   UNL A   1      30.940  27.055  26.212  1.00  0.00     0.116 C 
BRANCH  60  61
ATOM     61  N   UNL A   1      30.977  26.053  25.161  1.00  0.00    -0.351 N 
ATOM     62  C   UNL A   1      30.208  25.961  24.030  1.00  0.00     0.269 C 
ATOM     63  H   UNL A   1      31.645  25.340  25.279  1.00  0.00     0.163 HD
ATOM     64  O   UNL A   1      30.168  24.887  23.432  1.00  0.00    -0.268 OA
BRANCH  62  65
ATOM     65  C   UNL A   1      29.449  27.098  23.604  1.00  0.00     0.123 A 
ATOM     66  C   UNL A   1      29.813  28.328  23.088  1.00  0.00     0.064 A 
ATOM     67  N   UNL A   1      28.081  27.101  23.581  1.00  0.00    -0.272 N 
ATOM     68  C   UNL A   1      28.603  29.031  22.920  1.00  0.00     0.096 A 
ATOM     69  N   UNL A   1      27.544  28.292  23.264  1.00  0.00    -0.175 NA
ATOM     70  H   UNL A   1      27.539  26.302  23.780  1.00  0.00     0.190 HD
BRANCH  68  71
ATOM     71  C   UNL A   1      28.501  30.413  22.477  1.00  0.00     0.040 A 
ATOM     72  C   UNL A   1      28.711  31.568  23.271  1.00  0.00     0.052 A 
ATOM     73  C   UNL A   1      28.186  30.862  21.216  1.00  0.00     0.205 A 
ATOM     74  C   UNL A   1      28.501  32.643  22.437  1.00  0.00     0.195 A 
ATOM     75  O   UNL A   1      28.172  32.221  21.187  1.00  0.00    -0.472 OA
ENDBRANCH  68  71
ENDBRANCH  62  65
ENDBRANCH  60  61
ENDBRANCH  59  60
ENDBRANCH  58  59
ENDBRANCH   1  58
TORSDOF 14
ENDMDL
MODEL 2
REMARK VINA RESULT:     -10.4      0.876      6.180
REMARK SMILES O=C(NCCCCCCNC(=O)c1cc(-c2ccoc2)n[nH]1)c1ccc(-c2c3nc(c(-c4ccccc4)c4ccc([nH]4)c(-c4ccccc4)c4nc(c(-c5ccccc5)c5ccc2[nH]5)C=C4)C=C3)cc1
REMARK SMILES IDX 6 1 5 2 4 3 3 4 1 5 2 6 23 8 24 9 70 10 25 11 69 12 26 13
REMARK SMILES IDX 27 14 28 15 63 16 29 17 68 18 62 19 64 20 30 21 67 22 61 23
REMARK SMILES IDX 60 24 31 26 53 27 38 28 52 29 39 30 42 31 51 32 65 33 40 34
REMARK SMILES IDX 41 35 50 37 66 38 43 39 32 40 33 41 37 42 34 43 36 44 35 45
REMARK SMILES IDX 54 46 55 47 59 48 56 49 58 50 57 51 44 52 45 53 49 54 46 55
REMARK SMILES IDX 48 56 47 57 7 58 8 59 9 60 10 61 11 62 12 64 13 65 14 66
REMARK SMILES IDX 22 67 15 68 21 69 16 71 17 72 20 73 18 74 19 75
REMARK H PARENT 3 7 64 25 42 36 10 63 22 70
REMARK Flexibility Score: inf
ROOT
ATOM      1  C   UNL A   1      31.372  30.614  25.734  1.00  0.00     0.002 C 
ENDROOT
BRANCH   1   2
ATOM      2  C   UNL A   1      31.252  31.941  26.489  1.00  0.00     0.021 C 
BRANCH   2   3
ATOM      3  C   UNL A   1      32.522  32.420  27.188  1.00  0.00     0.116 C 
BRANCH   3   4
ATOM      4  N   UNL A   1      32.424  33.793  27.651  1.00  0.00    -0.352 N 
ATOM      5  O   UNL A   1      32.914  35.606  28.892  1.00  0.00    -0.269 OA
ATOM      6  C   UNL A   1      33.237  34.482  28.514  1.00  0.00     0.251 C 
ATOM      7  H   UNL A   1      31.662  34.302  27.293  1.00  0.00     0.163 HD
BRANCH   6   8
ATOM      8  C   UNL A   1      34.494  33.878  29.017  1.00  0.00     0.039 A 
ATOM      9  C   UNL A   1      34.510  33.064  30.153  1.00  0.00     0.014 A 
ATOM     10  C   UNL A   1      35.673  34.090  28.294  1.00  0.00     0.014 A 
ATOM     11  C   UNL A   1      35.717  32.541  30.616  1.00  0.00     0.010 A 
ATOM     12  C   UNL A   1      36.875  33.528  28.732  1.00  0.00     0.010 A 
ATOM     13  C   UNL A   1      36.910  32.765  29.908  1.00  0.00    -0.014 A 
BRANCH  13  14
ATOM     14  C   UNL A   1      38.173  32.150  30.381  1.00  0.00     0.031 A 
ATOM     15  C   UNL A   1      38.659  30.846  29.817  1.00  0.00     0.074 A 
ATOM     16  C   UNL A   1      38.902  32.789  31.315  1.00  0.00     0.049 A 
ATOM     17  N   UNL A   1      39.762  30.193  30.089  1.00  0.00    -0.248 NA
ATOM     18  C   UNL A   1      37.800  30.188  28.821  1.00  0.00     0.031 C 
ATOM     19  C   UNL A   1      38.537  34.058  31.948  1.00  0.00     0.029 A 
ATOM     20  N   UNL A   1      40.109  32.468  31.880  1.00  0.00    -0.354 N 
ATOM     21  C   UNL A   1      39.725  29.044  29.310  1.00  0.00     0.074 A 
ATOM     22  C   UNL A   1      38.484  29.081  28.564  1.00  0.00     0.031 C 
ATOM     23  C   UNL A   1      39.521  34.429  32.782  1.00  0.00     0.029 A 
ATOM     24  C   UNL A   1      40.566  33.411  32.766  1.00  0.00     0.049 A 
ATOM     25  H   UNL A   1      40.602  31.642  31.668  1.00  0.00     0.167 HD
ATOM     26  C   UNL A   1      40.641  28.052  29.219  1.00  0.00     0.031 A 
ATOM     27  C   UNL A   1      41.702  33.455  33.487  1.00  0.00     0.031 A 
ATOM     28  C   UNL A   1      41.879  28.008  29.952  1.00  0.00     0.049 A 
ATOM     29  C   UNL A   1      42.693  32.336  33.378  1.00  0.00     0.074 A 
ATOM     30  C   UNL A   1      42.878  27.050  29.903  1.00  0.00     0.029 A 
ATOM     31  N   UNL A   1      42.285  28.963  30.869  1.00  0.00    -0.354 N 
ATOM     32  N   UNL A   1      42.649  31.267  32.621  1.00  0.00    -0.248 NA
ATOM     33  C   UNL A   1      43.888  32.429  34.228  1.00  0.00     0.031 C 
ATOM     34  C   UNL A   1      43.879  27.414  30.811  1.00  0.00     0.029 A 
ATOM     35  C   UNL A   1      43.513  28.612  31.403  1.00  0.00     0.049 A 
ATOM     36  H   UNL A   1      41.777  29.773  31.104  1.00  0.00     0.167 HD
ATOM     37  C   UNL A   1      43.810  30.562  32.900  1.00  0.00     0.074 A 
ATOM     38  C   UNL A   1      44.547  31.331  33.882  1.00  0.00     0.031 C 
ATOM     39  C   UNL A   1      44.226  29.379  32.388  1.00  0.00     0.031 A 
BRANCH  26  40
ATOM     40  C   UNL A   1      40.329  26.913  28.295  1.00  0.00    -0.014 A 
ATOM     41  C   UNL A   1      39.550  25.829  28.727  1.00  0.00     0.009 A 
ATOM     42  C   UNL A   1      40.783  26.944  26.968  1.00  0.00     0.009 A 
ATOM     43  C   UNL A   1      39.249  24.785  27.850  1.00  0.00     0.001 A 
ATOM     44  C   UNL A   1      40.468  25.905  26.090  1.00  0.00     0.001 A 
ATOM     45  C   UNL A   1      39.706  24.824  26.533  1.00  0.00     0.000 A 
ENDBRANCH  26  40
BRANCH  27  46
ATOM     46  C   UNL A   1      41.961  34.616  34.371  1.00  0.00    -0.014 A 
ATOM     47  C   UNL A   1      42.537  35.783  33.850  1.00  0.00     0.009 A 
ATOM     48  C   UNL A   1      41.612  34.569  35.728  1.00  0.00     0.009 A 
ATOM     49  C   UNL A   1      42.767  36.883  34.678  1.00  0.00     0.001 A 
ATOM     50  C   UNL A   1      41.828  35.676  36.549  1.00  0.00     0.001 A 
ATOM     51  C   UNL A   1      42.408  36.831  36.025  1.00  0.00     0.000 A 
ENDBRANCH  27  46
BRANCH  39  52
ATOM     52  C   UNL A   1      45.538  28.852  32.885  1.00  0.00    -0.014 A 
ATOM     53  C   UNL A   1      46.737  29.198  32.244  1.00  0.00     0.009 A 
ATOM     54  C   UNL A   1      45.577  28.019  34.012  1.00  0.00     0.009 A 
ATOM     55  C   UNL A   1      47.953  28.700  32.713  1.00  0.00     0.001 A 
ATOM     56  C   UNL A   1      46.797  27.533  34.485  1.00  0.00     0.001 A 
ATOM     57  C   UNL A   1      47.983  27.869  33.833  1.00  0.00     0.000 A 
ENDBRANCH  39  52
ENDBRANCH  13  14
ENDBRANCH   6   8
ENDBRANCH   3   4
ENDBRANCH   2   3
ENDBRANCH   1   2
BRANCH   1  58
ATOM     58  C   UNL A   1      31.847  29.413  26.557  1.00  0.00     0.002 C 
BRANCH  58  59
ATOM     59  C   UNL A   1      32.741  28.408  25.822  1.00  0.00     0.021 C 
BRANCH  59  60
ATOM     60  C   UNL A   1      33.260  28.868  24.459  1.00  0.00     0.116 C 
BRANCH  60  61
ATOM     61  N   UNL A   1      33.125  27.831  23.452  1.00  0.00    -0.351 N 
ATOM     62  C   UNL A   1      32.025  27.487  22.710  1.00  0.00     0.269 C 
ATOM     63  H   UNL A   1      33.936  27.301  23.278  1.00  0.00     0.163 HD
ATOM     64  O   UNL A   1      32.014  26.393  22.147  1.00  0.00    -0.268 OA
BRANCH  62  65
ATOM     65  C   UNL A   1      30.912  28.387  22.647  1.00  0.00     0.123 A 
ATOM     66  C   UNL A   1      30.685  29.548  21.932  1.00  0.00     0.064 A 
ATOM     67  N   UNL A   1      29.743  28.157  23.321  1.00  0.00    -0.272 N 
ATOM     68  C   UNL A   1      29.417  29.997  22.351  1.00  0.00     0.096 A 
ATOM     69  N   UNL A   1      28.858  29.165  23.235  1.00  0.00    -0.175 NA
ATOM     70  H   UNL A   1      29.567  27.327  23.823  1.00  0.00     0.190 HD
BRANCH  68  71
ATOM     71  C   UNL A   1      28.795  31.241  21.923  1.00  0.00     0.040 A 
ATOM     72  C   UNL A   1      28.127  31.467  20.694  1.00  0.00     0.052 A 
ATOM     73  C   UNL A   1      28.736  32.425  22.619  1.00  0.00     0.205 A 
ATOM     74  C   UNL A   1      27.712  32.780  20.725  1.00  0.00     0.195 A 
ATOM     75  O   UNL A   1      28.087  33.372  21.890  1.00  0.00    -0.472 OA
ENDBRANCH  68  71
ENDBRANCH  62  65
ENDBRANCH  60  61
ENDBRANCH  59  60
ENDBRANCH  58  59
ENDBRANCH   1  58
TORSDOF 14
ENDMDL
MODEL 3
REMARK VINA RESULT:     -10.3      4.817      9.792
REMARK SMILES O=C(NCCCCCCNC(=O)c1cc(-c2ccoc2)n[nH]1)c1ccc(-c2c3nc(c(-c4ccccc4)c4ccc([nH]4)c(-c4ccccc4)c4nc(c(-c5ccccc5)c5ccc2[nH]5)C=C4)C=C3)cc1
REMARK SMILES IDX 6 1 5 2 4 3 3 4 1 5 2 6 23 8 24 9 70 10 25 11 69 12 26 13
REMARK SMILES IDX 27 14 28 15 63 16 29 17 68 18 62 19 64 20 30 21 67 22 61 23
REMARK SMILES IDX 60 24 31 26 53 27 38 28 52 29 39 30 42 31 51 32 65 33 40 34
REMARK SMILES IDX 41 35 50 37 66 38 43 39 32 40 33 41 37 42 34 43 36 44 35 45
REMARK SMILES IDX 54 46 55 47 59 48 56 49 58 50 57 51 44 52 45 53 49 54 46 55
REMARK SMILES IDX 48 56 47 57 7 58 8 59 9 60 10 61 11 62 12 64 13 65 14 66
REMARK SMILES IDX 22 67 15 68 21 69 16 71 17 72 20 73 18 74 19 75
REMARK H PARENT 3 7 64 25 42 36 10 63 22 70
REMARK Flexibility Score: inf
ROOT
ATOM      1  C   UNL A   1      37.255  21.055  24.821  1.00  0.00     0.002 C 
ENDROOT
BRANCH   1   2
ATOM      2  C   UNL A   1      38.260  19.900  24.869  1.00  0.00     0.021 C 
BRANCH   2   3
ATOM      3  C   UNL A   1      39.186  19.880  26.082  1.00  0.00     0.116 C 
BRANCH   3   4
ATOM      4  N   UNL A   1      40.424  19.164  25.833  1.00  0.00    -0.352 N 
ATOM      5  O   UNL A   1      42.639  18.881  25.549  1.00  0.00    -0.269 OA
ATOM      6  C   UNL A   1      41.720  19.601  25.934  1.00  0.00     0.251 C 
ATOM      7  H   UNL A   1      40.316  18.228  25.549  1.00  0.00     0.163 HD
BRANCH   6   8
ATOM      8  C   UNL A   1      42.027  20.943  26.483  1.00  0.00     0.039 A 
ATOM      9  C   UNL A   1      42.239  22.042  25.647  1.00  0.00     0.014 A 
ATOM     10  C   UNL A   1      42.044  21.109  27.871  1.00  0.00     0.014 A 
ATOM     11  C   UNL A   1      42.560  23.283  26.198  1.00  0.00     0.010 A 
ATOM     12  C   UNL A   1      42.319  22.363  28.425  1.00  0.00     0.010 A 
ATOM     13  C   UNL A   1      42.599  23.456  27.592  1.00  0.00    -0.014 A 
BRANCH  13  14
ATOM     14  C   UNL A   1      42.880  24.796  28.161  1.00  0.00     0.031 A 
ATOM     15  C   UNL A   1      44.281  25.214  28.503  1.00  0.00     0.074 A 
ATOM     16  C   UNL A   1      41.860  25.653  28.349  1.00  0.00     0.049 A 
ATOM     17  N   UNL A   1      44.705  26.362  28.969  1.00  0.00    -0.248 NA
ATOM     18  C   UNL A   1      45.344  24.217  28.299  1.00  0.00     0.031 C 
ATOM     19  C   UNL A   1      40.452  25.367  28.064  1.00  0.00     0.029 A 
ATOM     20  N   UNL A   1      41.853  26.945  28.808  1.00  0.00    -0.354 N 
ATOM     21  C   UNL A   1      46.078  26.225  29.125  1.00  0.00     0.074 A 
ATOM     22  C   UNL A   1      46.416  24.876  28.718  1.00  0.00     0.031 C 
ATOM     23  C   UNL A   1      39.724  26.466  28.313  1.00  0.00     0.029 A 
ATOM     24  C   UNL A   1      40.606  27.519  28.805  1.00  0.00     0.049 A 
ATOM     25  H   UNL A   1      42.663  27.416  29.108  1.00  0.00     0.167 HD
ATOM     26  C   UNL A   1      46.977  27.138  29.562  1.00  0.00     0.031 A 
ATOM     27  C   UNL A   1      40.213  28.757  29.156  1.00  0.00     0.031 A 
ATOM     28  C   UNL A   1      46.652  28.481  29.965  1.00  0.00     0.049 A 
ATOM     29  C   UNL A   1      41.227  29.745  29.651  1.00  0.00     0.074 A 
ATOM     30  C   UNL A   1      47.506  29.482  30.400  1.00  0.00     0.029 A 
ATOM     31  N   UNL A   1      45.373  29.010  29.984  1.00  0.00    -0.354 N 
ATOM     32  N   UNL A   1      42.524  29.602  29.772  1.00  0.00    -0.248 NA
ATOM     33  C   UNL A   1      40.719  31.062  30.059  1.00  0.00     0.031 C 
ATOM     34  C   UNL A   1      46.736  30.611  30.706  1.00  0.00     0.029 A 
ATOM     35  C   UNL A   1      45.410  30.318  30.436  1.00  0.00     0.049 A 
ATOM     36  H   UNL A   1      44.558  28.528  29.715  1.00  0.00     0.167 HD
ATOM     37  C   UNL A   1      42.989  30.811  30.269  1.00  0.00     0.074 A 
ATOM     38  C   UNL A   1      41.839  31.681  30.409  1.00  0.00     0.031 C 
ATOM     39  C   UNL A   1      44.258  31.166  30.583  1.00  0.00     0.031 A 
BRANCH  26  40
ATOM     40  C   UNL A   1      48.410  26.706  29.642  1.00  0.00    -0.014 A 
ATOM     41  C   UNL A   1      48.903  26.055  30.784  1.00  0.00     0.009 A 
ATOM     42  C   UNL A   1      49.266  26.912  28.550  1.00  0.00     0.009 A 
ATOM     43  C   UNL A   1      50.234  25.639  30.837  1.00  0.00     0.001 A 
ATOM     44  C   UNL A   1      50.592  26.481  28.601  1.00  0.00     0.001 A 
ATOM     45  C   UNL A   1      51.077  25.849  29.746  1.00  0.00     0.000 A 
ENDBRANCH  26  40
BRANCH  27  46
ATOM     46  C   UNL A   1      38.784  29.131  29.039  1.00  0.00    -0.014 A 
ATOM     47  C   UNL A   1      38.275  29.597  27.819  1.00  0.00     0.009 A 
ATOM     48  C   UNL A   1      37.922  29.000  30.138  1.00  0.00     0.009 A 
ATOM     49  C   UNL A   1      36.925  29.933  27.703  1.00  0.00     0.001 A 
ATOM     50  C   UNL A   1      36.570  29.321  30.014  1.00  0.00     0.001 A 
ATOM     51  C   UNL A   1      36.073  29.791  28.799  1.00  0.00     0.000 A 
ENDBRANCH  27  46
BRANCH  39  52
ATOM     52  C   UNL A   1      44.461  32.554  31.107  1.00  0.00    -0.014 A 
ATOM     53  C   UNL A   1      44.707  33.622  30.230  1.00  0.00     0.009 A 
ATOM     54  C   UNL A   1      44.386  32.801  32.485  1.00  0.00     0.009 A 
ATOM     55  C   UNL A   1      44.898  34.911  30.729  1.00  0.00     0.001 A 
ATOM     56  C   UNL A   1      44.565  34.095  32.979  1.00  0.00     0.001 A 
ATOM     57  C   UNL A   1      44.826  35.147  32.102  1.00  0.00     0.000 A 
ENDBRANCH  39  52
ENDBRANCH  13  14
ENDBRANCH   6   8
ENDBRANCH   3   4
ENDBRANCH   2   3
ENDBRANCH   1   2
BRANCH   1  58
ATOM     58  C   UNL A   1      37.666  22.335  25.554  1.00  0.00     0.002 C 
BRANCH  58  59
ATOM     59  C   UNL A   1      37.081  23.640  25.003  1.00  0.00     0.021 C 
BRANCH  59  60
ATOM     60  C   UNL A   1      35.635  23.554  24.512  1.00  0.00     0.116 C 
BRANCH  60  61
ATOM     61  N   UNL A   1      34.698  24.044  25.507  1.00  0.00    -0.351 N 
ATOM     62  C   UNL A   1      33.484  23.526  25.877  1.00  0.00     0.269 C 
ATOM     63  H   UNL A   1      34.972  24.862  25.981  1.00  0.00     0.163 HD
ATOM     64  O   UNL A   1      32.703  24.244  26.499  1.00  0.00    -0.268 OA
BRANCH  62  65
ATOM     65  C   UNL A   1      33.147  22.187  25.496  1.00  0.00     0.123 A 
ATOM     66  C   UNL A   1      33.855  21.190  24.851  1.00  0.00     0.064 A 
ATOM     67  N   UNL A   1      31.947  21.612  25.817  1.00  0.00    -0.272 N 
ATOM     68  C   UNL A   1      32.949  20.118  24.721  1.00  0.00     0.096 A 
ATOM     69  N   UNL A   1      31.765  20.394  25.276  1.00  0.00    -0.175 NA
ATOM     70  H   UNL A   1      31.278  22.051  26.393  1.00  0.00     0.190 HD
BRANCH  68  71
ATOM     71  C   UNL A   1      33.232  18.873  24.024  1.00  0.00     0.040 A 
ATOM     72  C   UNL A   1      34.330  18.009  24.260  1.00  0.00     0.052 A 
ATOM     73  C   UNL A   1      32.499  18.300  23.011  1.00  0.00     0.205 A 
ATOM     74  C   UNL A   1      34.191  16.969  23.368  1.00  0.00     0.195 A 
ATOM     75  O   UNL A   1      33.084  17.145  22.599  1.00  0.00    -0.472 OA
ENDBRANCH  68  71
ENDBRANCH  62  65
ENDBRANCH  60  61
ENDBRANCH  59  60
ENDBRANCH  58  59
ENDBRANCH   1  58
TORSDOF 14
ENDMDL
