MODEL 1
REMARK VINA RESULT:     -11.4      0.000      0.000
REMARK SMILES O=C(NCCCCCCNC(=O)c1coc(-c2csc(-c3ccc(Cl)cn3)n2)c1)c1ccc(-c2c3nc(c(-c4ccccc4)c4ccc([nH]4)c(-c4ccccc4)c4nc(c(-c5ccccc5)c5ccc2[nH]5)C=C4)C=C3)cc1
REMARK SMILES IDX 6 1 5 2 4 3 3 4 1 5 2 6 30 8 31 9 77 10 32 11 76 12 33 13
REMARK SMILES IDX 34 14 35 15 70 16 36 17 75 18 69 19 71 20 37 21 74 22 68 23
REMARK SMILES IDX 67 24 38 26 60 27 45 28 59 29 46 30 49 31 58 32 72 33 47 34
REMARK SMILES IDX 48 35 57 37 73 38 50 39 39 40 40 41 44 42 41 43 43 44 42 45
REMARK SMILES IDX 61 46 62 47 66 48 63 49 65 50 64 51 51 52 52 53 56 54 53 55
REMARK SMILES IDX 55 56 54 57 7 58 8 59 9 60 10 61 11 62 12 64 13 65 14 66
REMARK SMILES IDX 29 67 15 68 16 69 17 70 18 71 28 72 19 73 20 74 21 75 22 76
REMARK SMILES IDX 27 77 23 78 26 79 24 80 25 81
REMARK H PARENT 3 7 71 25 49 36 10 63
REMARK Flexibility Score: inf
ROOT
ATOM      1  C   UNL A   1      37.209  21.121  24.321  1.00  0.00     0.002 C 
ENDROOT
BRANCH   1   2
ATOM      2  C   UNL A   1      37.959  19.852  24.740  1.00  0.00     0.021 C 
BRANCH   2   3
ATOM      3  C   UNL A   1      38.896  20.004  25.937  1.00  0.00     0.116 C 
BRANCH   3   4
ATOM      4  N   UNL A   1      40.120  19.238  25.793  1.00  0.00    -0.352 N 
ATOM      5  O   UNL A   1      42.339  18.869  25.726  1.00  0.00    -0.269 OA
ATOM      6  C   UNL A   1      41.418  19.623  26.025  1.00  0.00     0.251 C 
ATOM      7  H   UNL A   1      40.004  18.310  25.484  1.00  0.00     0.163 HD
BRANCH   6   8
ATOM      8  C   UNL A   1      41.722  20.950  26.609  1.00  0.00     0.039 A 
ATOM      9  C   UNL A   1      41.737  21.157  27.992  1.00  0.00     0.014 A 
ATOM     10  C   UNL A   1      42.063  21.996  25.743  1.00  0.00     0.014 A 
ATOM     11  C   UNL A   1      42.019  22.425  28.502  1.00  0.00     0.010 A 
ATOM     12  C   UNL A   1      42.373  23.259  26.256  1.00  0.00     0.010 A 
ATOM     13  C   UNL A   1      42.335  23.486  27.638  1.00  0.00    -0.014 A 
BRANCH  13  14
ATOM     14  C   UNL A   1      42.656  24.820  28.198  1.00  0.00     0.031 A 
ATOM     15  C   UNL A   1      44.074  25.203  28.506  1.00  0.00     0.074 A 
ATOM     16  C   UNL A   1      41.663  25.703  28.406  1.00  0.00     0.049 A 
ATOM     17  N   UNL A   1      44.541  26.350  28.931  1.00  0.00    -0.248 NA
ATOM     18  C   UNL A   1      45.100  24.166  28.312  1.00  0.00     0.031 C 
ATOM     19  C   UNL A   1      40.242  25.453  28.162  1.00  0.00     0.029 A 
ATOM     20  N   UNL A   1      41.706  26.998  28.856  1.00  0.00    -0.354 N 
ATOM     21  C   UNL A   1      45.911  26.173  29.065  1.00  0.00     0.074 A 
ATOM     22  C   UNL A   1      46.201  24.806  28.685  1.00  0.00     0.031 C 
ATOM     23  C   UNL A   1      39.551  26.572  28.433  1.00  0.00     0.029 A 
ATOM     24  C   UNL A   1      40.477  27.608  28.882  1.00  0.00     0.049 A 
ATOM     25  H   UNL A   1      42.537  27.447  29.134  1.00  0.00     0.167 HD
ATOM     26  C   UNL A   1      46.846  27.068  29.463  1.00  0.00     0.031 A 
ATOM     27  C   UNL A   1      40.134  28.864  29.217  1.00  0.00     0.031 A 
ATOM     28  C   UNL A   1      46.578  28.431  29.831  1.00  0.00     0.049 A 
ATOM     29  C   UNL A   1      41.188  29.835  29.655  1.00  0.00     0.074 A 
ATOM     30  C   UNL A   1      47.474  29.417  30.207  1.00  0.00     0.029 A 
ATOM     31  N   UNL A   1      45.316  28.998  29.874  1.00  0.00    -0.354 N 
ATOM     32  N   UNL A   1      42.483  29.660  29.741  1.00  0.00    -0.248 NA
ATOM     33  C   UNL A   1      40.728  31.176  30.046  1.00  0.00     0.031 C 
ATOM     34  C   UNL A   1      46.750  30.582  30.492  1.00  0.00     0.029 A 
ATOM     35  C   UNL A   1      45.406  30.318  30.283  1.00  0.00     0.049 A 
ATOM     36  H   UNL A   1      44.478  28.533  29.647  1.00  0.00     0.167 HD
ATOM     37  C   UNL A   1      42.995  30.868  30.194  1.00  0.00     0.074 A 
ATOM     38  C   UNL A   1      41.872  31.770  30.356  1.00  0.00     0.031 C 
ATOM     39  C   UNL A   1      44.282  31.198  30.450  1.00  0.00     0.031 A 
BRANCH  26  40
ATOM     40  C   UNL A   1      48.262  26.586  29.524  1.00  0.00    -0.014 A 
ATOM     41  C   UNL A   1      48.753  25.956  30.676  1.00  0.00     0.009 A 
ATOM     42  C   UNL A   1      49.105  26.740  28.412  1.00  0.00     0.009 A 
ATOM     43  C   UNL A   1      50.072  25.500  30.721  1.00  0.00     0.001 A 
ATOM     44  C   UNL A   1      50.420  26.278  28.459  1.00  0.00     0.001 A 
ATOM     45  C   UNL A   1      50.904  25.662  29.613  1.00  0.00     0.000 A 
ENDBRANCH  26  40
BRANCH  27  46
ATOM     46  C   UNL A   1      38.717  29.281  29.130  1.00  0.00    -0.014 A 
ATOM     47  C   UNL A   1      38.226  29.858  27.950  1.00  0.00     0.009 A 
ATOM     48  C   UNL A   1      37.851  29.088  30.215  1.00  0.00     0.009 A 
ATOM     49  C   UNL A   1      36.886  30.242  27.862  1.00  0.00     0.001 A 
ATOM     50  C   UNL A   1      36.511  29.468  30.120  1.00  0.00     0.001 A 
ATOM     51  C   UNL A   1      36.032  30.046  28.946  1.00  0.00     0.000 A 
ENDBRANCH  27  46
BRANCH  39  52
ATOM     52  C   UNL A   1      44.538  32.590  30.936  1.00  0.00    -0.014 A 
ATOM     53  C   UNL A   1      44.654  32.853  32.309  1.00  0.00     0.009 A 
ATOM     54  C   UNL A   1      44.683  33.642  30.020  1.00  0.00     0.009 A 
ATOM     55  C   UNL A   1      44.893  34.152  32.757  1.00  0.00     0.001 A 
ATOM     56  C   UNL A   1      44.928  34.939  30.472  1.00  0.00     0.001 A 
ATOM     57  C   UNL A   1      45.029  35.193  31.840  1.00  0.00     0.000 A 
ENDBRANCH  39  52
ENDBRANCH  13  14
ENDBRANCH   6   8
ENDBRANCH   3   4
ENDBRANCH   2   3
ENDBRANCH   1   2
BRANCH   1  58
ATOM     58  C   UNL A   1      36.167  21.641  25.316  1.00  0.00     0.002 C 
BRANCH  58  59
ATOM     59  C   UNL A   1      34.940  22.330  24.701  1.00  0.00     0.021 C 
BRANCH  59  60
ATOM     60  C   UNL A   1      33.610  21.606  24.921  1.00  0.00     0.116 C 
BRANCH  60  61
ATOM     61  N   UNL A   1      33.218  21.624  26.318  1.00  0.00    -0.352 N 
ATOM     62  C   UNL A   1      32.584  22.609  27.026  1.00  0.00     0.254 C 
ATOM     63  H   UNL A   1      33.441  20.812  26.830  1.00  0.00     0.163 HD
ATOM     64  O   UNL A   1      32.562  22.551  28.251  1.00  0.00    -0.269 OA
BRANCH  62  65
ATOM     65  C   UNL A   1      31.954  23.688  26.301  1.00  0.00     0.078 A 
ATOM     66  C   UNL A   1      30.793  23.596  25.565  1.00  0.00     0.209 A 
ATOM     67  C   UNL A   1      32.313  25.064  26.275  1.00  0.00     0.066 A 
ATOM     68  O   UNL A   1      30.419  24.816  25.097  1.00  0.00    -0.462 OA
ATOM     69  C   UNL A   1      31.351  25.717  25.530  1.00  0.00     0.153 A 
BRANCH  69  70
ATOM     70  C   UNL A   1      31.311  27.182  25.264  1.00  0.00     0.117 A 
ATOM     71  C   UNL A   1      32.095  28.082  25.951  1.00  0.00     0.099 A 
ATOM     72  N   UNL A   1      30.479  27.726  24.303  1.00  0.00    -0.231 NA
ATOM     73  S   UNL A   1      31.847  29.659  25.326  1.00  0.00    -0.120 S 
ATOM     74  C   UNL A   1      30.678  29.029  24.227  1.00  0.00     0.142 A 
BRANCH  74  75
ATOM     75  C   UNL A   1      29.934  29.942  23.354  1.00  0.00     0.099 A 
ATOM     76  C   UNL A   1      29.355  31.100  23.872  1.00  0.00     0.033 A 
ATOM     77  N   UNL A   1      29.828  29.586  22.047  1.00  0.00    -0.252 NA
ATOM     78  C   UNL A   1      28.648  31.941  23.014  1.00  0.00     0.024 A 
ATOM     79  C   UNL A   1      29.115  30.413  21.243  1.00  0.00     0.132 A 
ATOM     80  C   UNL A   1      28.520  31.589  21.676  1.00  0.00     0.059 A 
ATOM     81  Cl  UNL A   1      27.645  32.587  20.589  1.00  0.00    -0.083 Cl
ENDBRANCH  74  75
ENDBRANCH  69  70
ENDBRANCH  62  65
ENDBRANCH  60  61
ENDBRANCH  59  60
ENDBRANCH  58  59
ENDBRANCH   1  58
TORSDOF 15
ENDMDL
MODEL 2
REMARK VINA RESULT:     -11.3      4.009      9.555
REMARK SMILES O=C(NCCCCCCNC(=O)c1coc(-c2csc(-c3ccc(Cl)cn3)n2)c1)c1ccc(-c2c3nc(c(-c4ccccc4)c4ccc([nH]4)c(-c4ccccc4)c4nc(c(-c5ccccc5)c5ccc2[nH]5)C=C4)C=C3)cc1
REMARK SMILES IDX 6 1 5 2 4 3 3 4 1 5 2 6 30 8 31 9 77 10 32 11 76 12 33 13
REMARK SMILES IDX 34 14 35 15 70 16 36 17 75 18 69 19 71 20 37 21 74 22 68 23
REMARK SMILES IDX 67 24 38 26 60 27 45 28 59 29 46 30 49 31 58 32 72 33 47 34
REMARK SMILES IDX 48 35 57 37 73 38 50 39 39 40 40 41 44 42 41 43 43 44 42 45
REMARK SMILES IDX 61 46 62 47 66 48 63 49 65 50 64 51 51 52 52 53 56 54 53 55
REMARK SMILES IDX 55 56 54 57 7 58 8 59 9 60 10 61 11 62 12 64 13 65 14 66
REMARK SMILES IDX 29 67 15 68 16 69 17 70 18 71 28 72 19 73 20 74 21 75 22 76
REMARK SMILES IDX 27 77 23 78 26 79 24 80 25 81
REMARK H PARENT 3 7 71 25 49 36 10 63
REMARK Flexibility Score: inf
ROOT
ATOM      1  C   UNL A   1      31.832  30.534  26.950  1.00  0.00     0.002 C 
ENDROOT
BRANCH   1   2
ATOM      2  C   UNL A   1      31.521  32.026  26.791  1.00  0.00     0.021 C 
BRANCH   2   3
ATOM      3  C   UNL A   1      32.715  32.968  26.937  1.00  0.00     0.116 C 
BRANCH   3   4
ATOM      4  N   UNL A   1      32.439  34.094  27.810  1.00  0.00    -0.352 N 
ATOM      5  O   UNL A   1      32.682  35.441  29.596  1.00  0.00    -0.269 OA
ATOM      6  C   UNL A   1      33.142  34.539  28.902  1.00  0.00     0.251 C 
ATOM      7  H   UNL A   1      31.632  34.613  27.587  1.00  0.00     0.163 HD
BRANCH   6   8
ATOM      8  C   UNL A   1      34.440  33.926  29.269  1.00  0.00     0.039 A 
ATOM      9  C   UNL A   1      34.522  32.886  30.200  1.00  0.00     0.014 A 
ATOM     10  C   UNL A   1      35.595  34.366  28.611  1.00  0.00     0.014 A 
ATOM     11  C   UNL A   1      35.765  32.341  30.526  1.00  0.00     0.010 A 
ATOM     12  C   UNL A   1      36.836  33.801  28.917  1.00  0.00     0.010 A 
ATOM     13  C   UNL A   1      36.931  32.797  29.890  1.00  0.00    -0.014 A 
BRANCH  13  14
ATOM     14  C   UNL A   1      38.239  32.191  30.230  1.00  0.00     0.031 A 
ATOM     15  C   UNL A   1      39.149  32.836  31.234  1.00  0.00     0.074 A 
ATOM     16  C   UNL A   1      38.600  31.033  29.646  1.00  0.00     0.049 A 
ATOM     17  N   UNL A   1      40.293  32.406  31.702  1.00  0.00    -0.248 NA
ATOM     18  C   UNL A   1      38.718  34.131  31.785  1.00  0.00     0.031 C 
ATOM     19  C   UNL A   1      37.816  30.309  28.645  1.00  0.00     0.029 A 
ATOM     20  N   UNL A   1      39.715  30.255  29.829  1.00  0.00    -0.354 N 
ATOM     21  C   UNL A   1      40.726  33.378  32.593  1.00  0.00     0.074 A 
ATOM     22  C   UNL A   1      39.725  34.425  32.597  1.00  0.00     0.031 C 
ATOM     23  C   UNL A   1      38.460  29.174  28.326  1.00  0.00     0.029 A 
ATOM     24  C   UNL A   1      39.703  29.101  29.088  1.00  0.00     0.049 A 
ATOM     25  H   UNL A   1      40.453  30.502  30.432  1.00  0.00     0.167 HD
ATOM     26  C   UNL A   1      41.850  33.396  33.347  1.00  0.00     0.031 A 
ATOM     27  C   UNL A   1      40.587  28.089  29.036  1.00  0.00     0.031 A 
ATOM     28  C   UNL A   1      42.846  32.360  33.366  1.00  0.00     0.049 A 
ATOM     29  C   UNL A   1      41.825  28.134  29.879  1.00  0.00     0.074 A 
ATOM     30  C   UNL A   1      43.997  32.280  34.132  1.00  0.00     0.029 A 
ATOM     31  N   UNL A   1      42.811  31.223  32.576  1.00  0.00    -0.354 N 
ATOM     32  N   UNL A   1      42.199  29.044  30.743  1.00  0.00    -0.248 NA
ATOM     33  C   UNL A   1      42.763  27.011  29.734  1.00  0.00     0.031 C 
ATOM     34  C   UNL A   1      44.668  31.098  33.795  1.00  0.00     0.029 A 
ATOM     35  C   UNL A   1      43.927  30.441  32.826  1.00  0.00     0.049 A 
ATOM     36  H   UNL A   1      42.099  31.003  31.933  1.00  0.00     0.167 HD
ATOM     37  C   UNL A   1      43.414  28.605  31.247  1.00  0.00     0.074 A 
ATOM     38  C   UNL A   1      43.711  27.343  30.600  1.00  0.00     0.031 C 
ATOM     39  C   UNL A   1      44.212  29.196  32.168  1.00  0.00     0.031 A 
BRANCH  26  40
ATOM     40  C   UNL A   1      42.063  34.594  34.219  1.00  0.00    -0.014 A 
ATOM     41  C   UNL A   1      42.683  35.745  33.711  1.00  0.00     0.009 A 
ATOM     42  C   UNL A   1      41.616  34.583  35.548  1.00  0.00     0.009 A 
ATOM     43  C   UNL A   1      42.868  36.862  34.528  1.00  0.00     0.001 A 
ATOM     44  C   UNL A   1      41.797  35.704  36.359  1.00  0.00     0.001 A 
ATOM     45  C   UNL A   1      42.426  36.840  35.850  1.00  0.00     0.000 A 
ENDBRANCH  26  40
BRANCH  27  46
ATOM     46  C   UNL A   1      40.317  26.929  28.158  1.00  0.00    -0.014 A 
ATOM     47  C   UNL A   1      40.822  26.905  26.851  1.00  0.00     0.009 A 
ATOM     48  C   UNL A   1      39.572  25.840  28.630  1.00  0.00     0.009 A 
ATOM     49  C   UNL A   1      40.578  25.806  26.025  1.00  0.00     0.001 A 
ATOM     50  C   UNL A   1      39.335  24.741  27.802  1.00  0.00     0.001 A 
ATOM     51  C   UNL A   1      39.836  24.726  26.501  1.00  0.00     0.000 A 
ENDBRANCH  27  46
BRANCH  39  52
ATOM     52  C   UNL A   1      45.480  28.483  32.519  1.00  0.00    -0.014 A 
ATOM     53  C   UNL A   1      45.495  27.525  33.545  1.00  0.00     0.009 A 
ATOM     54  C   UNL A   1      46.661  28.753  31.813  1.00  0.00     0.009 A 
ATOM     55  C   UNL A   1      46.679  26.862  33.868  1.00  0.00     0.001 A 
ATOM     56  C   UNL A   1      47.841  28.083  32.135  1.00  0.00     0.001 A 
ATOM     57  C   UNL A   1      47.851  27.142  33.165  1.00  0.00     0.000 A 
ENDBRANCH  39  52
ENDBRANCH  13  14
ENDBRANCH   6   8
ENDBRANCH   3   4
ENDBRANCH   2   3
ENDBRANCH   1   2
BRANCH   1  58
ATOM     58  C   UNL A   1      31.733  29.691  25.675  1.00  0.00     0.002 C 
BRANCH  58  59
ATOM     59  C   UNL A   1      33.062  29.381  24.973  1.00  0.00     0.021 C 
BRANCH  59  60
ATOM     60  C   UNL A   1      32.970  29.203  23.455  1.00  0.00     0.116 C 
BRANCH  60  61
ATOM     61  N   UNL A   1      31.594  29.246  22.997  1.00  0.00    -0.352 N 
ATOM     62  C   UNL A   1      30.819  28.236  22.491  1.00  0.00     0.254 C 
ATOM     63  H   UNL A   1      31.155  30.125  23.060  1.00  0.00     0.163 HD
ATOM     64  O   UNL A   1      29.767  28.512  21.923  1.00  0.00    -0.269 OA
BRANCH  62  65
ATOM     65  C   UNL A   1      31.268  26.872  22.647  1.00  0.00     0.078 A 
ATOM     66  C   UNL A   1      31.816  26.085  21.657  1.00  0.00     0.209 A 
ATOM     67  C   UNL A   1      31.349  26.099  23.837  1.00  0.00     0.066 A 
ATOM     68  O   UNL A   1      32.226  24.892  22.161  1.00  0.00    -0.462 OA
ATOM     69  C   UNL A   1      31.939  24.898  23.497  1.00  0.00     0.153 A 
BRANCH  69  70
ATOM     70  C   UNL A   1      32.249  23.789  24.442  1.00  0.00     0.117 A 
ATOM     71  C   UNL A   1      32.241  23.956  25.810  1.00  0.00     0.099 A 
ATOM     72  N   UNL A   1      32.564  22.518  23.998  1.00  0.00    -0.231 NA
ATOM     73  S   UNL A   1      32.559  22.456  26.576  1.00  0.00    -0.120 S 
ATOM     74  C   UNL A   1      32.736  21.715  25.031  1.00  0.00     0.142 A 
BRANCH  74  75
ATOM     75  C   UNL A   1      33.132  20.306  24.940  1.00  0.00     0.099 A 
ATOM     76  C   UNL A   1      34.464  19.960  24.715  1.00  0.00     0.033 A 
ATOM     77  N   UNL A   1      32.142  19.384  25.066  1.00  0.00    -0.252 NA
ATOM     78  C   UNL A   1      34.803  18.610  24.628  1.00  0.00     0.024 A 
ATOM     79  C   UNL A   1      32.500  18.081  24.954  1.00  0.00     0.132 A 
ATOM     80  C   UNL A   1      33.802  17.653  24.743  1.00  0.00     0.059 A 
ATOM     81  Cl  UNL A   1      34.174  15.982  24.625  1.00  0.00    -0.083 Cl
ENDBRANCH  74  75
ENDBRANCH  69  70
ENDBRANCH  62  65
ENDBRANCH  60  61
ENDBRANCH  59  60
ENDBRANCH  58  59
ENDBRANCH   1  58
TORSDOF 15
ENDMDL
MODEL 3
REMARK VINA RESULT:     -11.2      4.751     10.085
REMARK SMILES O=C(NCCCCCCNC(=O)c1coc(-c2csc(-c3ccc(Cl)cn3)n2)c1)c1ccc(-c2c3nc(c(-c4ccccc4)c4ccc([nH]4)c(-c4ccccc4)c4nc(c(-c5ccccc5)c5ccc2[nH]5)C=C4)C=C3)cc1
REMARK SMILES IDX 6 1 5 2 4 3 3 4 1 5 2 6 30 8 31 9 77 10 32 11 76 12 33 13
REMARK SMILES IDX 34 14 35 15 70 16 36 17 75 18 69 19 71 20 37 21 74 22 68 23
REMARK SMILES IDX 67 24 38 26 60 27 45 28 59 29 46 30 49 31 58 32 72 33 47 34
REMARK SMILES IDX 48 35 57 37 73 38 50 39 39 40 40 41 44 42 41 43 43 44 42 45
REMARK SMILES IDX 61 46 62 47 66 48 63 49 65 50 64 51 51 52 52 53 56 54 53 55
REMARK SMILES IDX 55 56 54 57 7 58 8 59 9 60 10 61 11 62 12 64 13 65 14 66
REMARK SMILES IDX 29 67 15 68 16 69 17 70 18 71 28 72 19 73 20 74 21 75 22 76
REMARK SMILES IDX 27 77 23 78 26 79 24 80 25 81
REMARK H PARENT 3 7 71 25 49 36 10 63
REMARK Flexibility Score: inf
ROOT
ATOM      1  C   UNL A   1      31.383  30.815  26.206  1.00  0.00     0.002 C 
ENDROOT
BRANCH   1   2
ATOM      2  C   UNL A   1      31.379  32.313  26.529  1.00  0.00     0.021 C 
BRANCH   2   3
ATOM      3  C   UNL A   1      32.683  32.869  27.100  1.00  0.00     0.116 C 
BRANCH   3   4
ATOM      4  N   UNL A   1      32.497  34.121  27.810  1.00  0.00    -0.352 N 
ATOM      5  O   UNL A   1      32.829  35.663  29.415  1.00  0.00    -0.269 OA
ATOM      6  C   UNL A   1      33.215  34.639  28.859  1.00  0.00     0.251 C 
ATOM      7  H   UNL A   1      31.748  34.677  27.495  1.00  0.00     0.163 HD
BRANCH   6   8
ATOM      8  C   UNL A   1      34.440  33.963  29.346  1.00  0.00     0.039 A 
ATOM      9  C   UNL A   1      35.716  34.448  29.046  1.00  0.00     0.014 A 
ATOM     10  C   UNL A   1      34.296  32.848  30.182  1.00  0.00     0.014 A 
ATOM     11  C   UNL A   1      36.845  33.776  29.516  1.00  0.00     0.010 A 
ATOM     12  C   UNL A   1      35.427  32.192  30.677  1.00  0.00     0.010 A 
ATOM     13  C   UNL A   1      36.709  32.641  30.332  1.00  0.00    -0.014 A 
BRANCH  13  14
ATOM     14  C   UNL A   1      37.917  31.954  30.844  1.00  0.00     0.031 A 
ATOM     15  C   UNL A   1      38.457  32.264  32.210  1.00  0.00     0.074 A 
ATOM     16  C   UNL A   1      38.519  31.023  30.081  1.00  0.00     0.049 A 
ATOM     17  N   UNL A   1      39.459  31.707  32.842  1.00  0.00    -0.248 NA
ATOM     18  C   UNL A   1      37.786  33.335  32.963  1.00  0.00     0.031 C 
ATOM     19  C   UNL A   1      38.105  30.638  28.731  1.00  0.00     0.029 A 
ATOM     20  N   UNL A   1      39.600  30.222  30.345  1.00  0.00    -0.354 N 
ATOM     21  C   UNL A   1      39.547  32.365  34.062  1.00  0.00     0.074 A 
ATOM     22  C   UNL A   1      38.502  33.367  34.079  1.00  0.00     0.031 C 
ATOM     23  C   UNL A   1      38.903  29.648  28.298  1.00  0.00     0.029 A 
ATOM     24  C   UNL A   1      39.888  29.344  29.331  1.00  0.00     0.049 A 
ATOM     25  H   UNL A   1      40.119  30.272  31.179  1.00  0.00     0.167 HD
ATOM     26  C   UNL A   1      40.414  32.150  35.079  1.00  0.00     0.031 A 
ATOM     27  C   UNL A   1      40.833  28.389  29.246  1.00  0.00     0.031 A 
ATOM     28  C   UNL A   1      41.447  31.151  35.084  1.00  0.00     0.049 A 
ATOM     29  C   UNL A   1      41.781  28.173  30.386  1.00  0.00     0.074 A 
ATOM     30  C   UNL A   1      42.344  30.840  36.093  1.00  0.00     0.029 A 
ATOM     31  N   UNL A   1      41.725  30.304  34.025  1.00  0.00    -0.354 N 
ATOM     32  N   UNL A   1      41.826  28.780  31.545  1.00  0.00    -0.248 NA
ATOM     33  C   UNL A   1      42.811  27.141  30.200  1.00  0.00     0.031 C 
ATOM     34  C   UNL A   1      43.176  29.809  35.637  1.00  0.00     0.029 A 
ATOM     35  C   UNL A   1      42.789  29.478  34.349  1.00  0.00     0.049 A 
ATOM     36  H   UNL A   1      41.239  30.291  33.169  1.00  0.00     0.167 HD
ATOM     37  C   UNL A   1      42.886  28.203  32.230  1.00  0.00     0.074 A 
ATOM     38  C   UNL A   1      43.453  27.193  31.359  1.00  0.00     0.031 C 
ATOM     39  C   UNL A   1      43.347  28.487  33.471  1.00  0.00     0.031 A 
BRANCH  26  40
ATOM     40  C   UNL A   1      40.278  33.030  36.283  1.00  0.00    -0.014 A 
ATOM     41  C   UNL A   1      41.020  34.215  36.387  1.00  0.00     0.009 A 
ATOM     42  C   UNL A   1      39.382  32.686  37.307  1.00  0.00     0.009 A 
ATOM     43  C   UNL A   1      40.878  35.036  37.508  1.00  0.00     0.001 A 
ATOM     44  C   UNL A   1      39.240  33.512  38.422  1.00  0.00     0.001 A 
ATOM     45  C   UNL A   1      39.990  34.683  38.524  1.00  0.00     0.000 A 
ENDBRANCH  26  40
BRANCH  27  46
ATOM     46  C   UNL A   1      40.912  27.548  28.032  1.00  0.00    -0.014 A 
ATOM     47  C   UNL A   1      41.757  27.917  26.975  1.00  0.00     0.009 A 
ATOM     48  C   UNL A   1      40.161  26.369  27.934  1.00  0.00     0.009 A 
ATOM     49  C   UNL A   1      41.842  27.118  25.834  1.00  0.00     0.001 A 
ATOM     50  C   UNL A   1      40.253  25.571  26.793  1.00  0.00     0.001 A 
ATOM     51  C   UNL A   1      41.091  25.947  25.744  1.00  0.00     0.000 A 
ENDBRANCH  27  46
BRANCH  39  52
ATOM     52  C   UNL A   1      44.522  27.695  33.952  1.00  0.00    -0.014 A 
ATOM     53  C   UNL A   1      44.331  26.475  34.619  1.00  0.00     0.009 A 
ATOM     54  C   UNL A   1      45.826  28.156  33.721  1.00  0.00     0.009 A 
ATOM     55  C   UNL A   1      45.430  25.740  35.064  1.00  0.00     0.001 A 
ATOM     56  C   UNL A   1      46.922  27.415  34.163  1.00  0.00     0.001 A 
ATOM     57  C   UNL A   1      46.723  26.210  34.837  1.00  0.00     0.000 A 
ENDBRANCH  39  52
ENDBRANCH  13  14
ENDBRANCH   6   8
ENDBRANCH   3   4
ENDBRANCH   2   3
ENDBRANCH   1   2
BRANCH   1  58
ATOM     58  C   UNL A   1      32.698  30.077  26.473  1.00  0.00     0.002 C 
BRANCH  58  59
ATOM     59  C   UNL A   1      33.181  29.144  25.354  1.00  0.00     0.021 C 
BRANCH  59  60
ATOM     60  C   UNL A   1      32.654  27.709  25.430  1.00  0.00     0.116 C 
BRANCH  60  61
ATOM     61  N   UNL A   1      31.525  27.510  24.540  1.00  0.00    -0.352 N 
ATOM     62  C   UNL A   1      31.410  26.672  23.463  1.00  0.00     0.254 C 
ATOM     63  H   UNL A   1      30.729  28.055  24.739  1.00  0.00     0.163 HD
ATOM     64  O   UNL A   1      30.476  26.822  22.681  1.00  0.00    -0.269 OA
BRANCH  62  65
ATOM     65  C   UNL A   1      32.396  25.631  23.286  1.00  0.00     0.078 A 
ATOM     66  C   UNL A   1      33.423  25.641  22.367  1.00  0.00     0.209 A 
ATOM     67  C   UNL A   1      32.592  24.457  24.064  1.00  0.00     0.066 A 
ATOM     68  O   UNL A   1      34.230  24.561  22.534  1.00  0.00    -0.462 OA
ATOM     69  C   UNL A   1      33.721  23.833  23.573  1.00  0.00     0.153 A 
BRANCH  69  70
ATOM     70  C   UNL A   1      34.317  22.578  24.109  1.00  0.00     0.117 A 
ATOM     71  C   UNL A   1      35.597  22.522  24.615  1.00  0.00     0.099 A 
ATOM     72  N   UNL A   1      33.614  21.387  24.132  1.00  0.00    -0.231 NA
ATOM     73  S   UNL A   1      35.913  20.948  25.215  1.00  0.00    -0.120 S 
ATOM     74  C   UNL A   1      34.344  20.450  24.707  1.00  0.00     0.142 A 
BRANCH  74  75
ATOM     75  C   UNL A   1      33.940  19.048  24.858  1.00  0.00     0.099 A 
ATOM     76  C   UNL A   1      34.718  18.027  24.312  1.00  0.00     0.033 A 
ATOM     77  N   UNL A   1      32.781  18.815  25.527  1.00  0.00    -0.252 NA
ATOM     78  C   UNL A   1      34.300  16.706  24.469  1.00  0.00     0.024 A 
ATOM     79  C   UNL A   1      32.391  17.522  25.642  1.00  0.00     0.132 A 
ATOM     80  C   UNL A   1      33.112  16.448  25.141  1.00  0.00     0.059 A 
ATOM     81  Cl  UNL A   1      32.553  14.838  25.341  1.00  0.00    -0.083 Cl
ENDBRANCH  74  75
ENDBRANCH  69  70
ENDBRANCH  62  65
ENDBRANCH  60  61
ENDBRANCH  59  60
ENDBRANCH  58  59
ENDBRANCH   1  58
TORSDOF 15
ENDMDL
