MODEL 1
REMARK VINA RESULT:     -10.5      0.000      0.000
REMARK SMILES O=C(NCCCCCCNC(=O)[C@H]1CCC[N@@H+]1Cc1ccccc1[N+](=O)[O-])c1ccc(-c2c3nc(c(-c4ccccc4)c4ccc([nH]4)c(-c4ccccc4)c4nc(c(-c5ccccc5)c5ccc2[nH]5)C=C4)C=C3)cc1
REMARK SMILES IDX 7 1 6 2 5 3 4 4 3 5 1 6 2 7 28 9 29 10 75 11 30 12 74 13
REMARK SMILES IDX 31 14 32 15 33 16 68 17 34 18 73 19 67 20 69 21 35 22 72 23
REMARK SMILES IDX 66 24 65 25 36 27 58 28 43 29 57 30 44 31 47 32 56 33 70 34
REMARK SMILES IDX 45 35 46 36 55 38 71 39 48 40 37 41 38 42 42 43 39 44 41 45
REMARK SMILES IDX 40 46 59 47 60 48 64 49 61 50 63 51 62 52 49 53 50 54 54 55
REMARK SMILES IDX 51 56 53 57 52 58 8 59 9 60 10 61 11 62 12 64 13 65 14 66
REMARK SMILES IDX 17 67 15 68 16 69 18 71 19 72 20 73 24 74 21 75 23 76 22 77
REMARK SMILES IDX 25 78 26 79 27 80
REMARK H PARENT 3 8 69 26 47 37 10 63 17 70
REMARK Flexibility Score: inf
ROOT
ATOM      1  C   UNL A   1      36.840  21.642  24.544  1.00  0.00     0.002 C 
ENDROOT
BRANCH   1   2
ATOM      2  C   UNL A   1      36.730  20.162  24.926  1.00  0.00     0.002 C 
BRANCH   2   3
ATOM      3  C   UNL A   1      38.045  19.383  24.905  1.00  0.00     0.021 C 
BRANCH   3   4
ATOM      4  C   UNL A   1      39.175  20.029  25.691  1.00  0.00     0.116 C 
BRANCH   4   5
ATOM      5  N   UNL A   1      40.362  19.192  25.742  1.00  0.00    -0.352 N 
ATOM      6  O   UNL A   1      42.573  18.758  25.882  1.00  0.00    -0.269 OA
ATOM      7  C   UNL A   1      41.652  19.545  26.057  1.00  0.00     0.251 C 
ATOM      8  H   UNL A   1      40.222  18.243  25.521  1.00  0.00     0.163 HD
BRANCH   7   9
ATOM      9  C   UNL A   1      41.927  20.896  26.597  1.00  0.00     0.039 A 
ATOM     10  C   UNL A   1      41.818  21.149  27.966  1.00  0.00     0.014 A 
ATOM     11  C   UNL A   1      42.319  21.913  25.723  1.00  0.00     0.014 A 
ATOM     12  C   UNL A   1      41.988  22.442  28.447  1.00  0.00     0.010 A 
ATOM     13  C   UNL A   1      42.568  23.197  26.218  1.00  0.00     0.010 A 
ATOM     14  C   UNL A   1      42.389  23.474  27.582  1.00  0.00    -0.014 A 
BRANCH  14  15
ATOM     15  C   UNL A   1      42.721  24.804  28.149  1.00  0.00     0.031 A 
ATOM     16  C   UNL A   1      44.127  25.166  28.534  1.00  0.00     0.074 A 
ATOM     17  C   UNL A   1      41.724  25.698  28.297  1.00  0.00     0.049 A 
ATOM     18  N   UNL A   1      44.577  26.296  29.020  1.00  0.00    -0.248 NA
ATOM     19  C   UNL A   1      45.160  24.134  28.357  1.00  0.00     0.031 C 
ATOM     20  C   UNL A   1      40.315  25.453  27.969  1.00  0.00     0.029 A 
ATOM     21  N   UNL A   1      41.738  26.994  28.744  1.00  0.00    -0.354 N 
ATOM     22  C   UNL A   1      45.937  26.107  29.227  1.00  0.00     0.074 A 
ATOM     23  C   UNL A   1      46.240  24.750  28.827  1.00  0.00     0.031 C 
ATOM     24  C   UNL A   1      39.613  26.574  28.183  1.00  0.00     0.029 A 
ATOM     25  C   UNL A   1      40.503  27.594  28.721  1.00  0.00     0.049 A 
ATOM     26  H   UNL A   1      42.555  27.450  29.052  1.00  0.00     0.167 HD
ATOM     27  C   UNL A   1      46.848  26.989  29.704  1.00  0.00     0.031 A 
ATOM     28  C   UNL A   1      40.121  28.824  29.107  1.00  0.00     0.031 A 
ATOM     29  C   UNL A   1      46.543  28.341  30.098  1.00  0.00     0.049 A 
ATOM     30  C   UNL A   1      41.150  29.765  29.657  1.00  0.00     0.074 A 
ATOM     31  C   UNL A   1      47.409  29.321  30.553  1.00  0.00     0.029 A 
ATOM     32  N   UNL A   1      45.274  28.900  30.090  1.00  0.00    -0.354 N 
ATOM     33  N   UNL A   1      42.440  29.586  29.798  1.00  0.00    -0.248 NA
ATOM     34  C   UNL A   1      40.668  31.080  30.103  1.00  0.00     0.031 C 
ATOM     35  C   UNL A   1      46.657  30.457  30.869  1.00  0.00     0.029 A 
ATOM     36  C   UNL A   1      45.331  30.202  30.561  1.00  0.00     0.049 A 
ATOM     37  H   UNL A   1      44.456  28.440  29.794  1.00  0.00     0.167 HD
ATOM     38  C   UNL A   1      42.928  30.766  30.337  1.00  0.00     0.074 A 
ATOM     39  C   UNL A   1      41.799  31.665  30.472  1.00  0.00     0.031 C 
ATOM     40  C   UNL A   1      44.197  31.077  30.695  1.00  0.00     0.031 A 
BRANCH  27  41
ATOM     41  C   UNL A   1      48.268  26.521  29.855  1.00  0.00    -0.014 A 
ATOM     42  C   UNL A   1      48.708  25.901  31.035  1.00  0.00     0.009 A 
ATOM     43  C   UNL A   1      49.153  26.626  28.771  1.00  0.00     0.009 A 
ATOM     44  C   UNL A   1      50.014  25.411  31.130  1.00  0.00     0.001 A 
ATOM     45  C   UNL A   1      50.450  26.116  28.861  1.00  0.00     0.001 A 
ATOM     46  C   UNL A   1      50.881  25.513  30.041  1.00  0.00     0.000 A 
ENDBRANCH  27  41
BRANCH  28  47
ATOM     47  C   UNL A   1      38.694  29.221  29.013  1.00  0.00    -0.014 A 
ATOM     48  C   UNL A   1      37.835  29.083  30.114  1.00  0.00     0.009 A 
ATOM     49  C   UNL A   1      38.180  29.741  27.814  1.00  0.00     0.009 A 
ATOM     50  C   UNL A   1      36.488  29.433  30.007  1.00  0.00     0.001 A 
ATOM     51  C   UNL A   1      36.841  30.120  27.719  1.00  0.00     0.001 A 
ATOM     52  C   UNL A   1      35.993  29.955  28.813  1.00  0.00     0.000 A 
ENDBRANCH  28  47
BRANCH  40  53
ATOM     53  C   UNL A   1      44.426  32.454  31.247  1.00  0.00    -0.014 A 
ATOM     54  C   UNL A   1      44.719  33.535  30.401  1.00  0.00     0.009 A 
ATOM     55  C   UNL A   1      44.330  32.675  32.629  1.00  0.00     0.009 A 
ATOM     56  C   UNL A   1      44.947  34.805  30.934  1.00  0.00     0.001 A 
ATOM     57  C   UNL A   1      44.532  33.951  33.157  1.00  0.00     0.001 A 
ATOM     58  C   UNL A   1      44.849  35.012  32.310  1.00  0.00     0.000 A 
ENDBRANCH  40  53
ENDBRANCH  14  15
ENDBRANCH   7   9
ENDBRANCH   4   5
ENDBRANCH   3   4
ENDBRANCH   2   3
ENDBRANCH   1   2
BRANCH   1  59
ATOM     59  C   UNL A   1      35.593  22.499  24.818  1.00  0.00     0.021 C 
BRANCH  59  60
ATOM     60  C   UNL A   1      35.644  23.308  26.117  1.00  0.00     0.116 C 
BRANCH  60  61
ATOM     61  N   UNL A   1      34.714  22.789  27.093  1.00  0.00    -0.351 N 
ATOM     62  C   UNL A   1      33.379  23.013  27.240  1.00  0.00     0.278 C 
ATOM     63  H   UNL A   1      35.107  22.177  27.757  1.00  0.00     0.163 HD
ATOM     64  O   UNL A   1      32.851  22.522  28.243  1.00  0.00    -0.268 OA
BRANCH  62  65
ATOM     65  C   UNL A   1      32.561  23.753  26.148  1.00  0.00     0.274 C 
ATOM     66  C   UNL A   1      31.992  22.736  25.157  1.00  0.00     0.081 C 
ATOM     67  N   UNL A   1      31.357  24.402  26.713  1.00  0.00    -0.321 N 
ATOM     68  C   UNL A   1      30.673  22.301  25.784  1.00  0.00     0.068 C 
ATOM     69  C   UNL A   1      30.354  23.347  26.845  1.00  0.00     0.263 C 
ATOM     70  H   UNL A   1      31.579  24.796  27.627  1.00  0.00     0.349 HD
BRANCH  67  71
ATOM     71  C   UNL A   1      30.906  25.638  26.053  1.00  0.00     0.307 C 
BRANCH  71  72
ATOM     72  C   UNL A   1      31.823  26.847  26.042  1.00  0.00     0.084 A 
ATOM     73  C   UNL A   1      31.838  27.687  27.176  1.00  0.00     0.017 A 
ATOM     74  C   UNL A   1      32.689  27.196  24.987  1.00  0.00     0.278 A 
ATOM     75  C   UNL A   1      32.705  28.782  27.267  1.00  0.00     0.001 A 
ATOM     76  C   UNL A   1      33.579  28.280  25.082  1.00  0.00     0.086 A 
ATOM     77  C   UNL A   1      33.588  29.068  26.229  1.00  0.00     0.007 A 
BRANCH  74  78
ATOM     78  N   UNL A   1      32.681  26.480  23.721  1.00  0.00     0.063 N 
ATOM     79  O   UNL A   1      33.586  25.656  23.530  1.00  0.00    -0.258 OA
ATOM     80  O   UNL A   1      31.794  26.770  22.907  1.00  0.00    -0.258 OA
ENDBRANCH  74  78
ENDBRANCH  71  72
ENDBRANCH  67  71
ENDBRANCH  62  65
ENDBRANCH  60  61
ENDBRANCH  59  60
ENDBRANCH   1  59
TORSDOF 16
ENDMDL
MODEL 2
REMARK VINA RESULT:     -10.5      0.540      5.967
REMARK SMILES O=C(NCCCCCCNC(=O)[C@H]1CCC[N@@H+]1Cc1ccccc1[N+](=O)[O-])c1ccc(-c2c3nc(c(-c4ccccc4)c4ccc([nH]4)c(-c4ccccc4)c4nc(c(-c5ccccc5)c5ccc2[nH]5)C=C4)C=C3)cc1
REMARK SMILES IDX 7 1 6 2 5 3 4 4 3 5 1 6 2 7 28 9 29 10 75 11 30 12 74 13
REMARK SMILES IDX 31 14 32 15 33 16 68 17 34 18 73 19 67 20 69 21 35 22 72 23
REMARK SMILES IDX 66 24 65 25 36 27 58 28 43 29 57 30 44 31 47 32 56 33 70 34
REMARK SMILES IDX 45 35 46 36 55 38 71 39 48 40 37 41 38 42 42 43 39 44 41 45
REMARK SMILES IDX 40 46 59 47 60 48 64 49 61 50 63 51 62 52 49 53 50 54 54 55
REMARK SMILES IDX 51 56 53 57 52 58 8 59 9 60 10 61 11 62 12 64 13 65 14 66
REMARK SMILES IDX 17 67 15 68 16 69 18 71 19 72 20 73 24 74 21 75 23 76 22 77
REMARK SMILES IDX 25 78 26 79 27 80
REMARK H PARENT 3 8 69 26 47 37 10 63 17 70
REMARK Flexibility Score: inf
ROOT
ATOM      1  C   UNL A   1      36.831  21.548  24.582  1.00  0.00     0.002 C 
ENDROOT
BRANCH   1   2
ATOM      2  C   UNL A   1      36.765  20.077  25.008  1.00  0.00     0.002 C 
BRANCH   2   3
ATOM      3  C   UNL A   1      38.095  19.325  24.968  1.00  0.00     0.021 C 
BRANCH   3   4
ATOM      4  C   UNL A   1      39.235  20.018  25.699  1.00  0.00     0.116 C 
BRANCH   4   5
ATOM      5  N   UNL A   1      40.388  19.151  25.872  1.00  0.00    -0.352 N 
ATOM      6  O   UNL A   1      42.575  18.660  26.144  1.00  0.00    -0.269 OA
ATOM      7  C   UNL A   1      41.677  19.489  26.210  1.00  0.00     0.251 C 
ATOM      8  H   UNL A   1      40.223  18.191  25.729  1.00  0.00     0.163 HD
BRANCH   7   9
ATOM      9  C   UNL A   1      41.978  20.873  26.642  1.00  0.00     0.039 A 
ATOM     10  C   UNL A   1      41.922  21.222  27.993  1.00  0.00     0.014 A 
ATOM     11  C   UNL A   1      42.341  21.822  25.684  1.00  0.00     0.014 A 
ATOM     12  C   UNL A   1      42.116  22.545  28.374  1.00  0.00     0.010 A 
ATOM     13  C   UNL A   1      42.614  23.136  26.078  1.00  0.00     0.010 A 
ATOM     14  C   UNL A   1      42.490  23.510  27.424  1.00  0.00    -0.014 A 
BRANCH  14  15
ATOM     15  C   UNL A   1      42.849  24.874  27.883  1.00  0.00     0.031 A 
ATOM     16  C   UNL A   1      41.799  25.910  28.165  1.00  0.00     0.074 A 
ATOM     17  C   UNL A   1      44.152  25.163  28.060  1.00  0.00     0.049 A 
ATOM     18  N   UNL A   1      41.955  27.138  28.594  1.00  0.00    -0.248 NA
ATOM     19  C   UNL A   1      40.397  25.528  27.935  1.00  0.00     0.031 C 
ATOM     20  C   UNL A   1      45.263  24.239  27.805  1.00  0.00     0.029 A 
ATOM     21  N   UNL A   1      44.768  26.302  28.509  1.00  0.00    -0.354 N 
ATOM     22  C   UNL A   1      40.678  27.681  28.667  1.00  0.00     0.074 A 
ATOM     23  C   UNL A   1      39.758  26.656  28.225  1.00  0.00     0.031 C 
ATOM     24  C   UNL A   1      46.416  24.832  28.143  1.00  0.00     0.029 A 
ATOM     25  C   UNL A   1      46.136  26.194  28.578  1.00  0.00     0.049 A 
ATOM     26  H   UNL A   1      44.277  27.119  28.759  1.00  0.00     0.167 HD
ATOM     27  C   UNL A   1      40.312  28.922  29.069  1.00  0.00     0.031 A 
ATOM     28  C   UNL A   1      47.067  27.097  28.934  1.00  0.00     0.031 A 
ATOM     29  C   UNL A   1      41.232  29.938  29.512  1.00  0.00     0.049 A 
ATOM     30  C   UNL A   1      46.629  28.469  29.347  1.00  0.00     0.074 A 
ATOM     31  C   UNL A   1      40.950  31.211  29.978  1.00  0.00     0.029 A 
ATOM     32  N   UNL A   1      42.612  29.801  29.536  1.00  0.00    -0.354 N 
ATOM     33  N   UNL A   1      45.414  28.948  29.457  1.00  0.00    -0.248 NA
ATOM     34  C   UNL A   1      47.692  29.427  29.683  1.00  0.00     0.031 C 
ATOM     35  C   UNL A   1      42.160  31.862  30.237  1.00  0.00     0.029 A 
ATOM     36  C   UNL A   1      43.194  30.977  29.982  1.00  0.00     0.049 A 
ATOM     37  H   UNL A   1      43.103  28.989  29.275  1.00  0.00     0.167 HD
ATOM     38  C   UNL A   1      45.564  30.259  29.886  1.00  0.00     0.074 A 
ATOM     39  C   UNL A   1      46.986  30.490  30.043  1.00  0.00     0.031 C 
ATOM     40  C   UNL A   1      44.610  31.190  30.124  1.00  0.00     0.031 A 
BRANCH  27  41
ATOM     41  C   UNL A   1      38.851  29.271  29.030  1.00  0.00    -0.014 A 
ATOM     42  C   UNL A   1      38.236  29.694  27.842  1.00  0.00     0.009 A 
ATOM     43  C   UNL A   1      38.064  29.094  30.178  1.00  0.00     0.009 A 
ATOM     44  C   UNL A   1      36.861  29.948  27.810  1.00  0.00     0.001 A 
ATOM     45  C   UNL A   1      36.688  29.328  30.138  1.00  0.00     0.001 A 
ATOM     46  C   UNL A   1      36.088  29.758  28.956  1.00  0.00     0.000 A 
ENDBRANCH  27  41
BRANCH  28  47
ATOM     47  C   UNL A   1      48.506  26.735  28.885  1.00  0.00    -0.014 A 
ATOM     48  C   UNL A   1      49.271  26.987  27.736  1.00  0.00     0.009 A 
ATOM     49  C   UNL A   1      49.123  26.131  29.993  1.00  0.00     0.009 A 
ATOM     50  C   UNL A   1      50.618  26.618  27.690  1.00  0.00     0.001 A 
ATOM     51  C   UNL A   1      50.476  25.793  29.955  1.00  0.00     0.001 A 
ATOM     52  C   UNL A   1      51.219  26.027  28.800  1.00  0.00     0.000 A 
ENDBRANCH  28  47
BRANCH  40  53
ATOM     53  C   UNL A   1      45.080  32.535  30.596  1.00  0.00    -0.014 A 
ATOM     54  C   UNL A   1      45.248  32.805  31.964  1.00  0.00     0.009 A 
ATOM     55  C   UNL A   1      45.375  33.538  29.661  1.00  0.00     0.009 A 
ATOM     56  C   UNL A   1      45.668  34.067  32.385  1.00  0.00     0.001 A 
ATOM     57  C   UNL A   1      45.821  34.790  30.085  1.00  0.00     0.001 A 
ATOM     58  C   UNL A   1      45.958  35.057  31.447  1.00  0.00     0.000 A 
ENDBRANCH  40  53
ENDBRANCH  14  15
ENDBRANCH   7   9
ENDBRANCH   4   5
ENDBRANCH   3   4
ENDBRANCH   2   3
ENDBRANCH   1   2
BRANCH   1  59
ATOM     59  C   UNL A   1      35.588  22.394  24.899  1.00  0.00     0.021 C 
BRANCH  59  60
ATOM     60  C   UNL A   1      35.684  23.218  26.186  1.00  0.00     0.116 C 
BRANCH  60  61
ATOM     61  N   UNL A   1      34.739  22.755  27.176  1.00  0.00    -0.351 N 
ATOM     62  C   UNL A   1      33.408  23.009  27.306  1.00  0.00     0.278 C 
ATOM     63  H   UNL A   1      35.117  22.163  27.866  1.00  0.00     0.163 HD
ATOM     64  O   UNL A   1      32.865  22.568  28.324  1.00  0.00    -0.268 OA
BRANCH  62  65
ATOM     65  C   UNL A   1      32.610  23.721  26.179  1.00  0.00     0.274 C 
ATOM     66  C   UNL A   1      32.033  22.676  25.223  1.00  0.00     0.081 C 
ATOM     67  N   UNL A   1      31.412  24.408  26.710  1.00  0.00    -0.321 N 
ATOM     68  C   UNL A   1      30.702  22.285  25.855  1.00  0.00     0.068 C 
ATOM     69  C   UNL A   1      30.391  23.375  26.873  1.00  0.00     0.263 C 
ATOM     70  H   UNL A   1      31.633  24.833  27.610  1.00  0.00     0.349 HD
BRANCH  67  71
ATOM     71  C   UNL A   1      30.986  25.626  26.001  1.00  0.00     0.307 C 
BRANCH  71  72
ATOM     72  C   UNL A   1      31.854  26.868  26.077  1.00  0.00     0.084 A 
ATOM     73  C   UNL A   1      31.709  27.720  27.193  1.00  0.00     0.017 A 
ATOM     74  C   UNL A   1      32.821  27.238  25.122  1.00  0.00     0.278 A 
ATOM     75  C   UNL A   1      32.521  28.847  27.366  1.00  0.00     0.001 A 
ATOM     76  C   UNL A   1      33.655  28.356  25.302  1.00  0.00     0.086 A 
ATOM     77  C   UNL A   1      33.505  29.155  26.431  1.00  0.00     0.007 A 
BRANCH  74  78
ATOM     78  N   UNL A   1      32.983  26.510  23.873  1.00  0.00     0.063 N 
ATOM     79  O   UNL A   1      33.899  25.678  23.818  1.00  0.00    -0.258 OA
ATOM     80  O   UNL A   1      32.220  26.798  22.942  1.00  0.00    -0.258 OA
ENDBRANCH  74  78
ENDBRANCH  71  72
ENDBRANCH  67  71
ENDBRANCH  62  65
ENDBRANCH  60  61
ENDBRANCH  59  60
ENDBRANCH   1  59
TORSDOF 16
ENDMDL
MODEL 3
REMARK VINA RESULT:     -10.5      1.862      7.697
REMARK SMILES O=C(NCCCCCCNC(=O)[C@H]1CCC[N@@H+]1Cc1ccccc1[N+](=O)[O-])c1ccc(-c2c3nc(c(-c4ccccc4)c4ccc([nH]4)c(-c4ccccc4)c4nc(c(-c5ccccc5)c5ccc2[nH]5)C=C4)C=C3)cc1
REMARK SMILES IDX 7 1 6 2 5 3 4 4 3 5 1 6 2 7 28 9 29 10 75 11 30 12 74 13
REMARK SMILES IDX 31 14 32 15 33 16 68 17 34 18 73 19 67 20 69 21 35 22 72 23
REMARK SMILES IDX 66 24 65 25 36 27 58 28 43 29 57 30 44 31 47 32 56 33 70 34
REMARK SMILES IDX 45 35 46 36 55 38 71 39 48 40 37 41 38 42 42 43 39 44 41 45
REMARK SMILES IDX 40 46 59 47 60 48 64 49 61 50 63 51 62 52 49 53 50 54 54 55
REMARK SMILES IDX 51 56 53 57 52 58 8 59 9 60 10 61 11 62 12 64 13 65 14 66
REMARK SMILES IDX 17 67 15 68 16 69 18 71 19 72 20 73 24 74 21 75 23 76 22 77
REMARK SMILES IDX 25 78 26 79 27 80
REMARK H PARENT 3 8 69 26 47 37 10 63 17 70
REMARK Flexibility Score: inf
ROOT
ATOM      1  C   UNL A   1      31.177  29.203  24.588  1.00  0.00     0.002 C 
ENDROOT
BRANCH   1   2
ATOM      2  C   UNL A   1      31.606  28.279  25.734  1.00  0.00     0.002 C 
BRANCH   2   3
ATOM      3  C   UNL A   1      33.115  28.094  25.893  1.00  0.00     0.021 C 
BRANCH   3   4
ATOM      4  C   UNL A   1      33.653  28.447  27.271  1.00  0.00     0.116 C 
BRANCH   4   5
ATOM      5  N   UNL A   1      33.542  29.867  27.560  1.00  0.00    -0.352 N 
ATOM      6  O   UNL A   1      34.151  31.837  28.479  1.00  0.00    -0.269 OA
ATOM      7  C   UNL A   1      34.464  30.702  28.143  1.00  0.00     0.251 C 
ATOM      8  H   UNL A   1      32.689  30.287  27.304  1.00  0.00     0.163 HD
BRANCH   7   9
ATOM      9  C   UNL A   1      35.842  30.215  28.377  1.00  0.00     0.039 A 
ATOM     10  C   UNL A   1      36.804  30.291  27.367  1.00  0.00     0.014 A 
ATOM     11  C   UNL A   1      36.179  29.698  29.631  1.00  0.00     0.014 A 
ATOM     12  C   UNL A   1      38.066  29.746  27.570  1.00  0.00     0.010 A 
ATOM     13  C   UNL A   1      37.473  29.222  29.861  1.00  0.00     0.010 A 
ATOM     14  C   UNL A   1      38.422  29.229  28.827  1.00  0.00    -0.014 A 
BRANCH  14  15
ATOM     15  C   UNL A   1      39.824  28.804  29.063  1.00  0.00     0.031 A 
ATOM     16  C   UNL A   1      40.820  29.713  29.723  1.00  0.00     0.074 A 
ATOM     17  C   UNL A   1      40.184  27.563  28.682  1.00  0.00     0.049 A 
ATOM     18  N   UNL A   1      42.074  29.476  30.018  1.00  0.00    -0.248 NA
ATOM     19  C   UNL A   1      40.358  31.059  30.098  1.00  0.00     0.031 C 
ATOM     20  C   UNL A   1      39.304  26.595  28.019  1.00  0.00     0.029 A 
ATOM     21  N   UNL A   1      41.374  26.894  28.810  1.00  0.00    -0.354 N 
ATOM     22  C   UNL A   1      42.557  30.645  30.593  1.00  0.00     0.074 A 
ATOM     23  C   UNL A   1      41.467  31.596  30.594  1.00  0.00     0.031 C 
ATOM     24  C   UNL A   1      39.970  25.446  27.840  1.00  0.00     0.029 A 
ATOM     25  C   UNL A   1      41.336  25.613  28.315  1.00  0.00     0.049 A 
ATOM     26  H   UNL A   1      42.177  27.293  29.218  1.00  0.00     0.167 HD
ATOM     27  C   UNL A   1      43.797  30.896  31.078  1.00  0.00     0.031 A 
ATOM     28  C   UNL A   1      42.301  24.679  28.234  1.00  0.00     0.031 A 
ATOM     29  C   UNL A   1      44.878  29.944  31.078  1.00  0.00     0.049 A 
ATOM     30  C   UNL A   1      43.669  24.999  28.754  1.00  0.00     0.074 A 
ATOM     31  C   UNL A   1      46.158  30.095  31.586  1.00  0.00     0.029 A 
ATOM     32  N   UNL A   1      44.811  28.669  30.538  1.00  0.00    -0.354 N 
ATOM     33  N   UNL A   1      44.093  26.092  29.340  1.00  0.00    -0.248 NA
ATOM     34  C   UNL A   1      44.693  23.957  28.600  1.00  0.00     0.031 C 
ATOM     35  C   UNL A   1      46.880  28.929  31.309  1.00  0.00     0.029 A 
ATOM     36  C   UNL A   1      46.034  28.034  30.675  1.00  0.00     0.049 A 
ATOM     37  H   UNL A   1      44.011  28.274  30.120  1.00  0.00     0.167 HD
ATOM     38  C   UNL A   1      45.429  25.867  29.636  1.00  0.00     0.074 A 
ATOM     39  C   UNL A   1      45.737  24.523  29.190  1.00  0.00     0.031 C 
ATOM     40  C   UNL A   1      46.324  26.700  30.219  1.00  0.00     0.031 A 
BRANCH  27  41
ATOM     41  C   UNL A   1      44.072  32.266  31.631  1.00  0.00    -0.014 A 
ATOM     42  C   UNL A   1      43.875  32.555  32.990  1.00  0.00     0.009 A 
ATOM     43  C   UNL A   1      44.616  33.255  30.797  1.00  0.00     0.009 A 
ATOM     44  C   UNL A   1      44.202  33.816  33.498  1.00  0.00     0.001 A 
ATOM     45  C   UNL A   1      44.962  34.506  31.312  1.00  0.00     0.001 A 
ATOM     46  C   UNL A   1      44.751  34.787  32.661  1.00  0.00     0.000 A 
ENDBRANCH  27  41
BRANCH  28  47
ATOM     47  C   UNL A   1      42.008  23.364  27.610  1.00  0.00    -0.014 A 
ATOM     48  C   UNL A   1      41.428  22.328  28.358  1.00  0.00     0.009 A 
ATOM     49  C   UNL A   1      42.312  23.138  26.258  1.00  0.00     0.009 A 
ATOM     50  C   UNL A   1      41.182  21.086  27.769  1.00  0.00     0.001 A 
ATOM     51  C   UNL A   1      42.035  21.906  25.664  1.00  0.00     0.001 A 
ATOM     52  C   UNL A   1      41.481  20.877  26.423  1.00  0.00     0.000 A 
ENDBRANCH  28  47
BRANCH  40  53
ATOM     53  C   UNL A   1      47.712  26.167  30.422  1.00  0.00    -0.014 A 
ATOM     54  C   UNL A   1      48.121  25.666  31.668  1.00  0.00     0.009 A 
ATOM     55  C   UNL A   1      48.615  26.151  29.349  1.00  0.00     0.009 A 
ATOM     56  C   UNL A   1      49.422  25.192  31.843  1.00  0.00     0.001 A 
ATOM     57  C   UNL A   1      49.907  25.650  29.520  1.00  0.00     0.001 A 
ATOM     58  C   UNL A   1      50.312  25.180  30.769  1.00  0.00     0.000 A 
ENDBRANCH  40  53
ENDBRANCH  14  15
ENDBRANCH   7   9
ENDBRANCH   4   5
ENDBRANCH   3   4
ENDBRANCH   2   3
ENDBRANCH   1   2
BRANCH   1  59
ATOM     59  C   UNL A   1      31.672  28.808  23.188  1.00  0.00     0.021 C 
BRANCH  59  60
ATOM     60  C   UNL A   1      30.931  27.627  22.555  1.00  0.00     0.116 C 
BRANCH  60  61
ATOM     61  N   UNL A   1      31.792  26.885  21.663  1.00  0.00    -0.351 N 
ATOM     62  C   UNL A   1      32.617  25.831  21.915  1.00  0.00     0.278 C 
ATOM     63  H   UNL A   1      31.780  27.188  20.727  1.00  0.00     0.163 HD
ATOM     64  O   UNL A   1      33.330  25.461  20.977  1.00  0.00    -0.268 OA
BRANCH  62  65
ATOM     65  C   UNL A   1      32.575  25.081  23.274  1.00  0.00     0.274 C 
ATOM     66  C   UNL A   1      31.422  24.076  23.268  1.00  0.00     0.081 C 
ATOM     67  N   UNL A   1      33.774  24.236  23.468  1.00  0.00    -0.321 N 
ATOM     68  C   UNL A   1      32.023  22.821  22.646  1.00  0.00     0.068 C 
ATOM     69  C   UNL A   1      33.534  23.011  22.707  1.00  0.00     0.263 C 
ATOM     70  H   UNL A   1      34.596  24.721  23.107  1.00  0.00     0.349 HD
BRANCH  67  71
ATOM     71  C   UNL A   1      34.230  24.051  24.856  1.00  0.00     0.307 C 
BRANCH  71  72
ATOM     72  C   UNL A   1      35.480  23.233  25.121  1.00  0.00     0.084 A 
ATOM     73  C   UNL A   1      36.736  23.850  24.936  1.00  0.00     0.017 A 
ATOM     74  C   UNL A   1      35.493  21.895  25.561  1.00  0.00     0.278 A 
ATOM     75  C   UNL A   1      37.931  23.181  25.225  1.00  0.00     0.001 A 
ATOM     76  C   UNL A   1      36.689  21.226  25.875  1.00  0.00     0.086 A 
ATOM     77  C   UNL A   1      37.908  21.877  25.710  1.00  0.00     0.007 A 
BRANCH  74  78
ATOM     78  N   UNL A   1      34.270  21.115  25.674  1.00  0.00     0.063 N 
ATOM     79  O   UNL A   1      33.664  21.166  26.752  1.00  0.00    -0.258 OA
ATOM     80  O   UNL A   1      33.942  20.424  24.700  1.00  0.00    -0.258 OA
ENDBRANCH  74  78
ENDBRANCH  71  72
ENDBRANCH  67  71
ENDBRANCH  62  65
ENDBRANCH  60  61
ENDBRANCH  59  60
ENDBRANCH   1  59
TORSDOF 16
ENDMDL
