MODEL 1
REMARK VINA RESULT:     -12.1      0.000      0.000
REMARK SMILES CS(=O)(=O)c1ccc(C2=NN(c3ccc(C(=O)NCCCCCCNC(=O)c4ccc(-c5c6nc(c(-c7ccccc7)c7ccc([nH]7)c(-c7ccccc7)c7nc(c(-c8ccccc8)c8ccc5[nH]8)C=C7)C=C6)cc4)cc3)[C@H](c3ccccc3)C2)cc1
REMARK SMILES IDX 21 1 20 2 19 3 18 4 16 5 17 6 15 8 12 9 13 10 77 11 14 12
REMARK SMILES IDX 76 13 11 14 9 15 10 16 85 17 78 18 8 19 5 20 6 21 87 22 7 23
REMARK SMILES IDX 86 24 2 25 1 26 3 27 4 28 79 29 80 30 84 31 81 32 83 33
REMARK SMILES IDX 82 34 22 35 23 36 24 37 25 38 26 39 27 41 28 42 29 43 75 44
REMARK SMILES IDX 30 45 74 46 31 47 32 48 33 49 68 50 34 51 73 52 67 53 69 54
REMARK SMILES IDX 35 55 72 56 66 57 65 58 36 60 58 61 43 62 57 63 44 64 47 65
REMARK SMILES IDX 56 66 70 67 45 68 46 69 55 71 71 72 48 73 37 74 38 75 42 76
REMARK SMILES IDX 39 77 41 78 40 79 59 80 60 81 64 82 61 83 63 84 62 85 49 86
REMARK SMILES IDX 50 87 54 88 51 89 53 90 52 91
REMARK H PARENT 18 7 25 40 69 59 47 70
REMARK Flexibility Score: inf
ROOT
ATOM      1  C   UNL A   1      38.921  28.558  27.999  1.00  0.00     0.002 C 
ENDROOT
BRANCH   1   2
ATOM      2  C   UNL A   1      37.909  29.680  28.263  1.00  0.00     0.021 C 
BRANCH   2   3
ATOM      3  C   UNL A   1      36.464  29.185  28.354  1.00  0.00     0.116 C 
BRANCH   3   4
ATOM      4  N   UNL A   1      35.541  30.296  28.222  1.00  0.00    -0.352 N 
ATOM      5  C   UNL A   1      34.326  30.393  27.590  1.00  0.00     0.251 C 
ATOM      6  O   UNL A   1      33.707  31.453  27.670  1.00  0.00    -0.269 OA
ATOM      7  H   UNL A   1      35.838  31.125  28.661  1.00  0.00     0.163 HD
BRANCH   5   8
ATOM      8  C   UNL A   1      33.717  29.242  26.878  1.00  0.00     0.039 A 
ATOM      9  C   UNL A   1      32.561  27.166  25.366  1.00  0.00     0.060 A 
ATOM     10  C   UNL A   1      33.650  27.885  24.865  1.00  0.00     0.029 A 
ATOM     11  C   UNL A   1      32.107  27.449  26.658  1.00  0.00     0.029 A 
ATOM     12  C   UNL A   1      34.224  28.917  25.613  1.00  0.00     0.016 A 
ATOM     13  C   UNL A   1      32.694  28.460  27.418  1.00  0.00     0.016 A 
BRANCH   9  14
ATOM     14  N   UNL A   1      31.931  26.169  24.636  1.00  0.00    -0.257 N 
ATOM     15  C   UNL A   1      31.980  24.190  23.864  1.00  0.00     0.071 C 
ATOM     16  N   UNL A   1      32.251  24.886  24.920  1.00  0.00    -0.176 NA
ATOM     17  C   UNL A   1      31.484  24.962  22.673  1.00  0.00     0.091 C 
ATOM     18  C   UNL A   1      31.453  26.385  23.264  1.00  0.00     0.144 C 
BRANCH  15  19
ATOM     19  C   UNL A   1      32.129  22.729  23.852  1.00  0.00    -0.002 A 
ATOM     20  C   UNL A   1      32.526  19.980  23.936  1.00  0.00     0.067 A 
ATOM     21  C   UNL A   1      32.714  20.733  25.095  1.00  0.00     0.021 A 
ATOM     22  C   UNL A   1      32.150  20.598  22.734  1.00  0.00     0.021 A 
ATOM     23  C   UNL A   1      32.527  22.114  25.046  1.00  0.00     0.011 A 
ATOM     24  C   UNL A   1      31.939  21.979  22.693  1.00  0.00     0.011 A 
BRANCH  20  25
ATOM     25  S   UNL A   1      32.772  18.219  23.923  1.00  0.00     0.175 S 
ATOM     26  C   UNL A   1      34.472  17.924  24.319  1.00  0.00     0.163 C 
ATOM     27  O   UNL A   1      32.566  17.784  22.557  1.00  0.00    -0.224 OA
ATOM     28  O   UNL A   1      31.963  17.694  25.010  1.00  0.00    -0.224 OA
ENDBRANCH  20  25
ENDBRANCH  15  19
BRANCH  18  29
ATOM     29  C   UNL A   1      30.122  27.131  23.284  1.00  0.00    -0.023 A 
ATOM     30  C   UNL A   1      29.933  28.421  22.764  1.00  0.00     0.006 A 
ATOM     31  C   UNL A   1      28.990  26.464  23.796  1.00  0.00     0.006 A 
ATOM     32  C   UNL A   1      28.668  29.021  22.770  1.00  0.00     0.000 A 
ATOM     33  C   UNL A   1      27.723  27.052  23.777  1.00  0.00     0.000 A 
ATOM     34  C   UNL A   1      27.563  28.335  23.269  1.00  0.00     0.000 A 
ENDBRANCH  18  29
ENDBRANCH   9  14
ENDBRANCH   5   8
ENDBRANCH   3   4
ENDBRANCH   2   3
ENDBRANCH   1   2
BRANCH   1  35
ATOM     35  C   UNL A   1      39.281  27.716  29.228  1.00  0.00     0.002 C 
BRANCH  35  36
ATOM     36  C   UNL A   1      39.716  26.282  28.923  1.00  0.00     0.021 C 
BRANCH  36  37
ATOM     37  C   UNL A   1      39.593  25.887  27.455  1.00  0.00     0.116 C 
BRANCH  37  38
ATOM     38  N   UNL A   1      40.086  24.540  27.216  1.00  0.00    -0.352 N 
ATOM     39  C   UNL A   1      41.323  24.132  26.787  1.00  0.00     0.251 C 
ATOM     40  H   UNL A   1      39.439  23.818  27.386  1.00  0.00     0.163 HD
ATOM     41  O   UNL A   1      41.500  22.975  26.420  1.00  0.00    -0.269 OA
BRANCH  39  42
ATOM     42  C   UNL A   1      42.445  25.093  26.758  1.00  0.00     0.039 A 
ATOM     43  C   UNL A   1      42.795  25.689  25.544  1.00  0.00     0.014 A 
ATOM     44  C   UNL A   1      43.163  25.387  27.922  1.00  0.00     0.014 A 
ATOM     45  C   UNL A   1      43.835  26.619  25.506  1.00  0.00     0.010 A 
ATOM     46  C   UNL A   1      44.151  26.366  27.895  1.00  0.00     0.010 A 
ATOM     47  C   UNL A   1      44.504  26.984  26.686  1.00  0.00    -0.014 A 
BRANCH  47  48
ATOM     48  C   UNL A   1      45.583  28.003  26.674  1.00  0.00     0.031 A 
ATOM     49  C   UNL A   1      45.243  29.464  26.781  1.00  0.00     0.074 A 
ATOM     50  C   UNL A   1      46.863  27.617  26.507  1.00  0.00     0.049 A 
ATOM     51  N   UNL A   1      46.039  30.503  26.734  1.00  0.00    -0.248 NA
ATOM     52  C   UNL A   1      43.819  29.804  26.938  1.00  0.00     0.031 C 
ATOM     53  C   UNL A   1      47.319  26.234  26.354  1.00  0.00     0.029 A 
ATOM     54  N   UNL A   1      48.015  28.358  26.431  1.00  0.00    -0.354 N 
ATOM     55  C   UNL A   1      45.213  31.614  26.836  1.00  0.00     0.074 A 
ATOM     56  C   UNL A   1      43.852  31.127  26.898  1.00  0.00     0.031 C 
ATOM     57  C   UNL A   1      48.656  26.226  26.228  1.00  0.00     0.029 A 
ATOM     58  C   UNL A   1      49.146  27.599  26.253  1.00  0.00     0.049 A 
ATOM     59  H   UNL A   1      48.030  29.341  26.499  1.00  0.00     0.167 HD
ATOM     60  C   UNL A   1      45.556  32.924  26.892  1.00  0.00     0.031 A 
ATOM     61  C   UNL A   1      50.434  27.969  26.118  1.00  0.00     0.031 A 
ATOM     62  C   UNL A   1      46.910  33.407  26.842  1.00  0.00     0.049 A 
ATOM     63  C   UNL A   1      50.788  29.429  26.173  1.00  0.00     0.074 A 
ATOM     64  C   UNL A   1      47.364  34.710  26.947  1.00  0.00     0.029 A 
ATOM     65  N   UNL A   1      48.028  32.605  26.670  1.00  0.00    -0.354 N 
ATOM     66  N   UNL A   1      50.001  30.465  26.336  1.00  0.00    -0.248 NA
ATOM     67  C   UNL A   1      52.211  29.768  26.039  1.00  0.00     0.031 C 
ATOM     68  C   UNL A   1      48.754  34.701  26.787  1.00  0.00     0.029 A 
ATOM     69  C   UNL A   1      49.170  33.387  26.642  1.00  0.00     0.049 A 
ATOM     70  H   UNL A   1      48.012  31.625  26.581  1.00  0.00     0.167 HD
ATOM     71  C   UNL A   1      50.836  31.575  26.353  1.00  0.00     0.074 A 
ATOM     72  C   UNL A   1      52.189  31.084  26.199  1.00  0.00     0.031 C 
ATOM     73  C   UNL A   1      50.509  32.883  26.487  1.00  0.00     0.031 A 
BRANCH  60  74
ATOM     74  C   UNL A   1      44.442  33.927  27.007  1.00  0.00    -0.014 A 
ATOM     75  C   UNL A   1      43.815  34.454  25.865  1.00  0.00     0.009 A 
ATOM     76  C   UNL A   1      43.991  34.329  28.274  1.00  0.00     0.009 A 
ATOM     77  C   UNL A   1      42.786  35.390  25.991  1.00  0.00     0.001 A 
ATOM     78  C   UNL A   1      42.943  35.242  28.397  1.00  0.00     0.001 A 
ATOM     79  C   UNL A   1      42.348  35.779  27.257  1.00  0.00     0.000 A 
ENDBRANCH  60  74
BRANCH  61  80
ATOM     80  C   UNL A   1      51.489  26.939  25.934  1.00  0.00    -0.014 A 
ATOM     81  C   UNL A   1      52.182  26.425  27.041  1.00  0.00     0.009 A 
ATOM     82  C   UNL A   1      51.812  26.467  24.652  1.00  0.00     0.009 A 
ATOM     83  C   UNL A   1      53.197  25.482  26.864  1.00  0.00     0.001 A 
ATOM     84  C   UNL A   1      52.807  25.502  24.482  1.00  0.00     0.001 A 
ATOM     85  C   UNL A   1      53.505  25.018  25.587  1.00  0.00     0.000 A 
ENDBRANCH  61  80
BRANCH  73  86
ATOM     86  C   UNL A   1      51.640  33.874  26.512  1.00  0.00    -0.014 A 
ATOM     87  C   UNL A   1      52.258  34.248  27.714  1.00  0.00     0.009 A 
ATOM     88  C   UNL A   1      52.117  34.410  25.305  1.00  0.00     0.009 A 
ATOM     89  C   UNL A   1      53.310  35.167  27.710  1.00  0.00     0.001 A 
ATOM     90  C   UNL A   1      53.188  35.303  25.301  1.00  0.00     0.001 A 
ATOM     91  C   UNL A   1      53.778  35.689  26.504  1.00  0.00     0.000 A 
ENDBRANCH  73  86
ENDBRANCH  47  48
ENDBRANCH  39  42
ENDBRANCH  37  38
ENDBRANCH  36  37
ENDBRANCH  35  36
ENDBRANCH   1  35
TORSDOF 17
ENDMDL
MODEL 2
REMARK VINA RESULT:     -11.7      2.474      7.846
REMARK SMILES CS(=O)(=O)c1ccc(C2=NN(c3ccc(C(=O)NCCCCCCNC(=O)c4ccc(-c5c6nc(c(-c7ccccc7)c7ccc([nH]7)c(-c7ccccc7)c7nc(c(-c8ccccc8)c8ccc5[nH]8)C=C7)C=C6)cc4)cc3)[C@H](c3ccccc3)C2)cc1
REMARK SMILES IDX 21 1 20 2 19 3 18 4 16 5 17 6 15 8 12 9 13 10 77 11 14 12
REMARK SMILES IDX 76 13 11 14 9 15 10 16 85 17 78 18 8 19 5 20 6 21 87 22 7 23
REMARK SMILES IDX 86 24 2 25 1 26 3 27 4 28 79 29 80 30 84 31 81 32 83 33
REMARK SMILES IDX 82 34 22 35 23 36 24 37 25 38 26 39 27 41 28 42 29 43 75 44
REMARK SMILES IDX 30 45 74 46 31 47 32 48 33 49 68 50 34 51 73 52 67 53 69 54
REMARK SMILES IDX 35 55 72 56 66 57 65 58 36 60 58 61 43 62 57 63 44 64 47 65
REMARK SMILES IDX 56 66 70 67 45 68 46 69 55 71 71 72 48 73 37 74 38 75 42 76
REMARK SMILES IDX 39 77 41 78 40 79 59 80 60 81 64 82 61 83 63 84 62 85 49 86
REMARK SMILES IDX 50 87 54 88 51 89 53 90 52 91
REMARK H PARENT 18 7 25 40 69 59 47 70
REMARK Flexibility Score: inf
ROOT
ATOM      1  C   UNL A   1      37.481  23.595  26.156  1.00  0.00     0.002 C 
ENDROOT
BRANCH   1   2
ATOM      2  C   UNL A   1      37.603  22.144  25.677  1.00  0.00     0.021 C 
BRANCH   2   3
ATOM      3  C   UNL A   1      37.100  21.933  24.247  1.00  0.00     0.116 C 
BRANCH   3   4
ATOM      4  N   UNL A   1      35.837  21.220  24.256  1.00  0.00    -0.352 N 
ATOM      5  C   UNL A   1      34.559  21.647  24.518  1.00  0.00     0.251 C 
ATOM      6  O   UNL A   1      33.637  20.840  24.408  1.00  0.00    -0.269 OA
ATOM      7  H   UNL A   1      35.909  20.263  24.038  1.00  0.00     0.163 HD
BRANCH   5   8
ATOM      8  C   UNL A   1      34.257  23.059  24.861  1.00  0.00     0.039 A 
ATOM      9  C   UNL A   1      33.516  25.678  25.586  1.00  0.00     0.060 A 
ATOM     10  C   UNL A   1      33.349  24.620  26.486  1.00  0.00     0.029 A 
ATOM     11  C   UNL A   1      34.122  25.421  24.353  1.00  0.00     0.029 A 
ATOM     12  C   UNL A   1      33.714  23.319  26.127  1.00  0.00     0.016 A 
ATOM     13  C   UNL A   1      34.513  24.129  24.002  1.00  0.00     0.016 A 
BRANCH   9  14
ATOM     14  N   UNL A   1      33.120  26.973  25.884  1.00  0.00    -0.257 N 
ATOM     15  C   UNL A   1      33.480  28.770  26.958  1.00  0.00     0.071 C 
ATOM     16  N   UNL A   1      34.075  27.847  26.276  1.00  0.00    -0.176 NA
ATOM     17  C   UNL A   1      32.003  28.590  27.167  1.00  0.00     0.091 C 
ATOM     18  C   UNL A   1      31.772  27.289  26.375  1.00  0.00     0.144 C 
BRANCH  15  19
ATOM     19  C   UNL A   1      34.214  29.935  27.469  1.00  0.00    -0.002 A 
ATOM     20  C   UNL A   1      35.683  32.042  28.529  1.00  0.00     0.067 A 
ATOM     21  C   UNL A   1      36.290  30.796  28.374  1.00  0.00     0.021 A 
ATOM     22  C   UNL A   1      34.342  32.236  28.165  1.00  0.00     0.021 A 
ATOM     23  C   UNL A   1      35.546  29.738  27.855  1.00  0.00     0.011 A 
ATOM     24  C   UNL A   1      33.605  31.180  27.621  1.00  0.00     0.011 A 
BRANCH  20  25
ATOM     25  S   UNL A   1      36.567  33.427  29.209  1.00  0.00     0.175 S 
ATOM     26  C   UNL A   1      36.481  33.291  30.972  1.00  0.00     0.163 C 
ATOM     27  O   UNL A   1      35.827  34.614  28.832  1.00  0.00    -0.224 OA
ATOM     28  O   UNL A   1      37.954  33.249  28.815  1.00  0.00    -0.224 OA
ENDBRANCH  20  25
ENDBRANCH  15  19
BRANCH  18  29
ATOM     29  C   UNL A   1      30.783  27.315  25.213  1.00  0.00    -0.023 A 
ATOM     30  C   UNL A   1      29.837  26.309  24.960  1.00  0.00     0.006 A 
ATOM     31  C   UNL A   1      30.768  28.449  24.375  1.00  0.00     0.006 A 
ATOM     32  C   UNL A   1      28.925  26.429  23.903  1.00  0.00     0.000 A 
ATOM     33  C   UNL A   1      29.841  28.580  23.338  1.00  0.00     0.000 A 
ATOM     34  C   UNL A   1      28.922  27.566  23.099  1.00  0.00     0.000 A 
ENDBRANCH  18  29
ENDBRANCH   9  14
ENDBRANCH   5   8
ENDBRANCH   3   4
ENDBRANCH   2   3
ENDBRANCH   1   2
BRANCH   1  35
ATOM     35  C   UNL A   1      38.808  24.360  26.227  1.00  0.00     0.002 C 
BRANCH  35  36
ATOM     36  C   UNL A   1      39.114  24.997  27.583  1.00  0.00     0.021 C 
BRANCH  36  37
ATOM     37  C   UNL A   1      40.541  24.777  28.073  1.00  0.00     0.116 C 
BRANCH  37  38
ATOM     38  N   UNL A   1      41.110  23.549  27.540  1.00  0.00    -0.352 N 
ATOM     39  C   UNL A   1      42.263  23.368  26.820  1.00  0.00     0.251 C 
ATOM     40  H   UNL A   1      40.593  22.732  27.723  1.00  0.00     0.163 HD
ATOM     41  O   UNL A   1      42.477  22.301  26.253  1.00  0.00    -0.269 OA
BRANCH  39  42
ATOM     42  C   UNL A   1      43.245  24.465  26.717  1.00  0.00     0.039 A 
ATOM     43  C   UNL A   1      43.366  25.157  25.509  1.00  0.00     0.014 A 
ATOM     44  C   UNL A   1      44.061  24.797  27.804  1.00  0.00     0.014 A 
ATOM     45  C   UNL A   1      44.271  26.214  25.405  1.00  0.00     0.010 A 
ATOM     46  C   UNL A   1      44.911  25.895  27.720  1.00  0.00     0.010 A 
ATOM     47  C   UNL A   1      45.032  26.608  26.518  1.00  0.00    -0.014 A 
BRANCH  47  48
ATOM     48  C   UNL A   1      45.968  27.757  26.441  1.00  0.00     0.031 A 
ATOM     49  C   UNL A   1      47.446  27.520  26.299  1.00  0.00     0.074 A 
ATOM     50  C   UNL A   1      45.493  29.013  26.559  1.00  0.00     0.049 A 
ATOM     51  N   UNL A   1      48.423  28.390  26.270  1.00  0.00    -0.248 NA
ATOM     52  C   UNL A   1      47.886  26.118  26.200  1.00  0.00     0.031 C 
ATOM     53  C   UNL A   1      44.086  29.375  26.739  1.00  0.00     0.029 A 
ATOM     54  N   UNL A   1      46.148  30.218  26.551  1.00  0.00    -0.354 N 
ATOM     55  C   UNL A   1      49.590  27.643  26.169  1.00  0.00     0.074 A 
ATOM     56  C   UNL A   1      49.204  26.250  26.191  1.00  0.00     0.031 C 
ATOM     57  C   UNL A   1      43.982  30.712  26.798  1.00  0.00     0.029 A 
ATOM     58  C   UNL A   1      45.314  31.299  26.701  1.00  0.00     0.049 A 
ATOM     59  H   UNL A   1      47.124  30.301  26.448  1.00  0.00     0.167 HD
ATOM     60  C   UNL A   1      50.868  28.077  26.050  1.00  0.00     0.031 A 
ATOM     61  C   UNL A   1      45.590  32.615  26.759  1.00  0.00     0.031 A 
ATOM     62  C   UNL A   1      51.250  29.464  26.016  1.00  0.00     0.049 A 
ATOM     63  C   UNL A   1      47.018  33.072  26.634  1.00  0.00     0.074 A 
ATOM     64  C   UNL A   1      52.511  30.006  25.843  1.00  0.00     0.029 A 
ATOM     65  N   UNL A   1      50.373  30.528  26.161  1.00  0.00    -0.354 N 
ATOM     66  N   UNL A   1      48.103  32.354  26.474  1.00  0.00    -0.248 NA
ATOM     67  C   UNL A   1      47.254  34.520  26.687  1.00  0.00     0.031 C 
ATOM     68  C   UNL A   1      52.405  31.397  25.934  1.00  0.00     0.029 A 
ATOM     69  C   UNL A   1      51.068  31.723  26.105  1.00  0.00     0.049 A 
ATOM     70  H   UNL A   1      49.400  30.445  26.286  1.00  0.00     0.167 HD
ATOM     71  C   UNL A   1      49.147  33.266  26.376  1.00  0.00     0.074 A 
ATOM     72  C   UNL A   1      48.562  34.586  26.481  1.00  0.00     0.031 C 
ATOM     73  C   UNL A   1      50.471  33.029  26.212  1.00  0.00     0.031 A 
BRANCH  60  74
ATOM     74  C   UNL A   1      51.947  27.035  25.954  1.00  0.00    -0.014 A 
ATOM     75  C   UNL A   1      52.626  26.582  27.097  1.00  0.00     0.009 A 
ATOM     76  C   UNL A   1      52.269  26.475  24.708  1.00  0.00     0.009 A 
ATOM     77  C   UNL A   1      53.631  25.618  26.988  1.00  0.00     0.001 A 
ATOM     78  C   UNL A   1      53.252  25.489  24.606  1.00  0.00     0.001 A 
ATOM     79  C   UNL A   1      53.939  25.069  25.743  1.00  0.00     0.000 A 
ENDBRANCH  60  74
BRANCH  61  80
ATOM     80  C   UNL A   1      44.491  33.600  26.927  1.00  0.00    -0.014 A 
ATOM     81  C   UNL A   1      43.902  34.208  25.808  1.00  0.00     0.009 A 
ATOM     82  C   UNL A   1      44.028  33.943  28.207  1.00  0.00     0.009 A 
ATOM     83  C   UNL A   1      42.892  35.159  25.968  1.00  0.00     0.001 A 
ATOM     84  C   UNL A   1      42.997  34.872  28.363  1.00  0.00     0.001 A 
ATOM     85  C   UNL A   1      42.437  35.487  27.244  1.00  0.00     0.000 A 
ENDBRANCH  61  80
BRANCH  73  86
ATOM     86  C   UNL A   1      51.374  34.226  26.096  1.00  0.00    -0.014 A 
ATOM     87  C   UNL A   1      51.680  34.793  24.851  1.00  0.00     0.009 A 
ATOM     88  C   UNL A   1      51.892  34.816  27.260  1.00  0.00     0.009 A 
ATOM     89  C   UNL A   1      52.517  35.909  24.770  1.00  0.00     0.001 A 
ATOM     90  C   UNL A   1      52.703  35.948  27.179  1.00  0.00     0.001 A 
ATOM     91  C   UNL A   1      53.022  36.488  25.934  1.00  0.00     0.000 A 
ENDBRANCH  73  86
ENDBRANCH  47  48
ENDBRANCH  39  42
ENDBRANCH  37  38
ENDBRANCH  36  37
ENDBRANCH  35  36
ENDBRANCH   1  35
TORSDOF 17
ENDMDL
MODEL 3
REMARK VINA RESULT:     -11.6      6.365     10.475
REMARK SMILES CS(=O)(=O)c1ccc(C2=NN(c3ccc(C(=O)NCCCCCCNC(=O)c4ccc(-c5c6nc(c(-c7ccccc7)c7ccc([nH]7)c(-c7ccccc7)c7nc(c(-c8ccccc8)c8ccc5[nH]8)C=C7)C=C6)cc4)cc3)[C@H](c3ccccc3)C2)cc1
REMARK SMILES IDX 21 1 20 2 19 3 18 4 16 5 17 6 15 8 12 9 13 10 77 11 14 12
REMARK SMILES IDX 76 13 11 14 9 15 10 16 85 17 78 18 8 19 5 20 6 21 87 22 7 23
REMARK SMILES IDX 86 24 2 25 1 26 3 27 4 28 79 29 80 30 84 31 81 32 83 33
REMARK SMILES IDX 82 34 22 35 23 36 24 37 25 38 26 39 27 41 28 42 29 43 75 44
REMARK SMILES IDX 30 45 74 46 31 47 32 48 33 49 68 50 34 51 73 52 67 53 69 54
REMARK SMILES IDX 35 55 72 56 66 57 65 58 36 60 58 61 43 62 57 63 44 64 47 65
REMARK SMILES IDX 56 66 70 67 45 68 46 69 55 71 71 72 48 73 37 74 38 75 42 76
REMARK SMILES IDX 39 77 41 78 40 79 59 80 60 81 64 82 61 83 63 84 62 85 49 86
REMARK SMILES IDX 50 87 54 88 51 89 53 90 52 91
REMARK H PARENT 18 7 25 40 69 59 47 70
REMARK Flexibility Score: inf
ROOT
ATOM      1  C   UNL A   1      39.024  28.758  27.689  1.00  0.00     0.002 C 
ENDROOT
BRANCH   1   2
ATOM      2  C   UNL A   1      37.967  29.804  28.060  1.00  0.00     0.021 C 
BRANCH   2   3
ATOM      3  C   UNL A   1      36.531  29.317  27.852  1.00  0.00     0.116 C 
BRANCH   3   4
ATOM      4  N   UNL A   1      35.594  30.405  28.056  1.00  0.00    -0.352 N 
ATOM      5  C   UNL A   1      34.301  30.578  27.628  1.00  0.00     0.251 C 
ATOM      6  O   UNL A   1      33.695  31.586  27.986  1.00  0.00    -0.269 OA
ATOM      7  H   UNL A   1      35.947  31.150  28.594  1.00  0.00     0.163 HD
BRANCH   5   8
ATOM      8  C   UNL A   1      33.602  29.556  26.809  1.00  0.00     0.039 A 
ATOM      9  C   UNL A   1      32.291  27.496  25.406  1.00  0.00     0.060 A 
ATOM     10  C   UNL A   1      31.948  27.778  26.732  1.00  0.00     0.029 A 
ATOM     11  C   UNL A   1      33.242  28.301  24.772  1.00  0.00     0.029 A 
ATOM     12  C   UNL A   1      32.600  28.800  27.431  1.00  0.00     0.016 A 
ATOM     13  C   UNL A   1      33.875  29.338  25.458  1.00  0.00     0.016 A 
BRANCH   9  14
ATOM     14  N   UNL A   1      31.706  26.459  24.694  1.00  0.00    -0.257 N 
ATOM     15  C   UNL A   1      31.837  24.468  23.965  1.00  0.00     0.071 C 
ATOM     16  N   UNL A   1      32.073  25.196  25.007  1.00  0.00    -0.176 NA
ATOM     17  C   UNL A   1      31.320  25.193  22.755  1.00  0.00     0.091 C 
ATOM     18  C   UNL A   1      31.230  26.627  23.314  1.00  0.00     0.144 C 
BRANCH  15  19
ATOM     19  C   UNL A   1      32.042  23.014  23.987  1.00  0.00    -0.002 A 
ATOM     20  C   UNL A   1      32.521  20.282  24.154  1.00  0.00     0.067 A 
ATOM     21  C   UNL A   1      32.455  21.036  25.325  1.00  0.00     0.021 A 
ATOM     22  C   UNL A   1      32.359  20.890  22.900  1.00  0.00     0.021 A 
ATOM     23  C   UNL A   1      32.227  22.409  25.237  1.00  0.00     0.011 A 
ATOM     24  C   UNL A   1      32.106  22.262  22.815  1.00  0.00     0.011 A 
BRANCH  20  25
ATOM     25  S   UNL A   1      32.834  18.532  24.194  1.00  0.00     0.175 S 
ATOM     26  C   UNL A   1      32.400  17.885  22.603  1.00  0.00     0.163 C 
ATOM     27  O   UNL A   1      31.908  17.969  25.154  1.00  0.00    -0.224 OA
ATOM     28  O   UNL A   1      34.270  18.386  24.359  1.00  0.00    -0.224 OA
ENDBRANCH  20  25
ENDBRANCH  15  19
BRANCH  18  29
ATOM     29  C   UNL A   1      29.871  27.322  23.309  1.00  0.00    -0.023 A 
ATOM     30  C   UNL A   1      29.634  28.588  22.751  1.00  0.00     0.006 A 
ATOM     31  C   UNL A   1      28.764  26.626  23.837  1.00  0.00     0.006 A 
ATOM     32  C   UNL A   1      28.347  29.139  22.736  1.00  0.00     0.000 A 
ATOM     33  C   UNL A   1      27.475  27.164  23.798  1.00  0.00     0.000 A 
ATOM     34  C   UNL A   1      27.268  28.425  23.252  1.00  0.00     0.000 A 
ENDBRANCH  18  29
ENDBRANCH   9  14
ENDBRANCH   5   8
ENDBRANCH   3   4
ENDBRANCH   2   3
ENDBRANCH   1   2
BRANCH   1  35
ATOM     35  C   UNL A   1      40.331  29.335  27.134  1.00  0.00     0.002 C 
BRANCH  35  36
ATOM     36  C   UNL A   1      41.061  28.435  26.134  1.00  0.00     0.021 C 
BRANCH  36  37
ATOM     37  C   UNL A   1      41.279  27.006  26.620  1.00  0.00     0.116 C 
BRANCH  37  38
ATOM     38  N   UNL A   1      42.691  26.663  26.669  1.00  0.00    -0.352 N 
ATOM     39  C   UNL A   1      43.659  27.093  27.541  1.00  0.00     0.251 C 
ATOM     40  H   UNL A   1      42.995  26.032  25.978  1.00  0.00     0.163 HD
ATOM     41  O   UNL A   1      44.844  26.884  27.302  1.00  0.00    -0.269 OA
BRANCH  39  42
ATOM     42  C   UNL A   1      43.273  27.820  28.767  1.00  0.00     0.039 A 
ATOM     43  C   UNL A   1      43.630  29.164  28.900  1.00  0.00     0.014 A 
ATOM     44  C   UNL A   1      42.579  27.170  29.793  1.00  0.00     0.014 A 
ATOM     45  C   UNL A   1      43.249  29.871  30.041  1.00  0.00     0.010 A 
ATOM     46  C   UNL A   1      42.140  27.895  30.897  1.00  0.00     0.010 A 
ATOM     47  C   UNL A   1      42.479  29.249  31.036  1.00  0.00    -0.014 A 
BRANCH  47  48
ATOM     48  C   UNL A   1      42.026  29.995  32.236  1.00  0.00     0.031 A 
ATOM     49  C   UNL A   1      42.855  29.983  33.491  1.00  0.00     0.074 A 
ATOM     50  C   UNL A   1      40.840  30.635  32.216  1.00  0.00     0.049 A 
ATOM     51  N   UNL A   1      42.601  30.527  34.655  1.00  0.00    -0.248 NA
ATOM     52  C   UNL A   1      44.127  29.242  33.439  1.00  0.00     0.031 C 
ATOM     53  C   UNL A   1      39.925  30.691  31.075  1.00  0.00     0.029 A 
ATOM     54  N   UNL A   1      40.199  31.356  33.191  1.00  0.00    -0.354 N 
ATOM     55  C   UNL A   1      43.667  30.179  35.473  1.00  0.00     0.074 A 
ATOM     56  C   UNL A   1      44.545  29.337  34.691  1.00  0.00     0.031 C 
ATOM     57  C   UNL A   1      38.854  31.428  31.407  1.00  0.00     0.029 A 
ATOM     58  C   UNL A   1      38.986  31.864  32.793  1.00  0.00     0.049 A 
ATOM     59  H   UNL A   1      40.573  31.496  34.092  1.00  0.00     0.167 HD
ATOM     60  C   UNL A   1      43.904  30.541  36.757  1.00  0.00     0.031 A 
ATOM     61  C   UNL A   1      38.080  32.593  33.470  1.00  0.00     0.031 A 
ATOM     62  C   UNL A   1      43.036  31.387  37.531  1.00  0.00     0.049 A 
ATOM     63  C   UNL A   1      38.362  32.975  34.897  1.00  0.00     0.074 A 
ATOM     64  C   UNL A   1      43.215  31.857  38.820  1.00  0.00     0.029 A 
ATOM     65  N   UNL A   1      41.822  31.889  37.087  1.00  0.00    -0.354 N 
ATOM     66  N   UNL A   1      39.406  32.692  35.637  1.00  0.00    -0.248 NA
ATOM     67  C   UNL A   1      37.343  33.787  35.576  1.00  0.00     0.031 C 
ATOM     68  C   UNL A   1      42.085  32.601  39.175  1.00  0.00     0.029 A 
ATOM     69  C   UNL A   1      41.230  32.644  38.085  1.00  0.00     0.049 A 
ATOM     70  H   UNL A   1      41.438  31.731  36.195  1.00  0.00     0.167 HD
ATOM     71  C   UNL A   1      39.185  33.316  36.858  1.00  0.00     0.074 A 
ATOM     72  C   UNL A   1      37.914  34.003  36.753  1.00  0.00     0.031 C 
ATOM     73  C   UNL A   1      39.965  33.321  37.965  1.00  0.00     0.031 A 
BRANCH  60  74
ATOM     74  C   UNL A   1      45.154  30.015  37.406  1.00  0.00    -0.014 A 
ATOM     75  C   UNL A   1      45.171  28.765  38.049  1.00  0.00     0.009 A 
ATOM     76  C   UNL A   1      46.341  30.762  37.347  1.00  0.00     0.009 A 
ATOM     77  C   UNL A   1      46.340  28.295  38.651  1.00  0.00     0.001 A 
ATOM     78  C   UNL A   1      47.515  30.276  37.924  1.00  0.00     0.001 A 
ATOM     79  C   UNL A   1      47.511  29.049  38.584  1.00  0.00     0.000 A 
ENDBRANCH  60  74
BRANCH  61  80
ATOM     80  C   UNL A   1      36.826  33.028  32.802  1.00  0.00    -0.014 A 
ATOM     81  C   UNL A   1      35.661  32.251  32.897  1.00  0.00     0.009 A 
ATOM     82  C   UNL A   1      36.787  34.220  32.061  1.00  0.00     0.009 A 
ATOM     83  C   UNL A   1      34.493  32.643  32.241  1.00  0.00     0.001 A 
ATOM     84  C   UNL A   1      35.608  34.624  31.431  1.00  0.00     0.001 A 
ATOM     85  C   UNL A   1      34.465  33.831  31.513  1.00  0.00     0.000 A 
ENDBRANCH  61  80
BRANCH  73  86
ATOM     86  C   UNL A   1      39.485  34.126  39.141  1.00  0.00    -0.014 A 
ATOM     87  C   UNL A   1      39.763  35.496  39.251  1.00  0.00     0.009 A 
ATOM     88  C   UNL A   1      38.707  33.507  40.132  1.00  0.00     0.009 A 
ATOM     89  C   UNL A   1      39.301  36.224  40.350  1.00  0.00     0.001 A 
ATOM     90  C   UNL A   1      38.221  34.242  41.213  1.00  0.00     0.001 A 
ATOM     91  C   UNL A   1      38.526  35.598  41.326  1.00  0.00     0.000 A 
ENDBRANCH  73  86
ENDBRANCH  47  48
ENDBRANCH  39  42
ENDBRANCH  37  38
ENDBRANCH  36  37
ENDBRANCH  35  36
ENDBRANCH   1  35
TORSDOF 17
ENDMDL
