MODEL 1
REMARK VINA RESULT:     -11.5      0.000      0.000
REMARK SMILES Cc1cc(F)c(-c2ccc(F)c(C(=O)NCCCCCCNC(=O)c3ccc(-c4c5nc(c(-c6ccccc6)c6ccc([nH]6)c(-c6ccccc6)c6nc(c(-c7ccccc7)c7ccc4[nH]7)C=C6)C=C5)cc3)c2)cc1F
REMARK SMILES IDX 19 1 18 2 17 3 16 4 15 5 13 6 14 7 12 9 7 10 8 11 73 12 9 13
REMARK SMILES IDX 10 14 11 15 6 16 1 17 2 18 3 19 75 20 4 21 74 22 76 23 5 24
REMARK SMILES IDX 20 25 21 26 22 27 23 28 24 30 25 31 26 32 72 33 27 34 71 35
REMARK SMILES IDX 28 36 29 37 30 38 65 39 31 40 70 41 64 42 66 43 32 44 69 45
REMARK SMILES IDX 63 46 62 47 33 49 55 50 40 51 54 52 41 53 44 54 53 55 67 56
REMARK SMILES IDX 42 57 43 58 52 60 68 61 45 62 34 63 35 64 39 65 36 66 38 67
REMARK SMILES IDX 37 68 56 69 57 70 61 71 58 72 60 73 59 74 46 75 47 76 51 77
REMARK SMILES IDX 48 78 50 79 49 80
REMARK H PARENT 15 8 22 29 66 48 44 59
REMARK Flexibility Score: inf
ROOT
ATOM      1  C   UNL A   1      32.052  27.323  26.324  1.00  0.00     0.002 C 
ENDROOT
BRANCH   1   2
ATOM      2  C   UNL A   1      32.496  25.861  26.401  1.00  0.00     0.002 C 
BRANCH   2   3
ATOM      3  C   UNL A   1      33.711  25.445  25.570  1.00  0.00     0.021 C 
BRANCH   3   4
ATOM      4  C   UNL A   1      34.058  26.294  24.354  1.00  0.00     0.116 C 
BRANCH   4   5
ATOM      5  N   UNL A   1      33.887  25.634  23.074  1.00  0.00    -0.352 N 
ATOM      6  C   UNL A   1      32.785  25.523  22.253  1.00  0.00     0.254 C 
ATOM      7  O   UNL A   1      32.930  24.975  21.163  1.00  0.00    -0.269 OA
ATOM      8  H   UNL A   1      34.697  25.188  22.734  1.00  0.00     0.163 HD
BRANCH   6   9
ATOM      9  C   UNL A   1      31.443  26.015  22.661  1.00  0.00     0.076 A 
ATOM     10  C   UNL A   1      29.812  27.828  22.912  1.00  0.00    -0.014 A 
ATOM     11  C   UNL A   1      29.001  26.959  23.660  1.00  0.00     0.012 A 
ATOM     12  C   UNL A   1      30.986  27.299  22.342  1.00  0.00     0.025 A 
ATOM     13  C   UNL A   1      29.388  25.638  23.889  1.00  0.00     0.041 A 
ATOM     14  C   UNL A   1      30.618  25.183  23.417  1.00  0.00     0.135 A 
ATOM     15  F   UNL A   1      30.992  23.939  23.753  1.00  0.00    -0.206 F 
BRANCH  10  16
ATOM     16  C   UNL A   1      29.540  29.278  22.849  1.00  0.00     0.020 A 
ATOM     17  C   UNL A   1      28.340  33.452  22.750  1.00  0.00     0.047 C 
ATOM     18  C   UNL A   1      28.753  32.013  22.798  1.00  0.00    -0.012 A 
ATOM     19  C   UNL A   1      29.551  31.522  23.835  1.00  0.00     0.046 A 
ATOM     20  C   UNL A   1      28.384  31.139  21.777  1.00  0.00     0.126 A 
ATOM     21  C   UNL A   1      29.929  30.174  23.856  1.00  0.00     0.131 A 
ATOM     22  C   UNL A   1      28.761  29.797  21.798  1.00  0.00     0.051 A 
ATOM     23  F   UNL A   1      27.627  31.577  20.762  1.00  0.00    -0.207 F 
ATOM     24  F   UNL A   1      30.663  29.747  24.895  1.00  0.00    -0.206 F 
ENDBRANCH  10  16
ENDBRANCH   6   9
ENDBRANCH   4   5
ENDBRANCH   3   4
ENDBRANCH   2   3
ENDBRANCH   1   2
BRANCH   1  25
ATOM     25  C   UNL A   1      32.606  28.277  27.380  1.00  0.00     0.021 C 
BRANCH  25  26
ATOM     26  C   UNL A   1      33.676  29.259  26.920  1.00  0.00     0.116 C 
BRANCH  26  27
ATOM     27  N   UNL A   1      33.729  30.485  27.696  1.00  0.00    -0.352 N 
ATOM     28  C   UNL A   1      34.749  30.977  28.483  1.00  0.00     0.251 C 
ATOM     29  H   UNL A   1      32.919  31.045  27.654  1.00  0.00     0.163 HD
ATOM     30  O   UNL A   1      34.600  32.005  29.123  1.00  0.00    -0.269 OA
BRANCH  28  31
ATOM     31  C   UNL A   1      36.014  30.212  28.595  1.00  0.00     0.039 A 
ATOM     32  C   UNL A   1      36.329  29.503  29.756  1.00  0.00     0.014 A 
ATOM     33  C   UNL A   1      36.920  30.261  27.533  1.00  0.00     0.014 A 
ATOM     34  C   UNL A   1      37.617  29.000  29.927  1.00  0.00     0.010 A 
ATOM     35  C   UNL A   1      38.189  29.695  27.680  1.00  0.00     0.010 A 
ATOM     36  C   UNL A   1      38.569  29.114  28.902  1.00  0.00    -0.014 A 
BRANCH  36  37
ATOM     37  C   UNL A   1      39.973  28.683  29.127  1.00  0.00     0.031 A 
ATOM     38  C   UNL A   1      40.933  29.590  29.855  1.00  0.00     0.074 A 
ATOM     39  C   UNL A   1      40.380  27.465  28.721  1.00  0.00     0.049 A 
ATOM     40  N   UNL A   1      42.209  29.418  30.094  1.00  0.00    -0.248 NA
ATOM     41  C   UNL A   1      40.392  30.850  30.394  1.00  0.00     0.031 C 
ATOM     42  C   UNL A   1      39.535  26.467  28.063  1.00  0.00     0.029 A 
ATOM     43  N   UNL A   1      41.606  26.852  28.817  1.00  0.00    -0.354 N 
ATOM     44  C   UNL A   1      42.625  30.552  30.782  1.00  0.00     0.074 A 
ATOM     45  C   UNL A   1      41.473  31.414  30.915  1.00  0.00     0.031 C 
ATOM     46  C   UNL A   1      40.254  25.353  27.855  1.00  0.00     0.029 A 
ATOM     47  C   UNL A   1      41.627  25.583  28.294  1.00  0.00     0.049 A 
ATOM     48  H   UNL A   1      42.393  27.283  29.223  1.00  0.00     0.167 HD
ATOM     49  C   UNL A   1      43.854  30.842  31.266  1.00  0.00     0.031 A 
ATOM     50  C   UNL A   1      42.643  24.707  28.157  1.00  0.00     0.031 A 
ATOM     51  C   UNL A   1      44.995  29.974  31.157  1.00  0.00     0.049 A 
ATOM     52  C   UNL A   1      44.020  25.099  28.618  1.00  0.00     0.074 A 
ATOM     53  C   UNL A   1      46.280  30.186  31.627  1.00  0.00     0.029 A 
ATOM     54  N   UNL A   1      44.990  28.734  30.544  1.00  0.00    -0.354 N 
ATOM     55  N   UNL A   1      44.399  26.183  29.248  1.00  0.00    -0.248 NA
ATOM     56  C   UNL A   1      45.112  24.153  28.336  1.00  0.00     0.031 C 
ATOM     57  C   UNL A   1      47.064  29.094  31.258  1.00  0.00     0.029 A 
ATOM     58  C   UNL A   1      46.255  28.178  30.605  1.00  0.00     0.049 A 
ATOM     59  H   UNL A   1      44.204  28.310  30.127  1.00  0.00     0.167 HD
ATOM     60  C   UNL A   1      45.765  26.040  29.458  1.00  0.00     0.074 A 
ATOM     61  C   UNL A   1      46.149  24.763  28.897  1.00  0.00     0.031 C 
ATOM     62  C   UNL A   1      46.621  26.897  30.062  1.00  0.00     0.031 A 
BRANCH  49  63
ATOM     63  C   UNL A   1      44.059  32.157  31.963  1.00  0.00    -0.014 A 
ATOM     64  C   UNL A   1      43.793  32.263  33.338  1.00  0.00     0.009 A 
ATOM     65  C   UNL A   1      44.377  33.316  31.239  1.00  0.00     0.009 A 
ATOM     66  C   UNL A   1      43.819  33.507  33.969  1.00  0.00     0.001 A 
ATOM     67  C   UNL A   1      44.424  34.556  31.879  1.00  0.00     0.001 A 
ATOM     68  C   UNL A   1      44.134  34.652  33.240  1.00  0.00     0.000 A 
ENDBRANCH  49  63
BRANCH  50  69
ATOM     69  C   UNL A   1      42.397  23.377  27.541  1.00  0.00    -0.014 A 
ATOM     70  C   UNL A   1      42.647  23.161  26.176  1.00  0.00     0.009 A 
ATOM     71  C   UNL A   1      41.894  22.319  28.312  1.00  0.00     0.009 A 
ATOM     72  C   UNL A   1      42.380  21.922  25.592  1.00  0.00     0.001 A 
ATOM     73  C   UNL A   1      41.655  21.070  27.732  1.00  0.00     0.001 A 
ATOM     74  C   UNL A   1      41.891  20.876  26.371  1.00  0.00     0.000 A 
ENDBRANCH  50  69
BRANCH  62  75
ATOM     75  C   UNL A   1      48.060  26.490  30.193  1.00  0.00    -0.014 A 
ATOM     76  C   UNL A   1      48.493  25.852  31.365  1.00  0.00     0.009 A 
ATOM     77  C   UNL A   1      49.004  26.862  29.225  1.00  0.00     0.009 A 
ATOM     78  C   UNL A   1      49.852  25.615  31.579  1.00  0.00     0.001 A 
ATOM     79  C   UNL A   1      50.359  26.603  29.432  1.00  0.00     0.001 A 
ATOM     80  C   UNL A   1      50.783  25.991  30.613  1.00  0.00     0.000 A 
ENDBRANCH  62  75
ENDBRANCH  36  37
ENDBRANCH  28  31
ENDBRANCH  26  27
ENDBRANCH  25  26
ENDBRANCH   1  25
TORSDOF 14
ENDMDL
MODEL 2
REMARK VINA RESULT:     -11.5      2.478      7.095
REMARK SMILES Cc1cc(F)c(-c2ccc(F)c(C(=O)NCCCCCCNC(=O)c3ccc(-c4c5nc(c(-c6ccccc6)c6ccc([nH]6)c(-c6ccccc6)c6nc(c(-c7ccccc7)c7ccc4[nH]7)C=C6)C=C5)cc3)c2)cc1F
REMARK SMILES IDX 19 1 18 2 17 3 16 4 15 5 13 6 14 7 12 9 7 10 8 11 73 12 9 13
REMARK SMILES IDX 10 14 11 15 6 16 1 17 2 18 3 19 75 20 4 21 74 22 76 23 5 24
REMARK SMILES IDX 20 25 21 26 22 27 23 28 24 30 25 31 26 32 72 33 27 34 71 35
REMARK SMILES IDX 28 36 29 37 30 38 65 39 31 40 70 41 64 42 66 43 32 44 69 45
REMARK SMILES IDX 63 46 62 47 33 49 55 50 40 51 54 52 41 53 44 54 53 55 67 56
REMARK SMILES IDX 42 57 43 58 52 60 68 61 45 62 34 63 35 64 39 65 36 66 38 67
REMARK SMILES IDX 37 68 56 69 57 70 61 71 58 72 60 73 59 74 46 75 47 76 51 77
REMARK SMILES IDX 48 78 50 79 49 80
REMARK H PARENT 15 8 22 29 66 48 44 59
REMARK Flexibility Score: inf
ROOT
ATOM      1  C   UNL A   1      36.727  22.289  24.692  1.00  0.00     0.002 C 
ENDROOT
BRANCH   1   2
ATOM      2  C   UNL A   1      35.981  22.712  25.958  1.00  0.00     0.002 C 
BRANCH   2   3
ATOM      3  C   UNL A   1      34.972  21.726  26.548  1.00  0.00     0.021 C 
BRANCH   3   4
ATOM      4  C   UNL A   1      33.923  22.278  27.506  1.00  0.00     0.116 C 
BRANCH   4   5
ATOM      5  N   UNL A   1      32.558  22.225  27.021  1.00  0.00    -0.352 N 
ATOM      6  C   UNL A   1      31.929  22.919  26.008  1.00  0.00     0.254 C 
ATOM      7  O   UNL A   1      30.769  22.620  25.738  1.00  0.00    -0.269 OA
ATOM      8  H   UNL A   1      31.980  21.585  27.498  1.00  0.00     0.163 HD
BRANCH   6   9
ATOM      9  C   UNL A   1      32.601  24.019  25.270  1.00  0.00     0.076 A 
ATOM     10  C   UNL A   1      33.065  26.404  24.935  1.00  0.00    -0.014 A 
ATOM     11  C   UNL A   1      33.685  26.085  23.716  1.00  0.00     0.012 A 
ATOM     12  C   UNL A   1      32.616  25.339  25.739  1.00  0.00     0.025 A 
ATOM     13  C   UNL A   1      33.782  24.760  23.287  1.00  0.00     0.041 A 
ATOM     14  C   UNL A   1      33.214  23.740  24.048  1.00  0.00     0.135 A 
ATOM     15  F   UNL A   1      33.241  22.498  23.544  1.00  0.00    -0.206 F 
BRANCH  10  16
ATOM     16  C   UNL A   1      32.747  27.799  25.300  1.00  0.00     0.020 A 
ATOM     17  C   UNL A   1      31.458  31.757  26.544  1.00  0.00     0.047 C 
ATOM     18  C   UNL A   1      31.906  30.389  26.128  1.00  0.00    -0.012 A 
ATOM     19  C   UNL A   1      32.980  29.755  26.759  1.00  0.00     0.046 A 
ATOM     20  C   UNL A   1      31.283  29.735  25.066  1.00  0.00     0.126 A 
ATOM     21  C   UNL A   1      33.384  28.479  26.350  1.00  0.00     0.131 A 
ATOM     22  C   UNL A   1      31.687  28.465  24.658  1.00  0.00     0.051 A 
ATOM     23  F   UNL A   1      30.257  30.317  24.431  1.00  0.00    -0.207 F 
ATOM     24  F   UNL A   1      34.396  27.900  27.015  1.00  0.00    -0.206 F 
ENDBRANCH  10  16
ENDBRANCH   6   9
ENDBRANCH   4   5
ENDBRANCH   3   4
ENDBRANCH   2   3
ENDBRANCH   1   2
BRANCH   1  25
ATOM     25  C   UNL A   1      37.588  21.030  24.778  1.00  0.00     0.021 C 
BRANCH  25  26
ATOM     26  C   UNL A   1      38.713  21.042  25.805  1.00  0.00     0.116 C 
BRANCH  26  27
ATOM     27  N   UNL A   1      39.631  19.922  25.691  1.00  0.00    -0.352 N 
ATOM     28  C   UNL A   1      40.969  19.853  26.020  1.00  0.00     0.251 C 
ATOM     29  H   UNL A   1      39.242  19.094  25.326  1.00  0.00     0.163 HD
ATOM     30  O   UNL A   1      41.612  18.840  25.798  1.00  0.00    -0.269 OA
BRANCH  28  31
ATOM     31  C   UNL A   1      41.639  21.045  26.591  1.00  0.00     0.039 A 
ATOM     32  C   UNL A   1      41.710  21.241  27.972  1.00  0.00     0.014 A 
ATOM     33  C   UNL A   1      42.152  22.006  25.717  1.00  0.00     0.014 A 
ATOM     34  C   UNL A   1      42.124  22.475  28.471  1.00  0.00     0.010 A 
ATOM     35  C   UNL A   1      42.633  23.216  26.223  1.00  0.00     0.010 A 
ATOM     36  C   UNL A   1      42.565  23.485  27.601  1.00  0.00    -0.014 A 
BRANCH  36  37
ATOM     37  C   UNL A   1      42.896  24.836  28.123  1.00  0.00     0.031 A 
ATOM     38  C   UNL A   1      41.799  25.846  28.349  1.00  0.00     0.074 A 
ATOM     39  C   UNL A   1      44.168  25.148  28.435  1.00  0.00     0.049 A 
ATOM     40  N   UNL A   1      41.895  27.093  28.739  1.00  0.00    -0.248 NA
ATOM     41  C   UNL A   1      40.414  25.400  28.118  1.00  0.00     0.031 C 
ATOM     42  C   UNL A   1      45.312  24.241  28.325  1.00  0.00     0.029 A 
ATOM     43  N   UNL A   1      44.711  26.310  28.927  1.00  0.00    -0.354 N 
ATOM     44  C   UNL A   1      40.595  27.583  28.773  1.00  0.00     0.074 A 
ATOM     45  C   UNL A   1      39.724  26.508  28.354  1.00  0.00     0.031 C 
ATOM     46  C   UNL A   1      46.411  24.866  28.776  1.00  0.00     0.029 A 
ATOM     47  C   UNL A   1      46.066  26.237  29.137  1.00  0.00     0.049 A 
ATOM     48  H   UNL A   1      44.178  27.117  29.111  1.00  0.00     0.167 HD
ATOM     49  C   UNL A   1      40.167  28.816  29.131  1.00  0.00     0.031 A 
ATOM     50  C   UNL A   1      46.942  27.175  29.550  1.00  0.00     0.031 A 
ATOM     51  C   UNL A   1      41.028  29.878  29.572  1.00  0.00     0.049 A 
ATOM     52  C   UNL A   1      46.447  28.564  29.846  1.00  0.00     0.074 A 
ATOM     53  C   UNL A   1      40.677  31.159  29.962  1.00  0.00     0.029 A 
ATOM     54  N   UNL A   1      42.404  29.784  29.688  1.00  0.00    -0.354 N 
ATOM     55  N   UNL A   1      45.218  29.016  29.853  1.00  0.00    -0.248 NA
ATOM     56  C   UNL A   1      47.463  29.577  30.176  1.00  0.00     0.031 C 
ATOM     57  C   UNL A   1      41.845  31.856  30.269  1.00  0.00     0.029 A 
ATOM     58  C   UNL A   1      42.918  30.992  30.123  1.00  0.00     0.049 A 
ATOM     59  H   UNL A   1      42.936  28.979  29.491  1.00  0.00     0.167 HD
ATOM     60  C   UNL A   1      45.309  30.355  30.210  1.00  0.00     0.074 A 
ATOM     61  C   UNL A   1      46.711  30.644  30.419  1.00  0.00     0.031 C 
ATOM     62  C   UNL A   1      44.313  31.262  30.348  1.00  0.00     0.031 A 
BRANCH  49  63
ATOM     63  C   UNL A   1      38.695  29.112  29.062  1.00  0.00    -0.014 A 
ATOM     64  C   UNL A   1      38.147  29.636  27.880  1.00  0.00     0.009 A 
ATOM     65  C   UNL A   1      37.884  29.006  30.201  1.00  0.00     0.009 A 
ATOM     66  C   UNL A   1      36.821  30.069  27.845  1.00  0.00     0.001 A 
ATOM     67  C   UNL A   1      36.550  29.421  30.156  1.00  0.00     0.001 A 
ATOM     68  C   UNL A   1      36.024  29.962  28.983  1.00  0.00     0.000 A 
ENDBRANCH  49  63
BRANCH  50  69
ATOM     69  C   UNL A   1      48.382  26.835  29.691  1.00  0.00    -0.014 A 
ATOM     70  C   UNL A   1      48.885  26.335  30.903  1.00  0.00     0.009 A 
ATOM     71  C   UNL A   1      49.265  27.025  28.619  1.00  0.00     0.009 A 
ATOM     72  C   UNL A   1      50.244  26.052  31.045  1.00  0.00     0.001 A 
ATOM     73  C   UNL A   1      50.621  26.712  28.753  1.00  0.00     0.001 A 
ATOM     74  C   UNL A   1      51.110  26.234  29.968  1.00  0.00     0.000 A 
ENDBRANCH  50  69
BRANCH  62  75
ATOM     75  C   UNL A   1      44.674  32.653  30.780  1.00  0.00    -0.014 A 
ATOM     76  C   UNL A   1      44.642  32.985  32.143  1.00  0.00     0.009 A 
ATOM     77  C   UNL A   1      44.906  33.662  29.834  1.00  0.00     0.009 A 
ATOM     78  C   UNL A   1      44.811  34.308  32.553  1.00  0.00     0.001 A 
ATOM     79  C   UNL A   1      45.097  34.981  30.249  1.00  0.00     0.001 A 
ATOM     80  C   UNL A   1      45.038  35.305  31.605  1.00  0.00     0.000 A 
ENDBRANCH  62  75
ENDBRANCH  36  37
ENDBRANCH  28  31
ENDBRANCH  26  27
ENDBRANCH  25  26
ENDBRANCH   1  25
TORSDOF 14
ENDMDL
MODEL 3
REMARK VINA RESULT:     -11.4      1.724      6.253
REMARK SMILES Cc1cc(F)c(-c2ccc(F)c(C(=O)NCCCCCCNC(=O)c3ccc(-c4c5nc(c(-c6ccccc6)c6ccc([nH]6)c(-c6ccccc6)c6nc(c(-c7ccccc7)c7ccc4[nH]7)C=C6)C=C5)cc3)c2)cc1F
REMARK SMILES IDX 19 1 18 2 17 3 16 4 15 5 13 6 14 7 12 9 7 10 8 11 73 12 9 13
REMARK SMILES IDX 10 14 11 15 6 16 1 17 2 18 3 19 75 20 4 21 74 22 76 23 5 24
REMARK SMILES IDX 20 25 21 26 22 27 23 28 24 30 25 31 26 32 72 33 27 34 71 35
REMARK SMILES IDX 28 36 29 37 30 38 65 39 31 40 70 41 64 42 66 43 32 44 69 45
REMARK SMILES IDX 63 46 62 47 33 49 55 50 40 51 54 52 41 53 44 54 53 55 67 56
REMARK SMILES IDX 42 57 43 58 52 60 68 61 45 62 34 63 35 64 39 65 36 66 38 67
REMARK SMILES IDX 37 68 56 69 57 70 61 71 58 72 60 73 59 74 46 75 47 76 51 77
REMARK SMILES IDX 48 78 50 79 49 80
REMARK H PARENT 15 8 22 29 66 48 44 59
REMARK Flexibility Score: inf
ROOT
ATOM      1  C   UNL A   1      33.779  26.266  25.031  1.00  0.00     0.002 C 
ENDROOT
BRANCH   1   2
ATOM      2  C   UNL A   1      34.525  25.024  25.519  1.00  0.00     0.002 C 
BRANCH   2   3
ATOM      3  C   UNL A   1      35.033  24.041  24.463  1.00  0.00     0.021 C 
BRANCH   3   4
ATOM      4  C   UNL A   1      34.379  24.083  23.088  1.00  0.00     0.116 C 
BRANCH   4   5
ATOM      5  N   UNL A   1      33.541  22.942  22.770  1.00  0.00    -0.352 N 
ATOM      6  C   UNL A   1      32.219  22.681  23.061  1.00  0.00     0.254 C 
ATOM      7  O   UNL A   1      31.715  21.662  22.594  1.00  0.00    -0.269 OA
ATOM      8  H   UNL A   1      33.995  22.233  22.259  1.00  0.00     0.163 HD
BRANCH   6   9
ATOM      9  C   UNL A   1      31.412  23.571  23.936  1.00  0.00     0.076 A 
ATOM     10  C   UNL A   1      30.068  25.594  24.278  1.00  0.00    -0.014 A 
ATOM     11  C   UNL A   1      30.102  25.351  25.660  1.00  0.00     0.012 A 
ATOM     12  C   UNL A   1      30.651  24.633  23.430  1.00  0.00     0.025 A 
ATOM     13  C   UNL A   1      30.759  24.231  26.174  1.00  0.00     0.041 A 
ATOM     14  C   UNL A   1      31.435  23.367  25.316  1.00  0.00     0.135 A 
ATOM     15  F   UNL A   1      32.138  22.367  25.866  1.00  0.00    -0.206 F 
BRANCH  10  16
ATOM     16  C   UNL A   1      29.584  26.876  23.729  1.00  0.00     0.020 A 
ATOM     17  C   UNL A   1      28.222  30.486  21.733  1.00  0.00     0.047 C 
ATOM     18  C   UNL A   1      28.680  29.236  22.418  1.00  0.00    -0.012 A 
ATOM     19  C   UNL A   1      27.779  28.408  23.094  1.00  0.00     0.046 A 
ATOM     20  C   UNL A   1      30.031  28.892  22.432  1.00  0.00     0.126 A 
ATOM     21  C   UNL A   1      28.230  27.247  23.732  1.00  0.00     0.131 A 
ATOM     22  C   UNL A   1      30.480  27.736  23.068  1.00  0.00     0.051 A 
ATOM     23  F   UNL A   1      30.925  29.667  21.802  1.00  0.00    -0.207 F 
ATOM     24  F   UNL A   1      27.317  26.469  24.333  1.00  0.00    -0.206 F 
ENDBRANCH  10  16
ENDBRANCH   6   9
ENDBRANCH   4   5
ENDBRANCH   3   4
ENDBRANCH   2   3
ENDBRANCH   1   2
BRANCH   1  25
ATOM     25  C   UNL A   1      33.312  27.261  26.091  1.00  0.00     0.021 C 
BRANCH  25  26
ATOM     26  C   UNL A   1      34.335  28.288  26.562  1.00  0.00     0.116 C 
BRANCH  26  27
ATOM     27  N   UNL A   1      33.770  29.590  26.866  1.00  0.00    -0.352 N 
ATOM     28  C   UNL A   1      34.285  30.605  27.645  1.00  0.00     0.251 C 
ATOM     29  H   UNL A   1      32.893  29.775  26.457  1.00  0.00     0.163 HD
ATOM     30  O   UNL A   1      33.642  31.622  27.848  1.00  0.00    -0.269 OA
BRANCH  28  31
ATOM     31  C   UNL A   1      35.608  30.426  28.290  1.00  0.00     0.039 A 
ATOM     32  C   UNL A   1      36.768  30.956  27.719  1.00  0.00     0.014 A 
ATOM     33  C   UNL A   1      35.684  29.662  29.457  1.00  0.00     0.014 A 
ATOM     34  C   UNL A   1      38.014  30.569  28.210  1.00  0.00     0.010 A 
ATOM     35  C   UNL A   1      36.933  29.333  29.989  1.00  0.00     0.010 A 
ATOM     36  C   UNL A   1      38.110  29.733  29.333  1.00  0.00    -0.014 A 
BRANCH  36  37
ATOM     37  C   UNL A   1      39.433  29.229  29.784  1.00  0.00     0.031 A 
ATOM     38  C   UNL A   1      40.003  27.966  29.186  1.00  0.00     0.074 A 
ATOM     39  C   UNL A   1      40.145  29.919  30.695  1.00  0.00     0.049 A 
ATOM     40  N   UNL A   1      41.109  27.336  29.493  1.00  0.00    -0.248 NA
ATOM     41  C   UNL A   1      39.238  27.332  28.098  1.00  0.00     0.031 C 
ATOM     42  C   UNL A   1      39.738  31.187  31.302  1.00  0.00     0.029 A 
ATOM     43  N   UNL A   1      41.372  29.660  31.256  1.00  0.00    -0.354 N 
ATOM     44  C   UNL A   1      41.158  26.225  28.659  1.00  0.00     0.074 A 
ATOM     45  C   UNL A   1      39.968  26.255  27.840  1.00  0.00     0.031 C 
ATOM     46  C   UNL A   1      40.714  31.616  32.117  1.00  0.00     0.029 A 
ATOM     47  C   UNL A   1      41.782  30.620  32.148  1.00  0.00     0.049 A 
ATOM     48  H   UNL A   1      41.906  28.861  31.038  1.00  0.00     0.167 HD
ATOM     49  C   UNL A   1      42.116  25.273  28.579  1.00  0.00     0.031 A 
ATOM     50  C   UNL A   1      42.881  30.684  32.926  1.00  0.00     0.031 A 
ATOM     51  C   UNL A   1      43.312  25.255  29.374  1.00  0.00     0.049 A 
ATOM     52  C   UNL A   1      43.878  29.560  32.884  1.00  0.00     0.074 A 
ATOM     53  C   UNL A   1      44.342  24.329  29.352  1.00  0.00     0.029 A 
ATOM     54  N   UNL A   1      43.644  26.204  30.326  1.00  0.00    -0.354 N 
ATOM     55  N   UNL A   1      43.899  28.507  32.105  1.00  0.00    -0.248 NA
ATOM     56  C   UNL A   1      44.996  29.624  33.840  1.00  0.00     0.031 C 
ATOM     57  C   UNL A   1      45.274  24.692  30.323  1.00  0.00     0.029 A 
ATOM     58  C   UNL A   1      44.853  25.873  30.912  1.00  0.00     0.049 A 
ATOM     59  H   UNL A   1      43.102  26.995  30.551  1.00  0.00     0.167 HD
ATOM     60  C   UNL A   1      45.040  27.797  32.458  1.00  0.00     0.074 A 
ATOM     61  C   UNL A   1      45.691  28.540  33.515  1.00  0.00     0.031 C 
ATOM     62  C   UNL A   1      45.501  26.631  31.949  1.00  0.00     0.031 A 
BRANCH  49  63
ATOM     63  C   UNL A   1      41.928  24.147  27.601  1.00  0.00    -0.014 A 
ATOM     64  C   UNL A   1      41.256  22.982  28.005  1.00  0.00     0.009 A 
ATOM     65  C   UNL A   1      42.532  24.181  26.336  1.00  0.00     0.009 A 
ATOM     66  C   UNL A   1      41.212  21.865  27.170  1.00  0.00     0.001 A 
ATOM     67  C   UNL A   1      42.467  23.068  25.494  1.00  0.00     0.001 A 
ATOM     68  C   UNL A   1      41.817  21.908  25.916  1.00  0.00     0.000 A 
ENDBRANCH  49  63
BRANCH  50  69
ATOM     69  C   UNL A   1      43.087  31.850  33.824  1.00  0.00    -0.014 A 
ATOM     70  C   UNL A   1      42.614  31.830  35.146  1.00  0.00     0.009 A 
ATOM     71  C   UNL A   1      43.743  32.999  33.358  1.00  0.00     0.009 A 
ATOM     72  C   UNL A   1      42.775  32.941  35.976  1.00  0.00     0.001 A 
ATOM     73  C   UNL A   1      43.930  34.099  34.199  1.00  0.00     0.001 A 
ATOM     74  C   UNL A   1      43.439  34.072  35.504  1.00  0.00     0.000 A 
ENDBRANCH  50  69
BRANCH  62  75
ATOM     75  C   UNL A   1      46.790  26.081  32.486  1.00  0.00    -0.014 A 
ATOM     76  C   UNL A   1      47.995  26.377  31.830  1.00  0.00     0.009 A 
ATOM     77  C   UNL A   1      46.795  25.165  33.547  1.00  0.00     0.009 A 
ATOM     78  C   UNL A   1      49.180  25.746  32.210  1.00  0.00     0.001 A 
ATOM     79  C   UNL A   1      47.986  24.552  33.940  1.00  0.00     0.001 A 
ATOM     80  C   UNL A   1      49.174  24.834  33.264  1.00  0.00     0.000 A 
ENDBRANCH  62  75
ENDBRANCH  36  37
ENDBRANCH  28  31
ENDBRANCH  26  27
ENDBRANCH  25  26
ENDBRANCH   1  25
TORSDOF 14
ENDMDL
