MODEL 1
REMARK VINA RESULT:     -10.5      0.000      0.000
REMARK SMILES CCc1ccc(C(=O)N2CC[C@H](C(=O)NCCCCCCNC(=O)c3ccc(-c4c5nc(c(-c6ccccc6)c6ccc([nH]6)c(-c6ccccc6)c6nc(c(-c7ccccc7)c7ccc4[nH]7)C=C6)C=C5)cc3)[C@@H]2C)s1
REMARK SMILES IDX 18 1 17 2 16 3 15 4 13 5 14 6 12 8 9 9 10 10 73 11 11 12
REMARK SMILES IDX 74 13 7 14 8 15 6 16 3 17 4 18 75 19 5 20 2 21 1 22 19 23
REMARK SMILES IDX 20 24 21 25 22 26 23 27 24 29 25 30 26 31 72 32 27 33 71 34
REMARK SMILES IDX 28 35 29 36 30 37 65 38 31 39 70 40 64 41 66 42 32 43 69 44
REMARK SMILES IDX 63 45 62 46 33 48 55 49 40 50 54 51 41 52 44 53 53 54 67 55
REMARK SMILES IDX 42 56 43 57 52 59 68 60 45 61 34 62 35 63 39 64 36 65 38 66
REMARK SMILES IDX 37 67 56 68 57 69 61 70 58 71 60 72 59 73 46 74 47 75 51 76
REMARK SMILES IDX 48 77 50 78 49 79
REMARK H PARENT 15 7 22 28 66 47 44 58
REMARK Flexibility Score: inf
ROOT
ATOM      1  C   UNL A   1      39.745  22.213  26.875  1.00  0.00     0.002 C 
ENDROOT
BRANCH   1   2
ATOM      2  C   UNL A   1      39.364  23.669  26.588  1.00  0.00     0.021 C 
BRANCH   2   3
ATOM      3  C   UNL A   1      37.891  23.886  26.229  1.00  0.00     0.116 C 
BRANCH   3   4
ATOM      4  N   UNL A   1      37.708  23.725  24.802  1.00  0.00    -0.356 N 
ATOM      5  C   UNL A   1      36.605  23.373  24.086  1.00  0.00     0.225 C 
ATOM      6  O   UNL A   1      36.772  23.089  22.900  1.00  0.00    -0.275 OA
ATOM      7  H   UNL A   1      38.511  23.898  24.260  1.00  0.00     0.163 HD
BRANCH   5   8
ATOM      8  C   UNL A   1      35.223  23.424  24.728  1.00  0.00     0.102 C 
ATOM      9  N   UNL A   1      33.456  21.828  24.553  1.00  0.00    -0.334 N 
ATOM     10  C   UNL A   1      33.539  22.491  23.275  1.00  0.00     0.121 C 
ATOM     11  C   UNL A   1      34.644  22.130  25.358  1.00  0.00     0.094 C 
ATOM     12  C   UNL A   1      34.165  23.817  23.667  1.00  0.00     0.037 C 
ATOM     13  C   UNL A   1      35.544  20.901  25.402  1.00  0.00     0.032 C 
BRANCH   9  14
ATOM     14  C   UNL A   1      32.398  20.979  24.854  1.00  0.00     0.264 C 
ATOM     15  O   UNL A   1      31.464  21.386  25.546  1.00  0.00    -0.268 OA
BRANCH  14  16
ATOM     16  C   UNL A   1      32.504  19.591  24.414  1.00  0.00     0.092 A 
ATOM     17  C   UNL A   1      33.011  17.165  24.337  1.00  0.00     0.005 A 
ATOM     18  C   UNL A   1      32.765  17.686  23.084  1.00  0.00     0.016 A 
ATOM     19  S   UNL A   1      32.821  18.354  25.556  1.00  0.00    -0.135 S 
ATOM     20  C   UNL A   1      32.515  19.086  23.126  1.00  0.00     0.026 A 
BRANCH  17  21
ATOM     21  C   UNL A   1      33.421  15.764  24.691  1.00  0.00     0.043 C 
ATOM     22  C   UNL A   1      32.395  15.093  25.597  1.00  0.00     0.010 C 
ENDBRANCH  17  21
ENDBRANCH  14  16
ENDBRANCH   9  14
ENDBRANCH   5   8
ENDBRANCH   3   4
ENDBRANCH   2   3
ENDBRANCH   1   2
BRANCH   1  23
ATOM     23  C   UNL A   1      41.147  21.807  26.422  1.00  0.00     0.002 C 
BRANCH  23  24
ATOM     24  C   UNL A   1      41.280  20.369  25.918  1.00  0.00     0.021 C 
BRANCH  24  25
ATOM     25  C   UNL A   1      42.576  19.659  26.302  1.00  0.00     0.116 C 
BRANCH  25  26
ATOM     26  N   UNL A   1      43.356  19.255  25.145  1.00  0.00    -0.352 N 
ATOM     27  C   UNL A   1      44.249  19.982  24.395  1.00  0.00     0.251 C 
ATOM     28  H   UNL A   1      43.225  18.324  24.855  1.00  0.00     0.163 HD
ATOM     29  O   UNL A   1      44.698  19.526  23.353  1.00  0.00    -0.269 OA
BRANCH  27  30
ATOM     30  C   UNL A   1      44.647  21.336  24.837  1.00  0.00     0.039 A 
ATOM     31  C   UNL A   1      44.242  22.435  24.075  1.00  0.00     0.014 A 
ATOM     32  C   UNL A   1      45.412  21.522  25.993  1.00  0.00     0.014 A 
ATOM     33  C   UNL A   1      44.543  23.726  24.511  1.00  0.00     0.010 A 
ATOM     34  C   UNL A   1      45.660  22.812  26.457  1.00  0.00     0.010 A 
ATOM     35  C   UNL A   1      45.223  23.926  25.724  1.00  0.00    -0.014 A 
BRANCH  35  36
ATOM     36  C   UNL A   1      45.454  25.293  26.253  1.00  0.00     0.031 A 
ATOM     37  C   UNL A   1      44.317  26.095  26.821  1.00  0.00     0.074 A 
ATOM     38  C   UNL A   1      46.682  25.839  26.161  1.00  0.00     0.049 A 
ATOM     39  N   UNL A   1      44.323  27.321  27.280  1.00  0.00    -0.248 NA
ATOM     40  C   UNL A   1      42.998  25.445  26.857  1.00  0.00     0.031 C 
ATOM     41  C   UNL A   1      47.861  25.182  25.591  1.00  0.00     0.029 A 
ATOM     42  N   UNL A   1      47.141  27.077  26.536  1.00  0.00    -0.354 N 
ATOM     43  C   UNL A   1      43.011  27.594  27.644  1.00  0.00     0.074 A 
ATOM     44  C   UNL A   1      42.228  26.421  27.317  1.00  0.00     0.031 C 
ATOM     45  C   UNL A   1      48.911  26.016  25.673  1.00  0.00     0.029 A 
ATOM     46  C   UNL A   1      48.473  27.275  26.266  1.00  0.00     0.049 A 
ATOM     47  H   UNL A   1      46.570  27.758  26.958  1.00  0.00     0.167 HD
ATOM     48  C   UNL A   1      42.505  28.714  28.214  1.00  0.00     0.031 A 
ATOM     49  C   UNL A   1      49.256  28.353  26.465  1.00  0.00     0.031 A 
ATOM     50  C   UNL A   1      43.282  29.876  28.552  1.00  0.00     0.049 A 
ATOM     51  C   UNL A   1      48.668  29.584  27.093  1.00  0.00     0.074 A 
ATOM     52  C   UNL A   1      42.871  31.031  29.195  1.00  0.00     0.029 A 
ATOM     53  N   UNL A   1      44.630  30.034  28.271  1.00  0.00    -0.354 N 
ATOM     54  N   UNL A   1      47.440  29.797  27.501  1.00  0.00    -0.248 NA
ATOM     55  C   UNL A   1      49.577  30.721  27.296  1.00  0.00     0.031 C 
ATOM     56  C   UNL A   1      43.958  31.908  29.258  1.00  0.00     0.029 A 
ATOM     57  C   UNL A   1      45.059  31.278  28.700  1.00  0.00     0.049 A 
ATOM     58  H   UNL A   1      45.198  29.360  27.831  1.00  0.00     0.167 HD
ATOM     59  C   UNL A   1      47.434  31.082  28.026  1.00  0.00     0.074 A 
ATOM     60  C   UNL A   1      48.784  31.592  27.904  1.00  0.00     0.031 C 
ATOM     61  C   UNL A   1      46.402  31.776  28.563  1.00  0.00     0.031 A 
BRANCH  48  62
ATOM     62  C   UNL A   1      41.030  28.739  28.502  1.00  0.00    -0.014 A 
ATOM     63  C   UNL A   1      40.106  29.144  27.524  1.00  0.00     0.009 A 
ATOM     64  C   UNL A   1      40.555  28.309  29.749  1.00  0.00     0.009 A 
ATOM     65  C   UNL A   1      38.738  29.148  27.804  1.00  0.00     0.001 A 
ATOM     66  C   UNL A   1      39.185  28.289  30.017  1.00  0.00     0.001 A 
ATOM     67  C   UNL A   1      38.278  28.715  29.048  1.00  0.00     0.000 A 
ENDBRANCH  48  62
BRANCH  49  68
ATOM     68  C   UNL A   1      50.688  28.314  26.071  1.00  0.00    -0.014 A 
ATOM     69  C   UNL A   1      51.076  28.661  24.768  1.00  0.00     0.009 A 
ATOM     70  C   UNL A   1      51.670  27.926  26.994  1.00  0.00     0.009 A 
ATOM     71  C   UNL A   1      52.419  28.595  24.391  1.00  0.00     0.001 A 
ATOM     72  C   UNL A   1      53.016  27.887  26.621  1.00  0.00     0.001 A 
ATOM     73  C   UNL A   1      53.388  28.213  25.318  1.00  0.00     0.000 A 
ENDBRANCH  49  68
BRANCH  61  74
ATOM     74  C   UNL A   1      46.699  33.156  29.075  1.00  0.00    -0.014 A 
ATOM     75  C   UNL A   1      47.147  33.362  30.389  1.00  0.00     0.009 A 
ATOM     76  C   UNL A   1      46.560  34.262  28.221  1.00  0.00     0.009 A 
ATOM     77  C   UNL A   1      47.423  34.653  30.846  1.00  0.00     0.001 A 
ATOM     78  C   UNL A   1      46.861  35.547  28.672  1.00  0.00     0.001 A 
ATOM     79  C   UNL A   1      47.283  35.742  29.987  1.00  0.00     0.000 A 
ENDBRANCH  61  74
ENDBRANCH  35  36
ENDBRANCH  27  30
ENDBRANCH  25  26
ENDBRANCH  24  25
ENDBRANCH  23  24
ENDBRANCH   1  23
TORSDOF 16
ENDMDL
MODEL 2
REMARK VINA RESULT:     -10.3      3.084      7.596
REMARK SMILES CCc1ccc(C(=O)N2CC[C@H](C(=O)NCCCCCCNC(=O)c3ccc(-c4c5nc(c(-c6ccccc6)c6ccc([nH]6)c(-c6ccccc6)c6nc(c(-c7ccccc7)c7ccc4[nH]7)C=C6)C=C5)cc3)[C@@H]2C)s1
REMARK SMILES IDX 18 1 17 2 16 3 15 4 13 5 14 6 12 8 9 9 10 10 73 11 11 12
REMARK SMILES IDX 74 13 7 14 8 15 6 16 3 17 4 18 75 19 5 20 2 21 1 22 19 23
REMARK SMILES IDX 20 24 21 25 22 26 23 27 24 29 25 30 26 31 72 32 27 33 71 34
REMARK SMILES IDX 28 35 29 36 30 37 65 38 31 39 70 40 64 41 66 42 32 43 69 44
REMARK SMILES IDX 63 45 62 46 33 48 55 49 40 50 54 51 41 52 44 53 53 54 67 55
REMARK SMILES IDX 42 56 43 57 52 59 68 60 45 61 34 62 35 63 39 64 36 65 38 66
REMARK SMILES IDX 37 67 56 68 57 69 61 70 58 71 60 72 59 73 46 74 47 75 51 76
REMARK SMILES IDX 48 77 50 78 49 79
REMARK H PARENT 15 7 22 28 66 47 44 58
REMARK Flexibility Score: inf
ROOT
ATOM      1  C   UNL A   1      35.677  21.120  25.324  1.00  0.00     0.002 C 
ENDROOT
BRANCH   1   2
ATOM      2  C   UNL A   1      34.826  19.889  24.996  1.00  0.00     0.021 C 
BRANCH   2   3
ATOM      3  C   UNL A   1      33.317  20.092  25.162  1.00  0.00     0.116 C 
BRANCH   3   4
ATOM      4  N   UNL A   1      32.705  20.287  23.864  1.00  0.00    -0.356 N 
ATOM      5  C   UNL A   1      32.446  21.429  23.171  1.00  0.00     0.225 C 
ATOM      6  O   UNL A   1      31.714  21.334  22.186  1.00  0.00    -0.275 OA
ATOM      7  H   UNL A   1      32.431  19.458  23.409  1.00  0.00     0.163 HD
BRANCH   5   8
ATOM      8  C   UNL A   1      33.120  22.738  23.566  1.00  0.00     0.102 C 
ATOM      9  N   UNL A   1      32.435  24.964  23.043  1.00  0.00    -0.334 N 
ATOM     10  C   UNL A   1      32.935  24.390  21.818  1.00  0.00     0.121 C 
ATOM     11  C   UNL A   1      32.236  23.917  24.049  1.00  0.00     0.094 C 
ATOM     12  C   UNL A   1      33.879  23.327  22.350  1.00  0.00     0.037 C 
ATOM     13  C   UNL A   1      30.742  23.659  24.212  1.00  0.00     0.032 C 
BRANCH   9  14
ATOM     14  C   UNL A   1      32.143  26.320  23.132  1.00  0.00     0.264 C 
ATOM     15  O   UNL A   1      31.641  26.903  22.171  1.00  0.00    -0.268 OA
BRANCH  14  16
ATOM     16  C   UNL A   1      32.553  27.016  24.348  1.00  0.00     0.092 A 
ATOM     17  C   UNL A   1      32.637  28.597  26.257  1.00  0.00     0.005 A 
ATOM     18  C   UNL A   1      33.851  27.981  26.037  1.00  0.00     0.016 A 
ATOM     19  S   UNL A   1      31.438  28.019  25.177  1.00  0.00    -0.135 S 
ATOM     20  C   UNL A   1      33.811  27.105  24.917  1.00  0.00     0.026 A 
BRANCH  17  21
ATOM     21  C   UNL A   1      32.311  29.663  27.265  1.00  0.00     0.043 C 
ATOM     22  C   UNL A   1      31.877  30.958  26.588  1.00  0.00     0.010 C 
ENDBRANCH  17  21
ENDBRANCH  14  16
ENDBRANCH   9  14
ENDBRANCH   5   8
ENDBRANCH   3   4
ENDBRANCH   2   3
ENDBRANCH   1   2
BRANCH   1  23
ATOM     23  C   UNL A   1      37.002  21.213  24.567  1.00  0.00     0.002 C 
BRANCH  23  24
ATOM     24  C   UNL A   1      37.983  20.067  24.823  1.00  0.00     0.021 C 
BRANCH  24  25
ATOM     25  C   UNL A   1      39.022  20.328  25.911  1.00  0.00     0.116 C 
BRANCH  25  26
ATOM     26  N   UNL A   1      40.146  19.411  25.842  1.00  0.00    -0.352 N 
ATOM     27  C   UNL A   1      41.481  19.645  26.065  1.00  0.00     0.251 C 
ATOM     28  H   UNL A   1      39.917  18.485  25.599  1.00  0.00     0.163 HD
ATOM     29  O   UNL A   1      42.312  18.786  25.806  1.00  0.00    -0.269 OA
BRANCH  27  30
ATOM     30  C   UNL A   1      41.917  20.955  26.596  1.00  0.00     0.039 A 
ATOM     31  C   UNL A   1      42.355  21.930  25.696  1.00  0.00     0.014 A 
ATOM     32  C   UNL A   1      41.895  21.221  27.969  1.00  0.00     0.014 A 
ATOM     33  C   UNL A   1      42.703  23.197  26.165  1.00  0.00     0.010 A 
ATOM     34  C   UNL A   1      42.185  22.504  28.429  1.00  0.00     0.010 A 
ATOM     35  C   UNL A   1      42.585  23.506  27.531  1.00  0.00    -0.014 A 
BRANCH  35  36
ATOM     36  C   UNL A   1      42.847  24.879  28.029  1.00  0.00     0.031 A 
ATOM     37  C   UNL A   1      44.232  25.289  28.444  1.00  0.00     0.074 A 
ATOM     38  C   UNL A   1      41.820  25.739  28.170  1.00  0.00     0.049 A 
ATOM     39  N   UNL A   1      44.637  26.427  28.949  1.00  0.00    -0.248 NA
ATOM     40  C   UNL A   1      45.296  24.285  28.294  1.00  0.00     0.031 C 
ATOM     41  C   UNL A   1      40.421  25.449  27.844  1.00  0.00     0.029 A 
ATOM     42  N   UNL A   1      41.792  27.031  28.634  1.00  0.00    -0.354 N 
ATOM     43  C   UNL A   1      45.995  26.270  29.191  1.00  0.00     0.074 A 
ATOM     44  C   UNL A   1      46.339  24.915  28.815  1.00  0.00     0.031 C 
ATOM     45  C   UNL A   1      39.677  26.538  28.100  1.00  0.00     0.029 A 
ATOM     46  C   UNL A   1      40.536  27.586  28.639  1.00  0.00     0.049 A 
ATOM     47  H   UNL A   1      42.596  27.512  28.935  1.00  0.00     0.167 HD
ATOM     48  C   UNL A   1      46.882  27.177  29.669  1.00  0.00     0.031 A 
ATOM     49  C   UNL A   1      40.119  28.802  29.041  1.00  0.00     0.031 A 
ATOM     50  C   UNL A   1      46.546  28.527  30.032  1.00  0.00     0.049 A 
ATOM     51  C   UNL A   1      41.121  29.786  29.572  1.00  0.00     0.074 A 
ATOM     52  C   UNL A   1      47.388  29.539  30.460  1.00  0.00     0.029 A 
ATOM     53  N   UNL A   1      45.264  29.055  30.014  1.00  0.00    -0.354 N 
ATOM     54  N   UNL A   1      42.416  29.646  29.724  1.00  0.00    -0.248 NA
ATOM     55  C   UNL A   1      40.605  31.100  29.982  1.00  0.00     0.031 C 
ATOM     56  C   UNL A   1      46.609  30.664  30.749  1.00  0.00     0.029 A 
ATOM     57  C   UNL A   1      45.289  30.368  30.452  1.00  0.00     0.049 A 
ATOM     58  H   UNL A   1      44.457  28.567  29.732  1.00  0.00     0.167 HD
ATOM     59  C   UNL A   1      42.871  30.858  30.225  1.00  0.00     0.074 A 
ATOM     60  C   UNL A   1      41.718  31.727  30.334  1.00  0.00     0.031 C 
ATOM     61  C   UNL A   1      44.132  31.218  30.564  1.00  0.00     0.031 A 
BRANCH  48  62
ATOM     62  C   UNL A   1      48.307  26.731  29.836  1.00  0.00    -0.014 A 
ATOM     63  C   UNL A   1      48.734  26.087  31.009  1.00  0.00     0.009 A 
ATOM     64  C   UNL A   1      49.223  26.915  28.790  1.00  0.00     0.009 A 
ATOM     65  C   UNL A   1      50.059  25.666  31.142  1.00  0.00     0.001 A 
ATOM     66  C   UNL A   1      50.540  26.471  28.915  1.00  0.00     0.001 A 
ATOM     67  C   UNL A   1      50.960  25.854  30.093  1.00  0.00     0.000 A 
ENDBRANCH  48  62
BRANCH  49  68
ATOM     68  C   UNL A   1      38.681  29.161  28.949  1.00  0.00    -0.014 A 
ATOM     69  C   UNL A   1      38.140  29.628  27.741  1.00  0.00     0.009 A 
ATOM     70  C   UNL A   1      37.844  29.044  30.069  1.00  0.00     0.009 A 
ATOM     71  C   UNL A   1      36.794  29.994  27.665  1.00  0.00     0.001 A 
ATOM     72  C   UNL A   1      36.492  29.385  29.982  1.00  0.00     0.001 A 
ATOM     73  C   UNL A   1      35.971  29.868  28.783  1.00  0.00     0.000 A 
ENDBRANCH  49  68
BRANCH  61  74
ATOM     74  C   UNL A   1      44.332  32.619  31.067  1.00  0.00    -0.014 A 
ATOM     75  C   UNL A   1      44.209  32.924  32.431  1.00  0.00     0.009 A 
ATOM     76  C   UNL A   1      44.682  33.640  30.168  1.00  0.00     0.009 A 
ATOM     77  C   UNL A   1      44.404  34.232  32.881  1.00  0.00     0.001 A 
ATOM     78  C   UNL A   1      44.901  34.939  30.624  1.00  0.00     0.001 A 
ATOM     79  C   UNL A   1      44.753  35.236  31.979  1.00  0.00     0.000 A 
ENDBRANCH  61  74
ENDBRANCH  35  36
ENDBRANCH  27  30
ENDBRANCH  25  26
ENDBRANCH  24  25
ENDBRANCH  23  24
ENDBRANCH   1  23
TORSDOF 16
ENDMDL
MODEL 3
REMARK VINA RESULT:     -10.3      3.273      7.758
REMARK SMILES CCc1ccc(C(=O)N2CC[C@H](C(=O)NCCCCCCNC(=O)c3ccc(-c4c5nc(c(-c6ccccc6)c6ccc([nH]6)c(-c6ccccc6)c6nc(c(-c7ccccc7)c7ccc4[nH]7)C=C6)C=C5)cc3)[C@@H]2C)s1
REMARK SMILES IDX 18 1 17 2 16 3 15 4 13 5 14 6 12 8 9 9 10 10 73 11 11 12
REMARK SMILES IDX 74 13 7 14 8 15 6 16 3 17 4 18 75 19 5 20 2 21 1 22 19 23
REMARK SMILES IDX 20 24 21 25 22 26 23 27 24 29 25 30 26 31 72 32 27 33 71 34
REMARK SMILES IDX 28 35 29 36 30 37 65 38 31 39 70 40 64 41 66 42 32 43 69 44
REMARK SMILES IDX 63 45 62 46 33 48 55 49 40 50 54 51 41 52 44 53 53 54 67 55
REMARK SMILES IDX 42 56 43 57 52 59 68 60 45 61 34 62 35 63 39 64 36 65 38 66
REMARK SMILES IDX 37 67 56 68 57 69 61 70 58 71 60 72 59 73 46 74 47 75 51 76
REMARK SMILES IDX 48 77 50 78 49 79
REMARK H PARENT 15 7 22 28 66 47 44 58
REMARK Flexibility Score: inf
ROOT
ATOM      1  C   UNL A   1      35.769  21.234  25.366  1.00  0.00     0.002 C 
ENDROOT
BRANCH   1   2
ATOM      2  C   UNL A   1      34.455  21.076  26.137  1.00  0.00     0.021 C 
BRANCH   2   3
ATOM      3  C   UNL A   1      34.296  22.020  27.333  1.00  0.00     0.116 C 
BRANCH   3   4
ATOM      4  N   UNL A   1      32.892  22.295  27.554  1.00  0.00    -0.356 N 
ATOM      5  C   UNL A   1      31.994  22.979  26.793  1.00  0.00     0.225 C 
ATOM      6  O   UNL A   1      30.915  23.261  27.315  1.00  0.00    -0.275 OA
ATOM      7  H   UNL A   1      32.526  21.928  28.391  1.00  0.00     0.163 HD
BRANCH   5   8
ATOM      8  C   UNL A   1      32.302  23.291  25.333  1.00  0.00     0.102 C 
ATOM      9  N   UNL A   1      31.957  25.340  24.159  1.00  0.00    -0.334 N 
ATOM     10  C   UNL A   1      30.652  24.767  24.377  1.00  0.00     0.121 C 
ATOM     11  C   UNL A   1      32.957  24.653  24.982  1.00  0.00     0.094 C 
ATOM     12  C   UNL A   1      30.992  23.293  24.508  1.00  0.00     0.037 C 
ATOM     13  C   UNL A   1      33.362  25.560  26.138  1.00  0.00     0.032 C 
BRANCH   9  14
ATOM     14  C   UNL A   1      32.128  26.438  23.325  1.00  0.00     0.264 C 
ATOM     15  O   UNL A   1      32.885  26.361  22.356  1.00  0.00    -0.268 OA
BRANCH  14  16
ATOM     16  C   UNL A   1      31.471  27.683  23.711  1.00  0.00     0.092 A 
ATOM     17  C   UNL A   1      30.081  29.737  23.674  1.00  0.00     0.005 A 
ATOM     18  C   UNL A   1      31.028  29.767  24.675  1.00  0.00     0.016 A 
ATOM     19  S   UNL A   1      30.126  28.253  22.816  1.00  0.00    -0.135 S 
ATOM     20  C   UNL A   1      31.850  28.606  24.669  1.00  0.00     0.026 A 
BRANCH  17  21
ATOM     21  C   UNL A   1      29.109  30.815  23.288  1.00  0.00     0.043 C 
ATOM     22  C   UNL A   1      27.682  30.283  23.218  1.00  0.00     0.010 C 
ENDBRANCH  17  21
ENDBRANCH  14  16
ENDBRANCH   9  14
ENDBRANCH   5   8
ENDBRANCH   3   4
ENDBRANCH   2   3
ENDBRANCH   1   2
BRANCH   1  23
ATOM     23  C   UNL A   1      36.481  19.926  25.021  1.00  0.00     0.002 C 
BRANCH  23  24
ATOM     24  C   UNL A   1      37.957  20.066  24.642  1.00  0.00     0.021 C 
BRANCH  24  25
ATOM     25  C   UNL A   1      38.909  20.319  25.808  1.00  0.00     0.116 C 
BRANCH  25  26
ATOM     26  N   UNL A   1      39.988  19.348  25.868  1.00  0.00    -0.352 N 
ATOM     27  C   UNL A   1      41.319  19.536  26.153  1.00  0.00     0.251 C 
ATOM     28  H   UNL A   1      39.727  18.418  25.677  1.00  0.00     0.163 HD
ATOM     29  O   UNL A   1      42.119  18.624  26.003  1.00  0.00    -0.269 OA
BRANCH  27  30
ATOM     30  C   UNL A   1      41.790  20.859  26.617  1.00  0.00     0.039 A 
ATOM     31  C   UNL A   1      42.261  21.772  25.669  1.00  0.00     0.014 A 
ATOM     32  C   UNL A   1      41.767  21.199  27.973  1.00  0.00     0.014 A 
ATOM     33  C   UNL A   1      42.643  23.052  26.073  1.00  0.00     0.010 A 
ATOM     34  C   UNL A   1      42.092  22.496  28.366  1.00  0.00     0.010 A 
ATOM     35  C   UNL A   1      42.526  23.436  27.419  1.00  0.00    -0.014 A 
BRANCH  35  36
ATOM     36  C   UNL A   1      42.825  24.826  27.845  1.00  0.00     0.031 A 
ATOM     37  C   UNL A   1      44.244  25.265  28.076  1.00  0.00     0.074 A 
ATOM     38  C   UNL A   1      41.810  25.676  28.089  1.00  0.00     0.049 A 
ATOM     39  N   UNL A   1      44.690  26.422  28.498  1.00  0.00    -0.248 NA
ATOM     40  C   UNL A   1      45.297  24.271  27.822  1.00  0.00     0.031 C 
ATOM     41  C   UNL A   1      40.386  25.360  27.945  1.00  0.00     0.029 A 
ATOM     42  N   UNL A   1      41.818  26.980  28.519  1.00  0.00    -0.354 N 
ATOM     43  C   UNL A   1      46.070  26.289  28.574  1.00  0.00     0.074 A 
ATOM     44  C   UNL A   1      46.386  24.929  28.194  1.00  0.00     0.031 C 
ATOM     45  C   UNL A   1      39.661  26.446  28.262  1.00  0.00     0.029 A 
ATOM     46  C   UNL A   1      40.564  27.520  28.664  1.00  0.00     0.049 A 
ATOM     47  H   UNL A   1      42.645  27.480  28.706  1.00  0.00     0.167 HD
ATOM     48  C   UNL A   1      46.993  27.220  28.916  1.00  0.00     0.031 A 
ATOM     49  C   UNL A   1      40.180  28.741  29.082  1.00  0.00     0.031 A 
ATOM     50  C   UNL A   1      46.683  28.576  29.283  1.00  0.00     0.049 A 
ATOM     51  C   UNL A   1      41.223  29.752  29.461  1.00  0.00     0.074 A 
ATOM     52  C   UNL A   1      47.555  29.610  29.577  1.00  0.00     0.029 A 
ATOM     53  N   UNL A   1      45.400  29.086  29.409  1.00  0.00    -0.354 N 
ATOM     54  N   UNL A   1      42.529  29.633  29.455  1.00  0.00    -0.248 NA
ATOM     55  C   UNL A   1      40.740  31.070  29.897  1.00  0.00     0.031 C 
ATOM     56  C   UNL A   1      46.799  30.732  29.930  1.00  0.00     0.029 A 
ATOM     57  C   UNL A   1      45.457  30.411  29.805  1.00  0.00     0.049 A 
ATOM     58  H   UNL A   1      44.572  28.581  29.241  1.00  0.00     0.167 HD
ATOM     59  C   UNL A   1      43.022  30.864  29.865  1.00  0.00     0.074 A 
ATOM     60  C   UNL A   1      41.878  31.721  30.093  1.00  0.00     0.031 C 
ATOM     61  C   UNL A   1      44.310  31.249  30.037  1.00  0.00     0.031 A 
BRANCH  48  62
ATOM     62  C   UNL A   1      48.435  26.797  28.918  1.00  0.00    -0.014 A 
ATOM     63  C   UNL A   1      49.219  26.884  27.756  1.00  0.00     0.009 A 
ATOM     64  C   UNL A   1      49.030  26.351  30.107  1.00  0.00     0.009 A 
ATOM     65  C   UNL A   1      50.562  26.500  27.780  1.00  0.00     0.001 A 
ATOM     66  C   UNL A   1      50.378  25.992  30.134  1.00  0.00     0.001 A 
ATOM     67  C   UNL A   1      51.141  26.059  28.970  1.00  0.00     0.000 A 
ENDBRANCH  48  62
BRANCH  49  68
ATOM     68  C   UNL A   1      38.735  29.079  29.159  1.00  0.00    -0.014 A 
ATOM     69  C   UNL A   1      38.021  28.878  30.350  1.00  0.00     0.009 A 
ATOM     70  C   UNL A   1      38.064  29.599  28.042  1.00  0.00     0.009 A 
ATOM     71  C   UNL A   1      36.655  29.169  30.411  1.00  0.00     0.001 A 
ATOM     72  C   UNL A   1      36.705  29.914  28.115  1.00  0.00     0.001 A 
ATOM     73  C   UNL A   1      36.000  29.690  29.297  1.00  0.00     0.000 A 
ENDBRANCH  49  68
BRANCH  61  74
ATOM     74  C   UNL A   1      44.547  32.666  30.475  1.00  0.00    -0.014 A 
ATOM     75  C   UNL A   1      44.688  33.701  29.538  1.00  0.00     0.009 A 
ATOM     76  C   UNL A   1      44.597  32.973  31.844  1.00  0.00     0.009 A 
ATOM     77  C   UNL A   1      44.904  35.013  29.965  1.00  0.00     0.001 A 
ATOM     78  C   UNL A   1      44.787  34.289  32.267  1.00  0.00     0.001 A 
ATOM     79  C   UNL A   1      44.949  35.306  31.327  1.00  0.00     0.000 A 
ENDBRANCH  61  74
ENDBRANCH  35  36
ENDBRANCH  27  30
ENDBRANCH  25  26
ENDBRANCH  24  25
ENDBRANCH  23  24
ENDBRANCH   1  23
TORSDOF 16
ENDMDL
