MODEL 1
REMARK VINA RESULT:     -11.6      0.000      0.000
REMARK SMILES COc1ccc(OC)c(N2C(=O)c3ccc(C(=O)NCCCCCCNC(=O)c4ccc(-c5c6nc(c(-c7ccccc7)c7ccc([nH]7)c(-c7ccccc7)c7nc(c(-c8ccccc8)c8ccc5[nH]8)C=C7)C=C6)cc4)cc3C2=O)c1
REMARK SMILES IDX 22 1 21 2 20 3 19 4 17 5 18 6 16 8 10 9 11 10 79 11 12 12
REMARK SMILES IDX 13 13 78 14 80 15 14 16 77 17 15 18 9 19 3 20 4 21 81 22
REMARK SMILES IDX 5 23 6 24 2 25 1 26 7 27 8 28 23 29 24 30 25 31 26 32 27 33
REMARK SMILES IDX 28 35 29 36 30 37 76 38 31 39 75 40 32 41 33 42 34 43 69 44
REMARK SMILES IDX 35 45 74 46 68 47 70 48 36 49 73 50 67 51 66 52 37 54 59 55
REMARK SMILES IDX 44 56 58 57 45 58 48 59 57 60 71 61 46 62 47 63 56 65 72 66
REMARK SMILES IDX 49 67 38 68 39 69 43 70 40 71 42 72 41 73 60 74 61 75 65 76
REMARK SMILES IDX 62 77 64 78 63 79 50 80 51 81 55 82 52 83 54 84 53 85
REMARK H PARENT 19 7 26 34 70 53 48 64
REMARK Flexibility Score: inf
ROOT
ATOM      1  C   UNL A   1      35.740  21.858  24.286  1.00  0.00     0.002 C 
ENDROOT
BRANCH   1   2
ATOM      2  C   UNL A   1      35.053  21.515  25.613  1.00  0.00     0.021 C 
BRANCH   2   3
ATOM      3  C   UNL A   1      34.372  20.149  25.692  1.00  0.00     0.116 C 
BRANCH   3   4
ATOM      4  N   UNL A   1      33.645  19.821  24.482  1.00  0.00    -0.352 N 
ATOM      5  C   UNL A   1      32.621  20.429  23.809  1.00  0.00     0.251 C 
ATOM      6  O   UNL A   1      32.140  19.829  22.848  1.00  0.00    -0.269 OA
ATOM      7  H   UNL A   1      33.951  18.988  24.055  1.00  0.00     0.163 HD
BRANCH   5   8
ATOM      8  C   UNL A   1      32.046  21.753  24.174  1.00  0.00     0.040 A 
ATOM      9  N   UNL A   1      30.572  26.124  24.111  1.00  0.00    -0.238 N 
ATOM     10  C   UNL A   1      30.275  25.401  25.246  1.00  0.00     0.266 C 
ATOM     11  C   UNL A   1      31.284  25.353  23.218  1.00  0.00     0.266 C 
ATOM     12  O   UNL A   1      29.668  25.698  26.260  1.00  0.00    -0.268 OA
ATOM     13  C   UNL A   1      30.818  24.069  25.053  1.00  0.00     0.053 A 
ATOM     14  C   UNL A   1      31.382  24.012  23.799  1.00  0.00     0.054 A 
ATOM     15  O   UNL A   1      31.920  25.632  22.217  1.00  0.00    -0.268 OA
ATOM     16  C   UNL A   1      30.834  22.998  25.918  1.00  0.00     0.015 A 
ATOM     17  C   UNL A   1      31.978  22.857  23.312  1.00  0.00     0.028 A 
ATOM     18  C   UNL A   1      31.466  21.839  25.469  1.00  0.00     0.015 A 
BRANCH   9  19
ATOM     19  C   UNL A   1      30.246  27.501  23.974  1.00  0.00     0.098 A 
ATOM     20  C   UNL A   1      28.837  29.184  22.875  1.00  0.00     0.121 A 
ATOM     21  C   UNL A   1      29.604  30.192  23.455  1.00  0.00     0.050 A 
ATOM     22  C   UNL A   1      29.153  27.855  23.154  1.00  0.00     0.077 A 
ATOM     23  C   UNL A   1      30.674  29.873  24.299  1.00  0.00     0.052 A 
ATOM     24  C   UNL A   1      30.995  28.533  24.560  1.00  0.00     0.143 A 
BRANCH  20  25
ATOM     25  O   UNL A   1      27.842  29.601  22.035  1.00  0.00    -0.497 OA
ATOM     26  C   UNL A   1      28.061  30.820  21.328  1.00  0.00     0.278 C 
ENDBRANCH  20  25
BRANCH  24  27
ATOM     27  O   UNL A   1      32.189  28.255  25.173  1.00  0.00    -0.495 OA
ATOM     28  C   UNL A   1      32.119  28.412  26.591  1.00  0.00     0.278 C 
ENDBRANCH  24  27
ENDBRANCH   9  19
ENDBRANCH   5   8
ENDBRANCH   3   4
ENDBRANCH   2   3
ENDBRANCH   1   2
BRANCH   1  29
ATOM     29  C   UNL A   1      37.268  21.766  24.266  1.00  0.00     0.002 C 
BRANCH  29  30
ATOM     30  C   UNL A   1      37.864  20.416  24.670  1.00  0.00     0.021 C 
BRANCH  30  31
ATOM     31  C   UNL A   1      38.744  20.433  25.915  1.00  0.00     0.116 C 
BRANCH  31  32
ATOM     32  N   UNL A   1      39.796  19.431  25.876  1.00  0.00    -0.352 N 
ATOM     33  C   UNL A   1      41.144  19.571  26.103  1.00  0.00     0.251 C 
ATOM     34  H   UNL A   1      39.499  18.518  25.656  1.00  0.00     0.163 HD
ATOM     35  O   UNL A   1      41.909  18.638  25.876  1.00  0.00    -0.269 OA
BRANCH  33  36
ATOM     36  C   UNL A   1      41.686  20.858  26.596  1.00  0.00     0.039 A 
ATOM     37  C   UNL A   1      42.128  21.803  25.667  1.00  0.00     0.014 A 
ATOM     38  C   UNL A   1      41.768  21.130  27.964  1.00  0.00     0.014 A 
ATOM     39  C   UNL A   1      42.593  23.045  26.106  1.00  0.00     0.010 A 
ATOM     40  C   UNL A   1      42.168  22.392  28.398  1.00  0.00     0.010 A 
ATOM     41  C   UNL A   1      42.586  23.362  27.474  1.00  0.00    -0.014 A 
BRANCH  41  42
ATOM     42  C   UNL A   1      43.003  24.704  27.955  1.00  0.00     0.031 A 
ATOM     43  C   UNL A   1      41.974  25.762  28.243  1.00  0.00     0.074 A 
ATOM     44  C   UNL A   1      44.314  24.994  28.068  1.00  0.00     0.049 A 
ATOM     45  N   UNL A   1      42.149  27.008  28.607  1.00  0.00    -0.248 NA
ATOM     46  C   UNL A   1      40.563  25.378  28.073  1.00  0.00     0.031 C 
ATOM     47  C   UNL A   1      45.414  24.072  27.780  1.00  0.00     0.029 A 
ATOM     48  N   UNL A   1      44.942  26.154  28.445  1.00  0.00    -0.354 N 
ATOM     49  C   UNL A   1      40.877  27.557  28.695  1.00  0.00     0.074 A 
ATOM     50  C   UNL A   1      39.943  26.526  28.298  1.00  0.00     0.031 C 
ATOM     51  C   UNL A   1      46.580  24.696  28.007  1.00  0.00     0.029 A 
ATOM     52  C   UNL A   1      46.313  26.070  28.419  1.00  0.00     0.049 A 
ATOM     53  H   UNL A   1      44.457  26.970  28.709  1.00  0.00     0.167 HD
ATOM     54  C   UNL A   1      40.515  28.803  29.085  1.00  0.00     0.031 A 
ATOM     55  C   UNL A   1      47.253  26.997  28.687  1.00  0.00     0.031 A 
ATOM     56  C   UNL A   1      41.442  29.828  29.485  1.00  0.00     0.049 A 
ATOM     57  C   UNL A   1      46.828  28.376  29.110  1.00  0.00     0.074 A 
ATOM     58  C   UNL A   1      41.169  31.103  29.954  1.00  0.00     0.029 A 
ATOM     59  N   UNL A   1      42.822  29.698  29.459  1.00  0.00    -0.354 N 
ATOM     60  N   UNL A   1      45.618  28.857  29.256  1.00  0.00    -0.248 NA
ATOM     61  C   UNL A   1      47.900  29.334  29.414  1.00  0.00     0.031 C 
ATOM     62  C   UNL A   1      42.386  31.761  30.162  1.00  0.00     0.029 A 
ATOM     63  C   UNL A   1      43.416  30.878  29.877  1.00  0.00     0.049 A 
ATOM     64  H   UNL A   1      43.307  28.887  29.183  1.00  0.00     0.167 HD
ATOM     65  C   UNL A   1      45.782  30.166  29.692  1.00  0.00     0.074 A 
ATOM     66  C   UNL A   1      47.209  30.396  29.802  1.00  0.00     0.031 C 
ATOM     67  C   UNL A   1      44.836  31.094  29.975  1.00  0.00     0.031 A 
BRANCH  54  68
ATOM     68  C   UNL A   1      39.046  29.127  29.085  1.00  0.00    -0.014 A 
ATOM     69  C   UNL A   1      38.403  29.594  27.927  1.00  0.00     0.009 A 
ATOM     70  C   UNL A   1      38.289  28.940  30.252  1.00  0.00     0.009 A 
ATOM     71  C   UNL A   1      37.041  29.906  27.950  1.00  0.00     0.001 A 
ATOM     72  C   UNL A   1      36.923  29.224  30.264  1.00  0.00     0.001 A 
ATOM     73  C   UNL A   1      36.303  29.718  29.117  1.00  0.00     0.000 A 
ENDBRANCH  54  68
BRANCH  55  74
ATOM     74  C   UNL A   1      48.692  26.647  28.572  1.00  0.00    -0.014 A 
ATOM     75  C   UNL A   1      49.402  26.172  29.685  1.00  0.00     0.009 A 
ATOM     76  C   UNL A   1      49.363  26.783  27.347  1.00  0.00     0.009 A 
ATOM     77  C   UNL A   1      50.760  25.860  29.578  1.00  0.00     0.001 A 
ATOM     78  C   UNL A   1      50.713  26.444  27.236  1.00  0.00     0.001 A 
ATOM     79  C   UNL A   1      51.412  25.992  28.353  1.00  0.00     0.000 A 
ENDBRANCH  55  74
BRANCH  67  80
ATOM     80  C   UNL A   1      45.312  32.435  30.459  1.00  0.00    -0.014 A 
ATOM     81  C   UNL A   1      45.752  33.418  29.560  1.00  0.00     0.009 A 
ATOM     82  C   UNL A   1      45.280  32.730  31.830  1.00  0.00     0.009 A 
ATOM     83  C   UNL A   1      46.180  34.662  30.029  1.00  0.00     0.001 A 
ATOM     84  C   UNL A   1      45.683  33.984  32.294  1.00  0.00     0.001 A 
ATOM     85  C   UNL A   1      46.140  34.945  31.394  1.00  0.00     0.000 A 
ENDBRANCH  67  80
ENDBRANCH  41  42
ENDBRANCH  33  36
ENDBRANCH  31  32
ENDBRANCH  30  31
ENDBRANCH  29  30
ENDBRANCH   1  29
TORSDOF 16
ENDMDL
MODEL 2
REMARK VINA RESULT:     -11.5      0.934      5.769
REMARK SMILES COc1ccc(OC)c(N2C(=O)c3ccc(C(=O)NCCCCCCNC(=O)c4ccc(-c5c6nc(c(-c7ccccc7)c7ccc([nH]7)c(-c7ccccc7)c7nc(c(-c8ccccc8)c8ccc5[nH]8)C=C7)C=C6)cc4)cc3C2=O)c1
REMARK SMILES IDX 22 1 21 2 20 3 19 4 17 5 18 6 16 8 10 9 11 10 79 11 12 12
REMARK SMILES IDX 13 13 78 14 80 15 14 16 77 17 15 18 9 19 3 20 4 21 81 22
REMARK SMILES IDX 5 23 6 24 2 25 1 26 7 27 8 28 23 29 24 30 25 31 26 32 27 33
REMARK SMILES IDX 28 35 29 36 30 37 76 38 31 39 75 40 32 41 33 42 34 43 69 44
REMARK SMILES IDX 35 45 74 46 68 47 70 48 36 49 73 50 67 51 66 52 37 54 59 55
REMARK SMILES IDX 44 56 58 57 45 58 48 59 57 60 71 61 46 62 47 63 56 65 72 66
REMARK SMILES IDX 49 67 38 68 39 69 43 70 40 71 42 72 41 73 60 74 61 75 65 76
REMARK SMILES IDX 62 77 64 78 63 79 50 80 51 81 55 82 52 83 54 84 53 85
REMARK H PARENT 19 7 26 34 70 53 48 64
REMARK Flexibility Score: inf
ROOT
ATOM      1  C   UNL A   1      37.764  22.712  25.267  1.00  0.00     0.002 C 
ENDROOT
BRANCH   1   2
ATOM      2  C   UNL A   1      36.553  21.981  24.677  1.00  0.00     0.021 C 
BRANCH   2   3
ATOM      3  C   UNL A   1      35.764  21.090  25.636  1.00  0.00     0.116 C 
BRANCH   3   4
ATOM      4  N   UNL A   1      34.773  20.281  24.954  1.00  0.00    -0.352 N 
ATOM      5  C   UNL A   1      33.460  20.483  24.630  1.00  0.00     0.251 C 
ATOM      6  O   UNL A   1      32.847  19.537  24.135  1.00  0.00    -0.269 OA
ATOM      7  H   UNL A   1      35.116  19.405  24.664  1.00  0.00     0.163 HD
BRANCH   5   8
ATOM      8  C   UNL A   1      32.727  21.759  24.852  1.00  0.00     0.040 A 
ATOM      9  N   UNL A   1      30.944  25.992  24.412  1.00  0.00    -0.238 N 
ATOM     10  C   UNL A   1      30.512  25.263  25.497  1.00  0.00     0.266 C 
ATOM     11  C   UNL A   1      31.861  25.271  23.678  1.00  0.00     0.266 C 
ATOM     12  O   UNL A   1      29.714  25.522  26.383  1.00  0.00    -0.268 OA
ATOM     13  C   UNL A   1      31.184  23.977  25.439  1.00  0.00     0.053 A 
ATOM     14  C   UNL A   1      31.962  23.951  24.304  1.00  0.00     0.054 A 
ATOM     15  O   UNL A   1      32.638  25.588  22.796  1.00  0.00    -0.268 OA
ATOM     16  C   UNL A   1      31.133  22.924  26.323  1.00  0.00     0.015 A 
ATOM     17  C   UNL A   1      32.723  22.842  23.961  1.00  0.00     0.028 A 
ATOM     18  C   UNL A   1      31.924  21.814  26.024  1.00  0.00     0.015 A 
BRANCH   9  19
ATOM     19  C   UNL A   1      30.539  27.336  24.181  1.00  0.00     0.098 A 
ATOM     20  C   UNL A   1      29.046  28.856  22.965  1.00  0.00     0.121 A 
ATOM     21  C   UNL A   1      29.746  29.944  23.481  1.00  0.00     0.050 A 
ATOM     22  C   UNL A   1      29.437  27.569  23.333  1.00  0.00     0.077 A 
ATOM     23  C   UNL A   1      30.824  29.745  24.352  1.00  0.00     0.052 A 
ATOM     24  C   UNL A   1      31.221  28.447  24.703  1.00  0.00     0.143 A 
BRANCH  20  25
ATOM     25  O   UNL A   1      28.037  29.157  22.092  1.00  0.00    -0.497 OA
ATOM     26  C   UNL A   1      28.076  30.443  21.477  1.00  0.00     0.278 C 
ENDBRANCH  20  25
BRANCH  24  27
ATOM     27  O   UNL A   1      32.423  28.280  25.342  1.00  0.00    -0.495 OA
ATOM     28  C   UNL A   1      32.958  29.516  25.818  1.00  0.00     0.278 C 
ENDBRANCH  24  27
ENDBRANCH   9  19
ENDBRANCH   5   8
ENDBRANCH   3   4
ENDBRANCH   2   3
ENDBRANCH   1   2
BRANCH   1  29
ATOM     29  C   UNL A   1      38.756  21.857  26.061  1.00  0.00     0.002 C 
BRANCH  29  30
ATOM     30  C   UNL A   1      39.250  20.586  25.369  1.00  0.00     0.021 C 
BRANCH  30  31
ATOM     31  C   UNL A   1      39.767  19.492  26.297  1.00  0.00     0.116 C 
BRANCH  31  32
ATOM     32  N   UNL A   1      41.082  19.004  25.916  1.00  0.00    -0.352 N 
ATOM     33  C   UNL A   1      42.282  19.672  25.872  1.00  0.00     0.251 C 
ATOM     34  H   UNL A   1      41.118  18.056  25.651  1.00  0.00     0.163 HD
ATOM     35  O   UNL A   1      43.269  19.136  25.377  1.00  0.00    -0.269 OA
BRANCH  33  36
ATOM     36  C   UNL A   1      42.385  21.052  26.398  1.00  0.00     0.039 A 
ATOM     37  C   UNL A   1      42.210  21.266  27.768  1.00  0.00     0.014 A 
ATOM     38  C   UNL A   1      42.640  22.132  25.548  1.00  0.00     0.014 A 
ATOM     39  C   UNL A   1      42.356  22.552  28.295  1.00  0.00     0.010 A 
ATOM     40  C   UNL A   1      42.851  23.401  26.083  1.00  0.00     0.010 A 
ATOM     41  C   UNL A   1      42.710  23.624  27.461  1.00  0.00    -0.014 A 
BRANCH  41  42
ATOM     42  C   UNL A   1      42.946  24.983  28.012  1.00  0.00     0.031 A 
ATOM     43  C   UNL A   1      44.314  25.385  28.486  1.00  0.00     0.074 A 
ATOM     44  C   UNL A   1      41.910  25.835  28.151  1.00  0.00     0.049 A 
ATOM     45  N   UNL A   1      44.698  26.500  29.055  1.00  0.00    -0.248 NA
ATOM     46  C   UNL A   1      45.389  24.392  28.324  1.00  0.00     0.031 C 
ATOM     47  C   UNL A   1      40.524  25.554  27.771  1.00  0.00     0.029 A 
ATOM     48  N   UNL A   1      41.863  27.107  28.664  1.00  0.00    -0.354 N 
ATOM     49  C   UNL A   1      46.049  26.337  29.331  1.00  0.00     0.074 A 
ATOM     50  C   UNL A   1      46.408  25.000  28.914  1.00  0.00     0.031 C 
ATOM     51  C   UNL A   1      39.768  26.628  28.046  1.00  0.00     0.029 A 
ATOM     52  C   UNL A   1      40.604  27.656  28.656  1.00  0.00     0.049 A 
ATOM     53  H   UNL A   1      42.656  27.581  29.004  1.00  0.00     0.167 HD
ATOM     54  C   UNL A   1      46.919  27.226  29.870  1.00  0.00     0.031 A 
ATOM     55  C   UNL A   1      40.167  28.851  29.099  1.00  0.00     0.031 A 
ATOM     56  C   UNL A   1      46.566  28.559  30.280  1.00  0.00     0.049 A 
ATOM     57  C   UNL A   1      41.149  29.817  29.701  1.00  0.00     0.074 A 
ATOM     58  C   UNL A   1      47.388  29.554  30.781  1.00  0.00     0.029 A 
ATOM     59  N   UNL A   1      45.282  29.082  30.242  1.00  0.00    -0.354 N 
ATOM     60  N   UNL A   1      42.438  29.674  29.889  1.00  0.00    -0.248 NA
ATOM     61  C   UNL A   1      40.615  31.114  30.141  1.00  0.00     0.031 C 
ATOM     62  C   UNL A   1      46.593  30.661  31.094  1.00  0.00     0.029 A 
ATOM     63  C   UNL A   1      45.285  30.376  30.736  1.00  0.00     0.049 A 
ATOM     64  H   UNL A   1      44.487  28.604  29.913  1.00  0.00     0.167 HD
ATOM     65  C   UNL A   1      42.874  30.868  30.447  1.00  0.00     0.074 A 
ATOM     66  C   UNL A   1      41.714  31.732  30.550  1.00  0.00     0.031 C 
ATOM     67  C   UNL A   1      44.123  31.220  30.839  1.00  0.00     0.031 A 
BRANCH  54  68
ATOM     68  C   UNL A   1      48.341  26.774  30.055  1.00  0.00    -0.014 A 
ATOM     69  C   UNL A   1      49.270  26.842  29.003  1.00  0.00     0.009 A 
ATOM     70  C   UNL A   1      48.766  26.294  31.304  1.00  0.00     0.009 A 
ATOM     71  C   UNL A   1      50.582  26.401  29.187  1.00  0.00     0.001 A 
ATOM     72  C   UNL A   1      50.086  25.882  31.493  1.00  0.00     0.001 A 
ATOM     73  C   UNL A   1      50.989  25.925  30.432  1.00  0.00     0.000 A 
ENDBRANCH  54  68
BRANCH  55  74
ATOM     74  C   UNL A   1      38.729  29.203  28.981  1.00  0.00    -0.014 A 
ATOM     75  C   UNL A   1      38.215  29.710  27.778  1.00  0.00     0.009 A 
ATOM     76  C   UNL A   1      37.860  29.029  30.070  1.00  0.00     0.009 A 
ATOM     77  C   UNL A   1      36.866  30.057  27.675  1.00  0.00     0.001 A 
ATOM     78  C   UNL A   1      36.506  29.350  29.956  1.00  0.00     0.001 A 
ATOM     79  C   UNL A   1      36.012  29.872  28.762  1.00  0.00     0.000 A 
ENDBRANCH  55  74
BRANCH  67  80
ATOM     80  C   UNL A   1      44.305  32.606  31.390  1.00  0.00    -0.014 A 
ATOM     81  C   UNL A   1      44.573  33.695  30.547  1.00  0.00     0.009 A 
ATOM     82  C   UNL A   1      44.166  32.829  32.768  1.00  0.00     0.009 A 
ATOM     83  C   UNL A   1      44.730  34.977  31.078  1.00  0.00     0.001 A 
ATOM     84  C   UNL A   1      44.295  34.117  33.293  1.00  0.00     0.001 A 
ATOM     85  C   UNL A   1      44.585  35.187  32.449  1.00  0.00     0.000 A 
ENDBRANCH  67  80
ENDBRANCH  41  42
ENDBRANCH  33  36
ENDBRANCH  31  32
ENDBRANCH  30  31
ENDBRANCH  29  30
ENDBRANCH   1  29
TORSDOF 16
ENDMDL
MODEL 3
REMARK VINA RESULT:     -11.4      5.177     10.390
REMARK SMILES COc1ccc(OC)c(N2C(=O)c3ccc(C(=O)NCCCCCCNC(=O)c4ccc(-c5c6nc(c(-c7ccccc7)c7ccc([nH]7)c(-c7ccccc7)c7nc(c(-c8ccccc8)c8ccc5[nH]8)C=C7)C=C6)cc4)cc3C2=O)c1
REMARK SMILES IDX 22 1 21 2 20 3 19 4 17 5 18 6 16 8 10 9 11 10 79 11 12 12
REMARK SMILES IDX 13 13 78 14 80 15 14 16 77 17 15 18 9 19 3 20 4 21 81 22
REMARK SMILES IDX 5 23 6 24 2 25 1 26 7 27 8 28 23 29 24 30 25 31 26 32 27 33
REMARK SMILES IDX 28 35 29 36 30 37 76 38 31 39 75 40 32 41 33 42 34 43 69 44
REMARK SMILES IDX 35 45 74 46 68 47 70 48 36 49 73 50 67 51 66 52 37 54 59 55
REMARK SMILES IDX 44 56 58 57 45 58 48 59 57 60 71 61 46 62 47 63 56 65 72 66
REMARK SMILES IDX 49 67 38 68 39 69 43 70 40 71 42 72 41 73 60 74 61 75 65 76
REMARK SMILES IDX 62 77 64 78 63 79 50 80 51 81 55 82 52 83 54 84 53 85
REMARK H PARENT 19 7 26 34 70 53 48 64
REMARK Flexibility Score: inf
ROOT
ATOM      1  C   UNL A   1      34.034  32.088  28.175  1.00  0.00     0.002 C 
ENDROOT
BRANCH   1   2
ATOM      2  C   UNL A   1      32.783  31.947  27.299  1.00  0.00     0.021 C 
BRANCH   2   3
ATOM      3  C   UNL A   1      32.640  30.638  26.524  1.00  0.00     0.116 C 
BRANCH   3   4
ATOM      4  N   UNL A   1      31.488  30.636  25.646  1.00  0.00    -0.352 N 
ATOM      5  C   UNL A   1      31.059  29.787  24.663  1.00  0.00     0.251 C 
ATOM      6  O   UNL A   1      30.073  30.129  24.010  1.00  0.00    -0.269 OA
ATOM      7  H   UNL A   1      30.889  31.405  25.785  1.00  0.00     0.163 HD
BRANCH   5   8
ATOM      8  C   UNL A   1      31.716  28.494  24.325  1.00  0.00     0.040 A 
ATOM      9  N   UNL A   1      33.074  24.086  24.263  1.00  0.00    -0.238 N 
ATOM     10  C   UNL A   1      33.497  24.864  23.209  1.00  0.00     0.266 C 
ATOM     11  C   UNL A   1      32.321  24.831  25.145  1.00  0.00     0.266 C 
ATOM     12  O   UNL A   1      34.170  24.602  22.227  1.00  0.00    -0.268 OA
ATOM     13  C   UNL A   1      32.957  26.195  23.422  1.00  0.00     0.053 A 
ATOM     14  C   UNL A   1      32.192  26.170  24.566  1.00  0.00     0.054 A 
ATOM     15  O   UNL A   1      31.938  24.619  26.281  1.00  0.00    -0.268 OA
ATOM     16  C   UNL A   1      33.141  27.341  22.682  1.00  0.00     0.015 A 
ATOM     17  C   UNL A   1      31.527  27.296  25.030  1.00  0.00     0.028 A 
ATOM     18  C   UNL A   1      32.520  28.498  23.153  1.00  0.00     0.015 A 
BRANCH   9  19
ATOM     19  C   UNL A   1      33.469  22.728  24.420  1.00  0.00     0.098 A 
ATOM     20  C   UNL A   1      32.962  20.371  23.964  1.00  0.00     0.121 A 
ATOM     21  C   UNL A   1      34.014  19.993  24.795  1.00  0.00     0.050 A 
ATOM     22  C   UNL A   1      32.713  21.730  23.772  1.00  0.00     0.077 A 
ATOM     23  C   UNL A   1      34.803  20.961  25.426  1.00  0.00     0.052 A 
ATOM     24  C   UNL A   1      34.534  22.325  25.241  1.00  0.00     0.143 A 
BRANCH  20  25
ATOM     25  O   UNL A   1      32.228  19.349  23.429  1.00  0.00    -0.497 OA
ATOM     26  C   UNL A   1      32.806  18.045  23.474  1.00  0.00     0.278 C 
ENDBRANCH  20  25
BRANCH  24  27
ATOM     27  O   UNL A   1      35.151  23.231  26.064  1.00  0.00    -0.495 OA
ATOM     28  C   UNL A   1      36.338  23.772  25.481  1.00  0.00     0.278 C 
ENDBRANCH  24  27
ENDBRANCH   9  19
ENDBRANCH   5   8
ENDBRANCH   3   4
ENDBRANCH   2   3
ENDBRANCH   1   2
BRANCH   1  29
ATOM     29  C   UNL A   1      34.246  33.447  28.847  1.00  0.00     0.002 C 
BRANCH  29  30
ATOM     30  C   UNL A   1      33.065  34.417  28.787  1.00  0.00     0.021 C 
BRANCH  30  31
ATOM     31  C   UNL A   1      33.342  35.823  29.309  1.00  0.00     0.116 C 
BRANCH  31  32
ATOM     32  N   UNL A   1      32.511  36.176  30.447  1.00  0.00    -0.352 N 
ATOM     33  C   UNL A   1      32.641  35.818  31.768  1.00  0.00     0.251 C 
ATOM     34  H   UNL A   1      31.742  36.757  30.243  1.00  0.00     0.163 HD
ATOM     35  O   UNL A   1      31.753  36.088  32.571  1.00  0.00    -0.269 OA
BRANCH  33  36
ATOM     36  C   UNL A   1      33.841  35.082  32.224  1.00  0.00     0.039 A 
ATOM     37  C   UNL A   1      33.694  33.766  32.672  1.00  0.00     0.014 A 
ATOM     38  C   UNL A   1      35.103  35.682  32.221  1.00  0.00     0.014 A 
ATOM     39  C   UNL A   1      34.819  33.032  33.057  1.00  0.00     0.010 A 
ATOM     40  C   UNL A   1      36.231  34.930  32.541  1.00  0.00     0.010 A 
ATOM     41  C   UNL A   1      36.101  33.598  32.963  1.00  0.00    -0.014 A 
BRANCH  41  42
ATOM     42  C   UNL A   1      37.316  32.810  33.293  1.00  0.00     0.031 A 
ATOM     43  C   UNL A   1      38.060  33.062  34.574  1.00  0.00     0.074 A 
ATOM     44  C   UNL A   1      37.791  31.915  32.405  1.00  0.00     0.049 A 
ATOM     45  N   UNL A   1      39.174  32.521  35.004  1.00  0.00    -0.248 NA
ATOM     46  C   UNL A   1      37.494  34.072  35.482  1.00  0.00     0.031 C 
ATOM     47  C   UNL A   1      37.188  31.606  31.106  1.00  0.00     0.029 A 
ATOM     48  N   UNL A   1      38.900  31.108  32.457  1.00  0.00    -0.354 N 
ATOM     49  C   UNL A   1      39.447  33.135  36.218  1.00  0.00     0.074 A 
ATOM     50  C   UNL A   1      38.412  34.123  36.435  1.00  0.00     0.031 C 
ATOM     51  C   UNL A   1      37.924  30.665  30.494  1.00  0.00     0.029 A 
ATOM     52  C   UNL A   1      39.068  30.332  31.336  1.00  0.00     0.049 A 
ATOM     53  H   UNL A   1      39.516  31.087  33.225  1.00  0.00     0.167 HD
ATOM     54  C   UNL A   1      40.459  32.890  37.086  1.00  0.00     0.031 A 
ATOM     55  C   UNL A   1      40.040  29.456  31.015  1.00  0.00     0.031 A 
ATOM     56  C   UNL A   1      41.486  31.904  36.875  1.00  0.00     0.049 A 
ATOM     57  C   UNL A   1      41.158  29.206  31.988  1.00  0.00     0.074 A 
ATOM     58  C   UNL A   1      42.520  31.541  37.721  1.00  0.00     0.029 A 
ATOM     59  N   UNL A   1      41.612  31.129  35.732  1.00  0.00    -0.354 N 
ATOM     60  N   UNL A   1      41.362  29.744  33.166  1.00  0.00    -0.248 NA
ATOM     61  C   UNL A   1      42.172  28.220  31.592  1.00  0.00     0.031 C 
ATOM     62  C   UNL A   1      43.301  30.581  37.069  1.00  0.00     0.029 A 
ATOM     63  C   UNL A   1      42.722  30.307  35.840  1.00  0.00     0.049 A 
ATOM     64  H   UNL A   1      41.003  31.159  34.959  1.00  0.00     0.167 HD
ATOM     65  C   UNL A   1      42.514  29.147  33.660  1.00  0.00     0.074 A 
ATOM     66  C   UNL A   1      42.953  28.192  32.662  1.00  0.00     0.031 C 
ATOM     67  C   UNL A   1      43.150  29.367  34.836  1.00  0.00     0.031 A 
BRANCH  54  68
ATOM     68  C   UNL A   1      40.507  33.716  38.341  1.00  0.00    -0.014 A 
ATOM     69  C   UNL A   1      41.221  34.924  38.392  1.00  0.00     0.009 A 
ATOM     70  C   UNL A   1      39.809  33.294  39.483  1.00  0.00     0.009 A 
ATOM     71  C   UNL A   1      41.270  35.670  39.572  1.00  0.00     0.001 A 
ATOM     72  C   UNL A   1      39.834  34.056  40.653  1.00  0.00     0.001 A 
ATOM     73  C   UNL A   1      40.574  35.236  40.699  1.00  0.00     0.000 A 
ENDBRANCH  54  68
BRANCH  55  74
ATOM     74  C   UNL A   1      39.992  28.742  29.713  1.00  0.00    -0.014 A 
ATOM     75  C   UNL A   1      40.509  29.340  28.553  1.00  0.00     0.009 A 
ATOM     76  C   UNL A   1      39.434  27.458  29.623  1.00  0.00     0.009 A 
ATOM     77  C   UNL A   1      40.448  28.675  27.326  1.00  0.00     0.001 A 
ATOM     78  C   UNL A   1      39.398  26.784  28.400  1.00  0.00     0.001 A 
ATOM     79  C   UNL A   1      39.897  27.396  27.253  1.00  0.00     0.000 A 
ENDBRANCH  55  74
BRANCH  67  80
ATOM     80  C   UNL A   1      44.375  28.544  35.120  1.00  0.00    -0.014 A 
ATOM     81  C   UNL A   1      44.283  27.301  35.764  1.00  0.00     0.009 A 
ATOM     82  C   UNL A   1      45.633  29.002  34.699  1.00  0.00     0.009 A 
ATOM     83  C   UNL A   1      45.432  26.546  36.009  1.00  0.00     0.001 A 
ATOM     84  C   UNL A   1      46.777  28.233  34.921  1.00  0.00     0.001 A 
ATOM     85  C   UNL A   1      46.676  27.010  35.583  1.00  0.00     0.000 A 
ENDBRANCH  67  80
ENDBRANCH  41  42
ENDBRANCH  33  36
ENDBRANCH  31  32
ENDBRANCH  30  31
ENDBRANCH  29  30
ENDBRANCH   1  29
TORSDOF 16
ENDMDL
