MODEL 1
REMARK VINA RESULT:      -8.4      0.000      0.000
REMARK SMILES CN(C)S(=O)(=O)c1ccc(-n2c(CCC(=O)NCCCCCCNC(=O)c3ccc(-c4c5nc(c(-c6ccccc6)c6ccc([nH]6)c(-c6ccccc6)c6nc(c(-c7ccccc7)c7ccc4[nH]7)C=C6)C=C5)cc3)ccc2-c2ccc(F)cc2)cc1
REMARK SMILES IDX 19 1 18 2 17 3 15 4 16 5 14 7 13 8 12 9 11 10 77 11 75 12
REMARK SMILES IDX 76 13 10 14 7 15 8 16 86 17 9 18 85 19 4 20 5 21 6 22 2 23
REMARK SMILES IDX 1 24 3 25 78 26 79 27 84 28 80 29 83 30 81 31 82 32 20 33
REMARK SMILES IDX 21 34 22 35 23 36 24 37 25 38 26 40 27 41 28 42 74 43 29 44
REMARK SMILES IDX 73 45 30 46 31 47 32 48 67 49 33 50 72 51 66 52 68 53 34 54
REMARK SMILES IDX 71 55 65 56 64 57 35 59 57 60 42 61 56 62 43 63 46 64 55 65
REMARK SMILES IDX 69 66 44 67 45 68 54 70 70 71 47 72 36 73 37 74 41 75 38 76
REMARK SMILES IDX 40 77 39 78 58 79 59 80 63 81 60 82 62 83 61 84 48 85 49 86
REMARK SMILES IDX 53 87 50 88 52 89 51 90
REMARK H PARENT 17 6 24 39 68 58 46 69
REMARK Flexibility Score: inf
ROOT
ATOM      1  C   UNL A   1      43.253  23.356  35.453  1.00  0.00     0.021 C 
ENDROOT
BRANCH   1   2
ATOM      2  C   UNL A   1      41.956  24.098  35.122  1.00  0.00     0.116 C 
BRANCH   2   3
ATOM      3  N   UNL A   1      41.171  24.425  36.304  1.00  0.00    -0.356 N 
ATOM      4  C   UNL A   1      41.093  25.581  37.024  1.00  0.00     0.220 C 
ATOM      5  O   UNL A   1      40.280  25.633  37.951  1.00  0.00    -0.275 OA
ATOM      6  H   UNL A   1      40.603  23.694  36.637  1.00  0.00     0.163 HD
BRANCH   4   7
ATOM      7  C   UNL A   1      42.008  26.761  36.745  1.00  0.00     0.106 C 
BRANCH   7   8
ATOM      8  C   UNL A   1      41.536  27.705  35.623  1.00  0.00     0.064 C 
BRANCH   8   9
ATOM      9  C   UNL A   1      42.343  28.980  35.508  1.00  0.00     0.024 A 
ATOM     10  N   UNL A   1      42.175  30.052  34.600  1.00  0.00    -0.314 N 
ATOM     11  C   UNL A   1      43.199  30.996  34.895  1.00  0.00     0.053 A 
ATOM     12  C   UNL A   1      43.464  29.240  36.281  1.00  0.00     0.024 A 
ATOM     13  C   UNL A   1      43.994  30.478  35.901  1.00  0.00     0.029 A 
BRANCH  10  14
ATOM     14  C   UNL A   1      41.086  30.283  33.665  1.00  0.00     0.046 A 
ATOM     15  C   UNL A   1      38.938  30.168  31.849  1.00  0.00     0.082 A 
ATOM     16  C   UNL A   1      38.682  30.299  33.207  1.00  0.00     0.024 A 
ATOM     17  C   UNL A   1      40.241  30.174  31.378  1.00  0.00     0.024 A 
ATOM     18  C   UNL A   1      39.756  30.409  34.097  1.00  0.00     0.028 A 
ATOM     19  C   UNL A   1      41.294  30.241  32.288  1.00  0.00     0.028 A 
BRANCH  15  20
ATOM     20  S   UNL A   1      37.628  30.076  30.669  1.00  0.00     0.242 S 
ATOM     21  O   UNL A   1      37.402  31.412  30.133  1.00  0.00    -0.207 OA
ATOM     22  O   UNL A   1      36.557  29.316  31.253  1.00  0.00    -0.207 OA
BRANCH  20  23
ATOM     23  N   UNL A   1      38.370  29.142  29.444  1.00  0.00    -0.204 NA
ATOM     24  C   UNL A   1      38.529  27.723  29.813  1.00  0.00     0.124 C 
ATOM     25  C   UNL A   1      37.802  29.318  28.090  1.00  0.00     0.124 C 
ENDBRANCH  20  23
ENDBRANCH  15  20
ENDBRANCH  10  14
BRANCH  11  26
ATOM     26  C   UNL A   1      43.263  32.377  34.391  1.00  0.00    -0.001 A 
ATOM     27  C   UNL A   1      43.911  32.701  33.194  1.00  0.00     0.013 A 
ATOM     28  C   UNL A   1      42.593  33.392  35.087  1.00  0.00     0.013 A 
ATOM     29  C   UNL A   1      43.810  34.001  32.681  1.00  0.00     0.040 A 
ATOM     30  C   UNL A   1      42.492  34.686  34.585  1.00  0.00     0.040 A 
ATOM     31  C   UNL A   1      43.093  34.976  33.373  1.00  0.00     0.123 A 
ATOM     32  F   UNL A   1      43.038  36.225  32.897  1.00  0.00    -0.207 F 
ENDBRANCH  11  26
ENDBRANCH   8   9
ENDBRANCH   7   8
ENDBRANCH   4   7
ENDBRANCH   2   3
ENDBRANCH   1   2
BRANCH   1  33
ATOM     33  C   UNL A   1      43.949  22.675  34.267  1.00  0.00     0.002 C 
BRANCH  33  34
ATOM     34  C   UNL A   1      45.423  22.207  34.397  1.00  0.00     0.002 C 
BRANCH  34  35
ATOM     35  C   UNL A   1      46.105  21.999  35.769  1.00  0.00     0.021 C 
BRANCH  35  36
ATOM     36  C   UNL A   1      47.371  22.836  36.088  1.00  0.00     0.116 C 
BRANCH  36  37
ATOM     37  N   UNL A   1      47.062  24.094  36.762  1.00  0.00    -0.352 N 
ATOM     38  C   UNL A   1      46.752  25.362  36.317  1.00  0.00     0.251 C 
ATOM     39  H   UNL A   1      47.078  24.021  37.744  1.00  0.00     0.163 HD
ATOM     40  O   UNL A   1      46.943  26.282  37.116  1.00  0.00    -0.269 OA
BRANCH  38  41
ATOM     41  C   UNL A   1      46.182  25.717  34.981  1.00  0.00     0.039 A 
ATOM     42  C   UNL A   1      47.045  25.723  33.867  1.00  0.00     0.014 A 
ATOM     43  C   UNL A   1      44.887  26.188  34.790  1.00  0.00     0.014 A 
ATOM     44  C   UNL A   1      46.609  26.146  32.597  1.00  0.00     0.010 A 
ATOM     45  C   UNL A   1      44.469  26.691  33.541  1.00  0.00     0.010 A 
ATOM     46  C   UNL A   1      45.306  26.621  32.417  1.00  0.00    -0.014 A 
BRANCH  46  47
ATOM     47  C   UNL A   1      44.715  26.676  31.039  1.00  0.00     0.031 A 
ATOM     48  C   UNL A   1      44.492  28.132  30.575  1.00  0.00     0.074 A 
ATOM     49  C   UNL A   1      44.404  25.533  30.347  1.00  0.00     0.049 A 
ATOM     50  N   UNL A   1      43.775  28.585  29.592  1.00  0.00    -0.248 NA
ATOM     51  C   UNL A   1      45.136  29.254  31.318  1.00  0.00     0.031 C 
ATOM     52  C   UNL A   1      44.666  24.161  30.830  1.00  0.00     0.029 A 
ATOM     53  N   UNL A   1      43.810  25.279  29.112  1.00  0.00    -0.354 N 
ATOM     54  C   UNL A   1      43.990  29.978  29.513  1.00  0.00     0.074 A 
ATOM     55  C   UNL A   1      44.800  30.342  30.629  1.00  0.00     0.031 C 
ATOM     56  C   UNL A   1      44.177  23.242  29.963  1.00  0.00     0.029 A 
ATOM     57  C   UNL A   1      43.573  23.906  28.819  1.00  0.00     0.049 A 
ATOM     58  H   UNL A   1      43.571  25.999  28.485  1.00  0.00     0.167 HD
ATOM     59  C   UNL A   1      43.569  30.752  28.474  1.00  0.00     0.031 A 
ATOM     60  C   UNL A   1      42.925  23.324  27.757  1.00  0.00     0.031 A 
ATOM     61  C   UNL A   1      42.731  30.011  27.603  1.00  0.00     0.049 A 
ATOM     62  C   UNL A   1      42.665  24.376  26.765  1.00  0.00     0.074 A 
ATOM     63  C   UNL A   1      41.473  29.490  27.745  1.00  0.00     0.029 A 
ATOM     64  N   UNL A   1      43.335  29.455  26.507  1.00  0.00    -0.354 N 
ATOM     65  N   UNL A   1      43.556  24.872  25.963  1.00  0.00    -0.248 NA
ATOM     66  C   UNL A   1      41.293  24.875  26.590  1.00  0.00     0.031 C 
ATOM     67  C   UNL A   1      41.527  28.297  26.999  1.00  0.00     0.029 A 
ATOM     68  C   UNL A   1      42.748  28.234  26.319  1.00  0.00     0.049 A 
ATOM     69  H   UNL A   1      44.050  29.855  25.961  1.00  0.00     0.167 HD
ATOM     70  C   UNL A   1      42.930  26.007  25.512  1.00  0.00     0.074 A 
ATOM     71  C   UNL A   1      41.508  25.764  25.622  1.00  0.00     0.031 C 
ATOM     72  C   UNL A   1      43.548  27.197  25.713  1.00  0.00     0.031 A 
BRANCH  59  73
ATOM     73  C   UNL A   1      44.037  32.100  28.011  1.00  0.00    -0.014 A 
ATOM     74  C   UNL A   1      43.617  33.225  28.761  1.00  0.00     0.009 A 
ATOM     75  C   UNL A   1      44.542  32.334  26.728  1.00  0.00     0.009 A 
ATOM     76  C   UNL A   1      43.582  34.505  28.207  1.00  0.00     0.001 A 
ATOM     77  C   UNL A   1      44.547  33.627  26.187  1.00  0.00     0.001 A 
ATOM     78  C   UNL A   1      44.032  34.702  26.910  1.00  0.00     0.000 A 
ENDBRANCH  59  73
BRANCH  60  79
ATOM     79  C   UNL A   1      42.416  21.958  27.330  1.00  0.00    -0.014 A 
ATOM     80  C   UNL A   1      41.219  21.363  27.725  1.00  0.00     0.009 A 
ATOM     81  C   UNL A   1      43.169  21.212  26.370  1.00  0.00     0.009 A 
ATOM     82  C   UNL A   1      40.773  20.155  27.135  1.00  0.00     0.001 A 
ATOM     83  C   UNL A   1      42.711  20.048  25.745  1.00  0.00     0.001 A 
ATOM     84  C   UNL A   1      41.497  19.521  26.124  1.00  0.00     0.000 A 
ENDBRANCH  60  79
BRANCH  72  85
ATOM     85  C   UNL A   1      45.064  27.121  25.761  1.00  0.00    -0.014 A 
ATOM     86  C   UNL A   1      45.712  26.893  26.987  1.00  0.00     0.009 A 
ATOM     87  C   UNL A   1      45.874  27.399  24.645  1.00  0.00     0.009 A 
ATOM     88  C   UNL A   1      47.107  26.958  27.097  1.00  0.00     0.001 A 
ATOM     89  C   UNL A   1      47.271  27.458  24.750  1.00  0.00     0.001 A 
ATOM     90  C   UNL A   1      47.887  27.242  25.979  1.00  0.00     0.000 A 
ENDBRANCH  72  85
ENDBRANCH  46  47
ENDBRANCH  38  41
ENDBRANCH  36  37
ENDBRANCH  35  36
ENDBRANCH  34  35
ENDBRANCH  33  34
ENDBRANCH   1  33
TORSDOF 19
ENDMDL
MODEL 2
REMARK VINA RESULT:      -8.3      3.917     10.180
REMARK SMILES CN(C)S(=O)(=O)c1ccc(-n2c(CCC(=O)NCCCCCCNC(=O)c3ccc(-c4c5nc(c(-c6ccccc6)c6ccc([nH]6)c(-c6ccccc6)c6nc(c(-c7ccccc7)c7ccc4[nH]7)C=C6)C=C5)cc3)ccc2-c2ccc(F)cc2)cc1
REMARK SMILES IDX 19 1 18 2 17 3 15 4 16 5 14 7 13 8 12 9 11 10 77 11 75 12
REMARK SMILES IDX 76 13 10 14 7 15 8 16 86 17 9 18 85 19 4 20 5 21 6 22 2 23
REMARK SMILES IDX 1 24 3 25 78 26 79 27 84 28 80 29 83 30 81 31 82 32 20 33
REMARK SMILES IDX 21 34 22 35 23 36 24 37 25 38 26 40 27 41 28 42 74 43 29 44
REMARK SMILES IDX 73 45 30 46 31 47 32 48 67 49 33 50 72 51 66 52 68 53 34 54
REMARK SMILES IDX 71 55 65 56 64 57 35 59 57 60 42 61 56 62 43 63 46 64 55 65
REMARK SMILES IDX 69 66 44 67 45 68 54 70 70 71 47 72 36 73 37 74 41 75 38 76
REMARK SMILES IDX 40 77 39 78 58 79 59 80 63 81 60 82 62 83 61 84 48 85 49 86
REMARK SMILES IDX 53 87 50 88 52 89 51 90
REMARK H PARENT 17 6 24 39 68 58 46 69
REMARK Flexibility Score: inf
ROOT
ATOM      1  C   UNL A   1      46.406  33.040  27.899  1.00  0.00     0.021 C 
ENDROOT
BRANCH   1   2
ATOM      2  C   UNL A   1      45.361  32.244  27.114  1.00  0.00     0.116 C 
BRANCH   2   3
ATOM      3  N   UNL A   1      45.950  31.358  26.120  1.00  0.00    -0.356 N 
ATOM      4  C   UNL A   1      45.903  30.000  26.005  1.00  0.00     0.220 C 
ATOM      5  O   UNL A   1      46.424  29.484  25.012  1.00  0.00    -0.275 OA
ATOM      6  H   UNL A   1      46.466  31.814  25.416  1.00  0.00     0.163 HD
BRANCH   4   7
ATOM      7  C   UNL A   1      45.281  29.126  27.079  1.00  0.00     0.106 C 
BRANCH   7   8
ATOM      8  C   UNL A   1      46.149  27.940  27.543  1.00  0.00     0.064 C 
BRANCH   8   9
ATOM      9  C   UNL A   1      46.167  27.736  29.042  1.00  0.00     0.024 A 
ATOM     10  N   UNL A   1      45.437  26.803  29.815  1.00  0.00    -0.314 N 
ATOM     11  C   UNL A   1      45.798  27.032  31.173  1.00  0.00     0.053 A 
ATOM     12  C   UNL A   1      46.894  28.539  29.908  1.00  0.00     0.024 A 
ATOM     13  C   UNL A   1      46.664  28.110  31.220  1.00  0.00     0.029 A 
BRANCH  10  14
ATOM     14  C   UNL A   1      44.620  25.692  29.356  1.00  0.00     0.046 A 
ATOM     15  C   UNL A   1      43.271  23.649  27.965  1.00  0.00     0.082 A 
ATOM     16  C   UNL A   1      44.469  23.367  28.607  1.00  0.00     0.024 A 
ATOM     17  C   UNL A   1      42.698  24.906  28.074  1.00  0.00     0.024 A 
ATOM     18  C   UNL A   1      45.106  24.375  29.340  1.00  0.00     0.028 A 
ATOM     19  C   UNL A   1      43.373  25.904  28.773  1.00  0.00     0.028 A 
BRANCH  15  20
ATOM     20  S   UNL A   1      42.392  22.409  27.068  1.00  0.00     0.242 S 
ATOM     21  O   UNL A   1      41.225  23.029  26.455  1.00  0.00    -0.207 OA
ATOM     22  O   UNL A   1      42.265  21.254  27.915  1.00  0.00    -0.207 OA
BRANCH  20  23
ATOM     23  N   UNL A   1      43.513  22.065  25.823  1.00  0.00    -0.204 NA
ATOM     24  C   UNL A   1      43.577  20.632  25.480  1.00  0.00     0.124 C 
ATOM     25  C   UNL A   1      43.410  22.932  24.629  1.00  0.00     0.124 C 
ENDBRANCH  20  23
ENDBRANCH  15  20
ENDBRANCH  10  14
BRANCH  11  26
ATOM     26  C   UNL A   1      45.496  26.139  32.303  1.00  0.00    -0.001 A 
ATOM     27  C   UNL A   1      44.191  25.737  32.603  1.00  0.00     0.013 A 
ATOM     28  C   UNL A   1      46.552  25.612  33.060  1.00  0.00     0.013 A 
ATOM     29  C   UNL A   1      43.974  24.765  33.590  1.00  0.00     0.040 A 
ATOM     30  C   UNL A   1      46.344  24.650  34.043  1.00  0.00     0.040 A 
ATOM     31  C   UNL A   1      45.050  24.223  34.291  1.00  0.00     0.123 A 
ATOM     32  F   UNL A   1      44.831  23.328  35.261  1.00  0.00    -0.207 F 
ENDBRANCH  11  26
ENDBRANCH   8   9
ENDBRANCH   7   8
ENDBRANCH   4   7
ENDBRANCH   2   3
ENDBRANCH   1   2
BRANCH   1  33
ATOM     33  C   UNL A   1      46.829  34.376  27.273  1.00  0.00     0.002 C 
BRANCH  33  34
ATOM     34  C   UNL A   1      46.958  35.643  28.162  1.00  0.00     0.002 C 
BRANCH  34  35
ATOM     35  C   UNL A   1      47.181  37.050  27.565  1.00  0.00     0.021 C 
BRANCH  35  36
ATOM     36  C   UNL A   1      46.426  37.417  26.261  1.00  0.00     0.116 C 
BRANCH  36  37
ATOM     37  N   UNL A   1      45.267  38.273  26.500  1.00  0.00    -0.352 N 
ATOM     38  C   UNL A   1      43.982  38.035  26.939  1.00  0.00     0.251 C 
ATOM     39  H   UNL A   1      45.441  39.223  26.307  1.00  0.00     0.163 HD
ATOM     40  O   UNL A   1      43.140  38.890  26.651  1.00  0.00    -0.269 OA
BRANCH  38  41
ATOM     41  C   UNL A   1      43.526  36.866  27.753  1.00  0.00     0.039 A 
ATOM     42  C   UNL A   1      43.561  36.976  29.157  1.00  0.00     0.014 A 
ATOM     43  C   UNL A   1      43.210  35.623  27.216  1.00  0.00     0.014 A 
ATOM     44  C   UNL A   1      43.249  35.887  29.992  1.00  0.00     0.010 A 
ATOM     45  C   UNL A   1      42.976  34.506  28.045  1.00  0.00     0.010 A 
ATOM     46  C   UNL A   1      42.935  34.640  29.441  1.00  0.00    -0.014 A 
BRANCH  46  47
ATOM     47  C   UNL A   1      42.213  33.617  30.270  1.00  0.00     0.031 A 
ATOM     48  C   UNL A   1      40.686  33.847  30.250  1.00  0.00     0.074 A 
ATOM     49  C   UNL A   1      42.893  32.647  30.961  1.00  0.00     0.049 A 
ATOM     50  N   UNL A   1      39.768  33.363  31.030  1.00  0.00    -0.248 NA
ATOM     51  C   UNL A   1      40.086  34.762  29.236  1.00  0.00     0.031 C 
ATOM     52  C   UNL A   1      44.357  32.457  30.921  1.00  0.00     0.029 A 
ATOM     53  N   UNL A   1      42.510  31.629  31.833  1.00  0.00    -0.354 N 
ATOM     54  C   UNL A   1      38.517  33.783  30.530  1.00  0.00     0.074 A 
ATOM     55  C   UNL A   1      38.776  34.680  29.452  1.00  0.00     0.031 C 
ATOM     56  C   UNL A   1      44.740  31.471  31.767  1.00  0.00     0.029 A 
ATOM     57  C   UNL A   1      43.577  30.897  32.424  1.00  0.00     0.049 A 
ATOM     58  H   UNL A   1      41.564  31.430  32.026  1.00  0.00     0.167 HD
ATOM     59  C   UNL A   1      37.323  33.294  30.967  1.00  0.00     0.031 A 
ATOM     60  C   UNL A   1      43.555  29.917  33.387  1.00  0.00     0.031 A 
ATOM     61  C   UNL A   1      37.505  32.472  32.107  1.00  0.00     0.049 A 
ATOM     62  C   UNL A   1      42.152  29.535  33.599  1.00  0.00     0.074 A 
ATOM     63  C   UNL A   1      37.884  32.740  33.395  1.00  0.00     0.029 A 
ATOM     64  N   UNL A   1      37.591  31.125  31.876  1.00  0.00    -0.354 N 
ATOM     65  N   UNL A   1      41.463  28.780  32.799  1.00  0.00    -0.248 NA
ATOM     66  C   UNL A   1      41.471  29.958  34.831  1.00  0.00     0.031 C 
ATOM     67  C   UNL A   1      38.627  31.600  33.760  1.00  0.00     0.029 A 
ATOM     68  C   UNL A   1      38.528  30.641  32.746  1.00  0.00     0.049 A 
ATOM     69  H   UNL A   1      37.078  30.606  31.214  1.00  0.00     0.167 HD
ATOM     70  C   UNL A   1      40.181  29.006  33.233  1.00  0.00     0.074 A 
ATOM     71  C   UNL A   1      40.279  29.401  34.621  1.00  0.00     0.031 C 
ATOM     72  C   UNL A   1      39.280  29.480  32.337  1.00  0.00     0.031 A 
BRANCH  59  73
ATOM     73  C   UNL A   1      35.973  33.291  30.313  1.00  0.00    -0.014 A 
ATOM     74  C   UNL A   1      35.863  32.650  29.055  1.00  0.00     0.009 A 
ATOM     75  C   UNL A   1      34.942  34.161  30.684  1.00  0.00     0.009 A 
ATOM     76  C   UNL A   1      34.841  32.962  28.158  1.00  0.00     0.001 A 
ATOM     77  C   UNL A   1      33.892  34.442  29.800  1.00  0.00     0.001 A 
ATOM     78  C   UNL A   1      33.863  33.875  28.527  1.00  0.00     0.000 A 
ENDBRANCH  59  73
BRANCH  60  79
ATOM     79  C   UNL A   1      44.526  29.145  34.264  1.00  0.00    -0.014 A 
ATOM     80  C   UNL A   1      45.888  29.403  34.412  1.00  0.00     0.009 A 
ATOM     81  C   UNL A   1      44.020  28.095  35.092  1.00  0.00     0.009 A 
ATOM     82  C   UNL A   1      46.660  28.718  35.382  1.00  0.00     0.001 A 
ATOM     83  C   UNL A   1      44.763  27.452  36.087  1.00  0.00     0.001 A 
ATOM     84  C   UNL A   1      46.093  27.775  36.240  1.00  0.00     0.000 A 
ENDBRANCH  60  79
BRANCH  72  85
ATOM     85  C   UNL A   1      39.546  29.072  30.899  1.00  0.00    -0.014 A 
ATOM     86  C   UNL A   1      39.189  27.785  30.463  1.00  0.00     0.009 A 
ATOM     87  C   UNL A   1      40.261  29.882  29.999  1.00  0.00     0.009 A 
ATOM     88  C   UNL A   1      39.545  27.321  29.191  1.00  0.00     0.001 A 
ATOM     89  C   UNL A   1      40.614  29.424  28.721  1.00  0.00     0.001 A 
ATOM     90  C   UNL A   1      40.260  28.139  28.319  1.00  0.00     0.000 A 
ENDBRANCH  72  85
ENDBRANCH  46  47
ENDBRANCH  38  41
ENDBRANCH  36  37
ENDBRANCH  35  36
ENDBRANCH  34  35
ENDBRANCH  33  34
ENDBRANCH   1  33
TORSDOF 19
ENDMDL
MODEL 3
REMARK VINA RESULT:      -8.2      4.592     11.085
REMARK SMILES CN(C)S(=O)(=O)c1ccc(-n2c(CCC(=O)NCCCCCCNC(=O)c3ccc(-c4c5nc(c(-c6ccccc6)c6ccc([nH]6)c(-c6ccccc6)c6nc(c(-c7ccccc7)c7ccc4[nH]7)C=C6)C=C5)cc3)ccc2-c2ccc(F)cc2)cc1
REMARK SMILES IDX 19 1 18 2 17 3 15 4 16 5 14 7 13 8 12 9 11 10 77 11 75 12
REMARK SMILES IDX 76 13 10 14 7 15 8 16 86 17 9 18 85 19 4 20 5 21 6 22 2 23
REMARK SMILES IDX 1 24 3 25 78 26 79 27 84 28 80 29 83 30 81 31 82 32 20 33
REMARK SMILES IDX 21 34 22 35 23 36 24 37 25 38 26 40 27 41 28 42 74 43 29 44
REMARK SMILES IDX 73 45 30 46 31 47 32 48 67 49 33 50 72 51 66 52 68 53 34 54
REMARK SMILES IDX 71 55 65 56 64 57 35 59 57 60 42 61 56 62 43 63 46 64 55 65
REMARK SMILES IDX 69 66 44 67 45 68 54 70 70 71 47 72 36 73 37 74 41 75 38 76
REMARK SMILES IDX 40 77 39 78 58 79 59 80 63 81 60 82 62 83 61 84 48 85 49 86
REMARK SMILES IDX 53 87 50 88 52 89 51 90
REMARK H PARENT 17 6 24 39 68 58 46 69
REMARK Flexibility Score: inf
ROOT
ATOM      1  C   UNL A   1      47.235  29.183  30.938  1.00  0.00     0.021 C 
ENDROOT
BRANCH   1   2
ATOM      2  C   UNL A   1      45.975  28.597  30.297  1.00  0.00     0.116 C 
BRANCH   2   3
ATOM      3  N   UNL A   1      45.643  27.272  30.803  1.00  0.00    -0.356 N 
ATOM      4  C   UNL A   1      44.478  26.566  30.739  1.00  0.00     0.220 C 
ATOM      5  O   UNL A   1      44.476  25.413  31.179  1.00  0.00    -0.275 OA
ATOM      6  H   UNL A   1      46.380  26.812  31.264  1.00  0.00     0.163 HD
BRANCH   4   7
ATOM      7  C   UNL A   1      43.199  27.178  30.197  1.00  0.00     0.106 C 
BRANCH   7   8
ATOM      8  C   UNL A   1      42.983  27.012  28.681  1.00  0.00     0.064 C 
BRANCH   8   9
ATOM      9  C   UNL A   1      41.687  26.324  28.312  1.00  0.00     0.024 A 
ATOM     10  N   UNL A   1      41.482  25.249  27.417  1.00  0.00    -0.314 N 
ATOM     11  C   UNL A   1      40.083  24.988  27.411  1.00  0.00     0.053 A 
ATOM     12  C   UNL A   1      40.450  26.737  28.782  1.00  0.00     0.024 A 
ATOM     13  C   UNL A   1      39.462  25.918  28.224  1.00  0.00     0.029 A 
BRANCH  10  14
ATOM     14  C   UNL A   1      42.478  24.419  26.757  1.00  0.00     0.046 A 
ATOM     15  C   UNL A   1      43.996  22.421  25.482  1.00  0.00     0.082 A 
ATOM     16  C   UNL A   1      43.292  23.340  24.717  1.00  0.00     0.024 A 
ATOM     17  C   UNL A   1      44.020  22.530  26.863  1.00  0.00     0.024 A 
ATOM     18  C   UNL A   1      42.582  24.362  25.358  1.00  0.00     0.028 A 
ATOM     19  C   UNL A   1      43.271  23.530  27.480  1.00  0.00     0.028 A 
BRANCH  15  20
ATOM     20  S   UNL A   1      44.953  21.139  24.733  1.00  0.00     0.242 S 
ATOM     21  O   UNL A   1      46.354  21.365  25.060  1.00  0.00    -0.207 OA
ATOM     22  O   UNL A   1      44.518  21.000  23.370  1.00  0.00    -0.207 OA
BRANCH  20  23
ATOM     23  N   UNL A   1      44.420  19.783  25.628  1.00  0.00    -0.204 NA
ATOM     24  C   UNL A   1      42.992  19.478  25.425  1.00  0.00     0.124 C 
ATOM     25  C   UNL A   1      45.280  18.584  25.520  1.00  0.00     0.124 C 
ENDBRANCH  20  23
ENDBRANCH  15  20
ENDBRANCH  10  14
BRANCH  11  26
ATOM     26  C   UNL A   1      39.434  23.799  26.836  1.00  0.00    -0.001 A 
ATOM     27  C   UNL A   1      38.254  23.885  26.090  1.00  0.00     0.013 A 
ATOM     28  C   UNL A   1      40.053  22.548  26.971  1.00  0.00     0.013 A 
ATOM     29  C   UNL A   1      37.764  22.747  25.434  1.00  0.00     0.040 A 
ATOM     30  C   UNL A   1      39.570  21.414  26.327  1.00  0.00     0.040 A 
ATOM     31  C   UNL A   1      38.430  21.528  25.548  1.00  0.00     0.123 A 
ATOM     32  F   UNL A   1      37.931  20.438  24.955  1.00  0.00    -0.207 F 
ENDBRANCH  11  26
ENDBRANCH   8   9
ENDBRANCH   7   8
ENDBRANCH   4   7
ENDBRANCH   2   3
ENDBRANCH   1   2
BRANCH   1  33
ATOM     33  C   UNL A   1      47.788  30.452  30.275  1.00  0.00     0.002 C 
BRANCH  33  34
ATOM     34  C   UNL A   1      47.731  30.608  28.731  1.00  0.00     0.002 C 
BRANCH  34  35
ATOM     35  C   UNL A   1      47.923  31.972  28.032  1.00  0.00     0.021 C 
BRANCH  35  36
ATOM     36  C   UNL A   1      48.569  33.124  28.846  1.00  0.00     0.116 C 
BRANCH  36  37
ATOM     37  N   UNL A   1      48.098  34.442  28.430  1.00  0.00    -0.352 N 
ATOM     38  C   UNL A   1      46.847  34.989  28.235  1.00  0.00     0.251 C 
ATOM     39  H   UNL A   1      48.830  35.076  28.251  1.00  0.00     0.163 HD
ATOM     40  O   UNL A   1      46.793  35.982  27.505  1.00  0.00    -0.269 OA
BRANCH  38  41
ATOM     41  C   UNL A   1      45.567  34.514  28.847  1.00  0.00     0.039 A 
ATOM     42  C   UNL A   1      44.726  33.686  28.078  1.00  0.00     0.014 A 
ATOM     43  C   UNL A   1      45.081  34.959  30.072  1.00  0.00     0.014 A 
ATOM     44  C   UNL A   1      43.460  33.283  28.541  1.00  0.00     0.010 A 
ATOM     45  C   UNL A   1      43.780  34.628  30.506  1.00  0.00     0.010 A 
ATOM     46  C   UNL A   1      42.980  33.739  29.773  1.00  0.00    -0.014 A 
BRANCH  46  47
ATOM     47  C   UNL A   1      41.855  33.012  30.451  1.00  0.00     0.031 A 
ATOM     48  C   UNL A   1      42.363  31.770  31.217  1.00  0.00     0.074 A 
ATOM     49  C   UNL A   1      40.555  33.435  30.334  1.00  0.00     0.049 A 
ATOM     50  N   UNL A   1      41.696  30.762  31.690  1.00  0.00    -0.248 NA
ATOM     51  C   UNL A   1      43.822  31.607  31.480  1.00  0.00     0.031 C 
ATOM     52  C   UNL A   1      40.129  34.649  29.609  1.00  0.00     0.029 A 
ATOM     53  N   UNL A   1      39.332  32.944  30.788  1.00  0.00    -0.354 N 
ATOM     54  C   UNL A   1      42.601  29.948  32.405  1.00  0.00     0.074 A 
ATOM     55  C   UNL A   1      43.904  30.492  32.203  1.00  0.00     0.031 C 
ATOM     56  C   UNL A   1      38.779  34.759  29.602  1.00  0.00     0.029 A 
ATOM     57  C   UNL A   1      38.184  33.654  30.337  1.00  0.00     0.049 A 
ATOM     58  H   UNL A   1      39.267  32.160  31.381  1.00  0.00     0.167 HD
ATOM     59  C   UNL A   1      42.221  28.919  33.212  1.00  0.00     0.031 A 
ATOM     60  C   UNL A   1      36.848  33.383  30.509  1.00  0.00     0.031 A 
ATOM     61  C   UNL A   1      40.834  28.661  33.075  1.00  0.00     0.049 A 
ATOM     62  C   UNL A   1      36.739  32.287  31.480  1.00  0.00     0.074 A 
ATOM     63  C   UNL A   1      40.079  28.157  32.050  1.00  0.00     0.029 A 
ATOM     64  N   UNL A   1      40.013  29.248  34.001  1.00  0.00    -0.354 N 
ATOM     65  N   UNL A   1      36.889  32.418  32.763  1.00  0.00    -0.248 NA
ATOM     66  C   UNL A   1      36.363  30.946  31.011  1.00  0.00     0.031 C 
ATOM     67  C   UNL A   1      38.864  28.860  32.163  1.00  0.00     0.029 A 
ATOM     68  C   UNL A   1      38.883  29.629  33.331  1.00  0.00     0.049 A 
ATOM     69  H   UNL A   1      40.199  29.371  34.960  1.00  0.00     0.167 HD
ATOM     70  C   UNL A   1      37.037  31.115  33.164  1.00  0.00     0.074 A 
ATOM     71  C   UNL A   1      36.366  30.300  32.175  1.00  0.00     0.031 C 
ATOM     72  C   UNL A   1      38.170  30.779  33.831  1.00  0.00     0.031 A 
BRANCH  59  73
ATOM     73  C   UNL A   1      42.949  28.238  34.332  1.00  0.00    -0.014 A 
ATOM     74  C   UNL A   1      43.145  26.840  34.225  1.00  0.00     0.009 A 
ATOM     75  C   UNL A   1      43.121  28.817  35.594  1.00  0.00     0.009 A 
ATOM     76  C   UNL A   1      43.372  26.042  35.346  1.00  0.00     0.001 A 
ATOM     77  C   UNL A   1      43.392  28.019  36.715  1.00  0.00     0.001 A 
ATOM     78  C   UNL A   1      43.478  26.634  36.597  1.00  0.00     0.000 A 
ENDBRANCH  59  73
BRANCH  60  79
ATOM     79  C   UNL A   1      35.502  33.871  30.001  1.00  0.00    -0.014 A 
ATOM     80  C   UNL A   1      34.559  34.595  30.728  1.00  0.00     0.009 A 
ATOM     81  C   UNL A   1      35.165  33.655  28.628  1.00  0.00     0.009 A 
ATOM     82  C   UNL A   1      33.409  35.135  30.101  1.00  0.00     0.001 A 
ATOM     83  C   UNL A   1      34.061  34.228  27.991  1.00  0.00     0.001 A 
ATOM     84  C   UNL A   1      33.180  34.984  28.733  1.00  0.00     0.000 A 
ENDBRANCH  60  79
BRANCH  72  85
ATOM     85  C   UNL A   1      38.785  31.909  34.638  1.00  0.00    -0.014 A 
ATOM     86  C   UNL A   1      40.043  32.418  34.277  1.00  0.00     0.009 A 
ATOM     87  C   UNL A   1      38.209  32.394  35.827  1.00  0.00     0.009 A 
ATOM     88  C   UNL A   1      40.707  33.357  35.076  1.00  0.00     0.001 A 
ATOM     89  C   UNL A   1      38.867  33.339  36.626  1.00  0.00     0.001 A 
ATOM     90  C   UNL A   1      40.120  33.817  36.253  1.00  0.00     0.000 A 
ENDBRANCH  72  85
ENDBRANCH  46  47
ENDBRANCH  38  41
ENDBRANCH  36  37
ENDBRANCH  35  36
ENDBRANCH  34  35
ENDBRANCH  33  34
ENDBRANCH   1  33
TORSDOF 19
ENDMDL
