MODEL 1
REMARK VINA RESULT:     -11.6      0.000      0.000
REMARK SMILES COc1ccc2ncc(C(=O)NCCCCCCNC(=O)c3ccc(-c4c5nc(c(-c6ccccc6)c6ccc([nH]6)c(-c6ccccc6)c6nc(c(-c7ccccc7)c7ccc4[nH]7)C=C6)C=C5)cc3)c(Nc3ccccc3C)c2c1
REMARK SMILES IDX 15 1 14 2 13 3 12 4 10 5 11 6 9 8 3 9 4 10 80 11 5 12 79 13
REMARK SMILES IDX 6 14 70 15 7 16 8 17 2 18 1 19 71 20 72 22 73 23 77 24 74 25
REMARK SMILES IDX 76 26 78 27 75 28 16 29 17 30 18 31 19 32 20 33 21 35 22 36
REMARK SMILES IDX 23 37 69 38 24 39 68 40 25 41 26 42 27 43 62 44 28 45 67 46
REMARK SMILES IDX 61 47 63 48 29 49 66 50 60 51 59 52 30 54 52 55 37 56 51 57
REMARK SMILES IDX 38 58 41 59 50 60 64 61 39 62 40 63 49 65 65 66 42 67 31 68
REMARK SMILES IDX 32 69 36 70 33 71 35 72 34 73 53 74 54 75 58 76 55 77 57 78
REMARK SMILES IDX 56 79 43 80 44 81 48 82 45 83 47 84 46 85
REMARK H PARENT 12 7 71 21 19 34 63 53 41 64
REMARK Flexibility Score: inf
ROOT
ATOM      1  C   UNL A   1      31.159  27.044  24.970  1.00  0.00     0.002 C 
ENDROOT
BRANCH   1   2
ATOM      2  C   UNL A   1      30.841  25.782  25.773  1.00  0.00     0.021 C 
BRANCH   2   3
ATOM      3  C   UNL A   1      31.567  24.493  25.403  1.00  0.00     0.116 C 
BRANCH   3   4
ATOM      4  N   UNL A   1      32.825  24.655  24.701  1.00  0.00    -0.352 N 
ATOM      5  C   UNL A   1      33.439  23.826  23.781  1.00  0.00     0.254 C 
ATOM      6  O   UNL A   1      34.245  24.322  22.995  1.00  0.00    -0.269 OA
ATOM      7  H   UNL A   1      33.317  25.482  24.912  1.00  0.00     0.163 HD
BRANCH   5   8
ATOM      8  C   UNL A   1      33.102  22.387  23.672  1.00  0.00     0.082 A 
ATOM      9  C   UNL A   1      33.759  17.558  24.244  1.00  0.00     0.119 A 
ATOM     10  C   UNL A   1      32.798  17.351  23.266  1.00  0.00     0.048 A 
ATOM     11  C   UNL A   1      34.021  18.855  24.691  1.00  0.00     0.059 A 
ATOM     12  C   UNL A   1      32.183  18.453  22.673  1.00  0.00     0.033 A 
ATOM     13  C   UNL A   1      33.424  19.992  24.079  1.00  0.00     0.028 A 
ATOM     14  C   UNL A   1      32.510  19.754  23.026  1.00  0.00     0.073 A 
ATOM     15  C   UNL A   1      33.707  21.362  24.430  1.00  0.00     0.063 A 
ATOM     16  N   UNL A   1      31.952  20.732  22.311  1.00  0.00    -0.255 NA
ATOM     17  C   UNL A   1      32.302  22.003  22.607  1.00  0.00     0.127 A 
BRANCH   9  18
ATOM     18  O   UNL A   1      34.473  16.547  24.827  1.00  0.00    -0.497 OA
ATOM     19  C   UNL A   1      33.655  15.466  25.281  1.00  0.00     0.278 C 
ENDBRANCH   9  18
BRANCH  15  20
ATOM     20  N   UNL A   1      34.579  21.586  25.535  1.00  0.00    -0.354 N 
ATOM     21  H   UNL A   1      34.188  21.347  26.406  1.00  0.00     0.167 HD
BRANCH  20  22
ATOM     22  C   UNL A   1      35.896  22.083  25.618  1.00  0.00     0.041 A 
ATOM     23  C   UNL A   1      36.055  23.418  26.038  1.00  0.00     0.026 A 
ATOM     24  C   UNL A   1      37.044  21.311  25.372  1.00  0.00    -0.028 A 
ATOM     25  C   UNL A   1      37.319  23.970  26.248  1.00  0.00     0.002 A 
ATOM     26  C   UNL A   1      38.315  21.877  25.601  1.00  0.00     0.005 A 
ATOM     27  C   UNL A   1      36.992  19.901  24.854  1.00  0.00     0.046 C 
ATOM     28  C   UNL A   1      38.450  23.194  26.038  1.00  0.00     0.000 A 
ENDBRANCH  20  22
ENDBRANCH  15  20
ENDBRANCH   5   8
ENDBRANCH   3   4
ENDBRANCH   2   3
ENDBRANCH   1   2
BRANCH   1  29
ATOM     29  C   UNL A   1      31.593  28.293  25.741  1.00  0.00     0.002 C 
BRANCH  29  30
ATOM     30  C   UNL A   1      32.241  28.087  27.110  1.00  0.00     0.021 C 
BRANCH  30  31
ATOM     31  C   UNL A   1      33.628  28.689  27.307  1.00  0.00     0.116 C 
BRANCH  31  32
ATOM     32  N   UNL A   1      33.596  30.081  27.722  1.00  0.00    -0.352 N 
ATOM     33  C   UNL A   1      34.568  30.837  28.332  1.00  0.00     0.251 C 
ATOM     34  H   UNL A   1      32.753  30.553  27.538  1.00  0.00     0.163 HD
ATOM     35  O   UNL A   1      34.310  31.974  28.713  1.00  0.00    -0.269 OA
BRANCH  33  36
ATOM     36  C   UNL A   1      35.925  30.284  28.559  1.00  0.00     0.039 A 
ATOM     37  C   UNL A   1      36.856  30.347  27.516  1.00  0.00     0.014 A 
ATOM     38  C   UNL A   1      36.277  29.682  29.769  1.00  0.00     0.014 A 
ATOM     39  C   UNL A   1      38.154  29.862  27.709  1.00  0.00     0.010 A 
ATOM     40  C   UNL A   1      37.587  29.255  29.981  1.00  0.00     0.010 A 
ATOM     41  C   UNL A   1      38.538  29.338  28.952  1.00  0.00    -0.014 A 
BRANCH  41  42
ATOM     42  C   UNL A   1      39.927  28.868  29.193  1.00  0.00     0.031 A 
ATOM     43  C   UNL A   1      40.934  29.778  29.840  1.00  0.00     0.074 A 
ATOM     44  C   UNL A   1      40.300  27.643  28.775  1.00  0.00     0.049 A 
ATOM     45  N   UNL A   1      42.203  29.564  30.086  1.00  0.00    -0.248 NA
ATOM     46  C   UNL A   1      40.459  31.110  30.244  1.00  0.00     0.031 C 
ATOM     47  C   UNL A   1      39.433  26.674  28.105  1.00  0.00     0.029 A 
ATOM     48  N   UNL A   1      41.515  27.009  28.850  1.00  0.00    -0.354 N 
ATOM     49  C   UNL A   1      42.681  30.739  30.651  1.00  0.00     0.074 A 
ATOM     50  C   UNL A   1      41.578  31.675  30.674  1.00  0.00     0.031 C 
ATOM     51  C   UNL A   1      40.134  25.557  27.854  1.00  0.00     0.029 A 
ATOM     52  C   UNL A   1      41.508  25.744  28.313  1.00  0.00     0.049 A 
ATOM     53  H   UNL A   1      42.315  27.419  29.250  1.00  0.00     0.167 HD
ATOM     54  C   UNL A   1      43.921  31.012  31.123  1.00  0.00     0.031 A 
ATOM     55  C   UNL A   1      42.495  24.836  28.201  1.00  0.00     0.031 A 
ATOM     56  C   UNL A   1      45.018  30.081  31.114  1.00  0.00     0.049 A 
ATOM     57  C   UNL A   1      43.865  25.163  28.724  1.00  0.00     0.074 A 
ATOM     58  C   UNL A   1      46.293  30.245  31.627  1.00  0.00     0.029 A 
ATOM     59  N   UNL A   1      44.968  28.812  30.561  1.00  0.00    -0.354 N 
ATOM     60  N   UNL A   1      44.284  26.258  29.310  1.00  0.00    -0.248 NA
ATOM     61  C   UNL A   1      44.895  24.125  28.573  1.00  0.00     0.031 C 
ATOM     62  C   UNL A   1      47.029  29.088  31.345  1.00  0.00     0.029 A 
ATOM     63  C   UNL A   1      46.198  28.188  30.697  1.00  0.00     0.049 A 
ATOM     64  H   UNL A   1      44.176  28.412  30.134  1.00  0.00     0.167 HD
ATOM     65  C   UNL A   1      45.619  26.032  29.623  1.00  0.00     0.074 A 
ATOM     66  C   UNL A   1      45.935  24.693  29.168  1.00  0.00     0.031 C 
ATOM     67  C   UNL A   1      46.500  26.859  30.235  1.00  0.00     0.031 A 
BRANCH  54  68
ATOM     68  C   UNL A   1      44.153  32.390  31.677  1.00  0.00    -0.014 A 
ATOM     69  C   UNL A   1      44.570  33.447  30.851  1.00  0.00     0.009 A 
ATOM     70  C   UNL A   1      43.942  32.638  33.042  1.00  0.00     0.009 A 
ATOM     71  C   UNL A   1      44.815  34.712  31.389  1.00  0.00     0.001 A 
ATOM     72  C   UNL A   1      44.162  33.911  33.573  1.00  0.00     0.001 A 
ATOM     73  C   UNL A   1      44.609  34.942  32.750  1.00  0.00     0.000 A 
ENDBRANCH  54  68
BRANCH  55  74
ATOM     74  C   UNL A   1      42.213  23.512  27.592  1.00  0.00    -0.014 A 
ATOM     75  C   UNL A   1      42.404  23.313  26.217  1.00  0.00     0.009 A 
ATOM     76  C   UNL A   1      41.770  22.439  28.381  1.00  0.00     0.009 A 
ATOM     77  C   UNL A   1      42.139  22.068  25.640  1.00  0.00     0.001 A 
ATOM     78  C   UNL A   1      41.529  21.190  27.805  1.00  0.00     0.001 A 
ATOM     79  C   UNL A   1      41.709  21.007  26.434  1.00  0.00     0.000 A 
ENDBRANCH  55  74
BRANCH  67  80
ATOM     80  C   UNL A   1      47.885  26.329  30.471  1.00  0.00    -0.014 A 
ATOM     81  C   UNL A   1      48.250  25.776  31.708  1.00  0.00     0.009 A 
ATOM     82  C   UNL A   1      48.826  26.352  29.429  1.00  0.00     0.009 A 
ATOM     83  C   UNL A   1      49.541  25.282  31.905  1.00  0.00     0.001 A 
ATOM     84  C   UNL A   1      50.107  25.835  29.623  1.00  0.00     0.001 A 
ATOM     85  C   UNL A   1      50.466  25.309  30.862  1.00  0.00     0.000 A 
ENDBRANCH  67  80
ENDBRANCH  41  42
ENDBRANCH  33  36
ENDBRANCH  31  32
ENDBRANCH  30  31
ENDBRANCH  29  30
ENDBRANCH   1  29
TORSDOF 16
ENDMDL
MODEL 2
REMARK VINA RESULT:     -11.6      2.676      8.810
REMARK SMILES COc1ccc2ncc(C(=O)NCCCCCCNC(=O)c3ccc(-c4c5nc(c(-c6ccccc6)c6ccc([nH]6)c(-c6ccccc6)c6nc(c(-c7ccccc7)c7ccc4[nH]7)C=C6)C=C5)cc3)c(Nc3ccccc3C)c2c1
REMARK SMILES IDX 15 1 14 2 13 3 12 4 10 5 11 6 9 8 3 9 4 10 80 11 5 12 79 13
REMARK SMILES IDX 6 14 70 15 7 16 8 17 2 18 1 19 71 20 72 22 73 23 77 24 74 25
REMARK SMILES IDX 76 26 78 27 75 28 16 29 17 30 18 31 19 32 20 33 21 35 22 36
REMARK SMILES IDX 23 37 69 38 24 39 68 40 25 41 26 42 27 43 62 44 28 45 67 46
REMARK SMILES IDX 61 47 63 48 29 49 66 50 60 51 59 52 30 54 52 55 37 56 51 57
REMARK SMILES IDX 38 58 41 59 50 60 64 61 39 62 40 63 49 65 65 66 42 67 31 68
REMARK SMILES IDX 32 69 36 70 33 71 35 72 34 73 53 74 54 75 58 76 55 77 57 78
REMARK SMILES IDX 56 79 43 80 44 81 48 82 45 83 47 84 46 85
REMARK H PARENT 12 7 71 21 19 34 63 53 41 64
REMARK Flexibility Score: inf
ROOT
ATOM      1  C   UNL A   1      34.439  22.772  23.964  1.00  0.00     0.002 C 
ENDROOT
BRANCH   1   2
ATOM      2  C   UNL A   1      33.083  22.403  23.361  1.00  0.00     0.021 C 
BRANCH   2   3
ATOM      3  C   UNL A   1      32.049  23.510  23.186  1.00  0.00     0.116 C 
BRANCH   3   4
ATOM      4  N   UNL A   1      32.326  24.474  22.139  1.00  0.00    -0.352 N 
ATOM      5  C   UNL A   1      32.889  25.733  22.222  1.00  0.00     0.254 C 
ATOM      6  O   UNL A   1      33.431  26.197  21.220  1.00  0.00    -0.269 OA
ATOM      7  H   UNL A   1      32.074  24.187  21.232  1.00  0.00     0.163 HD
BRANCH   5   8
ATOM      8  C   UNL A   1      32.919  26.499  23.491  1.00  0.00     0.082 A 
ATOM      9  C   UNL A   1      32.226  30.372  26.423  1.00  0.00     0.119 A 
ATOM     10  C   UNL A   1      33.116  29.803  27.320  1.00  0.00     0.048 A 
ATOM     11  C   UNL A   1      31.849  29.663  25.280  1.00  0.00     0.059 A 
ATOM     12  C   UNL A   1      33.697  28.573  27.013  1.00  0.00     0.033 A 
ATOM     13  C   UNL A   1      32.452  28.421  24.937  1.00  0.00     0.028 A 
ATOM     14  C   UNL A   1      33.420  27.904  25.830  1.00  0.00     0.073 A 
ATOM     15  C   UNL A   1      32.175  27.672  23.736  1.00  0.00     0.063 A 
ATOM     16  N   UNL A   1      34.122  26.798  25.582  1.00  0.00    -0.255 NA
ATOM     17  C   UNL A   1      33.902  26.166  24.409  1.00  0.00     0.127 A 
BRANCH   9  18
ATOM     18  O   UNL A   1      31.666  31.609  26.597  1.00  0.00    -0.497 OA
ATOM     19  C   UNL A   1      30.604  31.881  25.680  1.00  0.00     0.278 C 
ENDBRANCH   9  18
BRANCH  15  20
ATOM     20  N   UNL A   1      31.152  28.171  22.878  1.00  0.00    -0.354 N 
ATOM     21  H   UNL A   1      31.491  28.588  22.053  1.00  0.00     0.167 HD
BRANCH  20  22
ATOM     22  C   UNL A   1      29.746  28.181  22.984  1.00  0.00     0.041 A 
ATOM     23  C   UNL A   1      29.138  27.063  23.588  1.00  0.00     0.026 A 
ATOM     24  C   UNL A   1      28.935  29.259  22.589  1.00  0.00    -0.028 A 
ATOM     25  C   UNL A   1      27.765  27.022  23.830  1.00  0.00     0.002 A 
ATOM     26  C   UNL A   1      27.551  29.210  22.851  1.00  0.00     0.005 A 
ATOM     27  C   UNL A   1      29.467  30.469  21.874  1.00  0.00     0.046 C 
ATOM     28  C   UNL A   1      26.972  28.102  23.469  1.00  0.00     0.000 A 
ENDBRANCH  20  22
ENDBRANCH  15  20
ENDBRANCH   5   8
ENDBRANCH   3   4
ENDBRANCH   2   3
ENDBRANCH   1   2
BRANCH   1  29
ATOM     29  C   UNL A   1      34.598  22.675  25.484  1.00  0.00     0.002 C 
BRANCH  29  30
ATOM     30  C   UNL A   1      35.825  23.343  26.107  1.00  0.00     0.021 C 
BRANCH  30  31
ATOM     31  C   UNL A   1      37.016  23.580  25.185  1.00  0.00     0.116 C 
BRANCH  31  32
ATOM     32  N   UNL A   1      38.123  22.674  25.435  1.00  0.00    -0.352 N 
ATOM     33  C   UNL A   1      39.314  22.901  26.085  1.00  0.00     0.251 C 
ATOM     34  H   UNL A   1      38.005  21.762  25.087  1.00  0.00     0.163 HD
ATOM     35  O   UNL A   1      40.181  22.035  26.094  1.00  0.00    -0.269 OA
BRANCH  33  36
ATOM     36  C   UNL A   1      39.571  24.197  26.759  1.00  0.00     0.039 A 
ATOM     37  C   UNL A   1      39.063  24.393  28.048  1.00  0.00     0.014 A 
ATOM     38  C   UNL A   1      40.277  25.222  26.127  1.00  0.00     0.014 A 
ATOM     39  C   UNL A   1      39.315  25.591  28.723  1.00  0.00     0.010 A 
ATOM     40  C   UNL A   1      40.581  26.392  26.822  1.00  0.00     0.010 A 
ATOM     41  C   UNL A   1      40.100  26.590  28.127  1.00  0.00    -0.014 A 
BRANCH  41  42
ATOM     42  C   UNL A   1      40.424  27.847  28.848  1.00  0.00     0.031 A 
ATOM     43  C   UNL A   1      41.750  28.005  29.540  1.00  0.00     0.074 A 
ATOM     44  C   UNL A   1      39.503  28.826  28.934  1.00  0.00     0.049 A 
ATOM     45  N   UNL A   1      42.193  29.005  30.260  1.00  0.00    -0.248 NA
ATOM     46  C   UNL A   1      42.694  26.882  29.425  1.00  0.00     0.031 C 
ATOM     47  C   UNL A   1      38.168  28.789  28.337  1.00  0.00     0.029 A 
ATOM     48  N   UNL A   1      39.554  30.044  29.564  1.00  0.00    -0.354 N 
ATOM     49  C   UNL A   1      43.453  28.624  30.701  1.00  0.00     0.074 A 
ATOM     50  C   UNL A   1      43.688  27.285  30.203  1.00  0.00     0.031 C 
ATOM     51  C   UNL A   1      37.535  29.941  28.607  1.00  0.00     0.029 A 
ATOM     52  C   UNL A   1      38.405  30.783  29.423  1.00  0.00     0.049 A 
ATOM     53  H   UNL A   1      40.337  30.359  30.070  1.00  0.00     0.167 HD
ATOM     54  C   UNL A   1      44.344  29.327  31.442  1.00  0.00     0.031 A 
ATOM     55  C   UNL A   1      38.085  32.002  29.897  1.00  0.00     0.031 A 
ATOM     56  C   UNL A   1      44.121  30.662  31.930  1.00  0.00     0.049 A 
ATOM     57  C   UNL A   1      39.084  32.761  30.724  1.00  0.00     0.074 A 
ATOM     58  C   UNL A   1      44.988  31.479  32.634  1.00  0.00     0.029 A 
ATOM     59  N   UNL A   1      42.944  31.374  31.765  1.00  0.00    -0.354 N 
ATOM     60  N   UNL A   1      40.296  32.410  31.080  1.00  0.00    -0.248 NA
ATOM     61  C   UNL A   1      38.672  34.087  31.205  1.00  0.00     0.031 C 
ATOM     62  C   UNL A   1      44.318  32.672  32.933  1.00  0.00     0.029 A 
ATOM     63  C   UNL A   1      43.051  32.613  32.375  1.00  0.00     0.049 A 
ATOM     64  H   UNL A   1      42.148  31.048  31.285  1.00  0.00     0.167 HD
ATOM     65  C   UNL A   1      40.801  33.480  31.807  1.00  0.00     0.074 A 
ATOM     66  C   UNL A   1      39.768  34.496  31.831  1.00  0.00     0.031 C 
ATOM     67  C   UNL A   1      42.013  33.611  32.397  1.00  0.00     0.031 A 
BRANCH  54  68
ATOM     68  C   UNL A   1      45.641  28.646  31.780  1.00  0.00    -0.014 A 
ATOM     69  C   UNL A   1      45.790  27.910  32.967  1.00  0.00     0.009 A 
ATOM     70  C   UNL A   1      46.726  28.733  30.894  1.00  0.00     0.009 A 
ATOM     71  C   UNL A   1      47.013  27.314  33.281  1.00  0.00     0.001 A 
ATOM     72  C   UNL A   1      47.940  28.113  31.197  1.00  0.00     0.001 A 
ATOM     73  C   UNL A   1      48.086  27.415  32.395  1.00  0.00     0.000 A 
ENDBRANCH  54  68
BRANCH  55  74
ATOM     74  C   UNL A   1      36.763  32.596  29.573  1.00  0.00    -0.014 A 
ATOM     75  C   UNL A   1      35.699  32.485  30.480  1.00  0.00     0.009 A 
ATOM     76  C   UNL A   1      36.564  33.288  28.370  1.00  0.00     0.009 A 
ATOM     77  C   UNL A   1      34.454  33.042  30.179  1.00  0.00     0.001 A 
ATOM     78  C   UNL A   1      35.324  33.864  28.082  1.00  0.00     0.001 A 
ATOM     79  C   UNL A   1      34.269  33.735  28.984  1.00  0.00     0.000 A 
ENDBRANCH  55  74
BRANCH  67  80
ATOM     80  C   UNL A   1      42.298  34.907  33.097  1.00  0.00    -0.014 A 
ATOM     81  C   UNL A   1      41.807  35.159  34.387  1.00  0.00     0.009 A 
ATOM     82  C   UNL A   1      43.099  35.875  32.470  1.00  0.00     0.009 A 
ATOM     83  C   UNL A   1      42.090  36.369  35.025  1.00  0.00     0.001 A 
ATOM     84  C   UNL A   1      43.399  37.073  33.120  1.00  0.00     0.001 A 
ATOM     85  C   UNL A   1      42.888  37.323  34.392  1.00  0.00     0.000 A 
ENDBRANCH  67  80
ENDBRANCH  41  42
ENDBRANCH  33  36
ENDBRANCH  31  32
ENDBRANCH  30  31
ENDBRANCH  29  30
ENDBRANCH   1  29
TORSDOF 16
ENDMDL
MODEL 3
REMARK VINA RESULT:     -11.6      1.961      7.611
REMARK SMILES COc1ccc2ncc(C(=O)NCCCCCCNC(=O)c3ccc(-c4c5nc(c(-c6ccccc6)c6ccc([nH]6)c(-c6ccccc6)c6nc(c(-c7ccccc7)c7ccc4[nH]7)C=C6)C=C5)cc3)c(Nc3ccccc3C)c2c1
REMARK SMILES IDX 15 1 14 2 13 3 12 4 10 5 11 6 9 8 3 9 4 10 80 11 5 12 79 13
REMARK SMILES IDX 6 14 70 15 7 16 8 17 2 18 1 19 71 20 72 22 73 23 77 24 74 25
REMARK SMILES IDX 76 26 78 27 75 28 16 29 17 30 18 31 19 32 20 33 21 35 22 36
REMARK SMILES IDX 23 37 69 38 24 39 68 40 25 41 26 42 27 43 62 44 28 45 67 46
REMARK SMILES IDX 61 47 63 48 29 49 66 50 60 51 59 52 30 54 52 55 37 56 51 57
REMARK SMILES IDX 38 58 41 59 50 60 64 61 39 62 40 63 49 65 65 66 42 67 31 68
REMARK SMILES IDX 32 69 36 70 33 71 35 72 34 73 53 74 54 75 58 76 55 77 57 78
REMARK SMILES IDX 56 79 43 80 44 81 48 82 45 83 47 84 46 85
REMARK H PARENT 12 7 71 21 19 34 63 53 41 64
REMARK Flexibility Score: inf
ROOT
ATOM      1  C   UNL A   1      35.352  20.367  25.224  1.00  0.00     0.002 C 
ENDROOT
BRANCH   1   2
ATOM      2  C   UNL A   1      33.936  20.217  24.666  1.00  0.00     0.021 C 
BRANCH   2   3
ATOM      3  C   UNL A   1      32.779  20.785  25.481  1.00  0.00     0.116 C 
BRANCH   3   4
ATOM      4  N   UNL A   1      33.121  21.296  26.794  1.00  0.00    -0.352 N 
ATOM      5  C   UNL A   1      32.716  22.457  27.425  1.00  0.00     0.254 C 
ATOM      6  O   UNL A   1      32.753  22.497  28.653  1.00  0.00    -0.269 OA
ATOM      7  H   UNL A   1      33.736  20.730  27.314  1.00  0.00     0.163 HD
BRANCH   5   8
ATOM      8  C   UNL A   1      32.178  23.615  26.672  1.00  0.00     0.082 A 
ATOM      9  C   UNL A   1      32.268  28.049  24.571  1.00  0.00     0.119 A 
ATOM     10  C   UNL A   1      30.882  28.034  24.573  1.00  0.00     0.048 A 
ATOM     11  C   UNL A   1      32.970  26.917  24.990  1.00  0.00     0.059 A 
ATOM     12  C   UNL A   1      30.214  26.925  25.089  1.00  0.00     0.033 A 
ATOM     13  C   UNL A   1      32.307  25.787  25.545  1.00  0.00     0.028 A 
ATOM     14  C   UNL A   1      30.895  25.835  25.611  1.00  0.00     0.073 A 
ATOM     15  C   UNL A   1      32.968  24.618  26.072  1.00  0.00     0.063 A 
ATOM     16  N   UNL A   1      30.160  24.883  26.189  1.00  0.00    -0.255 NA
ATOM     17  C   UNL A   1      30.813  23.842  26.750  1.00  0.00     0.127 A 
BRANCH   9  18
ATOM     18  O   UNL A   1      33.011  29.122  24.161  1.00  0.00    -0.497 OA
ATOM     19  C   UNL A   1      33.668  28.908  22.910  1.00  0.00     0.278 C 
ENDBRANCH   9  18
BRANCH  15  20
ATOM     20  N   UNL A   1      34.386  24.555  25.939  1.00  0.00    -0.354 N 
ATOM     21  H   UNL A   1      34.874  25.027  26.652  1.00  0.00     0.167 HD
BRANCH  20  22
ATOM     22  C   UNL A   1      35.222  23.944  24.983  1.00  0.00     0.041 A 
ATOM     23  C   UNL A   1      34.649  23.624  23.736  1.00  0.00     0.026 A 
ATOM     24  C   UNL A   1      36.593  23.702  25.178  1.00  0.00    -0.028 A 
ATOM     25  C   UNL A   1      35.417  23.111  22.691  1.00  0.00     0.002 A 
ATOM     26  C   UNL A   1      37.360  23.195  24.109  1.00  0.00     0.005 A 
ATOM     27  C   UNL A   1      37.292  23.940  26.487  1.00  0.00     0.046 C 
ATOM     28  C   UNL A   1      36.777  22.905  22.876  1.00  0.00     0.000 A 
ENDBRANCH  20  22
ENDBRANCH  15  20
ENDBRANCH   5   8
ENDBRANCH   3   4
ENDBRANCH   2   3
ENDBRANCH   1   2
BRANCH   1  29
ATOM     29  C   UNL A   1      36.367  19.266  24.907  1.00  0.00     0.002 C 
BRANCH  29  30
ATOM     30  C   UNL A   1      37.786  19.701  24.538  1.00  0.00     0.021 C 
BRANCH  30  31
ATOM     31  C   UNL A   1      38.717  20.046  25.694  1.00  0.00     0.116 C 
BRANCH  31  32
ATOM     32  N   UNL A   1      39.905  19.212  25.743  1.00  0.00    -0.352 N 
ATOM     33  C   UNL A   1      41.195  19.540  26.088  1.00  0.00     0.251 C 
ATOM     34  H   UNL A   1      39.766  18.271  25.491  1.00  0.00     0.163 HD
ATOM     35  O   UNL A   1      42.093  18.716  25.955  1.00  0.00    -0.269 OA
BRANCH  33  36
ATOM     36  C   UNL A   1      41.519  20.894  26.599  1.00  0.00     0.039 A 
ATOM     37  C   UNL A   1      41.420  21.131  27.975  1.00  0.00     0.014 A 
ATOM     38  C   UNL A   1      41.887  21.931  25.740  1.00  0.00     0.014 A 
ATOM     39  C   UNL A   1      41.749  22.387  28.492  1.00  0.00     0.010 A 
ATOM     40  C   UNL A   1      42.274  23.165  26.262  1.00  0.00     0.010 A 
ATOM     41  C   UNL A   1      42.206  23.407  27.643  1.00  0.00    -0.014 A 
BRANCH  41  42
ATOM     42  C   UNL A   1      42.611  24.731  28.180  1.00  0.00     0.031 A 
ATOM     43  C   UNL A   1      41.586  25.810  28.393  1.00  0.00     0.074 A 
ATOM     44  C   UNL A   1      43.912  24.986  28.420  1.00  0.00     0.049 A 
ATOM     45  N   UNL A   1      41.756  27.042  28.805  1.00  0.00    -0.248 NA
ATOM     46  C   UNL A   1      40.190  25.466  28.082  1.00  0.00     0.031 C 
ATOM     47  C   UNL A   1      45.012  24.040  28.226  1.00  0.00     0.029 A 
ATOM     48  N   UNL A   1      44.527  26.124  28.877  1.00  0.00    -0.354 N 
ATOM     49  C   UNL A   1      40.495  27.625  28.781  1.00  0.00     0.074 A 
ATOM     50  C   UNL A   1      39.578  26.626  28.275  1.00  0.00     0.031 C 
ATOM     51  C   UNL A   1      46.164  24.627  28.587  1.00  0.00     0.029 A 
ATOM     52  C   UNL A   1      45.889  26.000  29.003  1.00  0.00     0.049 A 
ATOM     53  H   UNL A   1      44.040  26.952  29.093  1.00  0.00     0.167 HD
ATOM     54  C   UNL A   1      40.128  28.873  29.158  1.00  0.00     0.031 A 
ATOM     55  C   UNL A   1      46.815  26.889  29.408  1.00  0.00     0.031 A 
ATOM     56  C   UNL A   1      41.034  29.866  29.672  1.00  0.00     0.049 A 
ATOM     57  C   UNL A   1      46.387  28.271  29.815  1.00  0.00     0.074 A 
ATOM     58  C   UNL A   1      40.746  31.136  30.141  1.00  0.00     0.029 A 
ATOM     59  N   UNL A   1      42.405  29.698  29.784  1.00  0.00    -0.354 N 
ATOM     60  N   UNL A   1      45.182  28.785  29.843  1.00  0.00    -0.248 NA
ATOM     61  C   UNL A   1      47.448  29.189  30.251  1.00  0.00     0.031 C 
ATOM     62  C   UNL A   1      41.951  31.755  30.495  1.00  0.00     0.029 A 
ATOM     63  C   UNL A   1      42.982  30.852  30.290  1.00  0.00     0.049 A 
ATOM     64  H   UNL A   1      42.896  28.881  29.539  1.00  0.00     0.167 HD
ATOM     65  C   UNL A   1      45.336  30.080  30.324  1.00  0.00     0.074 A 
ATOM     66  C   UNL A   1      46.750  30.267  30.582  1.00  0.00     0.031 C 
ATOM     67  C   UNL A   1      44.390  31.026  30.536  1.00  0.00     0.031 A 
BRANCH  54  68
ATOM     68  C   UNL A   1      38.676  29.233  29.010  1.00  0.00    -0.014 A 
ATOM     69  C   UNL A   1      37.778  29.092  30.080  1.00  0.00     0.009 A 
ATOM     70  C   UNL A   1      38.202  29.731  27.786  1.00  0.00     0.009 A 
ATOM     71  C   UNL A   1      36.426  29.398  29.914  1.00  0.00     0.001 A 
ATOM     72  C   UNL A   1      36.854  30.061  27.631  1.00  0.00     0.001 A 
ATOM     73  C   UNL A   1      35.966  29.884  28.690  1.00  0.00     0.000 A 
ENDBRANCH  54  68
BRANCH  55  74
ATOM     74  C   UNL A   1      48.243  26.486  29.480  1.00  0.00    -0.014 A 
ATOM     75  C   UNL A   1      49.094  26.711  28.387  1.00  0.00     0.009 A 
ATOM     76  C   UNL A   1      48.764  25.894  30.639  1.00  0.00     0.009 A 
ATOM     77  C   UNL A   1      50.438  26.334  28.450  1.00  0.00     0.001 A 
ATOM     78  C   UNL A   1      50.113  25.539  30.707  1.00  0.00     0.001 A 
ATOM     79  C   UNL A   1      50.947  25.754  29.611  1.00  0.00     0.000 A 
ENDBRANCH  55  74
BRANCH  67  80
ATOM     80  C   UNL A   1      44.849  32.340  31.097  1.00  0.00    -0.014 A 
ATOM     81  C   UNL A   1      45.217  33.401  30.255  1.00  0.00     0.009 A 
ATOM     82  C   UNL A   1      44.880  32.530  32.488  1.00  0.00     0.009 A 
ATOM     83  C   UNL A   1      45.634  34.619  30.797  1.00  0.00     0.001 A 
ATOM     84  C   UNL A   1      45.274  33.755  33.025  1.00  0.00     0.001 A 
ATOM     85  C   UNL A   1      45.659  34.795  32.181  1.00  0.00     0.000 A 
ENDBRANCH  67  80
ENDBRANCH  41  42
ENDBRANCH  33  36
ENDBRANCH  31  32
ENDBRANCH  30  31
ENDBRANCH  29  30
ENDBRANCH   1  29
TORSDOF 16
ENDMDL
