MODEL 1
REMARK VINA RESULT:     -11.0      0.000      0.000
REMARK SMILES NS(=O)(=O)c1ccc(/N=C/c2ccc(O)c(C(=O)NCCCCCCNC(=O)c3ccc(-c4c5nc(c(-c6ccccc6)c6ccc([nH]6)c(-c6ccccc6)c6nc(c(-c7ccccc7)c7ccc4[nH]7)C=C6)C=C5)cc3)c2)cc1
REMARK SMILES IDX 21 1 20 2 19 3 17 4 18 5 16 7 11 8 12 9 77 10 13 11 14 12
REMARK SMILES IDX 10 13 9 14 8 15 5 16 6 17 79 18 7 19 78 20 2 21 3 22 4 23
REMARK SMILES IDX 1 24 15 27 22 29 23 30 24 31 25 32 26 33 27 34 28 36 29 37
REMARK SMILES IDX 30 38 76 39 31 40 75 41 32 42 33 43 34 44 69 45 35 46 74 47
REMARK SMILES IDX 68 48 70 49 36 50 73 51 67 52 66 53 37 55 59 56 44 57 58 58
REMARK SMILES IDX 45 59 48 60 57 61 71 62 46 63 47 64 56 66 72 67 49 68 38 69
REMARK SMILES IDX 39 70 43 71 40 72 42 73 41 74 60 75 61 76 65 77 62 78 64 79
REMARK SMILES IDX 63 80 50 81 51 82 55 83 52 84 54 85 53 86
REMARK H PARENT 19 6 1 25 1 26 15 28 26 35 70 54 48 65
REMARK Flexibility Score: inf
ROOT
ATOM      1  C   UNL A   1      33.458  26.440  26.094  1.00  0.00     0.021 C 
ENDROOT
BRANCH   1   2
ATOM      2  C   UNL A   1      32.045  25.911  26.310  1.00  0.00     0.116 C 
BRANCH   2   3
ATOM      3  N   UNL A   1      30.998  26.713  25.699  1.00  0.00    -0.352 N 
ATOM      4  C   UNL A   1      30.643  26.867  24.377  1.00  0.00     0.255 C 
ATOM      5  O   UNL A   1      29.750  27.667  24.086  1.00  0.00    -0.269 OA
ATOM      6  H   UNL A   1      30.454  27.232  26.335  1.00  0.00     0.163 HD
BRANCH   4   7
ATOM      7  C   UNL A   1      31.347  26.174  23.266  1.00  0.00     0.082 A 
ATOM      8  C   UNL A   1      32.240  24.155  22.266  1.00  0.00    -0.006 A 
ATOM      9  C   UNL A   1      32.969  24.904  21.344  1.00  0.00     0.013 A 
ATOM     10  C   UNL A   1      31.364  24.784  23.158  1.00  0.00     0.027 A 
ATOM     11  C   UNL A   1      32.849  26.296  21.351  1.00  0.00     0.047 A 
ATOM     12  C   UNL A   1      32.057  26.924  22.317  1.00  0.00     0.128 A 
BRANCH   8  13
ATOM     13  C   UNL A   1      32.511  22.711  22.437  1.00  0.00     0.119 C 
ATOM     14  N   UNL A   1      32.415  22.179  23.612  1.00  0.00    -0.256 NA
BRANCH  14  15
ATOM     15  C   UNL A   1      32.802  20.849  23.825  1.00  0.00     0.063 A 
ATOM     16  C   UNL A   1      33.318  18.131  24.278  1.00  0.00     0.082 A 
ATOM     17  C   UNL A   1      32.543  18.514  23.182  1.00  0.00     0.024 A 
ATOM     18  C   UNL A   1      33.838  19.089  25.150  1.00  0.00     0.024 A 
ATOM     19  C   UNL A   1      32.285  19.872  22.966  1.00  0.00     0.030 A 
ATOM     20  C   UNL A   1      33.567  20.443  24.926  1.00  0.00     0.030 A 
BRANCH  16  21
ATOM     21  S   UNL A   1      33.658  16.414  24.540  1.00  0.00     0.238 S 
ATOM     22  O   UNL A   1      34.045  15.810  23.290  1.00  0.00    -0.207 OA
ATOM     23  O   UNL A   1      32.619  15.865  25.384  1.00  0.00    -0.207 OA
BRANCH  21  24
ATOM     24  N   UNL A   1      35.054  16.458  25.473  1.00  0.00    -0.225 NA
ATOM     25  H   UNL A   1      35.820  16.021  24.960  1.00  0.00     0.137 HD
ATOM     26  H   UNL A   1      34.896  15.950  26.344  1.00  0.00     0.137 HD
ENDBRANCH  21  24
ENDBRANCH  16  21
ENDBRANCH  14  15
ENDBRANCH   8  13
BRANCH  12  27
ATOM     27  O   UNL A   1      32.038  28.294  22.285  1.00  0.00    -0.507 OA
ATOM     28  H   UNL A   1      31.332  28.743  21.865  1.00  0.00     0.293 HD
ENDBRANCH  12  27
ENDBRANCH   4   7
ENDBRANCH   2   3
ENDBRANCH   1   2
BRANCH   1  29
ATOM     29  C   UNL A   1      34.400  25.576  25.257  1.00  0.00     0.002 C 
BRANCH  29  30
ATOM     30  C   UNL A   1      34.529  24.107  25.665  1.00  0.00     0.002 C 
BRANCH  30  31
ATOM     31  C   UNL A   1      35.905  23.647  26.148  1.00  0.00     0.021 C 
BRANCH  31  32
ATOM     32  C   UNL A   1      37.018  23.642  25.105  1.00  0.00     0.116 C 
BRANCH  32  33
ATOM     33  N   UNL A   1      38.098  22.727  25.428  1.00  0.00    -0.352 N 
ATOM     34  C   UNL A   1      39.266  22.955  26.115  1.00  0.00     0.251 C 
ATOM     35  H   UNL A   1      37.975  21.806  25.107  1.00  0.00     0.163 HD
ATOM     36  O   UNL A   1      40.123  22.077  26.174  1.00  0.00    -0.269 OA
BRANCH  34  37
ATOM     37  C   UNL A   1      39.515  24.262  26.761  1.00  0.00     0.039 A 
ATOM     38  C   UNL A   1      39.044  24.467  28.063  1.00  0.00     0.014 A 
ATOM     39  C   UNL A   1      40.186  25.290  26.093  1.00  0.00     0.014 A 
ATOM     40  C   UNL A   1      39.303  25.674  28.716  1.00  0.00     0.010 A 
ATOM     41  C   UNL A   1      40.502  26.467  26.768  1.00  0.00     0.010 A 
ATOM     42  C   UNL A   1      40.064  26.672  28.085  1.00  0.00    -0.014 A 
BRANCH  42  43
ATOM     43  C   UNL A   1      40.421  27.927  28.792  1.00  0.00     0.031 A 
ATOM     44  C   UNL A   1      41.751  28.062  29.480  1.00  0.00     0.074 A 
ATOM     45  C   UNL A   1      39.515  28.919  28.884  1.00  0.00     0.049 A 
ATOM     46  N   UNL A   1      42.209  29.054  30.203  1.00  0.00    -0.248 NA
ATOM     47  C   UNL A   1      42.673  26.923  29.366  1.00  0.00     0.031 C 
ATOM     48  C   UNL A   1      38.172  28.897  28.301  1.00  0.00     0.029 A 
ATOM     49  N   UNL A   1      39.586  30.138  29.512  1.00  0.00    -0.354 N 
ATOM     50  C   UNL A   1      43.463  28.649  30.645  1.00  0.00     0.074 A 
ATOM     51  C   UNL A   1      43.671  27.307  30.148  1.00  0.00     0.031 C 
ATOM     52  C   UNL A   1      37.552  30.053  28.583  1.00  0.00     0.029 A 
ATOM     53  C   UNL A   1      38.437  30.883  29.396  1.00  0.00     0.049 A 
ATOM     54  H   UNL A   1      40.383  30.449  29.999  1.00  0.00     0.167 HD
ATOM     55  C   UNL A   1      44.365  29.338  31.386  1.00  0.00     0.031 A 
ATOM     56  C   UNL A   1      38.122  32.092  29.896  1.00  0.00     0.031 A 
ATOM     57  C   UNL A   1      44.162  30.679  31.868  1.00  0.00     0.049 A 
ATOM     58  C   UNL A   1      39.137  32.838  30.714  1.00  0.00     0.074 A 
ATOM     59  C   UNL A   1      45.046  31.489  32.559  1.00  0.00     0.029 A 
ATOM     60  N   UNL A   1      42.991  31.404  31.715  1.00  0.00    -0.354 N 
ATOM     61  N   UNL A   1      40.349  32.474  31.057  1.00  0.00    -0.248 NA
ATOM     62  C   UNL A   1      38.743  34.166  31.206  1.00  0.00     0.031 C 
ATOM     63  C   UNL A   1      44.389  32.682  32.878  1.00  0.00     0.029 A 
ATOM     64  C   UNL A   1      43.115  32.637  32.335  1.00  0.00     0.049 A 
ATOM     65  H   UNL A   1      42.190  31.091  31.238  1.00  0.00     0.167 HD
ATOM     66  C   UNL A   1      40.869  33.533  31.789  1.00  0.00     0.074 A 
ATOM     67  C   UNL A   1      39.848  34.561  31.825  1.00  0.00     0.031 C 
ATOM     68  C   UNL A   1      42.084  33.643  32.380  1.00  0.00     0.031 A 
BRANCH  55  69
ATOM     69  C   UNL A   1      45.647  28.636  31.739  1.00  0.00    -0.014 A 
ATOM     70  C   UNL A   1      45.777  27.900  32.928  1.00  0.00     0.009 A 
ATOM     71  C   UNL A   1      46.737  28.695  30.857  1.00  0.00     0.009 A 
ATOM     72  C   UNL A   1      46.987  27.280  33.249  1.00  0.00     0.001 A 
ATOM     73  C   UNL A   1      47.936  28.049  31.166  1.00  0.00     0.001 A 
ATOM     74  C   UNL A   1      48.064  27.353  32.367  1.00  0.00     0.000 A 
ENDBRANCH  55  69
BRANCH  56  75
ATOM     75  C   UNL A   1      36.782  32.672  29.626  1.00  0.00    -0.014 A 
ATOM     76  C   UNL A   1      35.734  32.504  30.543  1.00  0.00     0.009 A 
ATOM     77  C   UNL A   1      36.552  33.418  28.460  1.00  0.00     0.009 A 
ATOM     78  C   UNL A   1      34.477  33.061  30.291  1.00  0.00     0.001 A 
ATOM     79  C   UNL A   1      35.302  33.996  28.223  1.00  0.00     0.001 A 
ATOM     80  C   UNL A   1      34.265  33.811  29.135  1.00  0.00     0.000 A 
ENDBRANCH  56  75
BRANCH  68  81
ATOM     81  C   UNL A   1      42.379  34.924  33.109  1.00  0.00    -0.014 A 
ATOM     82  C   UNL A   1      41.945  35.125  34.429  1.00  0.00     0.009 A 
ATOM     83  C   UNL A   1      43.136  35.926  32.481  1.00  0.00     0.009 A 
ATOM     84  C   UNL A   1      42.238  36.318  35.094  1.00  0.00     0.001 A 
ATOM     85  C   UNL A   1      43.451  37.104  33.159  1.00  0.00     0.001 A 
ATOM     86  C   UNL A   1      42.995  37.303  34.461  1.00  0.00     0.000 A 
ENDBRANCH  68  81
ENDBRANCH  42  43
ENDBRANCH  34  37
ENDBRANCH  32  33
ENDBRANCH  31  32
ENDBRANCH  30  31
ENDBRANCH  29  30
ENDBRANCH   1  29
TORSDOF 18
ENDMDL
MODEL 2
REMARK VINA RESULT:     -11.0      4.136      9.047
REMARK SMILES NS(=O)(=O)c1ccc(/N=C/c2ccc(O)c(C(=O)NCCCCCCNC(=O)c3ccc(-c4c5nc(c(-c6ccccc6)c6ccc([nH]6)c(-c6ccccc6)c6nc(c(-c7ccccc7)c7ccc4[nH]7)C=C6)C=C5)cc3)c2)cc1
REMARK SMILES IDX 21 1 20 2 19 3 17 4 18 5 16 7 11 8 12 9 77 10 13 11 14 12
REMARK SMILES IDX 10 13 9 14 8 15 5 16 6 17 79 18 7 19 78 20 2 21 3 22 4 23
REMARK SMILES IDX 1 24 15 27 22 29 23 30 24 31 25 32 26 33 27 34 28 36 29 37
REMARK SMILES IDX 30 38 76 39 31 40 75 41 32 42 33 43 34 44 69 45 35 46 74 47
REMARK SMILES IDX 68 48 70 49 36 50 73 51 67 52 66 53 37 55 59 56 44 57 58 58
REMARK SMILES IDX 45 59 48 60 57 61 71 62 46 63 47 64 56 66 72 67 49 68 38 69
REMARK SMILES IDX 39 70 43 71 40 72 42 73 41 74 60 75 61 76 65 77 62 78 64 79
REMARK SMILES IDX 63 80 50 81 51 82 55 83 52 84 54 85 53 86
REMARK H PARENT 19 6 1 25 1 26 15 28 26 35 70 54 48 65
REMARK Flexibility Score: inf
ROOT
ATOM      1  C   UNL A   1      34.191  21.294  25.915  1.00  0.00     0.021 C 
ENDROOT
BRANCH   1   2
ATOM      2  C   UNL A   1      33.020  22.028  25.272  1.00  0.00     0.116 C 
BRANCH   2   3
ATOM      3  N   UNL A   1      32.015  22.502  26.210  1.00  0.00    -0.352 N 
ATOM      4  C   UNL A   1      31.350  23.706  26.278  1.00  0.00     0.255 C 
ATOM      5  O   UNL A   1      30.576  23.910  27.218  1.00  0.00    -0.269 OA
ATOM      6  H   UNL A   1      31.770  21.855  26.911  1.00  0.00     0.163 HD
BRANCH   4   7
ATOM      7  C   UNL A   1      31.584  24.813  25.315  1.00  0.00     0.082 A 
ATOM      8  C   UNL A   1      32.334  27.066  24.829  1.00  0.00    -0.006 A 
ATOM      9  C   UNL A   1      31.718  27.028  23.579  1.00  0.00     0.013 A 
ATOM     10  C   UNL A   1      32.344  25.933  25.649  1.00  0.00     0.027 A 
ATOM     11  C   UNL A   1      31.073  25.858  23.173  1.00  0.00     0.047 A 
ATOM     12  C   UNL A   1      30.993  24.766  24.043  1.00  0.00     0.128 A 
BRANCH   8  13
ATOM     13  C   UNL A   1      32.825  28.347  25.380  1.00  0.00     0.119 C 
ATOM     14  N   UNL A   1      32.113  28.979  26.258  1.00  0.00    -0.256 NA
BRANCH  14  15
ATOM     15  C   UNL A   1      32.487  30.258  26.690  1.00  0.00     0.063 A 
ATOM     16  C   UNL A   1      33.244  32.718  27.802  1.00  0.00     0.082 A 
ATOM     17  C   UNL A   1      34.088  31.613  27.928  1.00  0.00     0.024 A 
ATOM     18  C   UNL A   1      32.026  32.608  27.127  1.00  0.00     0.024 A 
ATOM     19  C   UNL A   1      33.701  30.388  27.375  1.00  0.00     0.030 A 
ATOM     20  C   UNL A   1      31.648  31.375  26.585  1.00  0.00     0.030 A 
BRANCH  16  21
ATOM     21  S   UNL A   1      33.743  34.272  28.486  1.00  0.00     0.238 S 
ATOM     22  O   UNL A   1      34.698  34.042  29.541  1.00  0.00    -0.207 OA
ATOM     23  O   UNL A   1      32.565  35.092  28.665  1.00  0.00    -0.207 OA
BRANCH  21  24
ATOM     24  N   UNL A   1      34.615  34.961  27.227  1.00  0.00    -0.225 NA
ATOM     25  H   UNL A   1      35.592  34.674  27.293  1.00  0.00     0.137 HD
ATOM     26  H   UNL A   1      34.554  35.977  27.288  1.00  0.00     0.137 HD
ENDBRANCH  21  24
ENDBRANCH  16  21
ENDBRANCH  14  15
ENDBRANCH   8  13
BRANCH  12  27
ATOM     27  O   UNL A   1      30.296  23.678  23.585  1.00  0.00    -0.507 OA
ATOM     28  H   UNL A   1      29.484  23.439  23.987  1.00  0.00     0.293 HD
ENDBRANCH  12  27
ENDBRANCH   4   7
ENDBRANCH   2   3
ENDBRANCH   1   2
BRANCH   1  29
ATOM     29  C   UNL A   1      35.074  20.457  24.989  1.00  0.00     0.002 C 
BRANCH  29  30
ATOM     30  C   UNL A   1      36.525  20.913  24.826  1.00  0.00     0.002 C 
BRANCH  30  31
ATOM     31  C   UNL A   1      37.606  19.845  25.001  1.00  0.00     0.021 C 
BRANCH  31  32
ATOM     32  C   UNL A   1      38.845  20.265  25.785  1.00  0.00     0.116 C 
BRANCH  32  33
ATOM     33  N   UNL A   1      39.875  19.241  25.811  1.00  0.00    -0.352 N 
ATOM     34  C   UNL A   1      41.222  19.356  26.056  1.00  0.00     0.251 C 
ATOM     35  H   UNL A   1      39.561  18.328  25.625  1.00  0.00     0.163 HD
ATOM     36  O   UNL A   1      41.958  18.385  25.904  1.00  0.00    -0.269 OA
BRANCH  34  37
ATOM     37  C   UNL A   1      41.801  20.651  26.476  1.00  0.00     0.039 A 
ATOM     38  C   UNL A   1      42.198  21.560  25.489  1.00  0.00     0.014 A 
ATOM     39  C   UNL A   1      41.974  20.968  27.827  1.00  0.00     0.014 A 
ATOM     40  C   UNL A   1      42.705  22.808  25.855  1.00  0.00     0.010 A 
ATOM     41  C   UNL A   1      42.418  22.238  28.191  1.00  0.00     0.010 A 
ATOM     42  C   UNL A   1      42.788  23.171  27.210  1.00  0.00    -0.014 A 
BRANCH  42  43
ATOM     43  C   UNL A   1      43.245  24.523  27.616  1.00  0.00     0.031 A 
ATOM     44  C   UNL A   1      42.251  25.571  28.031  1.00  0.00     0.074 A 
ATOM     45  C   UNL A   1      44.553  24.834  27.537  1.00  0.00     0.049 A 
ATOM     46  N   UNL A   1      42.458  26.825  28.351  1.00  0.00    -0.248 NA
ATOM     47  C   UNL A   1      40.837  25.168  28.059  1.00  0.00     0.031 C 
ATOM     48  C   UNL A   1      45.616  23.923  27.106  1.00  0.00     0.029 A 
ATOM     49  N   UNL A   1      45.210  26.009  27.807  1.00  0.00    -0.354 N 
ATOM     50  C   UNL A   1      41.201  27.362  28.599  1.00  0.00     0.074 A 
ATOM     51  C   UNL A   1      40.237  26.314  28.347  1.00  0.00     0.031 C 
ATOM     52  C   UNL A   1      46.793  24.567  27.158  1.00  0.00     0.029 A 
ATOM     53  C   UNL A   1      46.566  25.943  27.589  1.00  0.00     0.049 A 
ATOM     54  H   UNL A   1      44.755  26.821  28.126  1.00  0.00     0.167 HD
ATOM     55  C   UNL A   1      40.879  28.612  29.014  1.00  0.00     0.031 A 
ATOM     56  C   UNL A   1      47.519  26.885  27.710  1.00  0.00     0.031 A 
ATOM     57  C   UNL A   1      41.840  29.650  29.278  1.00  0.00     0.049 A 
ATOM     58  C   UNL A   1      47.140  28.263  28.170  1.00  0.00     0.074 A 
ATOM     59  C   UNL A   1      41.618  30.923  29.776  1.00  0.00     0.029 A 
ATOM     60  N   UNL A   1      43.204  29.538  29.061  1.00  0.00    -0.354 N 
ATOM     61  N   UNL A   1      45.955  28.733  28.477  1.00  0.00    -0.248 NA
ATOM     62  C   UNL A   1      48.232  29.237  28.311  1.00  0.00     0.031 C 
ATOM     63  C   UNL A   1      42.841  31.602  29.801  1.00  0.00     0.029 A 
ATOM     64  C   UNL A   1      43.832  30.733  29.374  1.00  0.00     0.049 A 
ATOM     65  H   UNL A   1      43.659  28.731  28.732  1.00  0.00     0.167 HD
ATOM     66  C   UNL A   1      46.159  30.051  28.863  1.00  0.00     0.074 A 
ATOM     67  C   UNL A   1      47.584  30.300  28.769  1.00  0.00     0.031 C 
ATOM     68  C   UNL A   1      45.248  30.973  29.259  1.00  0.00     0.031 A 
BRANCH  55  69
ATOM     69  C   UNL A   1      39.418  28.927  29.182  1.00  0.00    -0.014 A 
ATOM     70  C   UNL A   1      38.650  29.432  28.120  1.00  0.00     0.009 A 
ATOM     71  C   UNL A   1      38.796  28.697  30.419  1.00  0.00     0.009 A 
ATOM     72  C   UNL A   1      37.301  29.745  28.308  1.00  0.00     0.001 A 
ATOM     73  C   UNL A   1      37.441  28.982  30.595  1.00  0.00     0.001 A 
ATOM     74  C   UNL A   1      36.698  29.517  29.544  1.00  0.00     0.000 A 
ENDBRANCH  55  69
BRANCH  56  75
ATOM     75  C   UNL A   1      48.930  26.546  27.392  1.00  0.00    -0.014 A 
ATOM     76  C   UNL A   1      49.783  26.043  28.385  1.00  0.00     0.009 A 
ATOM     77  C   UNL A   1      49.423  26.702  26.088  1.00  0.00     0.009 A 
ATOM     78  C   UNL A   1      51.108  25.715  28.080  1.00  0.00     0.001 A 
ATOM     79  C   UNL A   1      50.738  26.349  25.780  1.00  0.00     0.001 A 
ATOM     80  C   UNL A   1      51.581  25.863  26.777  1.00  0.00     0.000 A 
ENDBRANCH  56  75
BRANCH  68  81
ATOM     81  C   UNL A   1      45.765  32.336  29.628  1.00  0.00    -0.014 A 
ATOM     82  C   UNL A   1      46.188  32.621  30.936  1.00  0.00     0.009 A 
ATOM     83  C   UNL A   1      45.867  33.333  28.646  1.00  0.00     0.009 A 
ATOM     84  C   UNL A   1      46.676  33.890  31.258  1.00  0.00     0.001 A 
ATOM     85  C   UNL A   1      46.382  34.590  28.966  1.00  0.00     0.001 A 
ATOM     86  C   UNL A   1      46.777  34.871  30.272  1.00  0.00     0.000 A 
ENDBRANCH  68  81
ENDBRANCH  42  43
ENDBRANCH  34  37
ENDBRANCH  32  33
ENDBRANCH  31  32
ENDBRANCH  30  31
ENDBRANCH  29  30
ENDBRANCH   1  29
TORSDOF 18
ENDMDL
MODEL 3
REMARK VINA RESULT:     -10.9      3.929      7.076
REMARK SMILES NS(=O)(=O)c1ccc(/N=C/c2ccc(O)c(C(=O)NCCCCCCNC(=O)c3ccc(-c4c5nc(c(-c6ccccc6)c6ccc([nH]6)c(-c6ccccc6)c6nc(c(-c7ccccc7)c7ccc4[nH]7)C=C6)C=C5)cc3)c2)cc1
REMARK SMILES IDX 21 1 20 2 19 3 17 4 18 5 16 7 11 8 12 9 77 10 13 11 14 12
REMARK SMILES IDX 10 13 9 14 8 15 5 16 6 17 79 18 7 19 78 20 2 21 3 22 4 23
REMARK SMILES IDX 1 24 15 27 22 29 23 30 24 31 25 32 26 33 27 34 28 36 29 37
REMARK SMILES IDX 30 38 76 39 31 40 75 41 32 42 33 43 34 44 69 45 35 46 74 47
REMARK SMILES IDX 68 48 70 49 36 50 73 51 67 52 66 53 37 55 59 56 44 57 58 58
REMARK SMILES IDX 45 59 48 60 57 61 71 62 46 63 47 64 56 66 72 67 49 68 38 69
REMARK SMILES IDX 39 70 43 71 40 72 42 73 41 74 60 75 61 76 65 77 62 78 64 79
REMARK SMILES IDX 63 80 50 81 51 82 55 83 52 84 54 85 53 86
REMARK H PARENT 19 6 1 25 1 26 15 28 26 35 70 54 48 65
REMARK Flexibility Score: inf
ROOT
ATOM      1  C   UNL A   1      35.064  22.192  25.745  1.00  0.00     0.021 C 
ENDROOT
BRANCH   1   2
ATOM      2  C   UNL A   1      33.650  22.470  25.246  1.00  0.00     0.116 C 
BRANCH   2   3
ATOM      3  N   UNL A   1      32.631  22.465  26.282  1.00  0.00    -0.352 N 
ATOM      4  C   UNL A   1      31.689  23.413  26.618  1.00  0.00     0.255 C 
ATOM      5  O   UNL A   1      30.962  23.215  27.594  1.00  0.00    -0.269 OA
ATOM      6  H   UNL A   1      32.611  21.651  26.836  1.00  0.00     0.163 HD
BRANCH   4   7
ATOM      7  C   UNL A   1      31.562  24.712  25.906  1.00  0.00     0.082 A 
ATOM      8  C   UNL A   1      31.778  27.125  25.862  1.00  0.00    -0.006 A 
ATOM      9  C   UNL A   1      31.011  27.197  24.700  1.00  0.00     0.013 A 
ATOM     10  C   UNL A   1      32.127  25.884  26.405  1.00  0.00     0.027 A 
ATOM     11  C   UNL A   1      30.557  26.016  24.110  1.00  0.00     0.047 A 
ATOM     12  C   UNL A   1      30.817  24.785  24.719  1.00  0.00     0.128 A 
BRANCH   8  13
ATOM     13  C   UNL A   1      32.081  28.349  26.634  1.00  0.00     0.119 C 
ATOM     14  N   UNL A   1      31.903  29.509  26.087  1.00  0.00    -0.256 NA
BRANCH  14  15
ATOM     15  C   UNL A   1      32.315  30.676  26.743  1.00  0.00     0.063 A 
ATOM     16  C   UNL A   1      33.141  33.130  27.817  1.00  0.00     0.082 A 
ATOM     17  C   UNL A   1      31.927  33.048  27.134  1.00  0.00     0.024 A 
ATOM     18  C   UNL A   1      33.948  32.001  27.970  1.00  0.00     0.024 A 
ATOM     19  C   UNL A   1      31.524  31.822  26.596  1.00  0.00     0.030 A 
ATOM     20  C   UNL A   1      33.536  30.781  27.421  1.00  0.00     0.030 A 
BRANCH  16  21
ATOM     21  S   UNL A   1      33.642  34.679  28.512  1.00  0.00     0.238 S 
ATOM     22  O   UNL A   1      34.558  34.438  29.599  1.00  0.00    -0.207 OA
ATOM     23  O   UNL A   1      32.473  35.518  28.649  1.00  0.00    -0.207 OA
BRANCH  21  24
ATOM     24  N   UNL A   1      34.567  35.349  27.281  1.00  0.00    -0.225 NA
ATOM     25  H   UNL A   1      34.979  34.602  26.720  1.00  0.00     0.137 HD
ATOM     26  H   UNL A   1      35.309  35.919  27.685  1.00  0.00     0.137 HD
ENDBRANCH  21  24
ENDBRANCH  16  21
ENDBRANCH  14  15
ENDBRANCH   8  13
BRANCH  12  27
ATOM     27  O   UNL A   1      30.290  23.681  24.101  1.00  0.00    -0.507 OA
ATOM     28  H   UNL A   1      29.738  23.782  23.351  1.00  0.00     0.293 HD
ENDBRANCH  12  27
ENDBRANCH   4   7
ENDBRANCH   2   3
ENDBRANCH   1   2
BRANCH   1  29
ATOM     29  C   UNL A   1      35.780  20.980  25.152  1.00  0.00     0.002 C 
BRANCH  29  30
ATOM     30  C   UNL A   1      37.262  21.154  24.813  1.00  0.00     0.002 C 
BRANCH  30  31
ATOM     31  C   UNL A   1      38.164  19.937  25.024  1.00  0.00     0.021 C 
BRANCH  31  32
ATOM     32  C   UNL A   1      39.210  20.059  26.126  1.00  0.00     0.116 C 
BRANCH  32  33
ATOM     33  N   UNL A   1      40.380  19.230  25.895  1.00  0.00    -0.352 N 
ATOM     34  C   UNL A   1      41.713  19.553  25.963  1.00  0.00     0.251 C 
ATOM     35  H   UNL A   1      40.188  18.296  25.652  1.00  0.00     0.163 HD
ATOM     36  O   UNL A   1      42.560  18.740  25.602  1.00  0.00    -0.269 OA
BRANCH  34  37
ATOM     37  C   UNL A   1      42.140  20.886  26.442  1.00  0.00     0.039 A 
ATOM     38  C   UNL A   1      42.609  21.816  25.508  1.00  0.00     0.014 A 
ATOM     39  C   UNL A   1      42.100  21.220  27.799  1.00  0.00     0.014 A 
ATOM     40  C   UNL A   1      42.976  23.097  25.925  1.00  0.00     0.010 A 
ATOM     41  C   UNL A   1      42.402  22.518  28.204  1.00  0.00     0.010 A 
ATOM     42  C   UNL A   1      42.843  23.470  27.272  1.00  0.00    -0.014 A 
BRANCH  42  43
ATOM     43  C   UNL A   1      43.147  24.852  27.720  1.00  0.00     0.031 A 
ATOM     44  C   UNL A   1      44.569  25.290  27.930  1.00  0.00     0.074 A 
ATOM     45  C   UNL A   1      42.136  25.692  28.015  1.00  0.00     0.049 A 
ATOM     46  N   UNL A   1      45.023  26.433  28.382  1.00  0.00    -0.248 NA
ATOM     47  C   UNL A   1      45.617  24.306  27.621  1.00  0.00     0.031 C 
ATOM     48  C   UNL A   1      40.711  25.377  27.899  1.00  0.00     0.029 A 
ATOM     49  N   UNL A   1      42.155  26.983  28.483  1.00  0.00    -0.354 N 
ATOM     50  C   UNL A   1      46.405  26.297  28.429  1.00  0.00     0.074 A 
ATOM     51  C   UNL A   1      46.710  24.948  28.005  1.00  0.00     0.031 C 
ATOM     52  C   UNL A   1      39.993  26.450  28.268  1.00  0.00     0.029 A 
ATOM     53  C   UNL A   1      40.903  27.514  28.682  1.00  0.00     0.049 A 
ATOM     54  H   UNL A   1      42.986  27.481  28.660  1.00  0.00     0.167 HD
ATOM     55  C   UNL A   1      47.337  27.216  28.780  1.00  0.00     0.031 A 
ATOM     56  C   UNL A   1      40.526  28.716  29.154  1.00  0.00     0.031 A 
ATOM     57  C   UNL A   1      47.033  28.562  29.189  1.00  0.00     0.049 A 
ATOM     58  C   UNL A   1      41.576  29.720  29.537  1.00  0.00     0.074 A 
ATOM     59  C   UNL A   1      47.910  29.590  29.488  1.00  0.00     0.029 A 
ATOM     60  N   UNL A   1      45.753  29.066  29.361  1.00  0.00    -0.354 N 
ATOM     61  N   UNL A   1      42.881  29.603  29.500  1.00  0.00    -0.248 NA
ATOM     62  C   UNL A   1      41.099  31.025  30.016  1.00  0.00     0.031 C 
ATOM     63  C   UNL A   1      47.161  30.698  29.902  1.00  0.00     0.029 A 
ATOM     64  C   UNL A   1      45.817  30.377  29.803  1.00  0.00     0.049 A 
ATOM     65  H   UNL A   1      44.922  28.566  29.194  1.00  0.00     0.167 HD
ATOM     66  C   UNL A   1      43.382  30.822  29.935  1.00  0.00     0.074 A 
ATOM     67  C   UNL A   1      42.241  31.671  30.212  1.00  0.00     0.031 C 
ATOM     68  C   UNL A   1      44.673  31.204  30.093  1.00  0.00     0.031 A 
BRANCH  55  69
ATOM     69  C   UNL A   1      48.776  26.781  28.759  1.00  0.00    -0.014 A 
ATOM     70  C   UNL A   1      49.572  26.933  27.612  1.00  0.00     0.009 A 
ATOM     71  C   UNL A   1      49.351  26.227  29.914  1.00  0.00     0.009 A 
ATOM     72  C   UNL A   1      50.899  26.494  27.608  1.00  0.00     0.001 A 
ATOM     73  C   UNL A   1      50.686  25.817  29.916  1.00  0.00     0.001 A 
ATOM     74  C   UNL A   1      51.455  25.939  28.759  1.00  0.00     0.000 A 
ENDBRANCH  55  69
BRANCH  56  75
ATOM     75  C   UNL A   1      39.081  29.034  29.282  1.00  0.00    -0.014 A 
ATOM     76  C   UNL A   1      38.413  28.839  30.499  1.00  0.00     0.009 A 
ATOM     77  C   UNL A   1      38.369  29.558  28.192  1.00  0.00     0.009 A 
ATOM     78  C   UNL A   1      37.055  29.149  30.619  1.00  0.00     0.001 A 
ATOM     79  C   UNL A   1      37.019  29.893  28.322  1.00  0.00     0.001 A 
ATOM     80  C   UNL A   1      36.363  29.682  29.533  1.00  0.00     0.000 A 
ENDBRANCH  56  75
BRANCH  68  81
ATOM     81  C   UNL A   1      44.921  32.605  30.579  1.00  0.00    -0.014 A 
ATOM     82  C   UNL A   1      45.057  32.885  31.948  1.00  0.00     0.009 A 
ATOM     83  C   UNL A   1      45.058  33.651  29.652  1.00  0.00     0.009 A 
ATOM     84  C   UNL A   1      45.297  34.192  32.380  1.00  0.00     0.001 A 
ATOM     85  C   UNL A   1      45.326  34.950  30.087  1.00  0.00     0.001 A 
ATOM     86  C   UNL A   1      45.437  35.221  31.450  1.00  0.00     0.000 A 
ENDBRANCH  68  81
ENDBRANCH  42  43
ENDBRANCH  34  37
ENDBRANCH  32  33
ENDBRANCH  31  32
ENDBRANCH  30  31
ENDBRANCH  29  30
ENDBRANCH   1  29
TORSDOF 18
ENDMDL
