MODEL 1
REMARK VINA RESULT:     -10.4      0.000      0.000
REMARK SMILES C[C@@H](Nc1ccc(C(=O)NCCCCCCNC(=O)c2ccc(-c3c4nc(c(-c5ccccc5)c5ccc([nH]5)c(-c5ccccc5)c5nc(c(-c6ccccc6)c6ccc3[nH]6)C=C5)C=C4)cc2)cc1)C1CC[NH+](C)CC1
REMARK SMILES IDX 13 1 12 2 11 3 10 4 8 5 9 6 7 8 4 9 5 10 69 11 6 12 68 13
REMARK SMILES IDX 3 14 2 16 1 17 70 18 71 19 76 20 72 21 75 22 73 23 74 24
REMARK SMILES IDX 14 26 15 27 16 28 17 29 18 30 19 32 20 33 21 34 67 35 22 36
REMARK SMILES IDX 66 37 23 38 24 39 25 40 60 41 26 42 65 43 59 44 61 45 27 46
REMARK SMILES IDX 64 47 58 48 57 49 28 51 50 52 35 53 49 54 36 55 39 56 48 57
REMARK SMILES IDX 62 58 37 59 38 60 47 62 63 63 40 64 29 65 30 66 34 67 31 68
REMARK SMILES IDX 33 69 32 70 51 71 52 72 56 73 53 74 55 75 54 76 41 77 42 78
REMARK SMILES IDX 46 79 43 80 45 81 44 82
REMARK H PARENT 10 7 3 15 73 25 17 31 61 50 39 61
REMARK Flexibility Score: inf
ROOT
ATOM      1  C   UNL A   1      34.386  25.270  25.371  1.00  0.00     0.002 C 
ENDROOT
BRANCH   1   2
ATOM      2  C   UNL A   1      34.020  26.723  25.033  1.00  0.00     0.021 C 
BRANCH   2   3
ATOM      3  C   UNL A   1      33.022  27.334  26.020  1.00  0.00     0.116 C 
BRANCH   3   4
ATOM      4  N   UNL A   1      31.814  27.716  25.315  1.00  0.00    -0.352 N 
ATOM      5  C   UNL A   1      30.833  26.974  24.711  1.00  0.00     0.251 C 
ATOM      6  O   UNL A   1      29.925  27.568  24.132  1.00  0.00    -0.269 OA
ATOM      7  H   UNL A   1      31.674  28.688  25.258  1.00  0.00     0.163 HD
BRANCH   5   8
ATOM      8  C   UNL A   1      30.773  25.497  24.833  1.00  0.00     0.039 A 
ATOM      9  C   UNL A   1      30.996  22.740  25.365  1.00  0.00     0.034 A 
ATOM     10  C   UNL A   1      30.579  23.630  26.359  1.00  0.00     0.026 A 
ATOM     11  C   UNL A   1      31.160  23.232  24.068  1.00  0.00     0.026 A 
ATOM     12  C   UNL A   1      30.478  24.995  26.103  1.00  0.00     0.016 A 
ATOM     13  C   UNL A   1      31.025  24.599  23.795  1.00  0.00     0.016 A 
BRANCH   9  14
ATOM     14  N   UNL A   1      31.363  21.471  25.759  1.00  0.00    -0.382 N 
ATOM     15  H   UNL A   1      30.633  20.839  25.945  1.00  0.00     0.160 HD
BRANCH  14  16
ATOM     16  C   UNL A   1      32.730  20.966  25.929  1.00  0.00     0.079 C 
ATOM     17  C   UNL A   1      33.436  21.986  26.832  1.00  0.00     0.031 C 
BRANCH  16  18
ATOM     18  C   UNL A   1      33.437  20.688  24.555  1.00  0.00     0.022 C 
ATOM     19  C   UNL A   1      32.513  19.971  23.559  1.00  0.00     0.067 C 
ATOM     20  C   UNL A   1      34.792  19.966  24.593  1.00  0.00     0.067 C 
ATOM     21  C   UNL A   1      32.417  18.472  23.810  1.00  0.00     0.262 C 
ATOM     22  C   UNL A   1      34.699  18.442  24.704  1.00  0.00     0.262 C 
ATOM     23  N   UNL A   1      33.737  17.839  23.774  1.00  0.00    -0.337 N 
ATOM     24  C   UNL A   1      33.609  16.404  24.047  1.00  0.00     0.332 C 
ATOM     25  H   UNL A   1      34.107  17.988  22.836  1.00  0.00     0.347 HD
ENDBRANCH  16  18
ENDBRANCH  14  16
ENDBRANCH   9  14
ENDBRANCH   5   8
ENDBRANCH   3   4
ENDBRANCH   2   3
ENDBRANCH   1   2
BRANCH   1  26
ATOM     26  C   UNL A   1      34.725  24.395  24.158  1.00  0.00     0.002 C 
BRANCH  26  27
ATOM     27  C   UNL A   1      35.934  23.475  24.347  1.00  0.00     0.021 C 
BRANCH  27  28
ATOM     28  C   UNL A   1      36.654  23.650  25.679  1.00  0.00     0.116 C 
BRANCH  28  29
ATOM     29  N   UNL A   1      37.659  22.619  25.889  1.00  0.00    -0.352 N 
ATOM     30  C   UNL A   1      38.954  22.744  26.325  1.00  0.00     0.251 C 
ATOM     31  H   UNL A   1      37.368  21.700  25.690  1.00  0.00     0.163 HD
ATOM     32  O   UNL A   1      39.730  21.801  26.236  1.00  0.00    -0.269 OA
BRANCH  30  33
ATOM     33  C   UNL A   1      39.416  24.028  26.894  1.00  0.00     0.039 A 
ATOM     34  C   UNL A   1      40.050  24.949  26.056  1.00  0.00     0.014 A 
ATOM     35  C   UNL A   1      39.247  24.311  28.252  1.00  0.00     0.014 A 
ATOM     36  C   UNL A   1      40.473  26.174  26.572  1.00  0.00     0.010 A 
ATOM     37  C   UNL A   1      39.605  25.562  28.749  1.00  0.00     0.010 A 
ATOM     38  C   UNL A   1      40.232  26.501  27.916  1.00  0.00    -0.014 A 
BRANCH  38  39
ATOM     39  C   UNL A   1      40.643  27.814  28.471  1.00  0.00     0.031 A 
ATOM     40  C   UNL A   1      42.072  28.050  28.877  1.00  0.00     0.074 A 
ATOM     41  C   UNL A   1      39.720  28.778  28.657  1.00  0.00     0.049 A 
ATOM     42  N   UNL A   1      42.612  29.114  29.415  1.00  0.00    -0.248 NA
ATOM     43  C   UNL A   1      43.013  26.936  28.674  1.00  0.00     0.031 C 
ATOM     44  C   UNL A   1      38.295  28.661  28.342  1.00  0.00     0.029 A 
ATOM     45  N   UNL A   1      39.845  30.048  29.162  1.00  0.00    -0.354 N 
ATOM     46  C   UNL A   1      43.947  28.792  29.629  1.00  0.00     0.074 A 
ATOM     47  C   UNL A   1      44.124  27.420  29.210  1.00  0.00     0.031 C 
ATOM     48  C   UNL A   1      37.684  29.821  28.633  1.00  0.00     0.029 A 
ATOM     49  C   UNL A   1      38.664  30.748  29.190  1.00  0.00     0.049 A 
ATOM     50  H   UNL A   1      40.701  30.422  29.475  1.00  0.00     0.167 HD
ATOM     51  C   UNL A   1      44.942  29.575  30.111  1.00  0.00     0.031 A 
ATOM     52  C   UNL A   1      38.399  31.996  29.619  1.00  0.00     0.031 A 
ATOM     53  C   UNL A   1      44.769  30.944  30.515  1.00  0.00     0.049 A 
ATOM     54  C   UNL A   1      39.519  32.841  30.158  1.00  0.00     0.074 A 
ATOM     55  C   UNL A   1      45.727  31.837  30.963  1.00  0.00     0.029 A 
ATOM     56  N   UNL A   1      43.558  31.618  30.520  1.00  0.00    -0.354 N 
ATOM     57  N   UNL A   1      40.789  32.545  30.288  1.00  0.00    -0.248 NA
ATOM     58  C   UNL A   1      39.169  34.200  30.598  1.00  0.00     0.031 C 
ATOM     59  C   UNL A   1      45.086  33.038  31.286  1.00  0.00     0.029 A 
ATOM     60  C   UNL A   1      43.739  32.909  30.986  1.00  0.00     0.049 A 
ATOM     61  H   UNL A   1      42.697  31.235  30.235  1.00  0.00     0.167 HD
ATOM     62  C   UNL A   1      41.394  33.687  30.797  1.00  0.00     0.074 A 
ATOM     63  C   UNL A   1      40.355  34.686  30.936  1.00  0.00     0.031 C 
ATOM     64  C   UNL A   1      42.695  33.891  31.118  1.00  0.00     0.031 A 
BRANCH  51  65
ATOM     65  C   UNL A   1      46.308  28.962  30.232  1.00  0.00    -0.014 A 
ATOM     66  C   UNL A   1      47.235  29.036  29.180  1.00  0.00     0.009 A 
ATOM     67  C   UNL A   1      46.689  28.331  31.428  1.00  0.00     0.009 A 
ATOM     68  C   UNL A   1      48.502  28.462  29.309  1.00  0.00     0.001 A 
ATOM     69  C   UNL A   1      47.966  27.783  31.565  1.00  0.00     0.001 A 
ATOM     70  C   UNL A   1      48.868  27.841  30.503  1.00  0.00     0.000 A 
ENDBRANCH  51  65
BRANCH  52  71
ATOM     71  C   UNL A   1      37.015  32.534  29.539  1.00  0.00    -0.014 A 
ATOM     72  C   UNL A   1      36.125  32.369  30.612  1.00  0.00     0.009 A 
ATOM     73  C   UNL A   1      36.573  33.203  28.387  1.00  0.00     0.009 A 
ATOM     74  C   UNL A   1      34.813  32.837  30.521  1.00  0.00     0.001 A 
ATOM     75  C   UNL A   1      35.269  33.696  28.312  1.00  0.00     0.001 A 
ATOM     76  C   UNL A   1      34.387  33.504  29.373  1.00  0.00     0.000 A 
ENDBRANCH  52  71
BRANCH  64  77
ATOM     77  C   UNL A   1      43.074  35.256  31.619  1.00  0.00    -0.014 A 
ATOM     78  C   UNL A   1      43.023  35.572  32.984  1.00  0.00     0.009 A 
ATOM     79  C   UNL A   1      43.526  36.227  30.711  1.00  0.00     0.009 A 
ATOM     80  C   UNL A   1      43.389  36.845  33.428  1.00  0.00     0.001 A 
ATOM     81  C   UNL A   1      43.918  37.488  31.159  1.00  0.00     0.001 A 
ATOM     82  C   UNL A   1      43.840  37.799  32.516  1.00  0.00     0.000 A 
ENDBRANCH  64  77
ENDBRANCH  38  39
ENDBRANCH  30  33
ENDBRANCH  28  29
ENDBRANCH  27  28
ENDBRANCH  26  27
ENDBRANCH   1  26
TORSDOF 16
ENDMDL
MODEL 2
REMARK VINA RESULT:     -10.4      2.752      7.428
REMARK SMILES C[C@@H](Nc1ccc(C(=O)NCCCCCCNC(=O)c2ccc(-c3c4nc(c(-c5ccccc5)c5ccc([nH]5)c(-c5ccccc5)c5nc(c(-c6ccccc6)c6ccc3[nH]6)C=C5)C=C4)cc2)cc1)C1CC[NH+](C)CC1
REMARK SMILES IDX 13 1 12 2 11 3 10 4 8 5 9 6 7 8 4 9 5 10 69 11 6 12 68 13
REMARK SMILES IDX 3 14 2 16 1 17 70 18 71 19 76 20 72 21 75 22 73 23 74 24
REMARK SMILES IDX 14 26 15 27 16 28 17 29 18 30 19 32 20 33 21 34 67 35 22 36
REMARK SMILES IDX 66 37 23 38 24 39 25 40 60 41 26 42 65 43 59 44 61 45 27 46
REMARK SMILES IDX 64 47 58 48 57 49 28 51 50 52 35 53 49 54 36 55 39 56 48 57
REMARK SMILES IDX 62 58 37 59 38 60 47 62 63 63 40 64 29 65 30 66 34 67 31 68
REMARK SMILES IDX 33 69 32 70 51 71 52 72 56 73 53 74 55 75 54 76 41 77 42 78
REMARK SMILES IDX 46 79 43 80 45 81 44 82
REMARK H PARENT 10 7 3 15 73 25 17 31 61 50 39 61
REMARK Flexibility Score: inf
ROOT
ATOM      1  C   UNL A   1      32.747  30.150  26.191  1.00  0.00     0.002 C 
ENDROOT
BRANCH   1   2
ATOM      2  C   UNL A   1      32.808  28.812  25.438  1.00  0.00     0.021 C 
BRANCH   2   3
ATOM      3  C   UNL A   1      33.083  28.980  23.942  1.00  0.00     0.116 C 
BRANCH   3   4
ATOM      4  N   UNL A   1      31.825  29.097  23.229  1.00  0.00    -0.352 N 
ATOM      5  C   UNL A   1      31.093  28.188  22.511  1.00  0.00     0.251 C 
ATOM      6  O   UNL A   1      30.064  28.575  21.958  1.00  0.00    -0.269 OA
ATOM      7  H   UNL A   1      31.425  29.995  23.267  1.00  0.00     0.163 HD
BRANCH   5   8
ATOM      8  C   UNL A   1      31.437  26.745  22.478  1.00  0.00     0.039 A 
ATOM      9  C   UNL A   1      32.199  24.060  22.855  1.00  0.00     0.034 A 
ATOM     10  C   UNL A   1      31.089  24.590  23.520  1.00  0.00     0.026 A 
ATOM     11  C   UNL A   1      32.830  24.854  21.893  1.00  0.00     0.026 A 
ATOM     12  C   UNL A   1      30.716  25.920  23.345  1.00  0.00     0.016 A 
ATOM     13  C   UNL A   1      32.438  26.182  21.686  1.00  0.00     0.016 A 
BRANCH   9  14
ATOM     14  N   UNL A   1      32.688  22.850  23.296  1.00  0.00    -0.382 N 
ATOM     15  H   UNL A   1      32.271  22.042  22.919  1.00  0.00     0.160 HD
BRANCH  14  16
ATOM     16  C   UNL A   1      33.767  22.641  24.269  1.00  0.00     0.079 C 
ATOM     17  C   UNL A   1      33.095  22.706  25.647  1.00  0.00     0.031 C 
BRANCH  16  18
ATOM     18  C   UNL A   1      34.959  23.641  24.059  1.00  0.00     0.022 C 
ATOM     19  C   UNL A   1      36.060  23.053  23.164  1.00  0.00     0.067 C 
ATOM     20  C   UNL A   1      35.601  24.246  25.316  1.00  0.00     0.067 C 
ATOM     21  C   UNL A   1      36.990  22.106  23.910  1.00  0.00     0.262 C 
ATOM     22  C   UNL A   1      36.643  23.350  25.993  1.00  0.00     0.262 C 
ATOM     23  N   UNL A   1      37.613  22.764  25.061  1.00  0.00    -0.337 N 
ATOM     24  C   UNL A   1      38.477  21.815  25.770  1.00  0.00     0.332 C 
ATOM     25  H   UNL A   1      38.166  23.536  24.692  1.00  0.00     0.347 HD
ENDBRANCH  16  18
ENDBRANCH  14  16
ENDBRANCH   9  14
ENDBRANCH   5   8
ENDBRANCH   3   4
ENDBRANCH   2   3
ENDBRANCH   1   2
BRANCH   1  26
ATOM     26  C   UNL A   1      31.359  30.801  26.230  1.00  0.00     0.002 C 
BRANCH  26  27
ATOM     27  C   UNL A   1      31.358  32.292  26.576  1.00  0.00     0.021 C 
BRANCH  27  28
ATOM     28  C   UNL A   1      32.643  32.786  27.232  1.00  0.00     0.116 C 
BRANCH  28  29
ATOM     29  N   UNL A   1      32.475  34.105  27.823  1.00  0.00    -0.352 N 
ATOM     30  C   UNL A   1      33.183  34.698  28.837  1.00  0.00     0.251 C 
ATOM     31  H   UNL A   1      31.750  34.649  27.439  1.00  0.00     0.163 HD
ATOM     32  O   UNL A   1      32.770  35.727  29.360  1.00  0.00    -0.269 OA
BRANCH  30  33
ATOM     33  C   UNL A   1      34.443  34.087  29.309  1.00  0.00     0.039 A 
ATOM     34  C   UNL A   1      34.412  33.254  30.430  1.00  0.00     0.014 A 
ATOM     35  C   UNL A   1      35.653  34.353  28.662  1.00  0.00     0.014 A 
ATOM     36  C   UNL A   1      35.589  32.651  30.875  1.00  0.00     0.010 A 
ATOM     37  C   UNL A   1      36.813  33.695  29.064  1.00  0.00     0.010 A 
ATOM     38  C   UNL A   1      36.794  32.847  30.181  1.00  0.00    -0.014 A 
BRANCH  38  39
ATOM     39  C   UNL A   1      38.047  32.184  30.621  1.00  0.00     0.031 A 
ATOM     40  C   UNL A   1      38.886  32.798  31.707  1.00  0.00     0.074 A 
ATOM     41  C   UNL A   1      38.456  31.057  30.006  1.00  0.00     0.049 A 
ATOM     42  N   UNL A   1      40.029  32.389  32.198  1.00  0.00    -0.248 NA
ATOM     43  C   UNL A   1      38.389  34.048  32.306  1.00  0.00     0.031 C 
ATOM     44  C   UNL A   1      37.753  30.383  28.913  1.00  0.00     0.029 A 
ATOM     45  N   UNL A   1      39.568  30.280  30.215  1.00  0.00    -0.354 N 
ATOM     46  C   UNL A   1      40.393  33.337  33.147  1.00  0.00     0.074 A 
ATOM     47  C   UNL A   1      39.377  34.366  33.128  1.00  0.00     0.031 C 
ATOM     48  C   UNL A   1      38.435  29.280  28.567  1.00  0.00     0.029 A 
ATOM     49  C   UNL A   1      39.640  29.188  29.386  1.00  0.00     0.049 A 
ATOM     50  H   UNL A   1      40.250  30.487  30.895  1.00  0.00     0.167 HD
ATOM     51  C   UNL A   1      41.465  33.341  33.974  1.00  0.00     0.031 A 
ATOM     52  C   UNL A   1      40.574  28.223  29.292  1.00  0.00     0.031 A 
ATOM     53  C   UNL A   1      42.468  32.311  34.003  1.00  0.00     0.049 A 
ATOM     54  C   UNL A   1      41.758  28.254  30.216  1.00  0.00     0.074 A 
ATOM     55  C   UNL A   1      43.561  32.195  34.844  1.00  0.00     0.029 A 
ATOM     56  N   UNL A   1      42.499  31.218  33.152  1.00  0.00    -0.354 N 
ATOM     57  N   UNL A   1      42.051  29.121  31.155  1.00  0.00    -0.248 NA
ATOM     58  C   UNL A   1      42.736  27.166  30.075  1.00  0.00     0.031 C 
ATOM     59  C   UNL A   1      44.282  31.056  34.469  1.00  0.00     0.029 A 
ATOM     60  C   UNL A   1      43.606  30.434  33.431  1.00  0.00     0.049 A 
ATOM     61  H   UNL A   1      41.834  31.026  32.452  1.00  0.00     0.167 HD
ATOM     62  C   UNL A   1      43.229  28.668  31.735  1.00  0.00     0.074 A 
ATOM     63  C   UNL A   1      43.588  27.441  31.053  1.00  0.00     0.031 C 
ATOM     64  C   UNL A   1      43.948  29.216  32.743  1.00  0.00     0.031 A 
BRANCH  51  65
ATOM     65  C   UNL A   1      41.609  34.503  34.916  1.00  0.00    -0.014 A 
ATOM     66  C   UNL A   1      42.327  35.653  34.549  1.00  0.00     0.009 A 
ATOM     67  C   UNL A   1      40.989  34.464  36.175  1.00  0.00     0.009 A 
ATOM     68  C   UNL A   1      42.451  36.725  35.436  1.00  0.00     0.001 A 
ATOM     69  C   UNL A   1      41.089  35.549  37.049  1.00  0.00     0.001 A 
ATOM     70  C   UNL A   1      41.828  36.674  36.682  1.00  0.00     0.000 A 
ENDBRANCH  51  65
BRANCH  52  71
ATOM     71  C   UNL A   1      40.418  27.129  28.297  1.00  0.00    -0.014 A 
ATOM     72  C   UNL A   1      40.974  27.250  27.014  1.00  0.00     0.009 A 
ATOM     73  C   UNL A   1      39.704  25.965  28.620  1.00  0.00     0.009 A 
ATOM     74  C   UNL A   1      40.793  26.241  26.066  1.00  0.00     0.001 A 
ATOM     75  C   UNL A   1      39.549  24.945  27.679  1.00  0.00     0.001 A 
ATOM     76  C   UNL A   1      40.084  25.087  26.400  1.00  0.00     0.000 A 
ENDBRANCH  52  71
BRANCH  64  77
ATOM     77  C   UNL A   1      45.176  28.477  33.194  1.00  0.00    -0.014 A 
ATOM     78  C   UNL A   1      45.108  27.487  34.186  1.00  0.00     0.009 A 
ATOM     79  C   UNL A   1      46.412  28.749  32.586  1.00  0.00     0.009 A 
ATOM     80  C   UNL A   1      46.261  26.806  34.583  1.00  0.00     0.001 A 
ATOM     81  C   UNL A   1      47.557  28.047  32.964  1.00  0.00     0.001 A 
ATOM     82  C   UNL A   1      47.482  27.083  33.968  1.00  0.00     0.000 A 
ENDBRANCH  64  77
ENDBRANCH  38  39
ENDBRANCH  30  33
ENDBRANCH  28  29
ENDBRANCH  27  28
ENDBRANCH  26  27
ENDBRANCH   1  26
TORSDOF 16
ENDMDL
MODEL 3
REMARK VINA RESULT:     -10.2      2.811      6.914
REMARK SMILES C[C@@H](Nc1ccc(C(=O)NCCCCCCNC(=O)c2ccc(-c3c4nc(c(-c5ccccc5)c5ccc([nH]5)c(-c5ccccc5)c5nc(c(-c6ccccc6)c6ccc3[nH]6)C=C5)C=C4)cc2)cc1)C1CC[NH+](C)CC1
REMARK SMILES IDX 13 1 12 2 11 3 10 4 8 5 9 6 7 8 4 9 5 10 69 11 6 12 68 13
REMARK SMILES IDX 3 14 2 16 1 17 70 18 71 19 76 20 72 21 75 22 73 23 74 24
REMARK SMILES IDX 14 26 15 27 16 28 17 29 18 30 19 32 20 33 21 34 67 35 22 36
REMARK SMILES IDX 66 37 23 38 24 39 25 40 60 41 26 42 65 43 59 44 61 45 27 46
REMARK SMILES IDX 64 47 58 48 57 49 28 51 50 52 35 53 49 54 36 55 39 56 48 57
REMARK SMILES IDX 62 58 37 59 38 60 47 62 63 63 40 64 29 65 30 66 34 67 31 68
REMARK SMILES IDX 33 69 32 70 51 71 52 72 56 73 53 74 55 75 54 76 41 77 42 78
REMARK SMILES IDX 46 79 43 80 45 81 44 82
REMARK H PARENT 10 7 3 15 73 25 17 31 61 50 39 61
REMARK Flexibility Score: inf
ROOT
ATOM      1  C   UNL A   1      30.796  29.723  24.463  1.00  0.00     0.002 C 
ENDROOT
BRANCH   1   2
ATOM      2  C   UNL A   1      31.614  28.960  23.410  1.00  0.00     0.021 C 
BRANCH   2   3
ATOM      3  C   UNL A   1      30.740  28.219  22.396  1.00  0.00     0.116 C 
BRANCH   3   4
ATOM      4  N   UNL A   1      29.501  27.811  23.030  1.00  0.00    -0.352 N 
ATOM      5  C   UNL A   1      29.186  26.730  23.810  1.00  0.00     0.251 C 
ATOM      6  O   UNL A   1      28.021  26.601  24.184  1.00  0.00    -0.269 OA
ATOM      7  H   UNL A   1      28.748  28.424  22.869  1.00  0.00     0.163 HD
BRANCH   5   8
ATOM      8  C   UNL A   1      30.217  25.786  24.307  1.00  0.00     0.039 A 
ATOM      9  C   UNL A   1      31.836  23.691  25.268  1.00  0.00     0.034 A 
ATOM     10  C   UNL A   1      31.243  23.617  24.004  1.00  0.00     0.026 A 
ATOM     11  C   UNL A   1      31.721  24.889  25.979  1.00  0.00     0.026 A 
ATOM     12  C   UNL A   1      30.434  24.646  23.530  1.00  0.00     0.016 A 
ATOM     13  C   UNL A   1      30.937  25.942  25.492  1.00  0.00     0.016 A 
BRANCH   9  14
ATOM     14  N   UNL A   1      32.364  22.532  25.793  1.00  0.00    -0.382 N 
ATOM     15  H   UNL A   1      31.721  21.841  26.070  1.00  0.00     0.160 HD
BRANCH  14  16
ATOM     16  C   UNL A   1      33.786  22.222  25.983  1.00  0.00     0.079 C 
ATOM     17  C   UNL A   1      34.063  22.458  27.474  1.00  0.00     0.031 C 
BRANCH  16  18
ATOM     18  C   UNL A   1      34.707  23.025  24.998  1.00  0.00     0.022 C 
ATOM     19  C   UNL A   1      35.455  22.106  24.021  1.00  0.00     0.067 C 
ATOM     20  C   UNL A   1      35.701  24.020  25.615  1.00  0.00     0.067 C 
ATOM     21  C   UNL A   1      36.686  21.458  24.638  1.00  0.00     0.262 C 
ATOM     22  C   UNL A   1      37.005  23.390  26.113  1.00  0.00     0.262 C 
ATOM     23  N   UNL A   1      37.619  22.464  25.153  1.00  0.00    -0.337 N 
ATOM     24  C   UNL A   1      38.776  21.804  25.765  1.00  0.00     0.332 C 
ATOM     25  H   UNL A   1      37.913  23.025  24.355  1.00  0.00     0.347 HD
ENDBRANCH  16  18
ENDBRANCH  14  16
ENDBRANCH   9  14
ENDBRANCH   5   8
ENDBRANCH   3   4
ENDBRANCH   2   3
ENDBRANCH   1   2
BRANCH   1  26
ATOM     26  C   UNL A   1      31.559  30.053  25.752  1.00  0.00     0.002 C 
BRANCH  26  27
ATOM     27  C   UNL A   1      31.347  31.474  26.279  1.00  0.00     0.021 C 
BRANCH  27  28
ATOM     28  C   UNL A   1      32.554  32.063  27.001  1.00  0.00     0.116 C 
BRANCH  28  29
ATOM     29  N   UNL A   1      32.341  33.456  27.362  1.00  0.00    -0.352 N 
ATOM     30  C   UNL A   1      33.019  34.232  28.268  1.00  0.00     0.251 C 
ATOM     31  H   UNL A   1      31.605  33.905  26.889  1.00  0.00     0.163 HD
ATOM     32  O   UNL A   1      32.571  35.319  28.610  1.00  0.00    -0.269 OA
BRANCH  30  33
ATOM     33  C   UNL A   1      34.292  33.746  28.842  1.00  0.00     0.039 A 
ATOM     34  C   UNL A   1      34.253  32.898  29.952  1.00  0.00     0.014 A 
ATOM     35  C   UNL A   1      35.518  34.146  28.304  1.00  0.00     0.014 A 
ATOM     36  C   UNL A   1      35.444  32.413  30.492  1.00  0.00     0.010 A 
ATOM     37  C   UNL A   1      36.702  33.606  28.800  1.00  0.00     0.010 A 
ATOM     38  C   UNL A   1      36.677  32.743  29.906  1.00  0.00    -0.014 A 
BRANCH  38  39
ATOM     39  C   UNL A   1      37.951  32.207  30.447  1.00  0.00     0.031 A 
ATOM     40  C   UNL A   1      38.559  30.965  29.859  1.00  0.00     0.074 A 
ATOM     41  C   UNL A   1      38.533  32.811  31.502  1.00  0.00     0.049 A 
ATOM     42  N   UNL A   1      39.643  30.325  30.221  1.00  0.00    -0.248 NA
ATOM     43  C   UNL A   1      37.845  30.344  28.730  1.00  0.00     0.031 C 
ATOM     44  C   UNL A   1      38.023  33.999  32.188  1.00  0.00     0.029 A 
ATOM     45  N   UNL A   1      39.683  32.502  32.184  1.00  0.00    -0.354 N 
ATOM     46  C   UNL A   1      39.729  29.223  29.379  1.00  0.00     0.074 A 
ATOM     47  C   UNL A   1      38.565  29.252  28.522  1.00  0.00     0.031 C 
ATOM     48  C   UNL A   1      38.871  34.335  33.173  1.00  0.00     0.029 A 
ATOM     49  C   UNL A   1      39.962  33.366  33.214  1.00  0.00     0.049 A 
ATOM     50  H   UNL A   1      40.254  31.732  31.956  1.00  0.00     0.167 HD
ATOM     51  C   UNL A   1      40.701  28.282  29.311  1.00  0.00     0.031 A 
ATOM     52  C   UNL A   1      40.980  33.376  34.094  1.00  0.00     0.031 A 
ATOM     53  C   UNL A   1      41.866  28.260  30.153  1.00  0.00     0.049 A 
ATOM     54  C   UNL A   1      42.041  32.316  34.002  1.00  0.00     0.074 A 
ATOM     55  C   UNL A   1      42.935  27.381  30.123  1.00  0.00     0.029 A 
ATOM     56  N   UNL A   1      42.114  29.158  31.179  1.00  0.00    -0.354 N 
ATOM     57  N   UNL A   1      42.144  31.321  33.155  1.00  0.00    -0.248 NA
ATOM     58  C   UNL A   1      43.134  32.388  34.982  1.00  0.00     0.031 C 
ATOM     59  C   UNL A   1      43.807  27.719  31.163  1.00  0.00     0.029 A 
ATOM     60  C   UNL A   1      43.308  28.842  31.805  1.00  0.00     0.049 A 
ATOM     61  H   UNL A   1      41.528  29.910  31.426  1.00  0.00     0.167 HD
ATOM     62  C   UNL A   1      43.325  30.667  33.480  1.00  0.00     0.074 A 
ATOM     63  C   UNL A   1      43.911  31.387  34.592  1.00  0.00     0.031 C 
ATOM     64  C   UNL A   1      43.877  29.569  32.909  1.00  0.00     0.031 A 
BRANCH  51  65
ATOM     65  C   UNL A   1      40.539  27.192  28.288  1.00  0.00    -0.014 A 
ATOM     66  C   UNL A   1      41.053  27.332  26.988  1.00  0.00     0.009 A 
ATOM     67  C   UNL A   1      39.896  25.994  28.637  1.00  0.00     0.009 A 
ATOM     68  C   UNL A   1      40.895  26.310  26.050  1.00  0.00     0.001 A 
ATOM     69  C   UNL A   1      39.766  24.962  27.706  1.00  0.00     0.001 A 
ATOM     70  C   UNL A   1      40.256  25.125  26.411  1.00  0.00     0.000 A 
ENDBRANCH  51  65
BRANCH  52  71
ATOM     71  C   UNL A   1      41.059  34.439  35.131  1.00  0.00    -0.014 A 
ATOM     72  C   UNL A   1      41.732  35.642  34.866  1.00  0.00     0.009 A 
ATOM     73  C   UNL A   1      40.474  34.251  36.392  1.00  0.00     0.009 A 
ATOM     74  C   UNL A   1      41.842  36.623  35.854  1.00  0.00     0.001 A 
ATOM     75  C   UNL A   1      40.560  35.247  37.368  1.00  0.00     0.001 A 
ATOM     76  C   UNL A   1      41.252  36.427  37.103  1.00  0.00     0.000 A 
ENDBRANCH  52  71
BRANCH  64  77
ATOM     77  C   UNL A   1      45.197  29.100  33.452  1.00  0.00    -0.014 A 
ATOM     78  C   UNL A   1      45.266  28.125  34.458  1.00  0.00     0.009 A 
ATOM     79  C   UNL A   1      46.389  29.616  32.920  1.00  0.00     0.009 A 
ATOM     80  C   UNL A   1      46.505  27.697  34.941  1.00  0.00     0.001 A 
ATOM     81  C   UNL A   1      47.626  29.167  33.384  1.00  0.00     0.001 A 
ATOM     82  C   UNL A   1      47.682  28.215  34.401  1.00  0.00     0.000 A 
ENDBRANCH  64  77
ENDBRANCH  38  39
ENDBRANCH  30  33
ENDBRANCH  28  29
ENDBRANCH  27  28
ENDBRANCH  26  27
ENDBRANCH   1  26
TORSDOF 16
ENDMDL
