MODEL 1
REMARK VINA RESULT:     -12.5      0.000      0.000
REMARK SMILES O=C(CCN1C(=O)[C@@H]2[C@@H](C1=O)[C@H]1c3ccccc3[C@]2(Br)c2ccccc21)NCCCCCCNC(=O)c1ccc(-c2c3nc(c(-c4ccccc4)c4ccc([nH]4)c(-c4ccccc4)c4nc(c(-c5ccccc5)c5ccc2[nH]5)C=C4)C=C3)cc1
REMARK SMILES IDX 30 1 29 2 28 3 27 4 1 5 2 6 3 8 4 9 5 10 6 11 10 12 7 13
REMARK SMILES IDX 8 14 9 15 11 16 19 17 12 18 21 19 20 20 18 21 26 22 13 23
REMARK SMILES IDX 22 24 17 25 25 26 14 27 23 28 16 29 24 30 15 31 31 32 32 33
REMARK SMILES IDX 33 34 34 35 35 36 36 38 37 39 38 40 84 41 39 42 83 43 40 44
REMARK SMILES IDX 41 45 42 46 77 47 43 48 82 49 76 50 78 51 44 52 81 53 75 54
REMARK SMILES IDX 74 55 45 57 67 58 52 59 66 60 53 61 56 62 65 63 79 64 54 65
REMARK SMILES IDX 55 66 64 68 80 69 57 70 46 71 47 72 51 73 48 74 50 75 49 76
REMARK SMILES IDX 68 77 69 78 73 79 70 80 72 81 71 82 58 83 59 84 63 85 60 86
REMARK SMILES IDX 62 87 61 88
REMARK H PARENT 27 7 34 37 78 56 56 67
REMARK Flexibility Score: inf
ROOT
ATOM      1  C   UNL A   1      38.695  23.289  26.252  1.00  0.00     0.002 C 
ENDROOT
BRANCH   1   2
ATOM      2  C   UNL A   1      37.424  22.811  25.540  1.00  0.00     0.021 C 
BRANCH   2   3
ATOM      3  C   UNL A   1      36.269  23.813  25.512  1.00  0.00     0.116 C 
BRANCH   3   4
ATOM      4  N   UNL A   1      35.045  23.232  25.001  1.00  0.00    -0.356 N 
ATOM      5  O   UNL A   1      35.697  23.160  22.795  1.00  0.00    -0.275 OA
ATOM      6  C   UNL A   1      34.900  22.877  23.682  1.00  0.00     0.221 C 
ATOM      7  H   UNL A   1      34.293  23.086  25.620  1.00  0.00     0.163 HD
BRANCH   6   8
ATOM      8  C   UNL A   1      33.667  22.046  23.415  1.00  0.00     0.122 C 
BRANCH   8   9
ATOM      9  C   UNL A   1      32.795  22.721  22.359  1.00  0.00     0.138 C 
BRANCH   9  10
ATOM     10  N   UNL A   1      32.320  24.044  22.751  1.00  0.00    -0.281 N 
ATOM     11  C   UNL A   1      32.861  25.245  22.293  1.00  0.00     0.235 C 
ATOM     12  C   UNL A   1      31.308  24.252  23.681  1.00  0.00     0.234 C 
ATOM     13  O   UNL A   1      33.654  25.410  21.384  1.00  0.00    -0.274 OA
ATOM     14  C   UNL A   1      32.386  26.264  23.285  1.00  0.00     0.118 C 
ATOM     15  C   UNL A   1      30.986  25.701  23.539  1.00  0.00     0.105 C 
ATOM     16  O   UNL A   1      30.701  23.429  24.342  1.00  0.00    -0.274 OA
ATOM     17  C   UNL A   1      32.303  27.808  23.295  1.00  0.00     0.088 C 
ATOM     18  C   UNL A   1      30.254  26.612  24.521  1.00  0.00     0.063 C 
ATOM     19  C   UNL A   1      32.299  28.040  24.835  1.00  0.00    -0.022 A 
ATOM     20  Br  UNL A   1      33.803  28.583  22.376  1.00  0.00    -0.074 Br
ATOM     21  C   UNL A   1      30.920  28.375  22.882  1.00  0.00    -0.022 A 
ATOM     22  C   UNL A   1      31.224  27.328  25.483  1.00  0.00    -0.035 A 
ATOM     23  C   UNL A   1      29.818  27.738  23.555  1.00  0.00    -0.035 A 
ATOM     24  C   UNL A   1      33.146  28.855  25.577  1.00  0.00     0.006 A 
ATOM     25  C   UNL A   1      30.662  29.533  22.156  1.00  0.00     0.006 A 
ATOM     26  C   UNL A   1      31.027  27.447  26.851  1.00  0.00     0.005 A 
ATOM     27  C   UNL A   1      28.508  28.176  23.404  1.00  0.00     0.005 A 
ATOM     28  C   UNL A   1      32.935  28.962  26.952  1.00  0.00     0.000 A 
ATOM     29  C   UNL A   1      29.346  29.995  22.042  1.00  0.00     0.000 A 
ATOM     30  C   UNL A   1      31.892  28.265  27.580  1.00  0.00     0.000 A 
ATOM     31  C   UNL A   1      28.277  29.309  22.631  1.00  0.00     0.000 A 
ENDBRANCH   9  10
ENDBRANCH   8   9
ENDBRANCH   6   8
ENDBRANCH   3   4
ENDBRANCH   2   3
ENDBRANCH   1   2
BRANCH   1  32
ATOM     32  C   UNL A   1      39.585  22.189  26.829  1.00  0.00     0.002 C 
BRANCH  32  33
ATOM     33  C   UNL A   1      39.843  20.994  25.914  1.00  0.00     0.021 C 
BRANCH  33  34
ATOM     34  C   UNL A   1      40.740  19.916  26.506  1.00  0.00     0.116 C 
BRANCH  34  35
ATOM     35  N   UNL A   1      42.006  19.750  25.799  1.00  0.00    -0.352 N 
ATOM     36  C   UNL A   1      43.042  20.648  25.666  1.00  0.00     0.251 C 
ATOM     37  H   UNL A   1      42.137  18.880  25.358  1.00  0.00     0.163 HD
ATOM     38  O   UNL A   1      44.008  20.400  24.954  1.00  0.00    -0.269 OA
BRANCH  36  39
ATOM     39  C   UNL A   1      42.960  21.945  26.365  1.00  0.00     0.039 A 
ATOM     40  C   UNL A   1      42.883  23.125  25.626  1.00  0.00     0.014 A 
ATOM     41  C   UNL A   1      43.007  21.985  27.763  1.00  0.00     0.014 A 
ATOM     42  C   UNL A   1      43.031  24.343  26.270  1.00  0.00     0.010 A 
ATOM     43  C   UNL A   1      43.061  23.218  28.417  1.00  0.00     0.010 A 
ATOM     44  C   UNL A   1      43.122  24.404  27.672  1.00  0.00    -0.014 A 
BRANCH  44  45
ATOM     45  C   UNL A   1      43.259  25.738  28.305  1.00  0.00     0.031 A 
ATOM     46  C   UNL A   1      44.609  26.363  28.517  1.00  0.00     0.074 A 
ATOM     47  C   UNL A   1      42.136  26.432  28.575  1.00  0.00     0.049 A 
ATOM     48  N   UNL A   1      44.893  27.577  28.913  1.00  0.00    -0.248 NA
ATOM     49  C   UNL A   1      45.790  25.526  28.254  1.00  0.00     0.031 C 
ATOM     50  C   UNL A   1      40.774  25.922  28.394  1.00  0.00     0.029 A 
ATOM     51  N   UNL A   1      41.955  27.726  28.992  1.00  0.00    -0.354 N 
ATOM     52  C   UNL A   1      46.281  27.647  28.956  1.00  0.00     0.074 A 
ATOM     53  C   UNL A   1      46.782  26.346  28.574  1.00  0.00     0.031 C 
ATOM     54  C   UNL A   1      39.902  26.918  28.602  1.00  0.00     0.029 A 
ATOM     55  C   UNL A   1      40.638  28.116  28.997  1.00  0.00     0.049 A 
ATOM     56  H   UNL A   1      42.695  28.315  29.261  1.00  0.00     0.167 HD
ATOM     57  C   UNL A   1      47.061  28.706  29.278  1.00  0.00     0.031 A 
ATOM     58  C   UNL A   1      40.077  29.307  29.275  1.00  0.00     0.031 A 
ATOM     59  C   UNL A   1      46.554  30.000  29.652  1.00  0.00     0.049 A 
ATOM     60  C   UNL A   1      40.964  30.457  29.645  1.00  0.00     0.074 A 
ATOM     61  C   UNL A   1      47.265  31.134  29.999  1.00  0.00     0.029 A 
ATOM     62  N   UNL A   1      45.210  30.331  29.724  1.00  0.00    -0.354 N 
ATOM     63  N   UNL A   1      42.274  30.505  29.681  1.00  0.00    -0.248 NA
ATOM     64  C   UNL A   1      40.303  31.714  30.019  1.00  0.00     0.031 C 
ATOM     65  C   UNL A   1      46.352  32.139  30.328  1.00  0.00     0.029 A 
ATOM     66  C   UNL A   1      45.071  31.647  30.129  1.00  0.00     0.049 A 
ATOM     67  H   UNL A   1      44.465  29.721  29.518  1.00  0.00     0.167 HD
ATOM     68  C   UNL A   1      42.594  31.794  30.082  1.00  0.00     0.074 A 
ATOM     69  C   UNL A   1      41.343  32.505  30.248  1.00  0.00     0.031 C 
ATOM     70  C   UNL A   1      43.817  32.335  30.300  1.00  0.00     0.031 A 
BRANCH  57  71
ATOM     71  C   UNL A   1      48.552  28.515  29.256  1.00  0.00    -0.014 A 
ATOM     72  C   UNL A   1      49.245  28.308  30.460  1.00  0.00     0.009 A 
ATOM     73  C   UNL A   1      49.282  28.621  28.062  1.00  0.00     0.009 A 
ATOM     74  C   UNL A   1      50.639  28.221  30.471  1.00  0.00     0.001 A 
ATOM     75  C   UNL A   1      50.675  28.509  28.073  1.00  0.00     0.001 A 
ATOM     76  C   UNL A   1      51.352  28.317  29.277  1.00  0.00     0.000 A 
ENDBRANCH  57  71
BRANCH  58  77
ATOM     77  C   UNL A   1      38.601  29.454  29.188  1.00  0.00    -0.014 A 
ATOM     78  C   UNL A   1      37.989  29.780  27.966  1.00  0.00     0.009 A 
ATOM     79  C   UNL A   1      37.803  29.341  30.337  1.00  0.00     0.009 A 
ATOM     80  C   UNL A   1      36.616  30.021  27.902  1.00  0.00     0.001 A 
ATOM     81  C   UNL A   1      36.424  29.553  30.262  1.00  0.00     0.001 A 
ATOM     82  C   UNL A   1      35.834  29.905  29.049  1.00  0.00     0.000 A 
ENDBRANCH  58  77
BRANCH  70  83
ATOM     83  C   UNL A   1      43.871  33.767  30.749  1.00  0.00    -0.014 A 
ATOM     84  C   UNL A   1      43.814  34.072  32.118  1.00  0.00     0.009 A 
ATOM     85  C   UNL A   1      43.881  34.812  29.814  1.00  0.00     0.009 A 
ATOM     86  C   UNL A   1      43.756  35.400  32.542  1.00  0.00     0.001 A 
ATOM     87  C   UNL A   1      43.849  36.140  30.244  1.00  0.00     0.001 A 
ATOM     88  C   UNL A   1      43.778  36.432  31.606  1.00  0.00     0.000 A 
ENDBRANCH  70  83
ENDBRANCH  44  45
ENDBRANCH  36  39
ENDBRANCH  34  35
ENDBRANCH  33  34
ENDBRANCH  32  33
ENDBRANCH   1  32
TORSDOF 15
ENDMDL
MODEL 2
REMARK VINA RESULT:     -12.5      3.306      8.758
REMARK SMILES O=C(CCN1C(=O)[C@@H]2[C@@H](C1=O)[C@H]1c3ccccc3[C@]2(Br)c2ccccc21)NCCCCCCNC(=O)c1ccc(-c2c3nc(c(-c4ccccc4)c4ccc([nH]4)c(-c4ccccc4)c4nc(c(-c5ccccc5)c5ccc2[nH]5)C=C4)C=C3)cc1
REMARK SMILES IDX 30 1 29 2 28 3 27 4 1 5 2 6 3 8 4 9 5 10 6 11 10 12 7 13
REMARK SMILES IDX 8 14 9 15 11 16 19 17 12 18 21 19 20 20 18 21 26 22 13 23
REMARK SMILES IDX 22 24 17 25 25 26 14 27 23 28 16 29 24 30 15 31 31 32 32 33
REMARK SMILES IDX 33 34 34 35 35 36 36 38 37 39 38 40 84 41 39 42 83 43 40 44
REMARK SMILES IDX 41 45 42 46 77 47 43 48 82 49 76 50 78 51 44 52 81 53 75 54
REMARK SMILES IDX 74 55 45 57 67 58 52 59 66 60 53 61 56 62 65 63 79 64 54 65
REMARK SMILES IDX 55 66 64 68 80 69 57 70 46 71 47 72 51 73 48 74 50 75 49 76
REMARK SMILES IDX 68 77 69 78 73 79 70 80 72 81 71 82 58 83 59 84 63 85 60 86
REMARK SMILES IDX 62 87 61 88
REMARK H PARENT 27 7 34 37 78 56 56 67
REMARK Flexibility Score: inf
ROOT
ATOM      1  C   UNL A   1      33.691  29.364  27.086  1.00  0.00     0.002 C 
ENDROOT
BRANCH   1   2
ATOM      2  C   UNL A   1      33.994  28.321  26.004  1.00  0.00     0.021 C 
BRANCH   2   3
ATOM      3  C   UNL A   1      33.258  28.515  24.678  1.00  0.00     0.116 C 
BRANCH   3   4
ATOM      4  N   UNL A   1      32.116  27.634  24.545  1.00  0.00    -0.356 N 
ATOM      5  O   UNL A   1      30.552  29.291  24.217  1.00  0.00    -0.275 OA
ATOM      6  C   UNL A   1      30.862  28.105  24.240  1.00  0.00     0.221 C 
ATOM      7  H   UNL A   1      32.243  26.667  24.677  1.00  0.00     0.163 HD
BRANCH   6   8
ATOM      8  C   UNL A   1      29.882  27.014  23.879  1.00  0.00     0.122 C 
BRANCH   8   9
ATOM      9  C   UNL A   1      29.769  26.009  25.022  1.00  0.00     0.138 C 
BRANCH   9  10
ATOM     10  N   UNL A   1      30.686  24.880  24.899  1.00  0.00    -0.281 N 
ATOM     11  C   UNL A   1      31.161  24.127  25.973  1.00  0.00     0.235 C 
ATOM     12  C   UNL A   1      31.239  24.467  23.692  1.00  0.00     0.234 C 
ATOM     13  O   UNL A   1      30.772  24.143  27.127  1.00  0.00    -0.274 OA
ATOM     14  C   UNL A   1      32.371  23.431  25.428  1.00  0.00     0.118 C 
ATOM     15  C   UNL A   1      31.856  23.148  24.015  1.00  0.00     0.105 C 
ATOM     16  O   UNL A   1      31.116  24.966  22.588  1.00  0.00    -0.274 OA
ATOM     17  C   UNL A   1      33.227  22.228  25.888  1.00  0.00     0.088 C 
ATOM     18  C   UNL A   1      32.925  22.384  23.238  1.00  0.00     0.063 C 
ATOM     19  C   UNL A   1      34.552  22.575  25.146  1.00  0.00    -0.022 A 
ATOM     20  Br  UNL A   1      33.374  22.181  27.804  1.00  0.00    -0.074 Br
ATOM     21  C   UNL A   1      32.835  20.879  25.230  1.00  0.00    -0.022 A 
ATOM     22  C   UNL A   1      34.349  22.723  23.725  1.00  0.00    -0.035 A 
ATOM     23  C   UNL A   1      32.687  20.963  23.800  1.00  0.00    -0.035 A 
ATOM     24  C   UNL A   1      35.826  22.695  25.688  1.00  0.00     0.006 A 
ATOM     25  C   UNL A   1      32.853  19.616  25.813  1.00  0.00     0.006 A 
ATOM     26  C   UNL A   1      35.422  22.988  22.887  1.00  0.00     0.005 A 
ATOM     27  C   UNL A   1      32.448  19.841  23.015  1.00  0.00     0.005 A 
ATOM     28  C   UNL A   1      36.893  22.964  24.831  1.00  0.00     0.000 A 
ATOM     29  C   UNL A   1      32.654  18.485  25.012  1.00  0.00     0.000 A 
ATOM     30  C   UNL A   1      36.693  23.110  23.450  1.00  0.00     0.000 A 
ATOM     31  C   UNL A   1      32.422  18.597  23.636  1.00  0.00     0.000 A 
ENDBRANCH   9  10
ENDBRANCH   8   9
ENDBRANCH   6   8
ENDBRANCH   3   4
ENDBRANCH   2   3
ENDBRANCH   1   2
BRANCH   1  32
ATOM     32  C   UNL A   1      32.216  29.711  27.279  1.00  0.00     0.002 C 
BRANCH  32  33
ATOM     33  C   UNL A   1      31.821  31.146  26.940  1.00  0.00     0.021 C 
BRANCH  33  34
ATOM     34  C   UNL A   1      32.968  32.148  26.955  1.00  0.00     0.116 C 
BRANCH  34  35
ATOM     35  N   UNL A   1      32.591  33.467  27.448  1.00  0.00    -0.352 N 
ATOM     36  C   UNL A   1      33.202  34.233  28.415  1.00  0.00     0.251 C 
ATOM     37  H   UNL A   1      31.791  33.864  27.034  1.00  0.00     0.163 HD
ATOM     38  O   UNL A   1      32.708  35.289  28.795  1.00  0.00    -0.269 OA
BRANCH  36  39
ATOM     39  C   UNL A   1      34.454  33.748  29.028  1.00  0.00     0.039 A 
ATOM     40  C   UNL A   1      35.673  33.998  28.399  1.00  0.00     0.014 A 
ATOM     41  C   UNL A   1      34.406  33.002  30.210  1.00  0.00     0.014 A 
ATOM     42  C   UNL A   1      36.816  33.357  28.849  1.00  0.00     0.010 A 
ATOM     43  C   UNL A   1      35.577  32.434  30.717  1.00  0.00     0.010 A 
ATOM     44  C   UNL A   1      36.782  32.568  30.013  1.00  0.00    -0.014 A 
BRANCH  44  45
ATOM     45  C   UNL A   1      38.042  31.925  30.457  1.00  0.00     0.031 A 
ATOM     46  C   UNL A   1      38.517  30.640  29.841  1.00  0.00     0.074 A 
ATOM     47  C   UNL A   1      38.815  32.584  31.343  1.00  0.00     0.049 A 
ATOM     48  N   UNL A   1      39.664  30.031  30.005  1.00  0.00    -0.248 NA
ATOM     49  C   UNL A   1      37.597  29.948  28.925  1.00  0.00     0.031 C 
ATOM     50  C   UNL A   1      38.452  33.846  31.992  1.00  0.00     0.029 A 
ATOM     51  N   UNL A   1      40.082  32.326  31.798  1.00  0.00    -0.354 N 
ATOM     52  C   UNL A   1      39.600  28.882  29.224  1.00  0.00     0.074 A 
ATOM     53  C   UNL A   1      38.292  28.863  28.608  1.00  0.00     0.031 C 
ATOM     54  C   UNL A   1      39.506  34.302  32.683  1.00  0.00     0.029 A 
ATOM     55  C   UNL A   1      40.593  33.333  32.581  1.00  0.00     0.049 A 
ATOM     56  H   UNL A   1      40.576  31.502  31.587  1.00  0.00     0.167 HD
ATOM     57  C   UNL A   1      40.551  27.937  29.035  1.00  0.00     0.031 A 
ATOM     58  C   UNL A   1      41.805  33.474  33.147  1.00  0.00     0.031 A 
ATOM     59  C   UNL A   1      41.852  27.967  29.649  1.00  0.00     0.049 A 
ATOM     60  C   UNL A   1      42.833  32.404  32.936  1.00  0.00     0.074 A 
ATOM     61  C   UNL A   1      42.883  27.053  29.522  1.00  0.00     0.029 A 
ATOM     62  N   UNL A   1      42.302  28.964  30.501  1.00  0.00    -0.354 N 
ATOM     63  N   UNL A   1      42.754  31.325  32.195  1.00  0.00    -0.248 NA
ATOM     64  C   UNL A   1      44.113  32.563  33.639  1.00  0.00     0.031 C 
ATOM     65  C   UNL A   1      43.940  27.471  30.334  1.00  0.00     0.029 A 
ATOM     66  C   UNL A   1      43.588  28.676  30.923  1.00  0.00     0.049 A 
ATOM     67  H   UNL A   1      41.783  29.757  30.767  1.00  0.00     0.167 HD
ATOM     68  C   UNL A   1      43.971  30.676  32.343  1.00  0.00     0.074 A 
ATOM     69  C   UNL A   1      44.781  31.496  33.220  1.00  0.00     0.031 C 
ATOM     70  C   UNL A   1      44.375  29.499  31.805  1.00  0.00     0.031 A 
BRANCH  57  71
ATOM     71  C   UNL A   1      40.222  26.776  28.139  1.00  0.00    -0.014 A 
ATOM     72  C   UNL A   1      39.513  25.678  28.653  1.00  0.00     0.009 A 
ATOM     73  C   UNL A   1      40.682  26.727  26.814  1.00  0.00     0.009 A 
ATOM     74  C   UNL A   1      39.280  24.551  27.863  1.00  0.00     0.001 A 
ATOM     75  C   UNL A   1      40.424  25.608  26.018  1.00  0.00     0.001 A 
ATOM     76  C   UNL A   1      39.731  24.519  26.545  1.00  0.00     0.000 A 
ENDBRANCH  57  71
BRANCH  58  77
ATOM     77  C   UNL A   1      42.098  34.692  33.946  1.00  0.00    -0.014 A 
ATOM     78  C   UNL A   1      41.780  34.739  35.314  1.00  0.00     0.009 A 
ATOM     79  C   UNL A   1      42.629  35.838  33.335  1.00  0.00     0.009 A 
ATOM     80  C   UNL A   1      41.957  35.915  36.044  1.00  0.00     0.001 A 
ATOM     81  C   UNL A   1      42.833  37.004  34.076  1.00  0.00     0.001 A 
ATOM     82  C   UNL A   1      42.486  37.046  35.426  1.00  0.00     0.000 A 
ENDBRANCH  58  77
BRANCH  70  83
ATOM     83  C   UNL A   1      45.755  29.017  32.150  1.00  0.00    -0.014 A 
ATOM     84  C   UNL A   1      45.955  28.237  33.299  1.00  0.00     0.009 A 
ATOM     85  C   UNL A   1      46.865  29.416  31.392  1.00  0.00     0.009 A 
ATOM     86  C   UNL A   1      47.244  27.872  33.688  1.00  0.00     0.001 A 
ATOM     87  C   UNL A   1      48.152  29.029  31.770  1.00  0.00     0.001 A 
ATOM     88  C   UNL A   1      48.340  28.265  32.922  1.00  0.00     0.000 A 
ENDBRANCH  70  83
ENDBRANCH  44  45
ENDBRANCH  36  39
ENDBRANCH  34  35
ENDBRANCH  33  34
ENDBRANCH  32  33
ENDBRANCH   1  32
TORSDOF 15
ENDMDL
MODEL 3
REMARK VINA RESULT:     -12.5      3.823      8.699
REMARK SMILES O=C(CCN1C(=O)[C@@H]2[C@@H](C1=O)[C@H]1c3ccccc3[C@]2(Br)c2ccccc21)NCCCCCCNC(=O)c1ccc(-c2c3nc(c(-c4ccccc4)c4ccc([nH]4)c(-c4ccccc4)c4nc(c(-c5ccccc5)c5ccc2[nH]5)C=C4)C=C3)cc1
REMARK SMILES IDX 30 1 29 2 28 3 27 4 1 5 2 6 3 8 4 9 5 10 6 11 10 12 7 13
REMARK SMILES IDX 8 14 9 15 11 16 19 17 12 18 21 19 20 20 18 21 26 22 13 23
REMARK SMILES IDX 22 24 17 25 25 26 14 27 23 28 16 29 24 30 15 31 31 32 32 33
REMARK SMILES IDX 33 34 34 35 35 36 36 38 37 39 38 40 84 41 39 42 83 43 40 44
REMARK SMILES IDX 41 45 42 46 77 47 43 48 82 49 76 50 78 51 44 52 81 53 75 54
REMARK SMILES IDX 74 55 45 57 67 58 52 59 66 60 53 61 56 62 65 63 79 64 54 65
REMARK SMILES IDX 55 66 64 68 80 69 57 70 46 71 47 72 51 73 48 74 50 75 49 76
REMARK SMILES IDX 68 77 69 78 73 79 70 80 72 81 71 82 58 83 59 84 63 85 60 86
REMARK SMILES IDX 62 87 61 88
REMARK H PARENT 27 7 34 37 78 56 56 67
REMARK Flexibility Score: inf
ROOT
ATOM      1  C   UNL A   1      35.685  29.768  27.991  1.00  0.00     0.002 C 
ENDROOT
BRANCH   1   2
ATOM      2  C   UNL A   1      34.806  29.172  26.886  1.00  0.00     0.021 C 
BRANCH   2   3
ATOM      3  C   UNL A   1      33.392  28.774  27.311  1.00  0.00     0.116 C 
BRANCH   3   4
ATOM      4  N   UNL A   1      32.628  28.199  26.223  1.00  0.00    -0.356 N 
ATOM      5  O   UNL A   1      30.933  27.345  27.525  1.00  0.00    -0.275 OA
ATOM      6  C   UNL A   1      31.408  27.600  26.424  1.00  0.00     0.221 C 
ATOM      7  H   UNL A   1      32.995  28.240  25.310  1.00  0.00     0.163 HD
BRANCH   6   8
ATOM      8  C   UNL A   1      30.660  27.315  25.143  1.00  0.00     0.122 C 
BRANCH   8   9
ATOM      9  C   UNL A   1      29.949  25.969  25.236  1.00  0.00     0.138 C 
BRANCH   9  10
ATOM     10  N   UNL A   1      30.834  24.825  25.043  1.00  0.00    -0.281 N 
ATOM     11  C   UNL A   1      31.328  24.025  26.075  1.00  0.00     0.235 C 
ATOM     12  C   UNL A   1      31.337  24.443  23.805  1.00  0.00     0.234 C 
ATOM     13  O   UNL A   1      30.978  24.009  27.240  1.00  0.00    -0.274 OA
ATOM     14  C   UNL A   1      32.503  23.322  25.464  1.00  0.00     0.118 C 
ATOM     15  C   UNL A   1      31.933  23.100  24.061  1.00  0.00     0.105 C 
ATOM     16  O   UNL A   1      31.188  24.983  22.724  1.00  0.00    -0.274 OA
ATOM     17  C   UNL A   1      33.345  22.085  25.852  1.00  0.00     0.088 C 
ATOM     18  C   UNL A   1      32.957  22.340  23.222  1.00  0.00     0.063 C 
ATOM     19  C   UNL A   1      34.652  22.429  25.078  1.00  0.00    -0.022 A 
ATOM     20  Br  UNL A   1      33.556  21.968  27.760  1.00  0.00    -0.074 Br
ATOM     21  C   UNL A   1      32.900  20.768  25.163  1.00  0.00    -0.022 A 
ATOM     22  C   UNL A   1      34.405  22.630  23.670  1.00  0.00    -0.035 A 
ATOM     23  C   UNL A   1      32.706  20.906  23.743  1.00  0.00    -0.035 A 
ATOM     24  C   UNL A   1      35.946  22.501  25.579  1.00  0.00     0.006 A 
ATOM     25  C   UNL A   1      32.908  19.486  25.702  1.00  0.00     0.006 A 
ATOM     26  C   UNL A   1      35.455  22.900  22.805  1.00  0.00     0.005 A 
ATOM     27  C   UNL A   1      32.414  19.818  22.929  1.00  0.00     0.005 A 
ATOM     28  C   UNL A   1      36.990  22.776  24.695  1.00  0.00     0.000 A 
ATOM     29  C   UNL A   1      32.656  18.389  24.870  1.00  0.00     0.000 A 
ATOM     30  C   UNL A   1      36.747  22.975  23.328  1.00  0.00     0.000 A 
ATOM     31  C   UNL A   1      32.380  18.553  23.507  1.00  0.00     0.000 A 
ENDBRANCH   9  10
ENDBRANCH   8   9
ENDBRANCH   6   8
ENDBRANCH   3   4
ENDBRANCH   2   3
ENDBRANCH   1   2
BRANCH   1  32
ATOM     32  C   UNL A   1      35.869  31.283  27.947  1.00  0.00     0.002 C 
BRANCH  32  33
ATOM     33  C   UNL A   1      34.585  32.109  27.929  1.00  0.00     0.021 C 
BRANCH  33  34
ATOM     34  C   UNL A   1      34.779  33.601  28.164  1.00  0.00     0.116 C 
BRANCH  34  35
ATOM     35  N   UNL A   1      34.055  34.113  29.322  1.00  0.00    -0.352 N 
ATOM     36  C   UNL A   1      34.380  34.010  30.656  1.00  0.00     0.251 C 
ATOM     37  H   UNL A   1      33.222  34.597  29.123  1.00  0.00     0.163 HD
ATOM     38  O   UNL A   1      33.616  34.410  31.528  1.00  0.00    -0.269 OA
BRANCH  36  39
ATOM     39  C   UNL A   1      35.656  33.371  31.036  1.00  0.00     0.039 A 
ATOM     40  C   UNL A   1      36.862  33.970  30.675  1.00  0.00     0.014 A 
ATOM     41  C   UNL A   1      35.645  32.148  31.714  1.00  0.00     0.014 A 
ATOM     42  C   UNL A   1      38.045  33.266  30.833  1.00  0.00     0.010 A 
ATOM     43  C   UNL A   1      36.849  31.482  31.956  1.00  0.00     0.010 A 
ATOM     44  C   UNL A   1      38.054  32.015  31.474  1.00  0.00    -0.014 A 
BRANCH  44  45
ATOM     45  C   UNL A   1      39.353  31.319  31.631  1.00  0.00     0.031 A 
ATOM     46  C   UNL A   1      40.226  31.566  32.829  1.00  0.00     0.074 A 
ATOM     47  C   UNL A   1      39.677  30.365  30.736  1.00  0.00     0.049 A 
ATOM     48  N   UNL A   1      41.311  30.930  33.193  1.00  0.00    -0.248 NA
ATOM     49  C   UNL A   1      39.840  32.660  33.734  1.00  0.00     0.031 C 
ATOM     50  C   UNL A   1      38.891  30.038  29.543  1.00  0.00     0.029 A 
ATOM     51  N   UNL A   1      40.704  29.459  30.718  1.00  0.00    -0.354 N 
ATOM     52  C   UNL A   1      41.741  31.551  34.360  1.00  0.00     0.074 A 
ATOM     53  C   UNL A   1      40.818  32.631  34.629  1.00  0.00     0.031 C 
ATOM     54  C   UNL A   1      39.407  28.945  28.966  1.00  0.00     0.029 A 
ATOM     55  C   UNL A   1      40.597  28.536  29.706  1.00  0.00     0.049 A 
ATOM     56  H   UNL A   1      41.445  29.468  31.366  1.00  0.00     0.167 HD
ATOM     57  C   UNL A   1      42.805  31.240  35.137  1.00  0.00     0.031 A 
ATOM     58  C   UNL A   1      41.361  27.469  29.408  1.00  0.00     0.031 A 
ATOM     59  C   UNL A   1      43.716  30.160  34.864  1.00  0.00     0.049 A 
ATOM     60  C   UNL A   1      42.543  27.158  30.275  1.00  0.00     0.074 A 
ATOM     61  C   UNL A   1      44.827  29.768  35.591  1.00  0.00     0.029 A 
ATOM     62  N   UNL A   1      43.620  29.298  33.783  1.00  0.00    -0.354 N 
ATOM     63  N   UNL A   1      42.934  27.756  31.374  1.00  0.00    -0.248 NA
ATOM     64  C   UNL A   1      43.392  26.033  29.863  1.00  0.00     0.031 C 
ATOM     65  C   UNL A   1      45.430  28.699  34.924  1.00  0.00     0.029 A 
ATOM     66  C   UNL A   1      44.662  28.388  33.812  1.00  0.00     0.049 A 
ATOM     67  H   UNL A   1      42.915  29.329  33.096  1.00  0.00     0.167 HD
ATOM     68  C   UNL A   1      44.075  27.082  31.785  1.00  0.00     0.074 A 
ATOM     69  C   UNL A   1      44.296  26.012  30.834  1.00  0.00     0.031 C 
ATOM     70  C   UNL A   1      44.872  27.336  32.851  1.00  0.00     0.031 A 
BRANCH  57  71
ATOM     71  C   UNL A   1      43.060  32.085  36.355  1.00  0.00    -0.014 A 
ATOM     72  C   UNL A   1      42.451  31.750  37.575  1.00  0.00     0.009 A 
ATOM     73  C   UNL A   1      43.831  33.254  36.280  1.00  0.00     0.009 A 
ATOM     74  C   UNL A   1      42.600  32.573  38.692  1.00  0.00     0.001 A 
ATOM     75  C   UNL A   1      44.000  34.063  37.407  1.00  0.00     0.001 A 
ATOM     76  C   UNL A   1      43.378  33.727  38.608  1.00  0.00     0.000 A 
ENDBRANCH  57  71
BRANCH  58  77
ATOM     77  C   UNL A   1      41.000  26.619  28.243  1.00  0.00    -0.014 A 
ATOM     78  C   UNL A   1      41.559  26.871  26.979  1.00  0.00     0.009 A 
ATOM     79  C   UNL A   1      40.045  25.599  28.371  1.00  0.00     0.009 A 
ATOM     80  C   UNL A   1      41.145  26.144  25.862  1.00  0.00     0.001 A 
ATOM     81  C   UNL A   1      39.656  24.852  27.256  1.00  0.00     0.001 A 
ATOM     82  C   UNL A   1      40.197  25.133  26.002  1.00  0.00     0.000 A 
ENDBRANCH  58  77
BRANCH  70  83
ATOM     83  C   UNL A   1      46.065  26.447  33.052  1.00  0.00    -0.014 A 
ATOM     84  C   UNL A   1      45.964  25.319  33.880  1.00  0.00     0.009 A 
ATOM     85  C   UNL A   1      47.311  26.781  32.499  1.00  0.00     0.009 A 
ATOM     86  C   UNL A   1      47.091  24.545  34.159  1.00  0.00     0.001 A 
ATOM     87  C   UNL A   1      48.431  25.990  32.760  1.00  0.00     0.001 A 
ATOM     88  C   UNL A   1      48.321  24.879  33.597  1.00  0.00     0.000 A 
ENDBRANCH  70  83
ENDBRANCH  44  45
ENDBRANCH  36  39
ENDBRANCH  34  35
ENDBRANCH  33  34
ENDBRANCH  32  33
ENDBRANCH   1  32
TORSDOF 15
ENDMDL
