MODEL 1
REMARK VINA RESULT:     -11.6      0.000      0.000
REMARK SMILES Cc1nn(CC(=O)NCCCCCCNC(=O)c2ccc(-c3c4nc(c(-c5ccccc5)c5ccc([nH]5)c(-c5ccccc5)c5nc(c(-c6ccccc6)c6ccc3[nH]6)C=C5)C=C4)cc2)c(C)c1NS(=O)(=O)c1cccc2cccnc12
REMARK SMILES IDX 10 1 9 2 8 3 6 4 7 5 5 7 4 8 1 9 2 10 3 11 68 12 66 13 67 14
REMARK SMILES IDX 69 15 70 17 71 18 72 19 73 20 74 21 82 22 75 23 77 24 81 25
REMARK SMILES IDX 76 26 78 27 80 28 79 29 11 30 12 31 13 32 14 33 15 34 16 35
REMARK SMILES IDX 17 37 18 38 19 39 65 40 20 41 64 42 21 43 22 44 23 45 58 46
REMARK SMILES IDX 24 47 63 48 57 49 59 50 25 51 62 52 56 53 55 54 26 56 48 57
REMARK SMILES IDX 33 58 47 59 34 60 37 61 46 62 60 63 35 64 36 65 45 67 61 68
REMARK SMILES IDX 38 69 27 70 28 71 32 72 29 73 31 74 30 75 49 76 50 77 54 78
REMARK SMILES IDX 51 79 53 80 52 81 39 82 40 83 44 84 41 85 43 86 42 87
REMARK H PARENT 8 6 69 16 15 36 59 55 37 66
REMARK Flexibility Score: inf
ROOT
ATOM      1  C   UNL A   1      34.656  30.423  27.883  1.00  0.00     0.021 C 
ENDROOT
BRANCH   1   2
ATOM      2  C   UNL A   1      33.752  29.452  27.120  1.00  0.00     0.116 C 
BRANCH   2   3
ATOM      3  N   UNL A   1      33.912  29.635  25.701  1.00  0.00    -0.354 N 
ATOM      4  C   UNL A   1      33.009  29.305  24.729  1.00  0.00     0.241 C 
ATOM      5  O   UNL A   1      33.359  29.443  23.555  1.00  0.00    -0.273 OA
ATOM      6  H   UNL A   1      34.758  30.038  25.399  1.00  0.00     0.163 HD
BRANCH   4   7
ATOM      7  C   UNL A   1      31.583  28.973  25.105  1.00  0.00     0.244 C 
BRANCH   7   8
ATOM      8  N   UNL A   1      31.150  27.584  24.930  1.00  0.00    -0.258 N 
ATOM      9  C   UNL A   1      32.069  24.530  26.441  1.00  0.00     0.071 C 
ATOM     10  C   UNL A   1      31.829  25.682  25.538  1.00  0.00     0.084 A 
ATOM     11  N   UNL A   1      31.201  26.771  26.007  1.00  0.00    -0.175 NA
ATOM     12  C   UNL A   1      32.111  25.800  24.143  1.00  0.00     0.093 A 
ATOM     13  C   UNL A   1      31.290  26.836  23.763  1.00  0.00     0.060 A 
ATOM     14  C   UNL A   1      30.709  27.170  22.450  1.00  0.00     0.069 C 
BRANCH  12  15
ATOM     15  N   UNL A   1      32.946  24.966  23.400  1.00  0.00    -0.276 N 
ATOM     16  H   UNL A   1      33.786  25.388  23.106  1.00  0.00     0.180 HD
BRANCH  15  17
ATOM     17  S   UNL A   1      32.766  23.369  22.921  1.00  0.00     0.264 S 
ATOM     18  O   UNL A   1      31.355  23.064  23.051  1.00  0.00    -0.201 OA
ATOM     19  O   UNL A   1      33.383  23.305  21.605  1.00  0.00    -0.201 OA
BRANCH  17  20
ATOM     20  C   UNL A   1      33.641  22.194  23.934  1.00  0.00     0.114 A 
ATOM     21  C   UNL A   1      33.009  20.932  24.060  1.00  0.00     0.024 A 
ATOM     22  C   UNL A   1      34.920  22.419  24.452  1.00  0.00     0.091 A 
ATOM     23  C   UNL A   1      33.679  19.846  24.602  1.00  0.00     0.002 A 
ATOM     24  C   UNL A   1      35.604  21.270  24.949  1.00  0.00     0.002 A 
ATOM     25  N   UNL A   1      35.536  23.623  24.460  1.00  0.00    -0.255 NA
ATOM     26  C   UNL A   1      34.993  20.008  25.009  1.00  0.00     0.010 A 
ATOM     27  C   UNL A   1      36.939  21.387  25.355  1.00  0.00     0.012 A 
ATOM     28  C   UNL A   1      36.800  23.712  24.945  1.00  0.00     0.112 A 
ATOM     29  C   UNL A   1      37.548  22.629  25.365  1.00  0.00     0.021 A 
ENDBRANCH  17  20
ENDBRANCH  15  17
ENDBRANCH  12  15
ENDBRANCH   7   8
ENDBRANCH   4   7
ENDBRANCH   2   3
ENDBRANCH   1   2
BRANCH   1  30
ATOM     30  C   UNL A   1      34.385  31.882  27.549  1.00  0.00     0.002 C 
BRANCH  30  31
ATOM     31  C   UNL A   1      34.371  32.814  28.769  1.00  0.00     0.002 C 
BRANCH  31  32
ATOM     32  C   UNL A   1      33.395  34.003  28.717  1.00  0.00     0.021 C 
BRANCH  32  33
ATOM     33  C   UNL A   1      33.946  35.264  29.362  1.00  0.00     0.116 C 
BRANCH  33  34
ATOM     34  N   UNL A   1      33.357  35.492  30.680  1.00  0.00    -0.352 N 
ATOM     35  C   UNL A   1      33.579  34.820  31.865  1.00  0.00     0.251 C 
ATOM     36  H   UNL A   1      32.709  36.231  30.730  1.00  0.00     0.163 HD
ATOM     37  O   UNL A   1      32.810  34.911  32.800  1.00  0.00    -0.269 OA
BRANCH  35  38
ATOM     38  C   UNL A   1      34.787  33.987  31.967  1.00  0.00     0.039 A 
ATOM     39  C   UNL A   1      34.699  32.597  32.058  1.00  0.00     0.014 A 
ATOM     40  C   UNL A   1      36.019  34.632  31.919  1.00  0.00     0.014 A 
ATOM     41  C   UNL A   1      35.873  31.851  32.021  1.00  0.00     0.010 A 
ATOM     42  C   UNL A   1      37.155  33.897  31.718  1.00  0.00     0.010 A 
ATOM     43  C   UNL A   1      37.096  32.513  31.834  1.00  0.00    -0.014 A 
BRANCH  43  44
ATOM     44  C   UNL A   1      38.335  31.765  31.675  1.00  0.00     0.031 A 
ATOM     45  C   UNL A   1      39.022  31.411  32.945  1.00  0.00     0.074 A 
ATOM     46  C   UNL A   1      38.695  31.224  30.492  1.00  0.00     0.049 A 
ATOM     47  N   UNL A   1      40.160  31.842  33.379  1.00  0.00    -0.248 NA
ATOM     48  C   UNL A   1      38.299  30.563  33.907  1.00  0.00     0.031 C 
ATOM     49  C   UNL A   1      37.923  31.184  29.241  1.00  0.00     0.029 A 
ATOM     50  N   UNL A   1      39.785  30.469  30.193  1.00  0.00    -0.354 N 
ATOM     51  C   UNL A   1      40.392  31.171  34.578  1.00  0.00     0.074 A 
ATOM     52  C   UNL A   1      39.147  30.542  34.938  1.00  0.00     0.031 C 
ATOM     53  C   UNL A   1      38.441  30.246  28.419  1.00  0.00     0.029 A 
ATOM     54  C   UNL A   1      39.684  29.775  28.995  1.00  0.00     0.049 A 
ATOM     55  H   UNL A   1      40.577  30.418  30.776  1.00  0.00     0.167 HD
ATOM     56  C   UNL A   1      41.658  30.969  35.043  1.00  0.00     0.031 A 
ATOM     57  C   UNL A   1      40.558  28.861  28.517  1.00  0.00     0.031 A 
ATOM     58  C   UNL A   1      42.612  31.762  34.314  1.00  0.00     0.049 A 
ATOM     59  C   UNL A   1      41.840  29.076  29.219  1.00  0.00     0.074 A 
ATOM     60  C   UNL A   1      42.909  33.101  34.190  1.00  0.00     0.029 A 
ATOM     61  N   UNL A   1      43.182  31.123  33.240  1.00  0.00    -0.354 N 
ATOM     62  N   UNL A   1      42.552  30.160  29.098  1.00  0.00    -0.248 NA
ATOM     63  C   UNL A   1      42.164  28.243  30.366  1.00  0.00     0.031 C 
ATOM     64  C   UNL A   1      43.348  33.266  32.842  1.00  0.00     0.029 A 
ATOM     65  C   UNL A   1      43.358  32.016  32.217  1.00  0.00     0.049 A 
ATOM     66  H   UNL A   1      43.428  30.170  33.211  1.00  0.00     0.167 HD
ATOM     67  C   UNL A   1      43.090  30.368  30.357  1.00  0.00     0.074 A 
ATOM     68  C   UNL A   1      42.958  29.083  31.036  1.00  0.00     0.031 C 
ATOM     69  C   UNL A   1      43.322  31.633  30.819  1.00  0.00     0.031 A 
BRANCH  56  70
ATOM     70  C   UNL A   1      42.099  29.733  35.800  1.00  0.00    -0.014 A 
ATOM     71  C   UNL A   1      43.278  29.803  36.569  1.00  0.00     0.009 A 
ATOM     72  C   UNL A   1      41.586  28.445  35.561  1.00  0.00     0.009 A 
ATOM     73  C   UNL A   1      43.940  28.648  37.007  1.00  0.00     0.001 A 
ATOM     74  C   UNL A   1      42.223  27.291  36.029  1.00  0.00     0.001 A 
ATOM     75  C   UNL A   1      43.416  27.391  36.729  1.00  0.00     0.000 A 
ENDBRANCH  56  70
BRANCH  57  76
ATOM     76  C   UNL A   1      40.284  27.654  27.713  1.00  0.00    -0.014 A 
ATOM     77  C   UNL A   1      41.032  27.375  26.559  1.00  0.00     0.009 A 
ATOM     78  C   UNL A   1      39.481  26.625  28.242  1.00  0.00     0.009 A 
ATOM     79  C   UNL A   1      41.017  26.097  25.986  1.00  0.00     0.001 A 
ATOM     80  C   UNL A   1      39.466  25.350  27.669  1.00  0.00     0.001 A 
ATOM     81  C   UNL A   1      40.248  25.081  26.551  1.00  0.00     0.000 A 
ENDBRANCH  57  76
BRANCH  69  82
ATOM     82  C   UNL A   1      43.329  32.753  29.810  1.00  0.00    -0.014 A 
ATOM     83  C   UNL A   1      42.260  33.647  29.628  1.00  0.00     0.009 A 
ATOM     84  C   UNL A   1      44.516  32.984  29.098  1.00  0.00     0.009 A 
ATOM     85  C   UNL A   1      42.371  34.725  28.741  1.00  0.00     0.001 A 
ATOM     86  C   UNL A   1      44.635  34.070  28.231  1.00  0.00     0.001 A 
ATOM     87  C   UNL A   1      43.561  34.938  28.048  1.00  0.00     0.000 A 
ENDBRANCH  69  82
ENDBRANCH  43  44
ENDBRANCH  35  38
ENDBRANCH  33  34
ENDBRANCH  32  33
ENDBRANCH  31  32
ENDBRANCH  30  31
ENDBRANCH   1  30
TORSDOF 17
ENDMDL
MODEL 2
REMARK VINA RESULT:     -11.2      2.512      8.357
REMARK SMILES Cc1nn(CC(=O)NCCCCCCNC(=O)c2ccc(-c3c4nc(c(-c5ccccc5)c5ccc([nH]5)c(-c5ccccc5)c5nc(c(-c6ccccc6)c6ccc3[nH]6)C=C5)C=C4)cc2)c(C)c1NS(=O)(=O)c1cccc2cccnc12
REMARK SMILES IDX 10 1 9 2 8 3 6 4 7 5 5 7 4 8 1 9 2 10 3 11 68 12 66 13 67 14
REMARK SMILES IDX 69 15 70 17 71 18 72 19 73 20 74 21 82 22 75 23 77 24 81 25
REMARK SMILES IDX 76 26 78 27 80 28 79 29 11 30 12 31 13 32 14 33 15 34 16 35
REMARK SMILES IDX 17 37 18 38 19 39 65 40 20 41 64 42 21 43 22 44 23 45 58 46
REMARK SMILES IDX 24 47 63 48 57 49 59 50 25 51 62 52 56 53 55 54 26 56 48 57
REMARK SMILES IDX 33 58 47 59 34 60 37 61 46 62 60 63 35 64 36 65 45 67 61 68
REMARK SMILES IDX 38 69 27 70 28 71 32 72 29 73 31 74 30 75 49 76 50 77 54 78
REMARK SMILES IDX 51 79 53 80 52 81 39 82 40 83 44 84 41 85 43 86 42 87
REMARK H PARENT 8 6 69 16 15 36 59 55 37 66
REMARK Flexibility Score: inf
ROOT
ATOM      1  C   UNL A   1      37.348  21.578  24.604  1.00  0.00     0.021 C 
ENDROOT
BRANCH   1   2
ATOM      2  C   UNL A   1      35.843  21.672  24.860  1.00  0.00     0.116 C 
BRANCH   2   3
ATOM      3  N   UNL A   1      35.594  22.189  26.179  1.00  0.00    -0.354 N 
ATOM      4  C   UNL A   1      34.469  21.996  26.932  1.00  0.00     0.241 C 
ATOM      5  O   UNL A   1      34.390  22.601  28.004  1.00  0.00    -0.273 OA
ATOM      6  H   UNL A   1      36.305  22.740  26.580  1.00  0.00     0.163 HD
BRANCH   4   7
ATOM      7  C   UNL A   1      33.469  20.933  26.538  1.00  0.00     0.244 C 
BRANCH   7   8
ATOM      8  N   UNL A   1      32.408  21.323  25.606  1.00  0.00    -0.258 N 
ATOM      9  C   UNL A   1      31.989  21.018  22.115  1.00  0.00     0.071 C 
ATOM     10  C   UNL A   1      32.189  21.471  23.514  1.00  0.00     0.084 A 
ATOM     11  N   UNL A   1      32.233  20.565  24.502  1.00  0.00    -0.175 NA
ATOM     12  C   UNL A   1      32.274  22.804  24.019  1.00  0.00     0.093 A 
ATOM     13  C   UNL A   1      31.995  22.630  25.355  1.00  0.00     0.060 A 
ATOM     14  C   UNL A   1      31.447  23.568  26.352  1.00  0.00     0.069 C 
BRANCH  12  15
ATOM     15  N   UNL A   1      32.488  23.957  23.266  1.00  0.00    -0.276 N 
ATOM     16  H   UNL A   1      31.894  24.051  22.486  1.00  0.00     0.180 HD
BRANCH  15  17
ATOM     17  S   UNL A   1      33.583  25.213  23.459  1.00  0.00     0.264 S 
ATOM     18  O   UNL A   1      34.704  24.662  24.194  1.00  0.00    -0.201 OA
ATOM     19  O   UNL A   1      33.804  25.723  22.115  1.00  0.00    -0.201 OA
BRANCH  17  20
ATOM     20  C   UNL A   1      32.968  26.585  24.414  1.00  0.00     0.114 A 
ATOM     21  C   UNL A   1      33.761  26.930  25.536  1.00  0.00     0.024 A 
ATOM     22  C   UNL A   1      31.879  27.370  24.027  1.00  0.00     0.091 A 
ATOM     23  C   UNL A   1      33.553  28.118  26.222  1.00  0.00     0.002 A 
ATOM     24  C   UNL A   1      31.726  28.612  24.714  1.00  0.00     0.002 A 
ATOM     25  N   UNL A   1      31.019  27.043  23.035  1.00  0.00    -0.255 NA
ATOM     26  C   UNL A   1      32.560  28.977  25.784  1.00  0.00     0.010 A 
ATOM     27  C   UNL A   1      30.745  29.515  24.291  1.00  0.00     0.012 A 
ATOM     28  C   UNL A   1      30.025  27.909  22.714  1.00  0.00     0.112 A 
ATOM     29  C   UNL A   1      29.870  29.158  23.281  1.00  0.00     0.021 A 
ENDBRANCH  17  20
ENDBRANCH  15  17
ENDBRANCH  12  15
ENDBRANCH   7   8
ENDBRANCH   4   7
ENDBRANCH   2   3
ENDBRANCH   1   2
BRANCH   1  30
ATOM     30  C   UNL A   1      37.941  20.234  25.000  1.00  0.00     0.002 C 
BRANCH  30  31
ATOM     31  C   UNL A   1      39.283  20.332  25.739  1.00  0.00     0.002 C 
BRANCH  31  32
ATOM     32  C   UNL A   1      39.672  21.719  26.282  1.00  0.00     0.021 C 
BRANCH  32  33
ATOM     33  C   UNL A   1      41.023  21.737  26.977  1.00  0.00     0.116 C 
BRANCH  33  34
ATOM     34  N   UNL A   1      42.100  22.057  26.043  1.00  0.00    -0.352 N 
ATOM     35  C   UNL A   1      42.597  23.289  25.670  1.00  0.00     0.251 C 
ATOM     36  H   UNL A   1      42.536  21.282  25.620  1.00  0.00     0.163 HD
ATOM     37  O   UNL A   1      43.276  23.424  24.671  1.00  0.00    -0.269 OA
BRANCH  35  38
ATOM     38  C   UNL A   1      42.283  24.444  26.524  1.00  0.00     0.039 A 
ATOM     39  C   UNL A   1      42.985  24.677  27.709  1.00  0.00     0.014 A 
ATOM     40  C   UNL A   1      41.296  25.320  26.085  1.00  0.00     0.014 A 
ATOM     41  C   UNL A   1      42.735  25.852  28.410  1.00  0.00     0.010 A 
ATOM     42  C   UNL A   1      41.170  26.544  26.682  1.00  0.00     0.010 A 
ATOM     43  C   UNL A   1      41.835  26.788  27.878  1.00  0.00    -0.014 A 
BRANCH  43  44
ATOM     44  C   UNL A   1      41.630  28.079  28.518  1.00  0.00     0.031 A 
ATOM     45  C   UNL A   1      42.665  29.103  28.212  1.00  0.00     0.074 A 
ATOM     46  C   UNL A   1      40.471  28.395  29.132  1.00  0.00     0.049 A 
ATOM     47  N   UNL A   1      43.525  29.628  29.020  1.00  0.00    -0.248 NA
ATOM     48  C   UNL A   1      42.841  29.506  26.807  1.00  0.00     0.031 C 
ATOM     49  C   UNL A   1      39.230  27.608  29.185  1.00  0.00     0.029 A 
ATOM     50  N   UNL A   1      40.110  29.560  29.732  1.00  0.00    -0.354 N 
ATOM     51  C   UNL A   1      44.226  30.573  28.272  1.00  0.00     0.074 A 
ATOM     52  C   UNL A   1      43.889  30.328  26.893  1.00  0.00     0.031 C 
ATOM     53  C   UNL A   1      38.202  28.406  29.549  1.00  0.00     0.029 A 
ATOM     54  C   UNL A   1      38.745  29.689  29.947  1.00  0.00     0.049 A 
ATOM     55  H   UNL A   1      40.761  30.253  29.990  1.00  0.00     0.167 HD
ATOM     56  C   UNL A   1      44.820  31.646  28.867  1.00  0.00     0.031 A 
ATOM     57  C   UNL A   1      38.102  30.786  30.406  1.00  0.00     0.031 A 
ATOM     58  C   UNL A   1      44.865  31.490  30.297  1.00  0.00     0.049 A 
ATOM     59  C   UNL A   1      39.109  31.629  31.085  1.00  0.00     0.074 A 
ATOM     60  C   UNL A   1      45.523  30.675  31.191  1.00  0.00     0.029 A 
ATOM     61  N   UNL A   1      43.797  32.039  30.963  1.00  0.00    -0.354 N 
ATOM     62  N   UNL A   1      39.742  31.265  32.162  1.00  0.00    -0.248 NA
ATOM     63  C   UNL A   1      39.706  32.736  30.356  1.00  0.00     0.031 C 
ATOM     64  C   UNL A   1      44.608  30.487  32.271  1.00  0.00     0.029 A 
ATOM     65  C   UNL A   1      43.457  31.238  32.020  1.00  0.00     0.049 A 
ATOM     66  H   UNL A   1      43.346  32.880  30.720  1.00  0.00     0.167 HD
ATOM     67  C   UNL A   1      41.018  31.783  32.012  1.00  0.00     0.074 A 
ATOM     68  C   UNL A   1      40.885  32.807  30.981  1.00  0.00     0.031 C 
ATOM     69  C   UNL A   1      42.102  31.132  32.527  1.00  0.00     0.031 A 
BRANCH  56  70
ATOM     70  C   UNL A   1      44.920  33.020  28.237  1.00  0.00    -0.014 A 
ATOM     71  C   UNL A   1      43.728  33.721  27.962  1.00  0.00     0.009 A 
ATOM     72  C   UNL A   1      46.090  33.523  27.640  1.00  0.00     0.009 A 
ATOM     73  C   UNL A   1      43.703  34.813  27.084  1.00  0.00     0.001 A 
ATOM     74  C   UNL A   1      46.076  34.636  26.793  1.00  0.00     0.001 A 
ATOM     75  C   UNL A   1      44.877  35.265  26.493  1.00  0.00     0.000 A 
ENDBRANCH  56  70
BRANCH  57  76
ATOM     76  C   UNL A   1      36.755  31.280  30.060  1.00  0.00    -0.014 A 
ATOM     77  C   UNL A   1      35.914  31.820  31.044  1.00  0.00     0.009 A 
ATOM     78  C   UNL A   1      36.408  31.486  28.711  1.00  0.00     0.009 A 
ATOM     79  C   UNL A   1      34.794  32.584  30.690  1.00  0.00     0.001 A 
ATOM     80  C   UNL A   1      35.290  32.248  28.359  1.00  0.00     0.001 A 
ATOM     81  C   UNL A   1      34.493  32.813  29.348  1.00  0.00     0.000 A 
ENDBRANCH  57  76
BRANCH  69  82
ATOM     82  C   UNL A   1      41.848  30.062  33.559  1.00  0.00    -0.014 A 
ATOM     83  C   UNL A   1      41.688  28.701  33.250  1.00  0.00     0.009 A 
ATOM     84  C   UNL A   1      41.893  30.435  34.911  1.00  0.00     0.009 A 
ATOM     85  C   UNL A   1      41.552  27.747  34.265  1.00  0.00     0.001 A 
ATOM     86  C   UNL A   1      41.779  29.482  35.924  1.00  0.00     0.001 A 
ATOM     87  C   UNL A   1      41.604  28.139  35.602  1.00  0.00     0.000 A 
ENDBRANCH  69  82
ENDBRANCH  43  44
ENDBRANCH  35  38
ENDBRANCH  33  34
ENDBRANCH  32  33
ENDBRANCH  31  32
ENDBRANCH  30  31
ENDBRANCH   1  30
TORSDOF 17
ENDMDL
MODEL 3
REMARK VINA RESULT:     -11.1      2.243      7.770
REMARK SMILES Cc1nn(CC(=O)NCCCCCCNC(=O)c2ccc(-c3c4nc(c(-c5ccccc5)c5ccc([nH]5)c(-c5ccccc5)c5nc(c(-c6ccccc6)c6ccc3[nH]6)C=C5)C=C4)cc2)c(C)c1NS(=O)(=O)c1cccc2cccnc12
REMARK SMILES IDX 10 1 9 2 8 3 6 4 7 5 5 7 4 8 1 9 2 10 3 11 68 12 66 13 67 14
REMARK SMILES IDX 69 15 70 17 71 18 72 19 73 20 74 21 82 22 75 23 77 24 81 25
REMARK SMILES IDX 76 26 78 27 80 28 79 29 11 30 12 31 13 32 14 33 15 34 16 35
REMARK SMILES IDX 17 37 18 38 19 39 65 40 20 41 64 42 21 43 22 44 23 45 58 46
REMARK SMILES IDX 24 47 63 48 57 49 59 50 25 51 62 52 56 53 55 54 26 56 48 57
REMARK SMILES IDX 33 58 47 59 34 60 37 61 46 62 60 63 35 64 36 65 45 67 61 68
REMARK SMILES IDX 38 69 27 70 28 71 32 72 29 73 31 74 30 75 49 76 50 77 54 78
REMARK SMILES IDX 51 79 53 80 52 81 39 82 40 83 44 84 41 85 43 86 42 87
REMARK H PARENT 8 6 69 16 15 36 59 55 37 66
REMARK Flexibility Score: inf
ROOT
ATOM      1  C   UNL A   1      35.082  23.329  25.327  1.00  0.00     0.021 C 
ENDROOT
BRANCH   1   2
ATOM      2  C   UNL A   1      34.025  23.333  24.221  1.00  0.00     0.116 C 
BRANCH   2   3
ATOM      3  N   UNL A   1      34.273  24.410  23.300  1.00  0.00    -0.354 N 
ATOM      4  C   UNL A   1      33.346  25.048  22.522  1.00  0.00     0.241 C 
ATOM      5  O   UNL A   1      33.758  25.886  21.716  1.00  0.00    -0.273 OA
ATOM      6  H   UNL A   1      35.204  24.719  23.220  1.00  0.00     0.163 HD
BRANCH   4   7
ATOM      7  C   UNL A   1      31.872  24.858  22.795  1.00  0.00     0.244 C 
BRANCH   7   8
ATOM      8  N   UNL A   1      31.205  25.874  23.614  1.00  0.00    -0.258 N 
ATOM      9  C   UNL A   1      30.257  29.227  23.053  1.00  0.00     0.071 C 
ATOM     10  C   UNL A   1      30.873  27.954  23.500  1.00  0.00     0.084 A 
ATOM     11  N   UNL A   1      30.447  26.794  22.978  1.00  0.00    -0.175 NA
ATOM     12  C   UNL A   1      31.859  27.744  24.512  1.00  0.00     0.093 A 
ATOM     13  C   UNL A   1      31.704  26.408  24.801  1.00  0.00     0.060 A 
ATOM     14  C   UNL A   1      32.018  25.646  26.023  1.00  0.00     0.069 C 
BRANCH  12  15
ATOM     15  N   UNL A   1      32.669  28.722  25.086  1.00  0.00    -0.276 N 
ATOM     16  H   UNL A   1      33.533  28.855  24.633  1.00  0.00     0.180 HD
BRANCH  15  17
ATOM     17  S   UNL A   1      32.425  29.713  26.418  1.00  0.00     0.264 S 
ATOM     18  O   UNL A   1      31.735  30.889  25.925  1.00  0.00    -0.201 OA
ATOM     19  O   UNL A   1      31.761  28.865  27.394  1.00  0.00    -0.201 OA
BRANCH  17  20
ATOM     20  C   UNL A   1      33.922  30.284  27.195  1.00  0.00     0.114 A 
ATOM     21  C   UNL A   1      34.971  29.332  27.233  1.00  0.00     0.024 A 
ATOM     22  C   UNL A   1      34.126  31.603  27.608  1.00  0.00     0.091 A 
ATOM     23  C   UNL A   1      36.263  29.702  27.575  1.00  0.00     0.002 A 
ATOM     24  C   UNL A   1      35.475  31.967  27.897  1.00  0.00     0.002 A 
ATOM     25  N   UNL A   1      33.146  32.532  27.698  1.00  0.00    -0.255 NA
ATOM     26  C   UNL A   1      36.521  31.031  27.868  1.00  0.00     0.010 A 
ATOM     27  C   UNL A   1      35.781  33.303  28.181  1.00  0.00     0.012 A 
ATOM     28  C   UNL A   1      33.472  33.798  28.063  1.00  0.00     0.112 A 
ATOM     29  C   UNL A   1      34.764  34.236  28.277  1.00  0.00     0.021 A 
ENDBRANCH  17  20
ENDBRANCH  15  17
ENDBRANCH  12  15
ENDBRANCH   7   8
ENDBRANCH   4   7
ENDBRANCH   2   3
ENDBRANCH   1   2
BRANCH   1  30
ATOM     30  C   UNL A   1      36.135  22.247  25.146  1.00  0.00     0.002 C 
BRANCH  30  31
ATOM     31  C   UNL A   1      37.549  22.668  25.570  1.00  0.00     0.002 C 
BRANCH  31  32
ATOM     32  C   UNL A   1      37.699  24.080  26.163  1.00  0.00     0.021 C 
BRANCH  32  33
ATOM     33  C   UNL A   1      38.970  24.262  26.977  1.00  0.00     0.116 C 
BRANCH  33  34
ATOM     34  N   UNL A   1      40.112  24.572  26.121  1.00  0.00    -0.352 N 
ATOM     35  C   UNL A   1      40.847  25.738  26.031  1.00  0.00     0.251 C 
ATOM     36  H   UNL A   1      40.401  23.846  25.522  1.00  0.00     0.163 HD
ATOM     37  O   UNL A   1      41.564  25.964  25.077  1.00  0.00    -0.269 OA
BRANCH  35  38
ATOM     38  C   UNL A   1      40.739  26.704  27.134  1.00  0.00     0.039 A 
ATOM     39  C   UNL A   1      40.909  26.305  28.462  1.00  0.00     0.014 A 
ATOM     40  C   UNL A   1      40.511  28.036  26.803  1.00  0.00     0.014 A 
ATOM     41  C   UNL A   1      40.924  27.281  29.453  1.00  0.00     0.010 A 
ATOM     42  C   UNL A   1      40.690  29.005  27.752  1.00  0.00     0.010 A 
ATOM     43  C   UNL A   1      40.831  28.632  29.084  1.00  0.00    -0.014 A 
BRANCH  43  44
ATOM     44  C   UNL A   1      40.958  29.690  30.076  1.00  0.00     0.031 A 
ATOM     45  C   UNL A   1      39.683  30.362  30.444  1.00  0.00     0.074 A 
ATOM     46  C   UNL A   1      42.093  29.873  30.783  1.00  0.00     0.049 A 
ATOM     47  N   UNL A   1      39.335  31.584  30.212  1.00  0.00    -0.248 NA
ATOM     48  C   UNL A   1      38.617  29.540  31.039  1.00  0.00     0.031 C 
ATOM     49  C   UNL A   1      43.305  29.041  30.781  1.00  0.00     0.029 A 
ATOM     50  N   UNL A   1      42.354  30.776  31.764  1.00  0.00    -0.354 N 
ATOM     51  C   UNL A   1      38.084  31.745  30.804  1.00  0.00     0.074 A 
ATOM     52  C   UNL A   1      37.620  30.422  31.136  1.00  0.00     0.031 C 
ATOM     53  C   UNL A   1      44.048  29.320  31.874  1.00  0.00     0.029 A 
ATOM     54  C   UNL A   1      43.472  30.477  32.529  1.00  0.00     0.049 A 
ATOM     55  H   UNL A   1      41.796  31.573  31.919  1.00  0.00     0.167 HD
ATOM     56  C   UNL A   1      37.646  32.969  31.212  1.00  0.00     0.031 A 
ATOM     57  C   UNL A   1      43.887  31.127  33.640  1.00  0.00     0.031 A 
ATOM     58  C   UNL A   1      38.483  34.020  30.695  1.00  0.00     0.049 A 
ATOM     59  C   UNL A   1      43.256  32.463  33.622  1.00  0.00     0.074 A 
ATOM     60  C   UNL A   1      38.750  34.566  29.459  1.00  0.00     0.029 A 
ATOM     61  N   UNL A   1      39.507  34.395  31.530  1.00  0.00    -0.354 N 
ATOM     62  N   UNL A   1      43.508  33.365  32.718  1.00  0.00    -0.248 NA
ATOM     63  C   UNL A   1      42.043  32.679  34.396  1.00  0.00     0.031 C 
ATOM     64  C   UNL A   1      40.122  34.955  29.508  1.00  0.00     0.029 A 
ATOM     65  C   UNL A   1      40.619  34.686  30.786  1.00  0.00     0.049 A 
ATOM     66  H   UNL A   1      39.450  34.448  32.511  1.00  0.00     0.167 HD
ATOM     67  C   UNL A   1      42.296  34.001  32.509  1.00  0.00     0.074 A 
ATOM     68  C   UNL A   1      41.488  33.657  33.675  1.00  0.00     0.031 C 
ATOM     69  C   UNL A   1      41.970  34.500  31.280  1.00  0.00     0.031 A 
BRANCH  56  70
ATOM     70  C   UNL A   1      36.785  33.201  32.437  1.00  0.00    -0.014 A 
ATOM     71  C   UNL A   1      35.712  34.110  32.342  1.00  0.00     0.009 A 
ATOM     72  C   UNL A   1      37.151  32.803  33.736  1.00  0.00     0.009 A 
ATOM     73  C   UNL A   1      35.096  34.641  33.482  1.00  0.00     0.001 A 
ATOM     74  C   UNL A   1      36.513  33.302  34.876  1.00  0.00     0.001 A 
ATOM     75  C   UNL A   1      35.503  34.243  34.750  1.00  0.00     0.000 A 
ENDBRANCH  56  70
BRANCH  57  76
ATOM     76  C   UNL A   1      44.557  30.579  34.835  1.00  0.00    -0.014 A 
ATOM     77  C   UNL A   1      43.849  29.796  35.759  1.00  0.00     0.009 A 
ATOM     78  C   UNL A   1      45.962  30.586  34.917  1.00  0.00     0.009 A 
ATOM     79  C   UNL A   1      44.526  29.006  36.697  1.00  0.00     0.001 A 
ATOM     80  C   UNL A   1      46.637  29.797  35.854  1.00  0.00     0.001 A 
ATOM     81  C   UNL A   1      45.919  28.993  36.732  1.00  0.00     0.000 A 
ENDBRANCH  57  76
BRANCH  69  82
ATOM     82  C   UNL A   1      43.086  34.672  30.280  1.00  0.00    -0.014 A 
ATOM     83  C   UNL A   1      43.504  33.663  29.396  1.00  0.00     0.009 A 
ATOM     84  C   UNL A   1      43.654  35.949  30.148  1.00  0.00     0.009 A 
ATOM     85  C   UNL A   1      44.480  33.921  28.426  1.00  0.00     0.001 A 
ATOM     86  C   UNL A   1      44.611  36.212  29.167  1.00  0.00     0.001 A 
ATOM     87  C   UNL A   1      45.028  35.197  28.309  1.00  0.00     0.000 A 
ENDBRANCH  69  82
ENDBRANCH  43  44
ENDBRANCH  35  38
ENDBRANCH  33  34
ENDBRANCH  32  33
ENDBRANCH  31  32
ENDBRANCH  30  31
ENDBRANCH   1  30
TORSDOF 17
ENDMDL
