MODEL 1
REMARK VINA RESULT:     -12.3      0.000      0.000
REMARK SMILES O=C(NCCCCCCNC(=O)[C@H]1CC2=c3ccccc3=N[C@H]2[C@@H](c2ccccc2)[NH2+]1)c1ccc(-c2c3nc(c(-c4ccccc4)c4ccc([nH]4)c(-c4ccccc4)c4nc(c(-c5ccccc5)c5ccc2[nH]5)C=C4)C=C3)cc1
REMARK SMILES IDX 6 1 5 2 4 3 3 4 1 5 2 6 32 8 33 9 79 10 34 11 78 12 35 13
REMARK SMILES IDX 36 14 37 15 72 16 38 17 77 18 71 19 73 20 39 21 76 22 70 23
REMARK SMILES IDX 69 24 40 26 62 27 47 28 61 29 48 30 51 31 60 32 74 33 49 34
REMARK SMILES IDX 50 35 59 37 75 38 52 39 41 40 42 41 46 42 43 43 45 44 44 45
REMARK SMILES IDX 63 46 64 47 68 48 65 49 67 50 66 51 53 52 54 53 58 54 55 55
REMARK SMILES IDX 57 56 56 57 7 58 8 59 9 60 10 61 11 62 12 64 13 65 14 66
REMARK SMILES IDX 31 67 15 68 24 69 16 72 23 73 17 74 21 75 22 76 18 77 20 78
REMARK SMILES IDX 19 79 25 80 26 81 30 82 27 83 29 84 28 85
REMARK H PARENT 3 7 73 25 51 36 10 63 31 70 31 71
REMARK Flexibility Score: inf
ROOT
ATOM      1  C   UNL A   1      32.094  27.026  26.209  1.00  0.00     0.002 C 
ENDROOT
BRANCH   1   2
ATOM      2  C   UNL A   1      32.404  28.089  27.264  1.00  0.00     0.021 C 
BRANCH   2   3
ATOM      3  C   UNL A   1      33.712  28.844  27.060  1.00  0.00     0.116 C 
BRANCH   3   4
ATOM      4  N   UNL A   1      33.699  30.155  27.679  1.00  0.00    -0.352 N 
ATOM      5  O   UNL A   1      34.404  31.841  28.987  1.00  0.00    -0.269 OA
ATOM      6  C   UNL A   1      34.667  30.787  28.416  1.00  0.00     0.251 C 
ATOM      7  H   UNL A   1      32.870  30.670  27.550  1.00  0.00     0.163 HD
BRANCH   6   8
ATOM      8  C   UNL A   1      36.026  30.208  28.540  1.00  0.00     0.039 A 
ATOM      9  C   UNL A   1      36.398  29.647  29.766  1.00  0.00     0.014 A 
ATOM     10  C   UNL A   1      36.957  30.279  27.499  1.00  0.00     0.014 A 
ATOM     11  C   UNL A   1      37.693  29.157  29.944  1.00  0.00     0.010 A 
ATOM     12  C   UNL A   1      38.222  29.715  27.650  1.00  0.00     0.010 A 
ATOM     13  C   UNL A   1      38.617  29.188  28.889  1.00  0.00    -0.014 A 
BRANCH  13  14
ATOM     14  C   UNL A   1      40.025  28.768  29.102  1.00  0.00     0.031 A 
ATOM     15  C   UNL A   1      40.464  27.388  28.684  1.00  0.00     0.074 A 
ATOM     16  C   UNL A   1      40.912  29.620  29.655  1.00  0.00     0.049 A 
ATOM     17  N   UNL A   1      41.650  26.841  28.763  1.00  0.00    -0.248 NA
ATOM     18  C   UNL A   1      39.434  26.498  28.121  1.00  0.00     0.031 C 
ATOM     19  C   UNL A   1      40.610  30.976  30.114  1.00  0.00     0.029 A 
ATOM     20  N   UNL A   1      42.255  29.474  29.902  1.00  0.00    -0.354 N 
ATOM     21  C   UNL A   1      41.502  25.547  28.280  1.00  0.00     0.074 A 
ATOM     22  C   UNL A   1      40.105  25.368  27.961  1.00  0.00     0.031 C 
ATOM     23  C   UNL A   1      41.745  31.557  30.538  1.00  0.00     0.029 A 
ATOM     24  C   UNL A   1      42.847  30.607  30.409  1.00  0.00     0.049 A 
ATOM     25  H   UNL A   1      42.747  28.638  29.732  1.00  0.00     0.167 HD
ATOM     26  C   UNL A   1      42.449  24.600  28.087  1.00  0.00     0.031 A 
ATOM     27  C   UNL A   1      44.135  30.858  30.715  1.00  0.00     0.031 A 
ATOM     28  C   UNL A   1      43.846  24.789  28.362  1.00  0.00     0.049 A 
ATOM     29  C   UNL A   1      45.171  29.793  30.480  1.00  0.00     0.074 A 
ATOM     30  C   UNL A   1      44.888  23.901  28.162  1.00  0.00     0.029 A 
ATOM     31  N   UNL A   1      44.397  25.950  28.877  1.00  0.00    -0.354 N 
ATOM     32  N   UNL A   1      45.017  28.588  29.986  1.00  0.00    -0.248 NA
ATOM     33  C   UNL A   1      46.560  30.129  30.824  1.00  0.00     0.031 C 
ATOM     34  C   UNL A   1      46.067  24.510  28.596  1.00  0.00     0.029 A 
ATOM     35  C   UNL A   1      45.766  25.799  29.007  1.00  0.00     0.049 A 
ATOM     36  H   UNL A   1      43.892  26.761  29.114  1.00  0.00     0.167 HD
ATOM     37  C   UNL A   1      46.293  28.039  29.922  1.00  0.00     0.074 A 
ATOM     38  C   UNL A   1      47.209  29.043  30.423  1.00  0.00     0.031 C 
ATOM     39  C   UNL A   1      46.668  26.814  29.483  1.00  0.00     0.031 A 
BRANCH  26  40
ATOM     40  C   UNL A   1      42.015  23.270  27.534  1.00  0.00    -0.014 A 
ATOM     41  C   UNL A   1      41.505  22.287  28.396  1.00  0.00     0.009 A 
ATOM     42  C   UNL A   1      42.194  22.959  26.177  1.00  0.00     0.009 A 
ATOM     43  C   UNL A   1      41.193  21.015  27.914  1.00  0.00     0.001 A 
ATOM     44  C   UNL A   1      41.853  21.695  25.692  1.00  0.00     0.001 A 
ATOM     45  C   UNL A   1      41.363  20.722  26.562  1.00  0.00     0.000 A 
ENDBRANCH  26  40
BRANCH  27  46
ATOM     46  C   UNL A   1      44.527  32.205  31.208  1.00  0.00    -0.014 A 
ATOM     47  C   UNL A   1      44.947  33.206  30.318  1.00  0.00     0.009 A 
ATOM     48  C   UNL A   1      44.502  32.489  32.582  1.00  0.00     0.009 A 
ATOM     49  C   UNL A   1      45.345  34.457  30.794  1.00  0.00     0.001 A 
ATOM     50  C   UNL A   1      44.874  33.751  33.054  1.00  0.00     0.001 A 
ATOM     51  C   UNL A   1      45.301  34.730  32.160  1.00  0.00     0.000 A 
ENDBRANCH  27  46
BRANCH  39  52
ATOM     52  C   UNL A   1      48.134  26.486  29.466  1.00  0.00    -0.014 A 
ATOM     53  C   UNL A   1      48.880  26.725  28.298  1.00  0.00     0.009 A 
ATOM     54  C   UNL A   1      48.751  25.843  30.547  1.00  0.00     0.009 A 
ATOM     55  C   UNL A   1      50.210  26.313  28.210  1.00  0.00     0.001 A 
ATOM     56  C   UNL A   1      50.091  25.457  30.466  1.00  0.00     0.001 A 
ATOM     57  C   UNL A   1      50.815  25.684  29.296  1.00  0.00     0.000 A 
ENDBRANCH  39  52
ENDBRANCH  13  14
ENDBRANCH   6   8
ENDBRANCH   3   4
ENDBRANCH   2   3
ENDBRANCH   1   2
BRANCH   1  58
ATOM     58  C   UNL A   1      31.290  27.508  24.996  1.00  0.00     0.002 C 
BRANCH  58  59
ATOM     59  C   UNL A   1      31.909  27.199  23.628  1.00  0.00     0.021 C 
BRANCH  59  60
ATOM     60  C   UNL A   1      31.064  26.291  22.740  1.00  0.00     0.116 C 
BRANCH  60  61
ATOM     61  N   UNL A   1      31.882  25.591  21.773  1.00  0.00    -0.351 N 
ATOM     62  C   UNL A   1      32.640  24.463  21.900  1.00  0.00     0.278 C 
ATOM     63  H   UNL A   1      31.894  25.995  20.874  1.00  0.00     0.163 HD
ATOM     64  O   UNL A   1      33.316  24.116  20.928  1.00  0.00    -0.268 OA
BRANCH  62  65
ATOM     65  C   UNL A   1      32.673  23.663  23.218  1.00  0.00     0.277 C 
ATOM     66  C   UNL A   1      31.831  22.372  23.110  1.00  0.00     0.109 C 
ATOM     67  N   UNL A   1      34.077  23.501  23.666  1.00  0.00    -0.327 N 
ATOM     68  C   UNL A   1      32.487  21.245  23.836  1.00  0.00    -0.024 C 
ATOM     69  C   UNL A   1      34.191  22.788  24.968  1.00  0.00     0.243 C 
ATOM     70  H   UNL A   1      34.497  24.425  23.763  1.00  0.00     0.347 HD
ATOM     71  H   UNL A   1      34.559  22.937  22.965  1.00  0.00     0.347 HD
ATOM     72  C   UNL A   1      32.635  19.970  23.495  1.00  0.00     0.002 A 
ATOM     73  C   UNL A   1      33.203  21.561  25.123  1.00  0.00     0.196 C 
ATOM     74  C   UNL A   1      32.216  19.148  22.407  1.00  0.00     0.010 A 
ATOM     75  C   UNL A   1      33.472  19.450  24.587  1.00  0.00     0.066 A 
ATOM     76  N   UNL A   1      33.815  20.269  25.533  1.00  0.00    -0.270 NA
ATOM     77  C   UNL A   1      32.621  17.867  22.377  1.00  0.00     0.001 A 
ATOM     78  C   UNL A   1      33.886  18.034  24.478  1.00  0.00     0.028 A 
ATOM     79  C   UNL A   1      33.478  17.318  23.417  1.00  0.00     0.002 A 
BRANCH  69  80
ATOM     80  C   UNL A   1      35.681  22.659  25.291  1.00  0.00     0.012 A 
ATOM     81  C   UNL A   1      36.468  21.540  24.990  1.00  0.00     0.010 A 
ATOM     82  C   UNL A   1      36.334  23.771  25.861  1.00  0.00     0.010 A 
ATOM     83  C   UNL A   1      37.825  21.492  25.333  1.00  0.00     0.001 A 
ATOM     84  C   UNL A   1      37.694  23.737  26.180  1.00  0.00     0.001 A 
ATOM     85  C   UNL A   1      38.436  22.588  25.933  1.00  0.00     0.000 A 
ENDBRANCH  69  80
ENDBRANCH  62  65
ENDBRANCH  60  61
ENDBRANCH  59  60
ENDBRANCH  58  59
ENDBRANCH   1  58
TORSDOF 14
ENDMDL
MODEL 2
REMARK VINA RESULT:     -12.3      1.295      5.918
REMARK SMILES O=C(NCCCCCCNC(=O)[C@H]1CC2=c3ccccc3=N[C@H]2[C@@H](c2ccccc2)[NH2+]1)c1ccc(-c2c3nc(c(-c4ccccc4)c4ccc([nH]4)c(-c4ccccc4)c4nc(c(-c5ccccc5)c5ccc2[nH]5)C=C4)C=C3)cc1
REMARK SMILES IDX 6 1 5 2 4 3 3 4 1 5 2 6 32 8 33 9 79 10 34 11 78 12 35 13
REMARK SMILES IDX 36 14 37 15 72 16 38 17 77 18 71 19 73 20 39 21 76 22 70 23
REMARK SMILES IDX 69 24 40 26 62 27 47 28 61 29 48 30 51 31 60 32 74 33 49 34
REMARK SMILES IDX 50 35 59 37 75 38 52 39 41 40 42 41 46 42 43 43 45 44 44 45
REMARK SMILES IDX 63 46 64 47 68 48 65 49 67 50 66 51 53 52 54 53 58 54 55 55
REMARK SMILES IDX 57 56 56 57 7 58 8 59 9 60 10 61 11 62 12 64 13 65 14 66
REMARK SMILES IDX 31 67 15 68 24 69 16 72 23 73 17 74 21 75 22 76 18 77 20 78
REMARK SMILES IDX 19 79 25 80 26 81 30 82 27 83 29 84 28 85
REMARK H PARENT 3 7 73 25 51 36 10 63 31 70 31 71
REMARK Flexibility Score: inf
ROOT
ATOM      1  C   UNL A   1      32.697  27.943  24.975  1.00  0.00     0.002 C 
ENDROOT
BRANCH   1   2
ATOM      2  C   UNL A   1      33.744  28.592  25.882  1.00  0.00     0.021 C 
BRANCH   2   3
ATOM      3  C   UNL A   1      33.272  28.906  27.297  1.00  0.00     0.116 C 
BRANCH   3   4
ATOM      4  N   UNL A   1      33.368  30.317  27.614  1.00  0.00    -0.352 N 
ATOM      5  O   UNL A   1      34.220  32.189  28.518  1.00  0.00    -0.269 OA
ATOM      6  C   UNL A   1      34.394  31.020  28.191  1.00  0.00     0.251 C 
ATOM      7  H   UNL A   1      32.576  30.853  27.378  1.00  0.00     0.163 HD
BRANCH   6   8
ATOM      8  C   UNL A   1      35.710  30.381  28.434  1.00  0.00     0.039 A 
ATOM      9  C   UNL A   1      35.942  29.795  29.682  1.00  0.00     0.014 A 
ATOM     10  C   UNL A   1      36.735  30.418  27.483  1.00  0.00     0.014 A 
ATOM     11  C   UNL A   1      37.192  29.247  29.974  1.00  0.00     0.010 A 
ATOM     12  C   UNL A   1      37.956  29.798  27.745  1.00  0.00     0.010 A 
ATOM     13  C   UNL A   1      38.211  29.245  29.008  1.00  0.00    -0.014 A 
BRANCH  13  14
ATOM     14  C   UNL A   1      39.574  28.763  29.346  1.00  0.00     0.031 A 
ATOM     15  C   UNL A   1      40.446  29.577  30.268  1.00  0.00     0.074 A 
ATOM     16  C   UNL A   1      40.027  27.598  28.843  1.00  0.00     0.049 A 
ATOM     17  N   UNL A   1      41.653  29.319  30.702  1.00  0.00    -0.248 NA
ATOM     18  C   UNL A   1      39.900  30.858  30.750  1.00  0.00     0.031 C 
ATOM     19  C   UNL A   1      39.288  26.725  27.931  1.00  0.00     0.029 A 
ATOM     20  N   UNL A   1      41.214  26.938  29.049  1.00  0.00    -0.354 N 
ATOM     21  C   UNL A   1      42.012  30.408  31.488  1.00  0.00     0.074 A 
ATOM     22  C   UNL A   1      40.923  31.354  31.430  1.00  0.00     0.031 C 
ATOM     23  C   UNL A   1      40.014  25.619  27.698  1.00  0.00     0.029 A 
ATOM     24  C   UNL A   1      41.282  25.718  28.419  1.00  0.00     0.049 A 
ATOM     25  H   UNL A   1      41.946  27.303  29.597  1.00  0.00     0.167 HD
ATOM     26  C   UNL A   1      43.134  30.591  32.221  1.00  0.00     0.031 A 
ATOM     27  C   UNL A   1      42.245  24.777  28.436  1.00  0.00     0.031 A 
ATOM     28  C   UNL A   1      44.200  29.632  32.317  1.00  0.00     0.049 A 
ATOM     29  C   UNL A   1      43.479  24.999  29.268  1.00  0.00     0.074 A 
ATOM     30  C   UNL A   1      45.360  29.711  33.066  1.00  0.00     0.029 A 
ATOM     31  N   UNL A   1      44.226  28.414  31.659  1.00  0.00    -0.354 N 
ATOM     32  N   UNL A   1      43.784  26.018  30.036  1.00  0.00    -0.248 NA
ATOM     33  C   UNL A   1      44.491  23.932  29.255  1.00  0.00     0.031 C 
ATOM     34  C   UNL A   1      46.110  28.558  32.828  1.00  0.00     0.029 A 
ATOM     35  C   UNL A   1      45.387  27.735  31.980  1.00  0.00     0.049 A 
ATOM     36  H   UNL A   1      43.524  28.082  31.053  1.00  0.00     0.167 HD
ATOM     37  C   UNL A   1      45.000  25.697  30.626  1.00  0.00     0.074 A 
ATOM     38  C   UNL A   1      45.375  24.388  30.133  1.00  0.00     0.031 C 
ATOM     39  C   UNL A   1      45.736  26.423  31.503  1.00  0.00     0.031 A 
BRANCH  26  40
ATOM     40  C   UNL A   1      43.269  31.871  32.998  1.00  0.00    -0.014 A 
ATOM     41  C   UNL A   1      42.611  32.013  34.230  1.00  0.00     0.009 A 
ATOM     42  C   UNL A   1      43.973  32.965  32.472  1.00  0.00     0.009 A 
ATOM     43  C   UNL A   1      42.645  33.230  34.914  1.00  0.00     0.001 A 
ATOM     44  C   UNL A   1      44.030  34.171  33.173  1.00  0.00     0.001 A 
ATOM     45  C   UNL A   1      43.358  34.306  34.387  1.00  0.00     0.000 A 
ENDBRANCH  26  40
BRANCH  27  46
ATOM     46  C   UNL A   1      42.046  23.502  27.696  1.00  0.00    -0.014 A 
ATOM     47  C   UNL A   1      41.424  22.402  28.306  1.00  0.00     0.009 A 
ATOM     48  C   UNL A   1      42.501  23.376  26.374  1.00  0.00     0.009 A 
ATOM     49  C   UNL A   1      41.272  21.199  27.613  1.00  0.00     0.001 A 
ATOM     50  C   UNL A   1      42.322  22.180  25.673  1.00  0.00     0.001 A 
ATOM     51  C   UNL A   1      41.715  21.092  26.296  1.00  0.00     0.000 A 
ENDBRANCH  27  46
BRANCH  39  52
ATOM     52  C   UNL A   1      47.001  25.815  32.039  1.00  0.00    -0.014 A 
ATOM     53  C   UNL A   1      46.975  25.154  33.279  1.00  0.00     0.009 A 
ATOM     54  C   UNL A   1      48.229  25.991  31.387  1.00  0.00     0.009 A 
ATOM     55  C   UNL A   1      48.156  24.693  33.861  1.00  0.00     0.001 A 
ATOM     56  C   UNL A   1      49.406  25.504  31.960  1.00  0.00     0.001 A 
ATOM     57  C   UNL A   1      49.369  24.865  33.199  1.00  0.00     0.000 A 
ENDBRANCH  39  52
ENDBRANCH  13  14
ENDBRANCH   6   8
ENDBRANCH   3   4
ENDBRANCH   2   3
ENDBRANCH   1   2
BRANCH   1  58
ATOM     58  C   UNL A   1      33.238  26.949  23.942  1.00  0.00     0.002 C 
BRANCH  58  59
ATOM     59  C   UNL A   1      32.882  27.253  22.483  1.00  0.00     0.021 C 
BRANCH  59  60
ATOM     60  C   UNL A   1      31.820  26.336  21.884  1.00  0.00     0.116 C 
BRANCH  60  61
ATOM     61  N   UNL A   1      32.411  25.347  21.008  1.00  0.00    -0.351 N 
ATOM     62  C   UNL A   1      32.916  24.108  21.279  1.00  0.00     0.278 C 
ATOM     63  H   UNL A   1      32.457  25.611  20.060  1.00  0.00     0.163 HD
ATOM     64  O   UNL A   1      33.444  23.490  20.351  1.00  0.00    -0.268 OA
BRANCH  62  65
ATOM     65  C   UNL A   1      32.854  23.509  22.699  1.00  0.00     0.277 C 
ATOM     66  C   UNL A   1      31.973  22.240  22.732  1.00  0.00     0.109 C 
ATOM     67  N   UNL A   1      34.227  23.375  23.243  1.00  0.00    -0.327 N 
ATOM     68  C   UNL A   1      32.550  21.214  23.649  1.00  0.00    -0.024 C 
ATOM     69  C   UNL A   1      34.249  22.858  24.637  1.00  0.00     0.243 C 
ATOM     70  H   UNL A   1      34.674  24.291  23.228  1.00  0.00     0.347 HD
ATOM     71  H   UNL A   1      34.723  22.701  22.658  1.00  0.00     0.347 HD
ATOM     72  C   UNL A   1      32.670  19.899  23.505  1.00  0.00     0.002 A 
ATOM     73  C   UNL A   1      33.212  21.695  24.914  1.00  0.00     0.196 C 
ATOM     74  C   UNL A   1      32.277  18.939  22.526  1.00  0.00     0.010 A 
ATOM     75  C   UNL A   1      33.432  19.521  24.705  1.00  0.00     0.066 A 
ATOM     76  N   UNL A   1      33.756  20.461  25.540  1.00  0.00    -0.270 NA
ATOM     77  C   UNL A   1      32.638  17.656  22.705  1.00  0.00     0.001 A 
ATOM     78  C   UNL A   1      33.800  18.094  24.826  1.00  0.00     0.028 A 
ATOM     79  C   UNL A   1      33.421  17.242  23.858  1.00  0.00     0.002 A 
BRANCH  69  80
ATOM     80  C   UNL A   1      35.716  22.736  25.058  1.00  0.00     0.012 A 
ATOM     81  C   UNL A   1      36.564  21.682  24.695  1.00  0.00     0.010 A 
ATOM     82  C   UNL A   1      36.283  23.793  25.798  1.00  0.00     0.010 A 
ATOM     83  C   UNL A   1      37.893  21.635  25.133  1.00  0.00     0.001 A 
ATOM     84  C   UNL A   1      37.616  23.763  26.214  1.00  0.00     0.001 A 
ATOM     85  C   UNL A   1      38.417  22.672  25.898  1.00  0.00     0.000 A 
ENDBRANCH  69  80
ENDBRANCH  62  65
ENDBRANCH  60  61
ENDBRANCH  59  60
ENDBRANCH  58  59
ENDBRANCH   1  58
TORSDOF 14
ENDMDL
MODEL 3
REMARK VINA RESULT:     -12.3      1.223      2.871
REMARK SMILES O=C(NCCCCCCNC(=O)[C@H]1CC2=c3ccccc3=N[C@H]2[C@@H](c2ccccc2)[NH2+]1)c1ccc(-c2c3nc(c(-c4ccccc4)c4ccc([nH]4)c(-c4ccccc4)c4nc(c(-c5ccccc5)c5ccc2[nH]5)C=C4)C=C3)cc1
REMARK SMILES IDX 6 1 5 2 4 3 3 4 1 5 2 6 32 8 33 9 79 10 34 11 78 12 35 13
REMARK SMILES IDX 36 14 37 15 72 16 38 17 77 18 71 19 73 20 39 21 76 22 70 23
REMARK SMILES IDX 69 24 40 26 62 27 47 28 61 29 48 30 51 31 60 32 74 33 49 34
REMARK SMILES IDX 50 35 59 37 75 38 52 39 41 40 42 41 46 42 43 43 45 44 44 45
REMARK SMILES IDX 63 46 64 47 68 48 65 49 67 50 66 51 53 52 54 53 58 54 55 55
REMARK SMILES IDX 57 56 56 57 7 58 8 59 9 60 10 61 11 62 12 64 13 65 14 66
REMARK SMILES IDX 31 67 15 68 24 69 16 72 23 73 17 74 21 75 22 76 18 77 20 78
REMARK SMILES IDX 19 79 25 80 26 81 30 82 27 83 29 84 28 85
REMARK H PARENT 3 7 73 25 51 36 10 63 31 70 31 71
REMARK Flexibility Score: inf
ROOT
ATOM      1  C   UNL A   1      32.871  28.431  25.082  1.00  0.00     0.002 C 
ENDROOT
BRANCH   1   2
ATOM      2  C   UNL A   1      33.978  28.352  26.134  1.00  0.00     0.021 C 
BRANCH   2   3
ATOM      3  C   UNL A   1      33.539  28.652  27.563  1.00  0.00     0.116 C 
BRANCH   3   4
ATOM      4  N   UNL A   1      33.599  30.067  27.877  1.00  0.00    -0.352 N 
ATOM      5  O   UNL A   1      34.433  31.971  28.726  1.00  0.00    -0.269 OA
ATOM      6  C   UNL A   1      34.632  30.810  28.385  1.00  0.00     0.251 C 
ATOM      7  H   UNL A   1      32.771  30.569  27.696  1.00  0.00     0.163 HD
BRANCH   6   8
ATOM      8  C   UNL A   1      35.986  30.225  28.536  1.00  0.00     0.039 A 
ATOM      9  C   UNL A   1      36.328  29.654  29.766  1.00  0.00     0.014 A 
ATOM     10  C   UNL A   1      36.940  30.299  27.516  1.00  0.00     0.014 A 
ATOM     11  C   UNL A   1      37.616  29.158  29.971  1.00  0.00     0.010 A 
ATOM     12  C   UNL A   1      38.200  29.729  27.693  1.00  0.00     0.010 A 
ATOM     13  C   UNL A   1      38.564  29.192  28.937  1.00  0.00    -0.014 A 
BRANCH  13  14
ATOM     14  C   UNL A   1      39.966  28.766  29.179  1.00  0.00     0.031 A 
ATOM     15  C   UNL A   1      40.415  27.395  28.742  1.00  0.00     0.074 A 
ATOM     16  C   UNL A   1      40.837  29.603  29.776  1.00  0.00     0.049 A 
ATOM     17  N   UNL A   1      41.598  26.844  28.842  1.00  0.00    -0.248 NA
ATOM     18  C   UNL A   1      39.400  26.520  28.130  1.00  0.00     0.031 C 
ATOM     19  C   UNL A   1      40.524  30.949  30.258  1.00  0.00     0.029 A 
ATOM     20  N   UNL A   1      42.172  29.450  30.057  1.00  0.00    -0.354 N 
ATOM     21  C   UNL A   1      41.462  25.562  28.325  1.00  0.00     0.074 A 
ATOM     22  C   UNL A   1      40.074  25.393  27.962  1.00  0.00     0.031 C 
ATOM     23  C   UNL A   1      41.646  31.518  30.726  1.00  0.00     0.029 A 
ATOM     24  C   UNL A   1      42.751  30.570  30.606  1.00  0.00     0.049 A 
ATOM     25  H   UNL A   1      42.669  28.618  29.882  1.00  0.00     0.167 HD
ATOM     26  C   UNL A   1      42.413  24.619  28.136  1.00  0.00     0.031 A 
ATOM     27  C   UNL A   1      44.030  30.812  30.953  1.00  0.00     0.031 A 
ATOM     28  C   UNL A   1      43.802  24.799  28.454  1.00  0.00     0.049 A 
ATOM     29  C   UNL A   1      45.072  29.751  30.723  1.00  0.00     0.074 A 
ATOM     30  C   UNL A   1      44.849  23.915  28.263  1.00  0.00     0.029 A 
ATOM     31  N   UNL A   1      44.340  25.947  29.011  1.00  0.00    -0.354 N 
ATOM     32  N   UNL A   1      44.931  28.558  30.197  1.00  0.00    -0.248 NA
ATOM     33  C   UNL A   1      46.451  30.077  31.113  1.00  0.00     0.031 C 
ATOM     34  C   UNL A   1      46.016  24.512  28.743  1.00  0.00     0.029 A 
ATOM     35  C   UNL A   1      45.704  25.791  29.176  1.00  0.00     0.049 A 
ATOM     36  H   UNL A   1      43.829  26.753  29.253  1.00  0.00     0.167 HD
ATOM     37  C   UNL A   1      46.207  28.009  30.156  1.00  0.00     0.074 A 
ATOM     38  C   UNL A   1      47.110  29.000  30.705  1.00  0.00     0.031 C 
ATOM     39  C   UNL A   1      46.594  26.794  29.699  1.00  0.00     0.031 A 
BRANCH  26  40
ATOM     40  C   UNL A   1      41.994  23.303  27.541  1.00  0.00    -0.014 A 
ATOM     41  C   UNL A   1      41.492  22.289  28.371  1.00  0.00     0.009 A 
ATOM     42  C   UNL A   1      42.179  23.036  26.175  1.00  0.00     0.009 A 
ATOM     43  C   UNL A   1      41.193  21.029  27.848  1.00  0.00     0.001 A 
ATOM     44  C   UNL A   1      41.852  21.785  25.650  1.00  0.00     0.001 A 
ATOM     45  C   UNL A   1      41.369  20.780  26.487  1.00  0.00     0.000 A 
ENDBRANCH  26  40
BRANCH  27  46
ATOM     46  C   UNL A   1      44.410  32.147  31.488  1.00  0.00    -0.014 A 
ATOM     47  C   UNL A   1      44.412  32.398  32.869  1.00  0.00     0.009 A 
ATOM     48  C   UNL A   1      44.753  33.188  30.611  1.00  0.00     0.009 A 
ATOM     49  C   UNL A   1      44.738  33.664  33.360  1.00  0.00     0.001 A 
ATOM     50  C   UNL A   1      45.106  34.446  31.106  1.00  0.00     0.001 A 
ATOM     51  C   UNL A   1      45.091  34.684  32.478  1.00  0.00     0.000 A 
ENDBRANCH  27  46
BRANCH  39  52
ATOM     52  C   UNL A   1      48.060  26.464  29.715  1.00  0.00    -0.014 A 
ATOM     53  C   UNL A   1      48.827  26.684  28.559  1.00  0.00     0.009 A 
ATOM     54  C   UNL A   1      48.655  25.838  30.818  1.00  0.00     0.009 A 
ATOM     55  C   UNL A   1      50.159  26.270  28.502  1.00  0.00     0.001 A 
ATOM     56  C   UNL A   1      49.996  25.449  30.769  1.00  0.00     0.001 A 
ATOM     57  C   UNL A   1      50.742  25.657  29.609  1.00  0.00     0.000 A 
ENDBRANCH  39  52
ENDBRANCH  13  14
ENDBRANCH   6   8
ENDBRANCH   3   4
ENDBRANCH   2   3
ENDBRANCH   1   2
BRANCH   1  58
ATOM     58  C   UNL A   1      31.511  27.863  25.504  1.00  0.00     0.002 C 
BRANCH  58  59
ATOM     59  C   UNL A   1      30.583  27.450  24.357  1.00  0.00     0.021 C 
BRANCH  59  60
ATOM     60  C   UNL A   1      29.731  26.217  24.642  1.00  0.00     0.116 C 
BRANCH  60  61
ATOM     61  N   UNL A   1      30.137  25.569  25.871  1.00  0.00    -0.351 N 
ATOM     62  C   UNL A   1      31.056  24.585  26.094  1.00  0.00     0.278 C 
ATOM     63  H   UNL A   1      29.674  25.890  26.678  1.00  0.00     0.163 HD
ATOM     64  O   UNL A   1      31.155  24.145  27.243  1.00  0.00    -0.268 OA
BRANCH  62  65
ATOM     65  C   UNL A   1      31.924  24.023  24.950  1.00  0.00     0.277 C 
ATOM     66  C   UNL A   1      33.315  24.695  24.921  1.00  0.00     0.109 C 
ATOM     67  N   UNL A   1      31.908  22.540  24.997  1.00  0.00    -0.327 N 
ATOM     68  C   UNL A   1      34.378  23.709  24.570  1.00  0.00    -0.024 C 
ATOM     69  C   UNL A   1      32.677  21.919  23.885  1.00  0.00     0.243 C 
ATOM     70  H   UNL A   1      30.941  22.224  24.941  1.00  0.00     0.347 HD
ATOM     71  H   UNL A   1      32.351  22.257  25.871  1.00  0.00     0.347 HD
ATOM     72  C   UNL A   1      35.594  23.535  25.075  1.00  0.00     0.002 A 
ATOM     73  C   UNL A   1      34.043  22.648  23.554  1.00  0.00     0.196 C 
ATOM     74  C   UNL A   1      36.398  24.193  26.053  1.00  0.00     0.010 A 
ATOM     75  C   UNL A   1      36.054  22.328  24.372  1.00  0.00     0.066 A 
ATOM     76  N   UNL A   1      35.255  21.788  23.503  1.00  0.00    -0.270 NA
ATOM     77  C   UNL A   1      37.601  23.673  26.348  1.00  0.00     0.001 A 
ATOM     78  C   UNL A   1      37.385  21.811  24.759  1.00  0.00     0.028 A 
ATOM     79  C   UNL A   1      38.084  22.462  25.704  1.00  0.00     0.002 A 
BRANCH  69  80
ATOM     80  C   UNL A   1      32.608  20.401  24.073  1.00  0.00     0.012 A 
ATOM     81  C   UNL A   1      32.419  19.477  23.036  1.00  0.00     0.010 A 
ATOM     82  C   UNL A   1      32.826  19.883  25.365  1.00  0.00     0.010 A 
ATOM     83  C   UNL A   1      32.352  18.103  23.292  1.00  0.00     0.001 A 
ATOM     84  C   UNL A   1      32.786  18.510  25.620  1.00  0.00     0.001 A 
ATOM     85  C   UNL A   1      32.529  17.619  24.584  1.00  0.00     0.000 A 
ENDBRANCH  69  80
ENDBRANCH  62  65
ENDBRANCH  60  61
ENDBRANCH  59  60
ENDBRANCH  58  59
ENDBRANCH   1  58
TORSDOF 14
ENDMDL
