MODEL 1
REMARK VINA RESULT:     -13.7      0.000      0.000
REMARK SMILES Cc1cc(/C=C2/C(=O)NC(=S)[NH+]=C2NCCCCCCNC(=O)c2ccc(-c3c4nc(c(-c5ccccc5)c5ccc([nH]5)c(-c5ccccc5)c5nc(c(-c6ccccc6)c6ccc3[nH]6)C=C5)C=C4)cc2)c(C)n1-c1cccc(C(=O)[O-])c1
REMARK SMILES IDX 17 1 16 2 15 3 14 4 5 5 6 6 7 7 13 8 8 9 9 10 12 11 10 12
REMARK SMILES IDX 11 16 4 17 1 18 2 19 3 20 74 21 72 22 73 23 75 24 76 25
REMARK SMILES IDX 83 26 77 27 79 28 78 29 80 30 81 31 82 32 18 33 19 34 20 35
REMARK SMILES IDX 21 36 22 37 23 39 24 40 25 41 71 42 26 43 70 44 27 45 28 46
REMARK SMILES IDX 29 47 64 48 30 49 69 50 63 51 65 52 31 53 68 54 62 55 61 56
REMARK SMILES IDX 32 58 54 59 39 60 53 61 40 62 43 63 52 64 66 65 41 66 42 67
REMARK SMILES IDX 51 69 67 70 44 71 33 72 34 73 38 74 35 75 37 76 36 77 55 78
REMARK SMILES IDX 56 79 60 80 57 81 59 82 58 83 45 84 46 85 50 86 47 87 49 88
REMARK SMILES IDX 48 89
REMARK H PARENT 9 13 12 14 14 15 21 38 65 57 43 68
REMARK Flexibility Score: inf
ROOT
ATOM      1  C   UNL A   1      34.421  24.544  23.187  1.00  0.00     0.003 C 
ENDROOT
BRANCH   1   2
ATOM      2  C   UNL A   1      34.399  25.798  24.113  1.00  0.00     0.037 C 
BRANCH   2   3
ATOM      3  C   UNL A   1      33.527  27.054  23.973  1.00  0.00     0.194 C 
BRANCH   3   4
ATOM      4  N   UNL A   1      33.006  27.673  25.170  1.00  0.00    -0.305 N 
ATOM      5  C   UNL A   1      30.101  27.624  23.722  1.00  0.00     0.032 C 
ATOM      6  C   UNL A   1      30.793  28.653  24.257  1.00  0.00     0.128 C 
ATOM      7  C   UNL A   1      30.214  29.990  23.971  1.00  0.00     0.319 C 
ATOM      8  C   UNL A   1      32.027  28.655  25.124  1.00  0.00     0.234 C 
ATOM      9  O   UNL A   1      29.450  30.229  23.041  1.00  0.00    -0.250 OA
ATOM     10  N   UNL A   1      30.591  30.959  24.850  1.00  0.00    -0.229 N 
ATOM     11  N   UNL A   1      32.281  29.682  25.896  1.00  0.00    -0.236 N 
ATOM     12  C   UNL A   1      31.509  30.811  25.853  1.00  0.00     0.295 C 
ATOM     13  H   UNL A   1      30.167  31.841  24.756  1.00  0.00     0.268 HD
ATOM     14  H   UNL A   1      33.041  29.640  26.519  1.00  0.00     0.268 HD
ATOM     15  H   UNL A   1      33.357  27.388  26.045  1.00  0.00     0.256 HD
ATOM     16  S   UNL A   1      31.688  32.096  26.917  1.00  0.00    -0.005 S 
BRANCH   5  17
ATOM     17  C   UNL A   1      30.365  26.224  23.743  1.00  0.00    -0.003 A 
ATOM     18  C   UNL A   1      31.486  23.054  22.199  1.00  0.00     0.065 C 
ATOM     19  C   UNL A   1      31.112  24.232  23.014  1.00  0.00     0.020 A 
ATOM     20  C   UNL A   1      30.700  25.476  22.592  1.00  0.00     0.031 A 
ATOM     21  N   UNL A   1      31.086  24.238  24.393  1.00  0.00    -0.318 N 
ATOM     22  C   UNL A   1      30.356  25.350  24.820  1.00  0.00     0.027 A 
ATOM     23  C   UNL A   1      29.871  25.577  26.216  1.00  0.00     0.065 C 
BRANCH  21  24
ATOM     24  C   UNL A   1      31.767  23.329  25.223  1.00  0.00     0.046 A 
ATOM     25  C   UNL A   1      32.754  24.009  26.565  1.00  0.00     0.026 A 
ATOM     26  C   UNL A   1      31.865  21.550  24.820  1.00  0.00     0.036 A 
ATOM     27  C   UNL A   1      33.840  22.937  27.476  1.00  0.00     0.003 A 
ATOM     28  C   UNL A   1      33.002  20.487  25.777  1.00  0.00    -0.001 A 
ATOM     29  C   UNL A   1      33.979  21.189  27.104  1.00  0.00     0.010 A 
BRANCH  28  30
ATOM     30  C   UNL A   1      33.182  19.048  25.590  1.00  0.00     0.072 C 
ATOM     31  O   UNL A   1      32.521  18.194  26.151  1.00  0.00    -0.545 OA
ATOM     32  O   UNL A   1      34.104  18.764  24.665  1.00  0.00    -0.545 OA
ENDBRANCH  28  30
ENDBRANCH  21  24
ENDBRANCH   5  17
ENDBRANCH   3   4
ENDBRANCH   2   3
ENDBRANCH   1   2
BRANCH   1  33
ATOM     33  C   UNL A   1      35.218  22.954  23.310  1.00  0.00     0.002 C 
BRANCH  33  34
ATOM     34  C   UNL A   1      36.841  22.065  24.497  1.00  0.00     0.021 C 
BRANCH  34  35
ATOM     35  C   UNL A   1      37.997  22.719  25.738  1.00  0.00     0.116 C 
BRANCH  35  36
ATOM     36  N   UNL A   1      39.247  22.037  26.055  1.00  0.00    -0.352 N 
ATOM     37  C   UNL A   1      40.471  22.516  26.550  1.00  0.00     0.251 C 
ATOM     38  H   UNL A   1      39.230  21.067  25.893  1.00  0.00     0.163 HD
ATOM     39  O   UNL A   1      41.415  21.721  26.512  1.00  0.00    -0.269 OA
BRANCH  37  40
ATOM     40  C   UNL A   1      40.760  23.926  27.092  1.00  0.00     0.039 A 
ATOM     41  C   UNL A   1      40.167  24.368  28.267  1.00  0.00     0.014 A 
ATOM     42  C   UNL A   1      41.274  24.978  26.294  1.00  0.00     0.014 A 
ATOM     43  C   UNL A   1      40.188  25.772  28.656  1.00  0.00     0.010 A 
ATOM     44  C   UNL A   1      41.228  26.421  26.662  1.00  0.00     0.010 A 
ATOM     45  C   UNL A   1      40.681  26.894  27.876  1.00  0.00    -0.014 A 
BRANCH  45  46
ATOM     46  C   UNL A   1      40.016  28.410  28.216  1.00  0.00     0.031 A 
ATOM     47  C   UNL A   1      41.266  29.173  28.467  1.00  0.00     0.074 A 
ATOM     48  C   UNL A   1      38.868  29.182  28.518  1.00  0.00     0.049 A 
ATOM     49  N   UNL A   1      42.039  28.737  29.417  1.00  0.00    -0.248 NA
ATOM     50  C   UNL A   1      41.913  30.065  27.508  1.00  0.00     0.031 C 
ATOM     51  C   UNL A   1      37.470  28.736  28.703  1.00  0.00     0.029 A 
ATOM     52  N   UNL A   1      38.659  30.607  28.748  1.00  0.00    -0.354 N 
ATOM     53  C   UNL A   1      43.185  29.479  29.369  1.00  0.00     0.074 A 
ATOM     54  C   UNL A   1      43.139  30.105  28.049  1.00  0.00     0.031 C 
ATOM     55  C   UNL A   1      36.593  29.783  28.841  1.00  0.00     0.029 A 
ATOM     56  C   UNL A   1      37.277  31.079  28.826  1.00  0.00     0.049 A 
ATOM     57  H   UNL A   1      39.417  31.227  28.846  1.00  0.00     0.167 HD
ATOM     58  C   UNL A   1      43.557  30.017  30.566  1.00  0.00     0.031 A 
ATOM     59  C   UNL A   1      36.716  32.365  28.959  1.00  0.00     0.031 A 
ATOM     60  C   UNL A   1      43.142  31.392  30.662  1.00  0.00     0.049 A 
ATOM     61  C   UNL A   1      37.735  33.178  29.626  1.00  0.00     0.074 A 
ATOM     62  C   UNL A   1      43.154  32.440  29.760  1.00  0.00     0.029 A 
ATOM     63  N   UNL A   1      42.172  31.684  31.596  1.00  0.00    -0.354 N 
ATOM     64  N   UNL A   1      37.883  33.124  30.915  1.00  0.00    -0.248 NA
ATOM     65  C   UNL A   1      38.528  34.192  28.943  1.00  0.00     0.031 C 
ATOM     66  C   UNL A   1      41.859  32.991  29.855  1.00  0.00     0.029 A 
ATOM     67  C   UNL A   1      41.297  32.604  31.063  1.00  0.00     0.049 A 
ATOM     68  H   UNL A   1      42.115  31.297  32.500  1.00  0.00     0.167 HD
ATOM     69  C   UNL A   1      39.139  33.612  31.075  1.00  0.00     0.074 A 
ATOM     70  C   UNL A   1      39.352  34.503  29.947  1.00  0.00     0.031 C 
ATOM     71  C   UNL A   1      40.015  32.783  31.693  1.00  0.00     0.031 A 
BRANCH  58  72
ATOM     72  C   UNL A   1      43.485  29.042  31.727  1.00  0.00    -0.014 A 
ATOM     73  C   UNL A   1      42.361  29.042  32.555  1.00  0.00     0.009 A 
ATOM     74  C   UNL A   1      44.569  28.206  32.086  1.00  0.00     0.009 A 
ATOM     75  C   UNL A   1      42.357  28.292  33.739  1.00  0.00     0.001 A 
ATOM     76  C   UNL A   1      44.587  27.504  33.289  1.00  0.00     0.001 A 
ATOM     77  C   UNL A   1      43.478  27.552  34.120  1.00  0.00     0.000 A 
ENDBRANCH  58  72
BRANCH  59  78
ATOM     78  C   UNL A   1      35.411  33.261  28.933  1.00  0.00    -0.014 A 
ATOM     79  C   UNL A   1      34.671  33.498  30.152  1.00  0.00     0.009 A 
ATOM     80  C   UNL A   1      35.142  34.209  27.935  1.00  0.00     0.009 A 
ATOM     81  C   UNL A   1      33.847  34.623  30.395  1.00  0.00     0.001 A 
ATOM     82  C   UNL A   1      34.278  35.329  28.165  1.00  0.00     0.001 A 
ATOM     83  C   UNL A   1      33.662  35.556  29.397  1.00  0.00     0.000 A 
ENDBRANCH  59  78
BRANCH  71  84
ATOM     84  C   UNL A   1      39.490  31.926  32.832  1.00  0.00    -0.014 A 
ATOM     85  C   UNL A   1      39.081  30.578  32.720  1.00  0.00     0.009 A 
ATOM     86  C   UNL A   1      39.366  32.526  34.092  1.00  0.00     0.009 A 
ATOM     87  C   UNL A   1      38.528  29.882  33.803  1.00  0.00     0.001 A 
ATOM     88  C   UNL A   1      38.860  31.819  35.187  1.00  0.00     0.001 A 
ATOM     89  C   UNL A   1      38.427  30.504  35.041  1.00  0.00     0.000 A 
ENDBRANCH  71  84
ENDBRANCH  45  46
ENDBRANCH  37  40
ENDBRANCH  35  36
ENDBRANCH  34  35
ENDBRANCH  33  34
ENDBRANCH   1  33
TORSDOF 15
ENDMDL
MODEL 2
REMARK VINA RESULT:     -13.0      6.191     12.274
REMARK SMILES Cc1cc(/C=C2/C(=O)NC(=S)[NH+]=C2NCCCCCCNC(=O)c2ccc(-c3c4nc(c(-c5ccccc5)c5ccc([nH]5)c(-c5ccccc5)c5nc(c(-c6ccccc6)c6ccc3[nH]6)C=C5)C=C4)cc2)c(C)n1-c1cccc(C(=O)[O-])c1
REMARK SMILES IDX 17 1 16 2 15 3 14 4 5 5 6 6 7 7 13 8 8 9 9 10 12 11 10 12
REMARK SMILES IDX 11 16 4 17 1 18 2 19 3 20 74 21 72 22 73 23 75 24 76 25
REMARK SMILES IDX 83 26 77 27 79 28 78 29 80 30 81 31 82 32 18 33 19 34 20 35
REMARK SMILES IDX 21 36 22 37 23 39 24 40 25 41 71 42 26 43 70 44 27 45 28 46
REMARK SMILES IDX 29 47 64 48 30 49 69 50 63 51 65 52 31 53 68 54 62 55 61 56
REMARK SMILES IDX 32 58 54 59 39 60 53 61 40 62 43 63 52 64 66 65 41 66 42 67
REMARK SMILES IDX 51 69 67 70 44 71 33 72 34 73 38 74 35 75 37 76 36 77 55 78
REMARK SMILES IDX 56 79 60 80 57 81 59 82 58 83 45 84 46 85 50 86 47 87 49 88
REMARK SMILES IDX 48 89
REMARK H PARENT 9 13 12 14 14 15 21 38 65 57 43 68
REMARK Flexibility Score: inf
ROOT
ATOM      1  C   UNL A   1      41.687  31.444  36.124  1.00  0.00     0.003 C 
ENDROOT
BRANCH   1   2
ATOM      2  C   UNL A   1      40.486  30.649  35.524  1.00  0.00     0.037 C 
BRANCH   2   3
ATOM      3  C   UNL A   1      39.191  31.216  34.925  1.00  0.00     0.194 C 
BRANCH   3   4
ATOM      4  N   UNL A   1      38.006  31.257  35.752  1.00  0.00    -0.305 N 
ATOM      5  C   UNL A   1      38.580  34.432  36.112  1.00  0.00     0.032 C 
ATOM      6  C   UNL A   1      38.418  33.463  37.039  1.00  0.00     0.128 C 
ATOM      7  C   UNL A   1      38.737  33.888  38.426  1.00  0.00     0.319 C 
ATOM      8  C   UNL A   1      37.933  32.042  36.893  1.00  0.00     0.234 C 
ATOM      9  O   UNL A   1      39.447  34.847  38.710  1.00  0.00    -0.250 OA
ATOM     10  N   UNL A   1      38.153  33.123  39.389  1.00  0.00    -0.229 N 
ATOM     11  N   UNL A   1      37.427  31.417  37.926  1.00  0.00    -0.236 N 
ATOM     12  C   UNL A   1      37.429  31.983  39.172  1.00  0.00     0.295 C 
ATOM     13  H   UNL A   1      38.262  33.415  40.322  1.00  0.00     0.268 HD
ATOM     14  H   UNL A   1      37.037  30.522  37.804  1.00  0.00     0.268 HD
ATOM     15  H   UNL A   1      37.228  30.711  35.497  1.00  0.00     0.256 HD
ATOM     16  S   UNL A   1      36.665  31.302  40.501  1.00  0.00    -0.005 S 
BRANCH   5  17
ATOM     17  C   UNL A   1      38.418  34.393  34.697  1.00  0.00    -0.003 A 
ATOM     18  C   UNL A   1      39.705  34.305  31.229  1.00  0.00     0.065 C 
ATOM     19  C   UNL A   1      39.010  34.222  32.535  1.00  0.00     0.020 A 
ATOM     20  C   UNL A   1      39.485  34.550  33.785  1.00  0.00     0.031 A 
ATOM     21  N   UNL A   1      37.701  33.819  32.686  1.00  0.00    -0.318 N 
ATOM     22  C   UNL A   1      37.261  34.201  33.956  1.00  0.00     0.027 A 
ATOM     23  C   UNL A   1      35.837  34.189  34.414  1.00  0.00     0.065 C 
BRANCH  21  24
ATOM     24  C   UNL A   1      36.970  33.061  31.752  1.00  0.00     0.046 A 
ATOM     25  C   UNL A   1      37.336  31.302  31.642  1.00  0.00     0.026 A 
ATOM     26  C   UNL A   1      35.877  33.852  30.521  1.00  0.00     0.036 A 
ATOM     27  C   UNL A   1      36.641  30.352  30.311  1.00  0.00     0.003 A 
ATOM     28  C   UNL A   1      35.192  32.837  29.164  1.00  0.00    -0.001 A 
ATOM     29  C   UNL A   1      35.576  31.090  29.073  1.00  0.00     0.010 A 
BRANCH  28  30
ATOM     30  C   UNL A   1      34.292  33.315  28.115  1.00  0.00     0.072 C 
ATOM     31  O   UNL A   1      33.120  33.003  28.020  1.00  0.00    -0.545 OA
ATOM     32  O   UNL A   1      34.876  34.206  27.308  1.00  0.00    -0.545 OA
ENDBRANCH  28  30
ENDBRANCH  21  24
ENDBRANCH   5  17
ENDBRANCH   3   4
ENDBRANCH   2   3
ENDBRANCH   1   2
BRANCH   1  33
ATOM     33  C   UNL A   1      42.017  33.184  36.323  1.00  0.00     0.002 C 
BRANCH  33  34
ATOM     34  C   UNL A   1      42.671  34.845  35.040  1.00  0.00     0.021 C 
BRANCH  34  35
ATOM     35  C   UNL A   1      43.879  34.993  33.690  1.00  0.00     0.116 C 
BRANCH  35  36
ATOM     36  N   UNL A   1      43.684  35.927  32.587  1.00  0.00    -0.352 N 
ATOM     37  C   UNL A   1      43.482  35.718  31.212  1.00  0.00     0.251 C 
ATOM     38  H   UNL A   1      43.697  36.874  32.853  1.00  0.00     0.163 HD
ATOM     39  O   UNL A   1      43.563  36.722  30.497  1.00  0.00    -0.269 OA
BRANCH  37  40
ATOM     40  C   UNL A   1      43.209  34.376  30.513  1.00  0.00     0.039 A 
ATOM     41  C   UNL A   1      43.440  33.175  31.170  1.00  0.00     0.014 A 
ATOM     42  C   UNL A   1      43.112  34.235  29.106  1.00  0.00     0.014 A 
ATOM     43  C   UNL A   1      43.467  31.904  30.459  1.00  0.00     0.010 A 
ATOM     44  C   UNL A   1      43.213  32.940  28.376  1.00  0.00     0.010 A 
ATOM     45  C   UNL A   1      43.393  31.697  29.023  1.00  0.00    -0.014 A 
BRANCH  45  46
ATOM     46  C   UNL A   1      44.093  30.283  28.418  1.00  0.00     0.031 A 
ATOM     47  C   UNL A   1      42.875  29.613  27.894  1.00  0.00     0.074 A 
ATOM     48  C   UNL A   1      45.223  29.432  28.349  1.00  0.00     0.049 A 
ATOM     49  N   UNL A   1      41.922  29.379  28.747  1.00  0.00    -0.248 NA
ATOM     50  C   UNL A   1      42.466  29.588  26.492  1.00  0.00     0.031 C 
ATOM     51  C   UNL A   1      46.533  29.571  29.020  1.00  0.00     0.029 A 
ATOM     52  N   UNL A   1      45.488  28.185  27.640  1.00  0.00    -0.354 N 
ATOM     53  C   UNL A   1      40.856  28.912  28.032  1.00  0.00     0.074 A 
ATOM     54  C   UNL A   1      41.171  29.282  26.653  1.00  0.00     0.031 C 
ATOM     55  C   UNL A   1      47.444  28.632  28.604  1.00  0.00     0.029 A 
ATOM     56  C   UNL A   1      46.865  27.693  27.639  1.00  0.00     0.049 A 
ATOM     57  H   UNL A   1      44.769  27.694  27.181  1.00  0.00     0.167 HD
ATOM     58  C   UNL A   1      40.321  27.753  28.512  1.00  0.00     0.031 A 
ATOM     59  C   UNL A   1      47.483  26.594  27.010  1.00  0.00     0.031 A 
ATOM     60  C   UNL A   1      40.808  26.617  27.772  1.00  0.00     0.049 A 
ATOM     61  C   UNL A   1      46.423  25.604  26.804  1.00  0.00     0.074 A 
ATOM     62  C   UNL A   1      41.024  26.400  26.424  1.00  0.00     0.029 A 
ATOM     63  N   UNL A   1      41.620  25.736  28.452  1.00  0.00    -0.354 N 
ATOM     64  N   UNL A   1      46.052  24.823  27.774  1.00  0.00    -0.248 NA
ATOM     65  C   UNL A   1      45.832  25.318  25.504  1.00  0.00     0.031 C 
ATOM     66  C   UNL A   1      42.318  25.842  26.369  1.00  0.00     0.029 A 
ATOM     67  C   UNL A   1      42.636  25.327  27.617  1.00  0.00     0.049 A 
ATOM     68  H   UNL A   1      41.494  25.446  29.384  1.00  0.00     0.167 HD
ATOM     69  C   UNL A   1      44.825  24.422  27.357  1.00  0.00     0.074 A 
ATOM     70  C   UNL A   1      44.871  24.482  25.907  1.00  0.00     0.031 C 
ATOM     71  C   UNL A   1      43.800  24.708  28.197  1.00  0.00     0.031 A 
BRANCH  58  72
ATOM     72  C   UNL A   1      40.124  27.744  30.017  1.00  0.00    -0.014 A 
ATOM     73  C   UNL A   1      38.862  27.457  30.543  1.00  0.00     0.009 A 
ATOM     74  C   UNL A   1      41.141  28.135  30.919  1.00  0.00     0.009 A 
ATOM     75  C   UNL A   1      38.612  27.632  31.911  1.00  0.00     0.001 A 
ATOM     76  C   UNL A   1      40.878  28.361  32.268  1.00  0.00     0.001 A 
ATOM     77  C   UNL A   1      39.607  28.113  32.764  1.00  0.00     0.000 A 
ENDBRANCH  58  72
BRANCH  59  78
ATOM     78  C   UNL A   1      48.832  25.850  26.644  1.00  0.00    -0.014 A 
ATOM     79  C   UNL A   1      49.475  26.102  25.374  1.00  0.00     0.009 A 
ATOM     80  C   UNL A   1      49.699  25.302  27.600  1.00  0.00     0.009 A 
ATOM     81  C   UNL A   1      50.859  25.942  25.121  1.00  0.00     0.001 A 
ATOM     82  C   UNL A   1      51.093  25.103  27.335  1.00  0.00     0.001 A 
ATOM     83  C   UNL A   1      51.678  25.453  26.117  1.00  0.00     0.000 A 
ENDBRANCH  59  78
BRANCH  71  84
ATOM     84  C   UNL A   1      44.060  24.597  29.690  1.00  0.00    -0.014 A 
ATOM     85  C   UNL A   1      43.972  23.408  30.448  1.00  0.00     0.009 A 
ATOM     86  C   UNL A   1      44.378  25.772  30.382  1.00  0.00     0.009 A 
ATOM     87  C   UNL A   1      44.145  23.405  31.838  1.00  0.00     0.001 A 
ATOM     88  C   UNL A   1      44.599  25.764  31.763  1.00  0.00     0.001 A 
ATOM     89  C   UNL A   1      44.468  24.586  32.494  1.00  0.00     0.000 A 
ENDBRANCH  71  84
ENDBRANCH  45  46
ENDBRANCH  37  40
ENDBRANCH  35  36
ENDBRANCH  34  35
ENDBRANCH  33  34
ENDBRANCH   1  33
TORSDOF 15
ENDMDL
MODEL 3
REMARK VINA RESULT:     -12.5      6.301     11.237
REMARK SMILES Cc1cc(/C=C2/C(=O)NC(=S)[NH+]=C2NCCCCCCNC(=O)c2ccc(-c3c4nc(c(-c5ccccc5)c5ccc([nH]5)c(-c5ccccc5)c5nc(c(-c6ccccc6)c6ccc3[nH]6)C=C5)C=C4)cc2)c(C)n1-c1cccc(C(=O)[O-])c1
REMARK SMILES IDX 17 1 16 2 15 3 14 4 5 5 6 6 7 7 13 8 8 9 9 10 12 11 10 12
REMARK SMILES IDX 11 16 4 17 1 18 2 19 3 20 74 21 72 22 73 23 75 24 76 25
REMARK SMILES IDX 83 26 77 27 79 28 78 29 80 30 81 31 82 32 18 33 19 34 20 35
REMARK SMILES IDX 21 36 22 37 23 39 24 40 25 41 71 42 26 43 70 44 27 45 28 46
REMARK SMILES IDX 29 47 64 48 30 49 69 50 63 51 65 52 31 53 68 54 62 55 61 56
REMARK SMILES IDX 32 58 54 59 39 60 53 61 40 62 43 63 52 64 66 65 41 66 42 67
REMARK SMILES IDX 51 69 67 70 44 71 33 72 34 73 38 74 35 75 37 76 36 77 55 78
REMARK SMILES IDX 56 79 60 80 57 81 59 82 58 83 45 84 46 85 50 86 47 87 49 88
REMARK SMILES IDX 48 89
REMARK H PARENT 9 13 12 14 14 15 21 38 65 57 43 68
REMARK Flexibility Score: inf
ROOT
ATOM      1  C   UNL A   1      49.660  25.339  27.905  1.00  0.00     0.003 C 
ENDROOT
BRANCH   1   2
ATOM      2  C   UNL A   1      50.685  25.569  26.752  1.00  0.00     0.037 C 
BRANCH   2   3
ATOM      3  C   UNL A   1      50.387  25.898  25.282  1.00  0.00     0.194 C 
BRANCH   3   4
ATOM      4  N   UNL A   1      50.704  27.219  24.790  1.00  0.00    -0.305 N 
ATOM      5  C   UNL A   1      47.699  27.292  23.562  1.00  0.00     0.032 C 
ATOM      6  C   UNL A   1      48.894  27.476  22.960  1.00  0.00     0.128 C 
ATOM      7  C   UNL A   1      48.825  27.535  21.477  1.00  0.00     0.319 C 
ATOM      8  C   UNL A   1      50.268  27.666  23.551  1.00  0.00     0.234 C 
ATOM      9  O   UNL A   1      47.903  27.078  20.808  1.00  0.00    -0.250 OA
ATOM     10  N   UNL A   1      49.881  28.168  20.897  1.00  0.00    -0.229 N 
ATOM     11  N   UNL A   1      51.201  28.263  22.853  1.00  0.00    -0.236 N 
ATOM     12  C   UNL A   1      50.995  28.622  21.548  1.00  0.00     0.295 C 
ATOM     13  H   UNL A   1      49.840  28.311  19.924  1.00  0.00     0.268 HD
ATOM     14  H   UNL A   1      52.068  28.458  23.275  1.00  0.00     0.268 HD
ATOM     15  H   UNL A   1      51.245  27.820  25.351  1.00  0.00     0.256 HD
ATOM     16  S   UNL A   1      52.090  29.519  20.650  1.00  0.00    -0.005 S 
BRANCH   5  17
ATOM     17  C   UNL A   1      47.374  27.143  24.941  1.00  0.00    -0.003 A 
ATOM     18  C   UNL A   1      46.756  28.453  28.346  1.00  0.00     0.065 C 
ATOM     19  C   UNL A   1      46.855  27.762  27.040  1.00  0.00     0.020 A 
ATOM     20  C   UNL A   1      47.459  28.195  25.881  1.00  0.00     0.031 A 
ATOM     21  N   UNL A   1      46.361  26.499  26.797  1.00  0.00    -0.318 N 
ATOM     22  C   UNL A   1      46.932  26.016  25.618  1.00  0.00     0.027 A 
ATOM     23  C   UNL A   1      46.867  24.597  25.147  1.00  0.00     0.065 C 
BRANCH  21  24
ATOM     24  C   UNL A   1      45.371  25.852  27.561  1.00  0.00     0.046 A 
ATOM     25  C   UNL A   1      45.919  24.832  28.938  1.00  0.00     0.026 A 
ATOM     26  C   UNL A   1      43.620  25.832  27.040  1.00  0.00     0.036 A 
ATOM     27  C   UNL A   1      44.744  23.788  29.768  1.00  0.00     0.003 A 
ATOM     28  C   UNL A   1      42.449  24.736  27.918  1.00  0.00    -0.001 A 
ATOM     29  C   UNL A   1      43.020  23.725  29.281  1.00  0.00     0.010 A 
BRANCH  28  30
ATOM     30  C   UNL A   1      41.019  24.619  27.635  1.00  0.00     0.072 C 
ATOM     31  O   UNL A   1      40.149  25.230  28.226  1.00  0.00    -0.545 OA
ATOM     32  O   UNL A   1      40.769  23.823  26.591  1.00  0.00    -0.545 OA
ENDBRANCH  28  30
ENDBRANCH  21  24
ENDBRANCH   5  17
ENDBRANCH   3   4
ENDBRANCH   2   3
ENDBRANCH   1   2
BRANCH   1  33
ATOM     33  C   UNL A   1      49.725  25.619  29.664  1.00  0.00     0.002 C 
BRANCH  33  34
ATOM     34  C   UNL A   1      48.770  26.978  31.104  1.00  0.00     0.021 C 
BRANCH  34  35
ATOM     35  C   UNL A   1      47.950  26.740  32.708  1.00  0.00     0.116 C 
BRANCH  35  36
ATOM     36  N   UNL A   1      47.474  25.429  33.137  1.00  0.00    -0.352 N 
ATOM     37  C   UNL A   1      46.180  24.942  33.385  1.00  0.00     0.251 C 
ATOM     38  H   UNL A   1      48.187  24.767  33.280  1.00  0.00     0.163 HD
ATOM     39  O   UNL A   1      46.116  23.844  33.946  1.00  0.00    -0.269 OA
BRANCH  37  40
ATOM     40  C   UNL A   1      44.851  25.648  33.065  1.00  0.00     0.039 A 
ATOM     41  C   UNL A   1      44.840  26.896  32.457  1.00  0.00     0.014 A 
ATOM     42  C   UNL A   1      43.623  25.320  33.692  1.00  0.00     0.014 A 
ATOM     43  C   UNL A   1      43.634  27.711  32.398  1.00  0.00     0.010 A 
ATOM     44  C   UNL A   1      42.413  26.189  33.691  1.00  0.00     0.010 A 
ATOM     45  C   UNL A   1      42.357  27.439  33.034  1.00  0.00    -0.014 A 
BRANCH  45  46
ATOM     46  C   UNL A   1      41.378  28.771  33.381  1.00  0.00     0.031 A 
ATOM     47  C   UNL A   1      40.236  28.478  32.475  1.00  0.00     0.074 A 
ATOM     48  C   UNL A   1      41.248  30.048  33.981  1.00  0.00     0.049 A 
ATOM     49  N   UNL A   1      40.506  28.366  31.209  1.00  0.00    -0.248 NA
ATOM     50  C   UNL A   1      38.966  27.885  32.888  1.00  0.00     0.031 C 
ATOM     51  C   UNL A   1      42.269  30.850  34.688  1.00  0.00     0.029 A 
ATOM     52  N   UNL A   1      40.133  30.979  34.107  1.00  0.00    -0.354 N 
ATOM     53  C   UNL A   1      39.361  27.945  30.594  1.00  0.00     0.074 A 
ATOM     54  C   UNL A   1      38.537  27.451  31.695  1.00  0.00     0.031 C 
ATOM     55  C   UNL A   1      41.747  31.979  35.269  1.00  0.00     0.029 A 
ATOM     56  C   UNL A   1      40.316  32.129  34.991  1.00  0.00     0.049 A 
ATOM     57  H   UNL A   1      39.290  30.840  33.617  1.00  0.00     0.167 HD
ATOM     58  C   UNL A   1      38.997  28.690  29.512  1.00  0.00     0.031 A 
ATOM     59  C   UNL A   1      39.450  33.162  35.402  1.00  0.00     0.031 A 
ATOM     60  C   UNL A   1      37.983  29.649  29.866  1.00  0.00     0.049 A 
ATOM     61  C   UNL A   1      38.454  33.296  34.336  1.00  0.00     0.074 A 
ATOM     62  C   UNL A   1      36.856  29.569  30.662  1.00  0.00     0.029 A 
ATOM     63  N   UNL A   1      38.341  30.979  29.817  1.00  0.00    -0.354 N 
ATOM     64  N   UNL A   1      38.725  33.968  33.259  1.00  0.00    -0.248 NA
ATOM     65  C   UNL A   1      37.077  32.835  34.461  1.00  0.00     0.031 C 
ATOM     66  C   UNL A   1      36.936  30.711  31.488  1.00  0.00     0.029 A 
ATOM     67  C   UNL A   1      37.781  31.635  30.891  1.00  0.00     0.049 A 
ATOM     68  H   UNL A   1      38.906  31.393  29.125  1.00  0.00     0.167 HD
ATOM     69  C   UNL A   1      37.804  33.488  32.387  1.00  0.00     0.074 A 
ATOM     70  C   UNL A   1      36.680  33.068  33.207  1.00  0.00     0.031 C 
ATOM     71  C   UNL A   1      38.302  32.925  31.259  1.00  0.00     0.031 A 
BRANCH  58  72
ATOM     72  C   UNL A   1      40.143  29.001  28.566  1.00  0.00    -0.014 A 
ATOM     73  C   UNL A   1      40.086  28.548  27.246  1.00  0.00     0.009 A 
ATOM     74  C   UNL A   1      41.333  29.633  28.996  1.00  0.00     0.009 A 
ATOM     75  C   UNL A   1      41.211  28.654  26.415  1.00  0.00     0.001 A 
ATOM     76  C   UNL A   1      42.467  29.690  28.189  1.00  0.00     0.001 A 
ATOM     77  C   UNL A   1      42.406  29.193  26.895  1.00  0.00     0.000 A 
ENDBRANCH  58  72
BRANCH  59  78
ATOM     78  C   UNL A   1      39.203  34.395  36.365  1.00  0.00    -0.014 A 
ATOM     79  C   UNL A   1      38.672  34.181  37.692  1.00  0.00     0.009 A 
ATOM     80  C   UNL A   1      39.855  35.629  36.227  1.00  0.00     0.009 A 
ATOM     81  C   UNL A   1      38.874  35.045  38.795  1.00  0.00     0.001 A 
ATOM     82  C   UNL A   1      40.027  36.524  37.332  1.00  0.00     0.001 A 
ATOM     83  C   UNL A   1      39.572  36.221  38.616  1.00  0.00     0.000 A 
ENDBRANCH  59  78
BRANCH  71  84
ATOM     84  C   UNL A   1      39.530  33.567  30.635  1.00  0.00    -0.014 A 
ATOM     85  C   UNL A   1      39.514  34.656  29.735  1.00  0.00     0.009 A 
ATOM     86  C   UNL A   1      40.779  33.015  30.946  1.00  0.00     0.009 A 
ATOM     87  C   UNL A   1      40.687  35.136  29.138  1.00  0.00     0.001 A 
ATOM     88  C   UNL A   1      41.957  33.524  30.389  1.00  0.00     0.001 A 
ATOM     89  C   UNL A   1      41.911  34.573  29.474  1.00  0.00     0.000 A 
ENDBRANCH  71  84
ENDBRANCH  45  46
ENDBRANCH  37  40
ENDBRANCH  35  36
ENDBRANCH  34  35
ENDBRANCH  33  34
ENDBRANCH   1  33
TORSDOF 15
ENDMDL
