MODEL 1
REMARK VINA RESULT:     -10.0      0.000      0.000
REMARK SMILES C[C@@H]1CN([C@@H](CCS(C)(=O)=O)C(=O)NCCCCCCNC(=O)c2ccc(-c3c4nc(c(-c5ccccc5)c5ccc([nH]5)c(-c5ccccc5)c5nc(c(-c6ccccc6)c6ccc3[nH]6)C=C5)C=C4)cc2)S(=O)(=O)C1
REMARK SMILES IDX 17 1 16 2 15 3 14 4 12 5 13 6 5 8 4 9 1 10 2 11 3 12 75 13
REMARK SMILES IDX 72 14 73 15 74 16 6 17 7 18 8 19 9 20 10 21 11 22 18 23
REMARK SMILES IDX 19 24 20 25 21 26 22 27 23 29 24 30 25 31 71 32 26 33 70 34
REMARK SMILES IDX 27 35 28 36 29 37 64 38 30 39 69 40 63 41 65 42 31 43 68 44
REMARK SMILES IDX 62 45 61 46 32 48 54 49 39 50 53 51 40 52 43 53 52 54 66 55
REMARK SMILES IDX 41 56 42 57 51 59 67 60 44 61 33 62 34 63 38 64 35 65 37 66
REMARK SMILES IDX 36 67 55 68 56 69 60 70 57 71 59 72 58 73 45 74 46 75 50 76
REMARK SMILES IDX 47 77 49 78 48 79
REMARK H PARENT 14 7 21 28 65 47 43 58
REMARK Flexibility Score: inf
ROOT
ATOM      1  C   UNL A   1      38.590  22.161  25.763  1.00  0.00     0.002 C 
ENDROOT
BRANCH   1   2
ATOM      2  C   UNL A   1      37.760  23.437  25.926  1.00  0.00     0.021 C 
BRANCH   2   3
ATOM      3  C   UNL A   1      36.323  23.224  25.472  1.00  0.00     0.116 C 
BRANCH   3   4
ATOM      4  N   UNL A   1      35.384  23.226  26.560  1.00  0.00    -0.355 N 
ATOM      5  C   UNL A   1      34.067  22.923  26.588  1.00  0.00     0.238 C 
ATOM      6  O   UNL A   1      33.575  22.730  27.711  1.00  0.00    -0.273 OA
ATOM      7  H   UNL A   1      35.763  23.491  27.429  1.00  0.00     0.163 HD
BRANCH   5   8
ATOM      8  C   UNL A   1      33.188  22.726  25.358  1.00  0.00     0.163 C 
BRANCH   8   9
ATOM      9  N   UNL A   1      32.634  23.801  24.475  1.00  0.00    -0.189 NA
ATOM     10  C   UNL A   1      29.623  26.056  24.027  1.00  0.00     0.010 C 
ATOM     11  C   UNL A   1      30.922  25.310  23.786  1.00  0.00     0.017 C 
ATOM     12  C   UNL A   1      31.260  24.260  24.851  1.00  0.00     0.107 C 
ATOM     13  C   UNL A   1      32.119  26.249  23.776  1.00  0.00     0.159 C 
ATOM     14  S   UNL A   1      33.528  25.188  24.031  1.00  0.00     0.215 S 
ATOM     15  O   UNL A   1      34.249  25.683  25.180  1.00  0.00    -0.212 OA
ATOM     16  O   UNL A   1      34.135  24.939  22.746  1.00  0.00    -0.212 OA
ENDBRANCH   8   9
BRANCH   8  17
ATOM     17  C   UNL A   1      33.597  21.487  24.509  1.00  0.00     0.046 C 
BRANCH  17  18
ATOM     18  C   UNL A   1      32.514  20.485  24.119  1.00  0.00     0.139 C 
BRANCH  18  19
ATOM     19  S   UNL A   1      32.959  18.759  24.343  1.00  0.00     0.147 S 
ATOM     20  C   UNL A   1      32.570  17.963  22.811  1.00  0.00     0.158 C 
ATOM     21  O   UNL A   1      34.400  18.706  24.505  1.00  0.00    -0.229 OA
ATOM     22  O   UNL A   1      32.084  18.154  25.322  1.00  0.00    -0.229 OA
ENDBRANCH  18  19
ENDBRANCH  17  18
ENDBRANCH   8  17
ENDBRANCH   5   8
ENDBRANCH   3   4
ENDBRANCH   2   3
ENDBRANCH   1   2
BRANCH   1  23
ATOM     23  C   UNL A   1      37.892  21.028  24.992  1.00  0.00     0.002 C 
BRANCH  23  24
ATOM     24  C   UNL A   1      38.631  19.689  24.996  1.00  0.00     0.021 C 
BRANCH  24  25
ATOM     25  C   UNL A   1      39.468  19.448  26.246  1.00  0.00     0.116 C 
BRANCH  25  26
ATOM     26  N   UNL A   1      40.789  18.928  25.920  1.00  0.00    -0.352 N 
ATOM     27  C   UNL A   1      41.990  19.577  25.839  1.00  0.00     0.251 C 
ATOM     28  H   UNL A   1      40.822  17.964  25.727  1.00  0.00     0.163 HD
ATOM     29  O   UNL A   1      42.963  19.032  25.331  1.00  0.00    -0.269 OA
BRANCH  27  30
ATOM     30  C   UNL A   1      42.100  20.948  26.365  1.00  0.00     0.039 A 
ATOM     31  C   UNL A   1      41.969  21.154  27.738  1.00  0.00     0.014 A 
ATOM     32  C   UNL A   1      42.340  22.019  25.501  1.00  0.00     0.014 A 
ATOM     33  C   UNL A   1      42.141  22.437  28.256  1.00  0.00     0.010 A 
ATOM     34  C   UNL A   1      42.588  23.281  26.025  1.00  0.00     0.010 A 
ATOM     35  C   UNL A   1      42.490  23.500  27.407  1.00  0.00    -0.014 A 
BRANCH  35  36
ATOM     36  C   UNL A   1      42.776  24.849  27.946  1.00  0.00     0.031 A 
ATOM     37  C   UNL A   1      44.166  25.203  28.389  1.00  0.00     0.074 A 
ATOM     38  C   UNL A   1      41.766  25.728  28.094  1.00  0.00     0.049 A 
ATOM     39  N   UNL A   1      44.596  26.302  28.956  1.00  0.00    -0.248 NA
ATOM     40  C   UNL A   1      45.210  24.181  28.191  1.00  0.00     0.031 C 
ATOM     41  C   UNL A   1      40.369  25.486  27.726  1.00  0.00     0.029 A 
ATOM     42  N   UNL A   1      41.759  27.003  28.601  1.00  0.00    -0.354 N 
ATOM     43  C   UNL A   1      45.951  26.102  29.185  1.00  0.00     0.074 A 
ATOM     44  C   UNL A   1      46.263  24.759  28.750  1.00  0.00     0.031 C 
ATOM     45  C   UNL A   1      39.648  26.586  27.990  1.00  0.00     0.029 A 
ATOM     46  C   UNL A   1      40.517  27.589  28.596  1.00  0.00     0.049 A 
ATOM     47  H   UNL A   1      42.567  27.454  28.935  1.00  0.00     0.167 HD
ATOM     48  C   UNL A   1      46.858  26.969  29.692  1.00  0.00     0.031 A 
ATOM     49  C   UNL A   1      40.120  28.794  29.048  1.00  0.00     0.031 A 
ATOM     50  C   UNL A   1      46.541  28.303  30.126  1.00  0.00     0.049 A 
ATOM     51  C   UNL A   1      41.140  29.712  29.664  1.00  0.00     0.074 A 
ATOM     52  C   UNL A   1      47.396  29.273  30.620  1.00  0.00     0.029 A 
ATOM     53  N   UNL A   1      45.269  28.854  30.122  1.00  0.00    -0.354 N 
ATOM     54  N   UNL A   1      42.430  29.534  29.814  1.00  0.00    -0.248 NA
ATOM     55  C   UNL A   1      40.648  31.000  30.172  1.00  0.00     0.031 C 
ATOM     56  C   UNL A   1      46.631  30.387  30.974  1.00  0.00     0.029 A 
ATOM     57  C   UNL A   1      45.311  30.137  30.637  1.00  0.00     0.049 A 
ATOM     58  H   UNL A   1      44.457  28.398  29.801  1.00  0.00     0.167 HD
ATOM     59  C   UNL A   1      42.907  30.697  30.405  1.00  0.00     0.074 A 
ATOM     60  C   UNL A   1      41.772  31.581  30.565  1.00  0.00     0.031 C 
ATOM     61  C   UNL A   1      44.171  31.004  30.784  1.00  0.00     0.031 A 
BRANCH  48  62
ATOM     62  C   UNL A   1      48.281  26.501  29.810  1.00  0.00    -0.014 A 
ATOM     63  C   UNL A   1      49.212  26.741  28.785  1.00  0.00     0.009 A 
ATOM     64  C   UNL A   1      48.714  25.861  30.981  1.00  0.00     0.009 A 
ATOM     65  C   UNL A   1      50.538  26.326  28.922  1.00  0.00     0.001 A 
ATOM     66  C   UNL A   1      50.048  25.473  31.128  1.00  0.00     0.001 A 
ATOM     67  C   UNL A   1      50.956  25.700  30.095  1.00  0.00     0.000 A 
ENDBRANCH  48  62
BRANCH  49  68
ATOM     68  C   UNL A   1      38.694  29.206  28.948  1.00  0.00    -0.014 A 
ATOM     69  C   UNL A   1      37.829  29.051  30.041  1.00  0.00     0.009 A 
ATOM     70  C   UNL A   1      38.182  29.726  27.749  1.00  0.00     0.009 A 
ATOM     71  C   UNL A   1      36.472  29.368  29.923  1.00  0.00     0.001 A 
ATOM     72  C   UNL A   1      36.834  30.076  27.644  1.00  0.00     0.001 A 
ATOM     73  C   UNL A   1      35.978  29.882  28.725  1.00  0.00     0.000 A 
ENDBRANCH  49  68
BRANCH  61  74
ATOM     74  C   UNL A   1      44.400  32.367  31.377  1.00  0.00    -0.014 A 
ATOM     75  C   UNL A   1      44.295  32.588  32.759  1.00  0.00     0.009 A 
ATOM     76  C   UNL A   1      44.780  33.431  30.544  1.00  0.00     0.009 A 
ATOM     77  C   UNL A   1      44.538  33.855  33.291  1.00  0.00     0.001 A 
ATOM     78  C   UNL A   1      45.056  34.688  31.082  1.00  0.00     0.001 A 
ATOM     79  C   UNL A   1      44.926  34.902  32.453  1.00  0.00     0.000 A 
ENDBRANCH  61  74
ENDBRANCH  35  36
ENDBRANCH  27  30
ENDBRANCH  25  26
ENDBRANCH  24  25
ENDBRANCH  23  24
ENDBRANCH   1  23
TORSDOF 17
ENDMDL
MODEL 2
REMARK VINA RESULT:      -9.8      4.477      9.277
REMARK SMILES C[C@@H]1CN([C@@H](CCS(C)(=O)=O)C(=O)NCCCCCCNC(=O)c2ccc(-c3c4nc(c(-c5ccccc5)c5ccc([nH]5)c(-c5ccccc5)c5nc(c(-c6ccccc6)c6ccc3[nH]6)C=C5)C=C4)cc2)S(=O)(=O)C1
REMARK SMILES IDX 17 1 16 2 15 3 14 4 12 5 13 6 5 8 4 9 1 10 2 11 3 12 75 13
REMARK SMILES IDX 72 14 73 15 74 16 6 17 7 18 8 19 9 20 10 21 11 22 18 23
REMARK SMILES IDX 19 24 20 25 21 26 22 27 23 29 24 30 25 31 71 32 26 33 70 34
REMARK SMILES IDX 27 35 28 36 29 37 64 38 30 39 69 40 63 41 65 42 31 43 68 44
REMARK SMILES IDX 62 45 61 46 32 48 54 49 39 50 53 51 40 52 43 53 52 54 66 55
REMARK SMILES IDX 41 56 42 57 51 59 67 60 44 61 33 62 34 63 38 64 35 65 37 66
REMARK SMILES IDX 36 67 55 68 56 69 60 70 57 71 59 72 58 73 45 74 46 75 50 76
REMARK SMILES IDX 47 77 49 78 48 79
REMARK H PARENT 14 7 21 28 65 47 43 58
REMARK Flexibility Score: inf
ROOT
ATOM      1  C   UNL A   1      32.964  30.070  27.235  1.00  0.00     0.002 C 
ENDROOT
BRANCH   1   2
ATOM      2  C   UNL A   1      33.728  29.341  26.126  1.00  0.00     0.021 C 
BRANCH   2   3
ATOM      3  C   UNL A   1      33.053  29.525  24.775  1.00  0.00     0.116 C 
BRANCH   3   4
ATOM      4  N   UNL A   1      33.678  28.769  23.726  1.00  0.00    -0.355 N 
ATOM      5  C   UNL A   1      33.156  27.895  22.837  1.00  0.00     0.238 C 
ATOM      6  O   UNL A   1      33.871  27.612  21.864  1.00  0.00    -0.273 OA
ATOM      7  H   UNL A   1      34.648  28.912  23.639  1.00  0.00     0.163 HD
BRANCH   5   8
ATOM      8  C   UNL A   1      31.749  27.310  22.909  1.00  0.00     0.163 C 
BRANCH   8   9
ATOM      9  N   UNL A   1      31.366  25.967  23.449  1.00  0.00    -0.189 NA
ATOM     10  C   UNL A   1      31.991  22.260  22.982  1.00  0.00     0.010 C 
ATOM     11  C   UNL A   1      31.402  23.584  23.433  1.00  0.00     0.017 C 
ATOM     12  C   UNL A   1      31.979  24.812  22.720  1.00  0.00     0.107 C 
ATOM     13  C   UNL A   1      31.658  23.841  24.911  1.00  0.00     0.159 C 
ATOM     14  S   UNL A   1      31.405  25.593  25.115  1.00  0.00     0.215 S 
ATOM     15  O   UNL A   1      32.602  26.144  25.704  1.00  0.00    -0.212 OA
ATOM     16  O   UNL A   1      30.080  25.792  25.651  1.00  0.00    -0.212 OA
ENDBRANCH   8   9
BRANCH   8  17
ATOM     17  C   UNL A   1      30.668  28.369  23.274  1.00  0.00     0.046 C 
BRANCH  17  18
ATOM     18  C   UNL A   1      29.238  28.142  22.793  1.00  0.00     0.139 C 
BRANCH  18  19
ATOM     19  S   UNL A   1      28.263  29.636  22.577  1.00  0.00     0.147 S 
ATOM     20  C   UNL A   1      29.135  30.905  23.449  1.00  0.00     0.158 C 
ATOM     21  O   UNL A   1      28.303  29.973  21.167  1.00  0.00    -0.229 OA
ATOM     22  O   UNL A   1      27.000  29.497  23.267  1.00  0.00    -0.229 OA
ENDBRANCH  18  19
ENDBRANCH  17  18
ENDBRANCH   8  17
ENDBRANCH   5   8
ENDBRANCH   3   4
ENDBRANCH   2   3
ENDBRANCH   1   2
BRANCH   1  23
ATOM     23  C   UNL A   1      31.561  30.562  26.839  1.00  0.00     0.002 C 
BRANCH  23  24
ATOM     24  C   UNL A   1      31.382  32.081  26.842  1.00  0.00     0.021 C 
BRANCH  24  25
ATOM     25  C   UNL A   1      32.689  32.859  26.930  1.00  0.00     0.116 C 
BRANCH  25  26
ATOM     26  N   UNL A   1      32.529  34.101  27.674  1.00  0.00    -0.352 N 
ATOM     27  C   UNL A   1      33.174  34.538  28.798  1.00  0.00     0.251 C 
ATOM     28  H   UNL A   1      31.854  34.719  27.313  1.00  0.00     0.163 HD
ATOM     29  O   UNL A   1      32.757  35.508  29.421  1.00  0.00    -0.269 OA
BRANCH  27  30
ATOM     30  C   UNL A   1      34.376  33.823  29.257  1.00  0.00     0.039 A 
ATOM     31  C   UNL A   1      35.630  34.297  28.871  1.00  0.00     0.014 A 
ATOM     32  C   UNL A   1      34.258  32.695  30.073  1.00  0.00     0.014 A 
ATOM     33  C   UNL A   1      36.776  33.670  29.357  1.00  0.00     0.010 A 
ATOM     34  C   UNL A   1      35.398  32.120  30.618  1.00  0.00     0.010 A 
ATOM     35  C   UNL A   1      36.667  32.603  30.265  1.00  0.00    -0.014 A 
BRANCH  35  36
ATOM     36  C   UNL A   1      37.870  31.988  30.872  1.00  0.00     0.031 A 
ATOM     37  C   UNL A   1      38.581  30.871  30.165  1.00  0.00     0.074 A 
ATOM     38  C   UNL A   1      38.277  32.398  32.089  1.00  0.00     0.049 A 
ATOM     39  N   UNL A   1      39.602  30.158  30.570  1.00  0.00    -0.248 NA
ATOM     40  C   UNL A   1      38.068  30.488  28.838  1.00  0.00     0.031 C 
ATOM     41  C   UNL A   1      37.647  33.455  32.884  1.00  0.00     0.029 A 
ATOM     42  N   UNL A   1      39.315  31.966  32.874  1.00  0.00    -0.354 N 
ATOM     43  C   UNL A   1      39.847  29.243  29.553  1.00  0.00     0.074 A 
ATOM     44  C   UNL A   1      38.838  29.451  28.539  1.00  0.00     0.031 C 
ATOM     45  C   UNL A   1      38.330  33.610  34.028  1.00  0.00     0.029 A 
ATOM     46  C   UNL A   1      39.409  32.630  34.074  1.00  0.00     0.049 A 
ATOM     47  H   UNL A   1      39.934  31.251  32.603  1.00  0.00     0.167 HD
ATOM     48  C   UNL A   1      40.839  28.327  29.466  1.00  0.00     0.031 A 
ATOM     49  C   UNL A   1      40.259  32.453  35.102  1.00  0.00     0.031 A 
ATOM     50  C   UNL A   1      41.838  28.122  30.479  1.00  0.00     0.049 A 
ATOM     51  C   UNL A   1      41.313  31.384  35.001  1.00  0.00     0.074 A 
ATOM     52  C   UNL A   1      42.908  27.244  30.467  1.00  0.00     0.029 A 
ATOM     53  N   UNL A   1      41.889  28.801  31.687  1.00  0.00    -0.354 N 
ATOM     54  N   UNL A   1      41.573  30.571  34.007  1.00  0.00    -0.248 NA
ATOM     55  C   UNL A   1      42.192  31.211  36.166  1.00  0.00     0.031 C 
ATOM     56  C   UNL A   1      43.569  27.347  31.694  1.00  0.00     0.029 A 
ATOM     57  C   UNL A   1      42.952  28.337  32.442  1.00  0.00     0.049 A 
ATOM     58  H   UNL A   1      41.262  29.507  31.964  1.00  0.00     0.167 HD
ATOM     59  C   UNL A   1      42.662  29.812  34.413  1.00  0.00     0.074 A 
ATOM     60  C   UNL A   1      43.027  30.277  35.735  1.00  0.00     0.031 C 
ATOM     61  C   UNL A   1      43.302  28.816  33.754  1.00  0.00     0.031 A 
BRANCH  48  62
ATOM     62  C   UNL A   1      40.890  27.470  28.231  1.00  0.00    -0.014 A 
ATOM     63  C   UNL A   1      40.211  26.242  28.172  1.00  0.00     0.009 A 
ATOM     64  C   UNL A   1      41.578  27.920  27.094  1.00  0.00     0.009 A 
ATOM     65  C   UNL A   1      40.244  25.471  27.008  1.00  0.00     0.001 A 
ATOM     66  C   UNL A   1      41.584  27.161  25.921  1.00  0.00     0.001 A 
ATOM     67  C   UNL A   1      40.923  25.935  25.883  1.00  0.00     0.000 A 
ENDBRANCH  48  62
BRANCH  49  68
ATOM     68  C   UNL A   1      40.152  33.296  36.324  1.00  0.00    -0.014 A 
ATOM     69  C   UNL A   1      39.289  32.930  37.369  1.00  0.00     0.009 A 
ATOM     70  C   UNL A   1      40.886  34.487  36.438  1.00  0.00     0.009 A 
ATOM     71  C   UNL A   1      39.133  33.761  38.482  1.00  0.00     0.001 A 
ATOM     72  C   UNL A   1      40.755  35.297  37.569  1.00  0.00     0.001 A 
ATOM     73  C   UNL A   1      39.867  34.941  38.581  1.00  0.00     0.000 A 
ENDBRANCH  49  68
BRANCH  61  74
ATOM     74  C   UNL A   1      44.484  28.186  34.436  1.00  0.00    -0.014 A 
ATOM     75  C   UNL A   1      44.339  27.047  35.243  1.00  0.00     0.009 A 
ATOM     76  C   UNL A   1      45.769  28.709  34.222  1.00  0.00     0.009 A 
ATOM     77  C   UNL A   1      45.454  26.463  35.845  1.00  0.00     0.001 A 
ATOM     78  C   UNL A   1      46.886  28.104  34.798  1.00  0.00     0.001 A 
ATOM     79  C   UNL A   1      46.727  26.987  35.616  1.00  0.00     0.000 A 
ENDBRANCH  61  74
ENDBRANCH  35  36
ENDBRANCH  27  30
ENDBRANCH  25  26
ENDBRANCH  24  25
ENDBRANCH  23  24
ENDBRANCH   1  23
TORSDOF 17
ENDMDL
MODEL 3
REMARK VINA RESULT:      -9.8      3.623      9.119
REMARK SMILES C[C@@H]1CN([C@@H](CCS(C)(=O)=O)C(=O)NCCCCCCNC(=O)c2ccc(-c3c4nc(c(-c5ccccc5)c5ccc([nH]5)c(-c5ccccc5)c5nc(c(-c6ccccc6)c6ccc3[nH]6)C=C5)C=C4)cc2)S(=O)(=O)C1
REMARK SMILES IDX 17 1 16 2 15 3 14 4 12 5 13 6 5 8 4 9 1 10 2 11 3 12 75 13
REMARK SMILES IDX 72 14 73 15 74 16 6 17 7 18 8 19 9 20 10 21 11 22 18 23
REMARK SMILES IDX 19 24 20 25 21 26 22 27 23 29 24 30 25 31 71 32 26 33 70 34
REMARK SMILES IDX 27 35 28 36 29 37 64 38 30 39 69 40 63 41 65 42 31 43 68 44
REMARK SMILES IDX 62 45 61 46 32 48 54 49 39 50 53 51 40 52 43 53 52 54 66 55
REMARK SMILES IDX 41 56 42 57 51 59 67 60 44 61 33 62 34 63 38 64 35 65 37 66
REMARK SMILES IDX 36 67 55 68 56 69 60 70 57 71 59 72 58 73 45 74 46 75 50 76
REMARK SMILES IDX 47 77 49 78 48 79
REMARK H PARENT 14 7 21 28 65 47 43 58
REMARK Flexibility Score: inf
ROOT
ATOM      1  C   UNL A   1      33.869  30.758  27.562  1.00  0.00     0.002 C 
ENDROOT
BRANCH   1   2
ATOM      2  C   UNL A   1      34.553  29.436  27.202  1.00  0.00     0.021 C 
BRANCH   2   3
ATOM      3  C   UNL A   1      33.688  28.601  26.270  1.00  0.00     0.116 C 
BRANCH   3   4
ATOM      4  N   UNL A   1      34.086  28.702  24.892  1.00  0.00    -0.355 N 
ATOM      5  C   UNL A   1      33.631  28.060  23.794  1.00  0.00     0.238 C 
ATOM      6  O   UNL A   1      33.954  28.551  22.702  1.00  0.00    -0.273 OA
ATOM      7  H   UNL A   1      34.810  29.347  24.721  1.00  0.00     0.163 HD
BRANCH   5   8
ATOM      8  C   UNL A   1      32.702  26.851  23.809  1.00  0.00     0.163 C 
BRANCH   8   9
ATOM      9  N   UNL A   1      32.980  25.519  24.434  1.00  0.00    -0.189 NA
ATOM     10  C   UNL A   1      35.757  23.453  25.974  1.00  0.00     0.010 C 
ATOM     11  C   UNL A   1      34.430  23.876  25.372  1.00  0.00     0.017 C 
ATOM     12  C   UNL A   1      34.413  25.299  24.805  1.00  0.00     0.107 C 
ATOM     13  C   UNL A   1      33.312  23.859  26.404  1.00  0.00     0.159 C 
ATOM     14  S   UNL A   1      32.026  24.868  25.693  1.00  0.00     0.215 S 
ATOM     15  O   UNL A   1      31.708  25.908  26.642  1.00  0.00    -0.212 OA
ATOM     16  O   UNL A   1      31.045  23.989  25.105  1.00  0.00    -0.212 OA
ENDBRANCH   8   9
BRANCH   8  17
ATOM     17  C   UNL A   1      31.205  27.234  23.999  1.00  0.00     0.046 C 
BRANCH  17  18
ATOM     18  C   UNL A   1      30.338  27.411  22.756  1.00  0.00     0.139 C 
BRANCH  18  19
ATOM     19  S   UNL A   1      29.447  28.969  22.666  1.00  0.00     0.147 S 
ATOM     20  C   UNL A   1      30.139  29.989  23.936  1.00  0.00     0.158 C 
ATOM     21  O   UNL A   1      29.779  29.578  21.392  1.00  0.00    -0.229 OA
ATOM     22  O   UNL A   1      28.068  28.763  23.049  1.00  0.00    -0.229 OA
ENDBRANCH  18  19
ENDBRANCH  17  18
ENDBRANCH   8  17
ENDBRANCH   5   8
ENDBRANCH   3   4
ENDBRANCH   2   3
ENDBRANCH   1   2
BRANCH   1  23
ATOM     23  C   UNL A   1      32.410  30.882  27.089  1.00  0.00     0.002 C 
BRANCH  23  24
ATOM     24  C   UNL A   1      31.768  32.251  27.318  1.00  0.00     0.021 C 
BRANCH  24  25
ATOM     25  C   UNL A   1      32.692  33.425  27.020  1.00  0.00     0.116 C 
BRANCH  25  26
ATOM     26  N   UNL A   1      32.548  34.489  28.006  1.00  0.00    -0.352 N 
ATOM     27  C   UNL A   1      33.240  34.709  29.164  1.00  0.00     0.251 C 
ATOM     28  H   UNL A   1      31.845  35.149  27.808  1.00  0.00     0.163 HD
ATOM     29  O   UNL A   1      32.838  35.522  29.988  1.00  0.00    -0.269 OA
BRANCH  27  30
ATOM     30  C   UNL A   1      34.476  33.948  29.415  1.00  0.00     0.039 A 
ATOM     31  C   UNL A   1      35.595  34.203  28.623  1.00  0.00     0.014 A 
ATOM     32  C   UNL A   1      34.524  32.996  30.435  1.00  0.00     0.014 A 
ATOM     33  C   UNL A   1      36.791  33.540  28.897  1.00  0.00     0.010 A 
ATOM     34  C   UNL A   1      35.733  32.395  30.757  1.00  0.00     0.010 A 
ATOM     35  C   UNL A   1      36.877  32.662  29.990  1.00  0.00    -0.014 A 
BRANCH  35  36
ATOM     36  C   UNL A   1      38.161  32.024  30.361  1.00  0.00     0.031 A 
ATOM     37  C   UNL A   1      39.118  32.736  31.273  1.00  0.00     0.074 A 
ATOM     38  C   UNL A   1      38.486  30.834  29.821  1.00  0.00     0.049 A 
ATOM     39  N   UNL A   1      40.318  32.375  31.650  1.00  0.00    -0.248 NA
ATOM     40  C   UNL A   1      38.681  34.033  31.817  1.00  0.00     0.031 C 
ATOM     41  C   UNL A   1      37.648  30.062  28.899  1.00  0.00     0.029 A 
ATOM     42  N   UNL A   1      39.614  30.067  29.965  1.00  0.00    -0.354 N 
ATOM     43  C   UNL A   1      40.779  33.399  32.468  1.00  0.00     0.074 A 
ATOM     44  C   UNL A   1      39.756  34.421  32.488  1.00  0.00     0.031 C 
ATOM     45  C   UNL A   1      38.278  28.919  28.586  1.00  0.00     0.029 A 
ATOM     46  C   UNL A   1      39.583  28.901  29.238  1.00  0.00     0.049 A 
ATOM     47  H   UNL A   1      40.372  30.326  30.536  1.00  0.00     0.167 HD
ATOM     48  C   UNL A   1      41.942  33.470  33.157  1.00  0.00     0.031 A 
ATOM     49  C   UNL A   1      40.511  27.937  29.097  1.00  0.00     0.031 A 
ATOM     50  C   UNL A   1      42.957  32.452  33.130  1.00  0.00     0.049 A 
ATOM     51  C   UNL A   1      41.820  28.075  29.827  1.00  0.00     0.074 A 
ATOM     52  C   UNL A   1      44.154  32.413  33.824  1.00  0.00     0.029 A 
ATOM     53  N   UNL A   1      42.896  31.296  32.368  1.00  0.00    -0.354 N 
ATOM     54  N   UNL A   1      42.214  29.017  30.647  1.00  0.00    -0.248 NA
ATOM     55  C   UNL A   1      42.811  27.011  29.611  1.00  0.00     0.031 C 
ATOM     56  C   UNL A   1      44.846  31.264  33.432  1.00  0.00     0.029 A 
ATOM     57  C   UNL A   1      44.050  30.554  32.547  1.00  0.00     0.049 A 
ATOM     58  H   UNL A   1      42.144  31.042  31.786  1.00  0.00     0.167 HD
ATOM     59  C   UNL A   1      43.484  28.646  31.069  1.00  0.00     0.074 A 
ATOM     60  C   UNL A   1      43.785  27.382  30.431  1.00  0.00     0.031 C 
ATOM     61  C   UNL A   1      44.329  29.295  31.906  1.00  0.00     0.031 A 
BRANCH  48  62
ATOM     62  C   UNL A   1      42.181  34.694  33.997  1.00  0.00    -0.014 A 
ATOM     63  C   UNL A   1      41.792  34.736  35.346  1.00  0.00     0.009 A 
ATOM     64  C   UNL A   1      42.853  35.798  33.451  1.00  0.00     0.009 A 
ATOM     65  C   UNL A   1      42.048  35.868  36.121  1.00  0.00     0.001 A 
ATOM     66  C   UNL A   1      43.135  36.917  34.237  1.00  0.00     0.001 A 
ATOM     67  C   UNL A   1      42.725  36.954  35.568  1.00  0.00     0.000 A 
ENDBRANCH  48  62
BRANCH  49  68
ATOM     68  C   UNL A   1      40.252  26.760  28.226  1.00  0.00    -0.014 A 
ATOM     69  C   UNL A   1      40.696  26.745  26.895  1.00  0.00     0.009 A 
ATOM     70  C   UNL A   1      39.529  25.658  28.710  1.00  0.00     0.009 A 
ATOM     71  C   UNL A   1      40.387  25.670  26.056  1.00  0.00     0.001 A 
ATOM     72  C   UNL A   1      39.252  24.569  27.880  1.00  0.00     0.001 A 
ATOM     73  C   UNL A   1      39.667  24.584  26.550  1.00  0.00     0.000 A 
ENDBRANCH  49  68
BRANCH  61  74
ATOM     74  C   UNL A   1      45.644  28.632  32.209  1.00  0.00    -0.014 A 
ATOM     75  C   UNL A   1      46.794  28.914  31.455  1.00  0.00     0.009 A 
ATOM     76  C   UNL A   1      45.743  27.754  33.299  1.00  0.00     0.009 A 
ATOM     77  C   UNL A   1      48.010  28.307  31.770  1.00  0.00     0.001 A 
ATOM     78  C   UNL A   1      46.968  27.174  33.633  1.00  0.00     0.001 A 
ATOM     79  C   UNL A   1      48.098  27.444  32.864  1.00  0.00     0.000 A 
ENDBRANCH  61  74
ENDBRANCH  35  36
ENDBRANCH  27  30
ENDBRANCH  25  26
ENDBRANCH  24  25
ENDBRANCH  23  24
ENDBRANCH   1  23
TORSDOF 17
ENDMDL
