MODEL 1
REMARK VINA RESULT:     -12.7      0.000      0.000
REMARK SMILES NS(=O)(=O)c1ccc(-n2nc(C(=O)NCCCCCCNC(=O)c3ccc(-c4c5nc(c(-c6ccccc6)c6ccc([nH]6)c(-c6ccccc6)c6nc(c(-c7ccccc7)c7ccc4[nH]7)C=C6)C=C5)cc3)cc2-c2ccc(Cl)s2)cc1
REMARK SMILES IDX 17 1 16 2 15 3 14 4 12 5 13 6 11 8 9 9 10 10 73 11 72 12
REMARK SMILES IDX 8 13 5 14 6 15 81 16 7 17 80 18 2 19 3 20 4 21 1 22 74 25
REMARK SMILES IDX 75 26 79 27 76 28 77 29 78 30 18 31 19 32 20 33 21 34 22 35
REMARK SMILES IDX 23 37 24 38 25 39 71 40 26 41 70 42 27 43 28 44 29 45 64 46
REMARK SMILES IDX 30 47 69 48 63 49 65 50 31 51 68 52 62 53 61 54 32 56 54 57
REMARK SMILES IDX 39 58 53 59 40 60 43 61 52 62 66 63 41 64 42 65 51 67 67 68
REMARK SMILES IDX 44 69 33 70 34 71 38 72 35 73 37 74 36 75 55 76 56 77 60 78
REMARK SMILES IDX 57 79 59 80 58 81 45 82 46 83 50 84 47 85 49 86 48 87
REMARK H PARENT 14 7 1 23 1 24 21 36 65 55 43 66
REMARK Flexibility Score: inf
ROOT
ATOM      1  C   UNL A   1      34.718  20.930  24.881  1.00  0.00     0.002 C 
ENDROOT
BRANCH   1   2
ATOM      2  C   UNL A   1      33.391  21.453  25.432  1.00  0.00     0.021 C 
BRANCH   2   3
ATOM      3  C   UNL A   1      32.322  21.721  24.379  1.00  0.00     0.116 C 
BRANCH   3   4
ATOM      4  N   UNL A   1      32.873  22.124  23.103  1.00  0.00    -0.351 N 
ATOM      5  C   UNL A   1      32.995  23.340  22.465  1.00  0.00     0.271 C 
ATOM      6  O   UNL A   1      33.456  23.294  21.320  1.00  0.00    -0.267 OA
ATOM      7  H   UNL A   1      33.237  21.372  22.581  1.00  0.00     0.163 HD
BRANCH   5   8
ATOM      8  C   UNL A   1      32.614  24.623  23.104  1.00  0.00     0.151 A 
ATOM      9  N   UNL A   1      31.492  26.442  23.381  1.00  0.00    -0.231 N 
ATOM     10  N   UNL A   1      31.476  25.255  22.731  1.00  0.00    -0.162 NA
ATOM     11  C   UNL A   1      32.452  26.460  24.374  1.00  0.00     0.085 A 
ATOM     12  C   UNL A   1      33.271  25.391  24.099  1.00  0.00     0.066 A 
BRANCH   9  13
ATOM     13  C   UNL A   1      30.623  27.498  23.010  1.00  0.00     0.065 A 
ATOM     14  C   UNL A   1      29.002  29.698  22.520  1.00  0.00     0.082 A 
ATOM     15  C   UNL A   1      30.330  29.715  22.086  1.00  0.00     0.024 A 
ATOM     16  C   UNL A   1      28.468  28.571  23.157  1.00  0.00     0.024 A 
ATOM     17  C   UNL A   1      31.142  28.614  22.335  1.00  0.00     0.030 A 
ATOM     18  C   UNL A   1      29.273  27.448  23.373  1.00  0.00     0.030 A 
BRANCH  14  19
ATOM     19  S   UNL A   1      28.028  31.162  22.336  1.00  0.00     0.238 S 
ATOM     20  O   UNL A   1      27.128  31.280  23.450  1.00  0.00    -0.207 OA
ATOM     21  O   UNL A   1      27.579  31.256  20.960  1.00  0.00    -0.207 OA
BRANCH  19  22
ATOM     22  N   UNL A   1      29.176  32.366  22.537  1.00  0.00    -0.225 NA
ATOM     23  H   UNL A   1      29.162  32.988  21.728  1.00  0.00     0.137 HD
ATOM     24  H   UNL A   1      30.101  31.945  22.625  1.00  0.00     0.137 HD
ENDBRANCH  19  22
ENDBRANCH  14  19
ENDBRANCH   9  13
BRANCH  11  25
ATOM     25  C   UNL A   1      32.530  27.352  25.496  1.00  0.00     0.054 A 
ATOM     26  C   UNL A   1      31.612  27.479  26.521  1.00  0.00     0.024 A 
ATOM     27  S   UNL A   1      33.772  28.537  25.617  1.00  0.00    -0.122 S 
ATOM     28  C   UNL A   1      31.936  28.549  27.409  1.00  0.00     0.033 A 
ATOM     29  C   UNL A   1      33.081  29.189  27.014  1.00  0.00     0.094 A 
ATOM     30  Cl  UNL A   1      33.812  30.543  27.773  1.00  0.00    -0.072 Cl
ENDBRANCH  11  25
ENDBRANCH   5   8
ENDBRANCH   3   4
ENDBRANCH   2   3
ENDBRANCH   1   2
BRANCH   1  31
ATOM     31  C   UNL A   1      35.964  21.214  25.734  1.00  0.00     0.002 C 
BRANCH  31  32
ATOM     32  C   UNL A   1      36.531  22.641  25.682  1.00  0.00     0.021 C 
BRANCH  32  33
ATOM     33  C   UNL A   1      38.021  22.715  25.377  1.00  0.00     0.116 C 
BRANCH  33  34
ATOM     34  N   UNL A   1      38.811  21.880  26.278  1.00  0.00    -0.352 N 
ATOM     35  C   UNL A   1      39.902  22.232  27.042  1.00  0.00     0.251 C 
ATOM     36  H   UNL A   1      38.525  20.941  26.349  1.00  0.00     0.163 HD
ATOM     37  O   UNL A   1      40.676  21.378  27.457  1.00  0.00    -0.269 OA
BRANCH  35  38
ATOM     38  C   UNL A   1      40.135  23.654  27.346  1.00  0.00     0.039 A 
ATOM     39  C   UNL A   1      39.129  24.599  27.135  1.00  0.00     0.014 A 
ATOM     40  C   UNL A   1      41.368  24.035  27.871  1.00  0.00     0.014 A 
ATOM     41  C   UNL A   1      39.341  25.911  27.548  1.00  0.00     0.010 A 
ATOM     42  C   UNL A   1      41.529  25.297  28.396  1.00  0.00     0.010 A 
ATOM     43  C   UNL A   1      40.532  26.252  28.213  1.00  0.00    -0.014 A 
BRANCH  43  44
ATOM     44  C   UNL A   1      40.665  27.560  28.855  1.00  0.00     0.031 A 
ATOM     45  C   UNL A   1      41.691  28.439  28.234  1.00  0.00     0.074 A 
ATOM     46  C   UNL A   1      39.824  28.046  29.795  1.00  0.00     0.049 A 
ATOM     47  N   UNL A   1      42.819  28.802  28.745  1.00  0.00    -0.248 NA
ATOM     48  C   UNL A   1      41.507  28.858  26.834  1.00  0.00     0.031 C 
ATOM     49  C   UNL A   1      38.593  27.427  30.302  1.00  0.00     0.029 A 
ATOM     50  N   UNL A   1      39.834  29.257  30.429  1.00  0.00    -0.354 N 
ATOM     51  C   UNL A   1      43.388  29.677  27.827  1.00  0.00     0.074 A 
ATOM     52  C   UNL A   1      42.637  29.530  26.606  1.00  0.00     0.031 C 
ATOM     53  C   UNL A   1      37.863  28.345  30.971  1.00  0.00     0.029 A 
ATOM     54  C   UNL A   1      38.657  29.551  31.110  1.00  0.00     0.049 A 
ATOM     55  H   UNL A   1      40.606  29.867  30.407  1.00  0.00     0.167 HD
ATOM     56  C   UNL A   1      44.227  30.666  28.240  1.00  0.00     0.031 A 
ATOM     57  C   UNL A   1      38.352  30.688  31.777  1.00  0.00     0.031 A 
ATOM     58  C   UNL A   1      44.643  30.464  29.604  1.00  0.00     0.049 A 
ATOM     59  C   UNL A   1      39.619  31.349  32.138  1.00  0.00     0.074 A 
ATOM     60  C   UNL A   1      45.496  29.625  30.285  1.00  0.00     0.029 A 
ATOM     61  N   UNL A   1      43.787  31.013  30.523  1.00  0.00    -0.354 N 
ATOM     62  N   UNL A   1      40.447  30.858  33.011  1.00  0.00    -0.248 NA
ATOM     63  C   UNL A   1      40.142  32.430  31.313  1.00  0.00     0.031 C 
ATOM     64  C   UNL A   1      44.978  29.530  31.613  1.00  0.00     0.029 A 
ATOM     65  C   UNL A   1      43.854  30.347  31.716  1.00  0.00     0.049 A 
ATOM     66  H   UNL A   1      43.201  31.784  30.347  1.00  0.00     0.167 HD
ATOM     67  C   UNL A   1      41.688  31.230  32.539  1.00  0.00     0.074 A 
ATOM     68  C   UNL A   1      41.436  32.346  31.637  1.00  0.00     0.031 C 
ATOM     69  C   UNL A   1      42.756  30.391  32.658  1.00  0.00     0.031 A 
BRANCH  56  70
ATOM     70  C   UNL A   1      44.246  32.054  27.635  1.00  0.00    -0.014 A 
ATOM     71  C   UNL A   1      43.776  33.132  28.412  1.00  0.00     0.009 A 
ATOM     72  C   UNL A   1      44.403  32.295  26.257  1.00  0.00     0.009 A 
ATOM     73  C   UNL A   1      43.433  34.359  27.829  1.00  0.00     0.001 A 
ATOM     74  C   UNL A   1      44.095  33.530  25.678  1.00  0.00     0.001 A 
ATOM     75  C   UNL A   1      43.587  34.556  26.461  1.00  0.00     0.000 A 
ENDBRANCH  56  70
BRANCH  57  76
ATOM     76  C   UNL A   1      37.056  31.312  32.093  1.00  0.00    -0.014 A 
ATOM     77  C   UNL A   1      36.824  31.877  33.357  1.00  0.00     0.009 A 
ATOM     78  C   UNL A   1      36.160  31.621  31.055  1.00  0.00     0.009 A 
ATOM     79  C   UNL A   1      35.771  32.775  33.561  1.00  0.00     0.001 A 
ATOM     80  C   UNL A   1      35.107  32.520  31.259  1.00  0.00     0.001 A 
ATOM     81  C   UNL A   1      34.926  33.112  32.506  1.00  0.00     0.000 A 
ENDBRANCH  57  76
BRANCH  69  82
ATOM     82  C   UNL A   1      42.678  29.327  33.716  1.00  0.00    -0.014 A 
ATOM     83  C   UNL A   1      42.036  28.090  33.535  1.00  0.00     0.009 A 
ATOM     84  C   UNL A   1      43.326  29.572  34.936  1.00  0.00     0.009 A 
ATOM     85  C   UNL A   1      42.015  27.141  34.562  1.00  0.00     0.001 A 
ATOM     86  C   UNL A   1      43.323  28.616  35.952  1.00  0.00     0.001 A 
ATOM     87  C   UNL A   1      42.662  27.405  35.768  1.00  0.00     0.000 A 
ENDBRANCH  69  82
ENDBRANCH  43  44
ENDBRANCH  35  38
ENDBRANCH  33  34
ENDBRANCH  32  33
ENDBRANCH  31  32
ENDBRANCH   1  31
TORSDOF 17
ENDMDL
MODEL 2
REMARK VINA RESULT:     -12.6      3.854      8.435
REMARK SMILES NS(=O)(=O)c1ccc(-n2nc(C(=O)NCCCCCCNC(=O)c3ccc(-c4c5nc(c(-c6ccccc6)c6ccc([nH]6)c(-c6ccccc6)c6nc(c(-c7ccccc7)c7ccc4[nH]7)C=C6)C=C5)cc3)cc2-c2ccc(Cl)s2)cc1
REMARK SMILES IDX 17 1 16 2 15 3 14 4 12 5 13 6 11 8 9 9 10 10 73 11 72 12
REMARK SMILES IDX 8 13 5 14 6 15 81 16 7 17 80 18 2 19 3 20 4 21 1 22 74 25
REMARK SMILES IDX 75 26 79 27 76 28 77 29 78 30 18 31 19 32 20 33 21 34 22 35
REMARK SMILES IDX 23 37 24 38 25 39 71 40 26 41 70 42 27 43 28 44 29 45 64 46
REMARK SMILES IDX 30 47 69 48 63 49 65 50 31 51 68 52 62 53 61 54 32 56 54 57
REMARK SMILES IDX 39 58 53 59 40 60 43 61 52 62 66 63 41 64 42 65 51 67 67 68
REMARK SMILES IDX 44 69 33 70 34 71 38 72 35 73 37 74 36 75 55 76 56 77 60 78
REMARK SMILES IDX 57 79 59 80 58 81 45 82 46 83 50 84 47 85 49 86 48 87
REMARK H PARENT 14 7 1 23 1 24 21 36 65 55 43 66
REMARK Flexibility Score: inf
ROOT
ATOM      1  C   UNL A   1      32.484  29.391  25.103  1.00  0.00     0.002 C 
ENDROOT
BRANCH   1   2
ATOM      2  C   UNL A   1      32.603  28.015  24.449  1.00  0.00     0.021 C 
BRANCH   2   3
ATOM      3  C   UNL A   1      31.287  27.425  23.953  1.00  0.00     0.116 C 
BRANCH   3   4
ATOM      4  N   UNL A   1      30.502  26.826  25.010  1.00  0.00    -0.351 N 
ATOM      5  C   UNL A   1      30.568  25.617  25.669  1.00  0.00     0.271 C 
ATOM      6  O   UNL A   1      29.661  25.405  26.480  1.00  0.00    -0.267 OA
ATOM      7  H   UNL A   1      29.767  27.401  25.325  1.00  0.00     0.163 HD
BRANCH   5   8
ATOM      8  C   UNL A   1      31.655  24.635  25.438  1.00  0.00     0.151 A 
ATOM      9  N   UNL A   1      32.531  22.718  24.989  1.00  0.00    -0.231 N 
ATOM     10  N   UNL A   1      31.367  23.407  24.947  1.00  0.00    -0.162 NA
ATOM     11  C   UNL A   1      33.604  23.556  25.218  1.00  0.00     0.085 A 
ATOM     12  C   UNL A   1      33.051  24.732  25.666  1.00  0.00     0.066 A 
BRANCH   9  13
ATOM     13  C   UNL A   1      32.559  21.309  24.843  1.00  0.00     0.065 A 
ATOM     14  C   UNL A   1      32.898  18.570  24.532  1.00  0.00     0.082 A 
ATOM     15  C   UNL A   1      32.983  19.131  25.810  1.00  0.00     0.024 A 
ATOM     16  C   UNL A   1      32.600  19.364  23.417  1.00  0.00     0.024 A 
ATOM     17  C   UNL A   1      32.817  20.503  25.963  1.00  0.00     0.030 A 
ATOM     18  C   UNL A   1      32.394  20.737  23.577  1.00  0.00     0.030 A 
BRANCH  14  19
ATOM     19  S   UNL A   1      33.264  16.853  24.331  1.00  0.00     0.238 S 
ATOM     20  O   UNL A   1      33.465  16.568  22.937  1.00  0.00    -0.207 OA
ATOM     21  O   UNL A   1      32.360  16.080  25.161  1.00  0.00    -0.207 OA
BRANCH  19  22
ATOM     22  N   UNL A   1      34.774  16.736  25.050  1.00  0.00    -0.225 NA
ATOM     23  H   UNL A   1      34.669  16.405  26.009  1.00  0.00     0.137 HD
ATOM     24  H   UNL A   1      35.220  17.653  25.055  1.00  0.00     0.137 HD
ENDBRANCH  19  22
ENDBRANCH  14  19
ENDBRANCH   9  13
BRANCH  11  25
ATOM     25  C   UNL A   1      34.991  23.286  24.965  1.00  0.00     0.054 A 
ATOM     26  C   UNL A   1      35.614  23.228  23.733  1.00  0.00     0.024 A 
ATOM     27  S   UNL A   1      36.064  22.829  26.230  1.00  0.00    -0.122 S 
ATOM     28  C   UNL A   1      36.976  22.813  23.833  1.00  0.00     0.033 A 
ATOM     29  C   UNL A   1      37.323  22.569  25.136  1.00  0.00     0.094 A 
ATOM     30  Cl  UNL A   1      38.848  22.025  25.705  1.00  0.00    -0.072 Cl
ENDBRANCH  11  25
ENDBRANCH   5   8
ENDBRANCH   3   4
ENDBRANCH   2   3
ENDBRANCH   1   2
BRANCH   1  31
ATOM     31  C   UNL A   1      32.449  29.409  26.639  1.00  0.00     0.002 C 
BRANCH  31  32
ATOM     32  C   UNL A   1      33.548  28.623  27.369  1.00  0.00     0.021 C 
BRANCH  32  33
ATOM     33  C   UNL A   1      34.930  29.259  27.296  1.00  0.00     0.116 C 
BRANCH  33  34
ATOM     34  N   UNL A   1      35.217  30.090  28.461  1.00  0.00    -0.352 N 
ATOM     35  C   UNL A   1      36.284  30.016  29.330  1.00  0.00     0.251 C 
ATOM     36  H   UNL A   1      34.561  30.799  28.651  1.00  0.00     0.163 HD
ATOM     37  O   UNL A   1      36.219  30.517  30.446  1.00  0.00    -0.269 OA
BRANCH  35  38
ATOM     38  C   UNL A   1      37.507  29.314  28.904  1.00  0.00     0.039 A 
ATOM     39  C   UNL A   1      38.151  29.667  27.716  1.00  0.00     0.014 A 
ATOM     40  C   UNL A   1      38.023  28.310  29.719  1.00  0.00     0.014 A 
ATOM     41  C   UNL A   1      39.369  29.069  27.407  1.00  0.00     0.010 A 
ATOM     42  C   UNL A   1      39.285  27.814  29.481  1.00  0.00     0.010 A 
ATOM     43  C   UNL A   1      39.954  28.165  28.312  1.00  0.00    -0.014 A 
BRANCH  43  44
ATOM     44  C   UNL A   1      41.331  27.714  28.110  1.00  0.00     0.031 A 
ATOM     45  C   UNL A   1      41.444  26.373  27.477  1.00  0.00     0.074 A 
ATOM     46  C   UNL A   1      42.428  28.486  28.280  1.00  0.00     0.049 A 
ATOM     47  N   UNL A   1      41.860  25.283  28.029  1.00  0.00    -0.248 NA
ATOM     48  C   UNL A   1      40.912  26.188  26.116  1.00  0.00     0.031 C 
ATOM     49  C   UNL A   1      42.474  29.915  28.613  1.00  0.00     0.029 A 
ATOM     50  N   UNL A   1      43.746  28.180  28.087  1.00  0.00    -0.354 N 
ATOM     51  C   UNL A   1      41.855  24.323  27.024  1.00  0.00     0.074 A 
ATOM     52  C   UNL A   1      41.097  24.879  25.933  1.00  0.00     0.031 C 
ATOM     53  C   UNL A   1      43.711  30.400  28.370  1.00  0.00     0.029 A 
ATOM     54  C   UNL A   1      44.587  29.288  28.058  1.00  0.00     0.049 A 
ATOM     55  H   UNL A   1      44.071  27.258  27.979  1.00  0.00     0.167 HD
ATOM     56  C   UNL A   1      42.732  23.282  27.057  1.00  0.00     0.031 A 
ATOM     57  C   UNL A   1      45.921  29.304  27.828  1.00  0.00     0.031 A 
ATOM     58  C   UNL A   1      43.370  23.174  28.343  1.00  0.00     0.049 A 
ATOM     59  C   UNL A   1      46.446  27.964  28.144  1.00  0.00     0.074 A 
ATOM     60  C   UNL A   1      43.023  22.761  29.610  1.00  0.00     0.029 A 
ATOM     61  N   UNL A   1      44.503  23.936  28.457  1.00  0.00    -0.354 N 
ATOM     62  N   UNL A   1      46.488  27.489  29.354  1.00  0.00    -0.248 NA
ATOM     63  C   UNL A   1      46.666  26.993  27.080  1.00  0.00     0.031 C 
ATOM     64  C   UNL A   1      43.869  23.482  30.506  1.00  0.00     0.029 A 
ATOM     65  C   UNL A   1      44.737  24.279  29.761  1.00  0.00     0.049 A 
ATOM     66  H   UNL A   1      45.073  24.203  27.700  1.00  0.00     0.167 HD
ATOM     67  C   UNL A   1      46.274  26.137  29.189  1.00  0.00     0.074 A 
ATOM     68  C   UNL A   1      46.597  25.866  27.794  1.00  0.00     0.031 C 
ATOM     69  C   UNL A   1      45.539  25.436  30.097  1.00  0.00     0.031 A 
BRANCH  56  70
ATOM     70  C   UNL A   1      43.405  22.716  25.824  1.00  0.00    -0.014 A 
ATOM     71  C   UNL A   1      43.608  21.324  25.747  1.00  0.00     0.009 A 
ATOM     72  C   UNL A   1      44.116  23.506  24.900  1.00  0.00     0.009 A 
ATOM     73  C   UNL A   1      44.514  20.766  24.835  1.00  0.00     0.001 A 
ATOM     74  C   UNL A   1      44.993  22.949  23.964  1.00  0.00     0.001 A 
ATOM     75  C   UNL A   1      45.211  21.579  23.948  1.00  0.00     0.000 A 
ENDBRANCH  56  70
BRANCH  57  76
ATOM     76  C   UNL A   1      46.803  30.358  27.297  1.00  0.00    -0.014 A 
ATOM     77  C   UNL A   1      46.265  31.553  26.793  1.00  0.00     0.009 A 
ATOM     78  C   UNL A   1      48.181  30.313  27.567  1.00  0.00     0.009 A 
ATOM     79  C   UNL A   1      47.067  32.688  26.628  1.00  0.00     0.001 A 
ATOM     80  C   UNL A   1      48.982  31.449  27.403  1.00  0.00     0.001 A 
ATOM     81  C   UNL A   1      48.420  32.640  26.954  1.00  0.00     0.000 A 
ENDBRANCH  57  76
BRANCH  69  82
ATOM     82  C   UNL A   1      45.408  26.021  31.474  1.00  0.00    -0.014 A 
ATOM     83  C   UNL A   1      46.135  25.567  32.588  1.00  0.00     0.009 A 
ATOM     84  C   UNL A   1      44.544  27.114  31.640  1.00  0.00     0.009 A 
ATOM     85  C   UNL A   1      45.972  26.170  33.839  1.00  0.00     0.001 A 
ATOM     86  C   UNL A   1      44.397  27.728  32.884  1.00  0.00     0.001 A 
ATOM     87  C   UNL A   1      45.105  27.252  33.984  1.00  0.00     0.000 A 
ENDBRANCH  69  82
ENDBRANCH  43  44
ENDBRANCH  35  38
ENDBRANCH  33  34
ENDBRANCH  32  33
ENDBRANCH  31  32
ENDBRANCH   1  31
TORSDOF 17
ENDMDL
MODEL 3
REMARK VINA RESULT:     -12.4      3.443      8.676
REMARK SMILES NS(=O)(=O)c1ccc(-n2nc(C(=O)NCCCCCCNC(=O)c3ccc(-c4c5nc(c(-c6ccccc6)c6ccc([nH]6)c(-c6ccccc6)c6nc(c(-c7ccccc7)c7ccc4[nH]7)C=C6)C=C5)cc3)cc2-c2ccc(Cl)s2)cc1
REMARK SMILES IDX 17 1 16 2 15 3 14 4 12 5 13 6 11 8 9 9 10 10 73 11 72 12
REMARK SMILES IDX 8 13 5 14 6 15 81 16 7 17 80 18 2 19 3 20 4 21 1 22 74 25
REMARK SMILES IDX 75 26 79 27 76 28 77 29 78 30 18 31 19 32 20 33 21 34 22 35
REMARK SMILES IDX 23 37 24 38 25 39 71 40 26 41 70 42 27 43 28 44 29 45 64 46
REMARK SMILES IDX 30 47 69 48 63 49 65 50 31 51 68 52 62 53 61 54 32 56 54 57
REMARK SMILES IDX 39 58 53 59 40 60 43 61 52 62 66 63 41 64 42 65 51 67 67 68
REMARK SMILES IDX 44 69 33 70 34 71 38 72 35 73 37 74 36 75 55 76 56 77 60 78
REMARK SMILES IDX 57 79 59 80 58 81 45 82 46 83 50 84 47 85 49 86 48 87
REMARK H PARENT 14 7 1 23 1 24 21 36 65 55 43 66
REMARK Flexibility Score: inf
ROOT
ATOM      1  C   UNL A   1      32.377  28.161  25.658  1.00  0.00     0.002 C 
ENDROOT
BRANCH   1   2
ATOM      2  C   UNL A   1      31.484  28.262  24.421  1.00  0.00     0.021 C 
BRANCH   2   3
ATOM      3  C   UNL A   1      30.735  26.982  24.066  1.00  0.00     0.116 C 
BRANCH   3   4
ATOM      4  N   UNL A   1      30.090  26.369  25.208  1.00  0.00    -0.351 N 
ATOM      5  C   UNL A   1      30.303  25.196  25.899  1.00  0.00     0.271 C 
ATOM      6  O   UNL A   1      29.486  24.952  26.793  1.00  0.00    -0.267 OA
ATOM      7  H   UNL A   1      29.343  26.902  25.565  1.00  0.00     0.163 HD
BRANCH   5   8
ATOM      8  C   UNL A   1      31.438  24.287  25.608  1.00  0.00     0.151 A 
ATOM      9  N   UNL A   1      32.410  22.442  25.065  1.00  0.00    -0.231 N 
ATOM     10  N   UNL A   1      31.209  23.065  25.073  1.00  0.00    -0.162 NA
ATOM     11  C   UNL A   1      33.440  23.330  25.306  1.00  0.00     0.085 A 
ATOM     12  C   UNL A   1      32.831  24.454  25.812  1.00  0.00     0.066 A 
BRANCH   9  13
ATOM     13  C   UNL A   1      32.515  21.043  24.862  1.00  0.00     0.065 A 
ATOM     14  C   UNL A   1      33.001  18.340  24.456  1.00  0.00     0.082 A 
ATOM     15  C   UNL A   1      32.994  18.847  25.758  1.00  0.00     0.024 A 
ATOM     16  C   UNL A   1      32.721  19.167  23.361  1.00  0.00     0.024 A 
ATOM     17  C   UNL A   1      32.755  20.202  25.960  1.00  0.00     0.030 A 
ATOM     18  C   UNL A   1      32.441  20.521  23.566  1.00  0.00     0.030 A 
BRANCH  14  19
ATOM     19  S   UNL A   1      33.460  16.652  24.203  1.00  0.00     0.238 S 
ATOM     20  O   UNL A   1      33.809  16.454  22.823  1.00  0.00    -0.207 OA
ATOM     21  O   UNL A   1      32.513  15.799  24.895  1.00  0.00    -0.207 OA
BRANCH  19  22
ATOM     22  N   UNL A   1      34.894  16.553  25.064  1.00  0.00    -0.225 NA
ATOM     23  H   UNL A   1      35.468  15.800  24.683  1.00  0.00     0.137 HD
ATOM     24  H   UNL A   1      34.691  16.361  26.044  1.00  0.00     0.137 HD
ENDBRANCH  19  22
ENDBRANCH  14  19
ENDBRANCH   9  13
BRANCH  11  25
ATOM     25  C   UNL A   1      34.834  23.150  25.015  1.00  0.00     0.054 A 
ATOM     26  C   UNL A   1      35.385  22.743  23.815  1.00  0.00     0.024 A 
ATOM     27  S   UNL A   1      36.033  23.282  26.242  1.00  0.00    -0.122 S 
ATOM     28  C   UNL A   1      36.796  22.546  23.906  1.00  0.00     0.033 A 
ATOM     29  C   UNL A   1      37.250  22.806  25.173  1.00  0.00     0.094 A 
ATOM     30  Cl  UNL A   1      38.868  22.669  25.729  1.00  0.00    -0.072 Cl
ENDBRANCH  11  25
ENDBRANCH   5   8
ENDBRANCH   3   4
ENDBRANCH   2   3
ENDBRANCH   1   2
BRANCH   1  31
ATOM     31  C   UNL A   1      31.980  29.042  26.852  1.00  0.00     0.002 C 
BRANCH  31  32
ATOM     32  C   UNL A   1      32.345  30.532  26.769  1.00  0.00     0.021 C 
BRANCH  32  33
ATOM     33  C   UNL A   1      33.797  30.844  27.105  1.00  0.00     0.116 C 
BRANCH  33  34
ATOM     34  N   UNL A   1      33.918  31.841  28.163  1.00  0.00    -0.352 N 
ATOM     35  C   UNL A   1      34.832  31.898  29.192  1.00  0.00     0.251 C 
ATOM     36  H   UNL A   1      33.258  32.571  28.139  1.00  0.00     0.163 HD
ATOM     37  O   UNL A   1      34.604  32.563  30.196  1.00  0.00    -0.269 OA
BRANCH  35  38
ATOM     38  C   UNL A   1      36.089  31.139  29.076  1.00  0.00     0.039 A 
ATOM     39  C   UNL A   1      37.314  31.804  28.995  1.00  0.00     0.014 A 
ATOM     40  C   UNL A   1      36.035  29.747  29.075  1.00  0.00     0.014 A 
ATOM     41  C   UNL A   1      38.488  31.055  29.011  1.00  0.00     0.010 A 
ATOM     42  C   UNL A   1      37.192  29.016  29.221  1.00  0.00     0.010 A 
ATOM     43  C   UNL A   1      38.425  29.658  29.160  1.00  0.00    -0.014 A 
BRANCH  43  44
ATOM     44  C   UNL A   1      39.646  28.893  29.412  1.00  0.00     0.031 A 
ATOM     45  C   UNL A   1      40.008  28.785  30.850  1.00  0.00     0.074 A 
ATOM     46  C   UNL A   1      40.306  28.166  28.483  1.00  0.00     0.049 A 
ATOM     47  N   UNL A   1      41.012  29.337  31.445  1.00  0.00    -0.248 NA
ATOM     48  C   UNL A   1      39.080  28.093  31.761  1.00  0.00     0.031 C 
ATOM     49  C   UNL A   1      39.914  27.928  27.088  1.00  0.00     0.029 A 
ATOM     50  N   UNL A   1      41.426  27.393  28.617  1.00  0.00    -0.354 N 
ATOM     51  C   UNL A   1      40.972  28.882  32.758  1.00  0.00     0.074 A 
ATOM     52  C   UNL A   1      39.676  28.279  32.941  1.00  0.00     0.031 C 
ATOM     53  C   UNL A   1      40.632  26.902  26.581  1.00  0.00     0.029 A 
ATOM     54  C   UNL A   1      41.661  26.544  27.539  1.00  0.00     0.049 A 
ATOM     55  H   UNL A   1      42.013  27.433  29.404  1.00  0.00     0.167 HD
ATOM     56  C   UNL A   1      42.116  28.766  33.486  1.00  0.00     0.031 A 
ATOM     57  C   UNL A   1      42.649  25.628  27.412  1.00  0.00     0.031 A 
ATOM     58  C   UNL A   1      43.216  29.438  32.844  1.00  0.00     0.049 A 
ATOM     59  C   UNL A   1      43.743  26.020  28.317  1.00  0.00     0.074 A 
ATOM     60  C   UNL A   1      43.625  30.737  32.640  1.00  0.00     0.029 A 
ATOM     61  N   UNL A   1      43.887  28.652  31.944  1.00  0.00    -0.354 N 
ATOM     62  N   UNL A   1      44.470  27.082  28.128  1.00  0.00    -0.248 NA
ATOM     63  C   UNL A   1      43.865  25.401  29.630  1.00  0.00     0.031 C 
ATOM     64  C   UNL A   1      44.403  30.722  31.443  1.00  0.00     0.029 A 
ATOM     65  C   UNL A   1      44.485  29.412  30.976  1.00  0.00     0.049 A 
ATOM     66  H   UNL A   1      43.932  27.669  31.988  1.00  0.00     0.167 HD
ATOM     67  C   UNL A   1      44.764  27.516  29.403  1.00  0.00     0.074 A 
ATOM     68  C   UNL A   1      44.555  26.357  30.260  1.00  0.00     0.031 C 
ATOM     69  C   UNL A   1      44.820  28.849  29.686  1.00  0.00     0.031 A 
BRANCH  56  70
ATOM     70  C   UNL A   1      42.378  27.634  34.458  1.00  0.00    -0.014 A 
ATOM     71  C   UNL A   1      43.103  26.514  34.006  1.00  0.00     0.009 A 
ATOM     72  C   UNL A   1      41.686  27.485  35.675  1.00  0.00     0.009 A 
ATOM     73  C   UNL A   1      43.087  25.301  34.708  1.00  0.00     0.001 A 
ATOM     74  C   UNL A   1      41.697  26.287  36.396  1.00  0.00     0.001 A 
ATOM     75  C   UNL A   1      42.379  25.186  35.899  1.00  0.00     0.000 A 
ENDBRANCH  56  70
BRANCH  57  76
ATOM     76  C   UNL A   1      42.730  24.390  26.619  1.00  0.00    -0.014 A 
ATOM     77  C   UNL A   1      43.224  24.414  25.304  1.00  0.00     0.009 A 
ATOM     78  C   UNL A   1      42.609  23.144  27.257  1.00  0.00     0.009 A 
ATOM     79  C   UNL A   1      43.646  23.239  24.674  1.00  0.00     0.001 A 
ATOM     80  C   UNL A   1      43.032  21.969  26.626  1.00  0.00     0.001 A 
ATOM     81  C   UNL A   1      43.570  22.021  25.343  1.00  0.00     0.000 A 
ENDBRANCH  57  76
BRANCH  69  82
ATOM     82  C   UNL A   1      45.054  29.786  28.536  1.00  0.00    -0.014 A 
ATOM     83  C   UNL A   1      44.021  30.401  27.807  1.00  0.00     0.009 A 
ATOM     84  C   UNL A   1      46.381  30.095  28.205  1.00  0.00     0.009 A 
ATOM     85  C   UNL A   1      44.314  31.274  26.755  1.00  0.00     0.001 A 
ATOM     86  C   UNL A   1      46.673  30.983  27.169  1.00  0.00     0.001 A 
ATOM     87  C   UNL A   1      45.640  31.566  26.439  1.00  0.00     0.000 A 
ENDBRANCH  69  82
ENDBRANCH  43  44
ENDBRANCH  35  38
ENDBRANCH  33  34
ENDBRANCH  32  33
ENDBRANCH  31  32
ENDBRANCH   1  31
TORSDOF 17
ENDMDL
