MODEL 1
REMARK VINA RESULT:     -11.9      0.000      0.000
REMARK SMILES COc1cccc([C@H]2CC(c3ccc(S(C)(=O)=O)cc3)=NN2c2ccc(C(=O)NCCCCCCNC(=O)c3ccc(-c4c5nc(c(-c6ccccc6)c6ccc([nH]6)c(-c6ccccc6)c6nc(c(-c7ccccc7)c7ccc4[nH]7)C=C6)C=C5)cc3)cc2)c1
REMARK SMILES IDX 32 1 31 2 30 3 29 4 27 5 28 6 26 8 23 9 24 10 88 11 25 12
REMARK SMILES IDX 87 13 22 14 8 15 9 16 10 17 21 18 7 19 3 20 4 21 89 22 5 23
REMARK SMILES IDX 6 24 2 25 1 26 11 27 12 28 20 29 13 30 19 31 14 32 15 33
REMARK SMILES IDX 16 34 17 35 18 36 33 37 34 38 35 39 36 40 37 41 38 43 39 44
REMARK SMILES IDX 40 45 86 46 41 47 85 48 42 49 43 50 44 51 79 52 45 53 84 54
REMARK SMILES IDX 78 55 80 56 46 57 83 58 77 59 76 60 47 62 69 63 54 64 68 65
REMARK SMILES IDX 55 66 58 67 67 68 81 69 56 70 57 71 66 73 82 74 59 75 48 76
REMARK SMILES IDX 49 77 53 78 50 79 52 80 51 81 70 82 71 83 75 84 72 85 74 86
REMARK SMILES IDX 73 87 60 88 61 89 65 90 62 91 64 92 63 93
REMARK H PARENT 29 7 36 42 80 61 58 72
REMARK Flexibility Score: inf
ROOT
ATOM      1  C   UNL A   1      31.756  29.799  25.515  1.00  0.00     0.002 C 
ENDROOT
BRANCH   1   2
ATOM      2  C   UNL A   1      33.160  29.373  25.061  1.00  0.00     0.021 C 
BRANCH   2   3
ATOM      3  C   UNL A   1      33.312  29.318  23.539  1.00  0.00     0.116 C 
BRANCH   3   4
ATOM      4  N   UNL A   1      32.126  28.735  22.947  1.00  0.00    -0.352 N 
ATOM      5  C   UNL A   1      31.753  27.442  22.691  1.00  0.00     0.251 C 
ATOM      6  O   UNL A   1      30.666  27.273  22.138  1.00  0.00    -0.269 OA
ATOM      7  H   UNL A   1      31.454  29.401  22.675  1.00  0.00     0.163 HD
BRANCH   5   8
ATOM      8  C   UNL A   1      32.555  26.253  23.094  1.00  0.00     0.039 A 
ATOM      9  C   UNL A   1      34.039  24.050  24.082  1.00  0.00     0.060 A 
ATOM     10  C   UNL A   1      33.123  24.721  24.896  1.00  0.00     0.029 A 
ATOM     11  C   UNL A   1      34.164  24.462  22.753  1.00  0.00     0.029 A 
ATOM     12  C   UNL A   1      32.406  25.821  24.419  1.00  0.00     0.016 A 
ATOM     13  C   UNL A   1      33.398  25.523  22.252  1.00  0.00     0.016 A 
BRANCH   9  14
ATOM     14  N   UNL A   1      34.753  22.981  24.590  1.00  0.00    -0.257 N 
ATOM     15  C   UNL A   1      34.173  21.814  25.252  1.00  0.00     0.144 C 
ATOM     16  C   UNL A   1      35.411  21.084  25.796  1.00  0.00     0.091 C 
ATOM     17  C   UNL A   1      36.487  22.039  25.364  1.00  0.00     0.071 C 
ATOM     18  N   UNL A   1      36.100  23.080  24.699  1.00  0.00    -0.176 NA
BRANCH  15  19
ATOM     19  C   UNL A   1      33.369  20.970  24.276  1.00  0.00    -0.019 A 
ATOM     20  C   UNL A   1      32.696  18.796  23.393  1.00  0.00     0.119 A 
ATOM     21  C   UNL A   1      31.942  19.432  22.409  1.00  0.00     0.046 A 
ATOM     22  C   UNL A   1      33.423  19.562  24.308  1.00  0.00     0.052 A 
ATOM     23  C   UNL A   1      31.878  20.825  22.362  1.00  0.00     0.004 A 
ATOM     24  C   UNL A   1      32.582  21.590  23.293  1.00  0.00     0.006 A 
BRANCH  20  25
ATOM     25  O   UNL A   1      32.702  17.429  23.342  1.00  0.00    -0.497 OA
ATOM     26  C   UNL A   1      33.024  16.785  24.569  1.00  0.00     0.278 C 
ENDBRANCH  20  25
ENDBRANCH  15  19
BRANCH  17  27
ATOM     27  C   UNL A   1      37.888  21.824  25.727  1.00  0.00    -0.002 A 
ATOM     28  C   UNL A   1      38.614  22.907  26.234  1.00  0.00     0.011 A 
ATOM     29  C   UNL A   1      38.490  20.583  25.519  1.00  0.00     0.011 A 
ATOM     30  C   UNL A   1      39.961  22.744  26.552  1.00  0.00     0.021 A 
ATOM     31  C   UNL A   1      39.846  20.425  25.812  1.00  0.00     0.021 A 
ATOM     32  C   UNL A   1      40.574  21.507  26.322  1.00  0.00     0.067 A 
BRANCH  32  33
ATOM     33  S   UNL A   1      42.301  21.321  26.697  1.00  0.00     0.175 S 
ATOM     34  C   UNL A   1      42.652  22.664  27.803  1.00  0.00     0.163 C 
ATOM     35  O   UNL A   1      42.436  20.075  27.425  1.00  0.00    -0.224 OA
ATOM     36  O   UNL A   1      43.042  21.557  25.472  1.00  0.00    -0.224 OA
ENDBRANCH  32  33
ENDBRANCH  17  27
ENDBRANCH   9  14
ENDBRANCH   5   8
ENDBRANCH   3   4
ENDBRANCH   2   3
ENDBRANCH   1   2
BRANCH   1  37
ATOM     37  C   UNL A   1      31.707  30.517  26.870  1.00  0.00     0.002 C 
BRANCH  37  38
ATOM     38  C   UNL A   1      31.556  32.038  26.790  1.00  0.00     0.021 C 
BRANCH  38  39
ATOM     39  C   UNL A   1      32.820  32.814  27.143  1.00  0.00     0.116 C 
BRANCH  39  40
ATOM     40  N   UNL A   1      32.519  34.172  27.568  1.00  0.00    -0.352 N 
ATOM     41  C   UNL A   1      33.038  34.886  28.619  1.00  0.00     0.251 C 
ATOM     42  H   UNL A   1      31.849  34.647  27.026  1.00  0.00     0.163 HD
ATOM     43  O   UNL A   1      32.522  35.941  28.969  1.00  0.00    -0.269 OA
BRANCH  41  44
ATOM     44  C   UNL A   1      34.220  34.370  29.342  1.00  0.00     0.039 A 
ATOM     45  C   UNL A   1      34.028  33.619  30.504  1.00  0.00     0.014 A 
ATOM     46  C   UNL A   1      35.512  34.645  28.884  1.00  0.00     0.014 A 
ATOM     47  C   UNL A   1      35.134  33.098  31.180  1.00  0.00     0.010 A 
ATOM     48  C   UNL A   1      36.608  34.076  29.524  1.00  0.00     0.010 A 
ATOM     49  C   UNL A   1      36.429  33.302  30.682  1.00  0.00    -0.014 A 
BRANCH  49  50
ATOM     50  C   UNL A   1      37.615  32.720  31.358  1.00  0.00     0.031 A 
ATOM     51  C   UNL A   1      38.355  31.572  30.728  1.00  0.00     0.074 A 
ATOM     52  C   UNL A   1      37.984  33.178  32.569  1.00  0.00     0.049 A 
ATOM     53  N   UNL A   1      39.362  30.882  31.199  1.00  0.00    -0.248 NA
ATOM     54  C   UNL A   1      37.883  31.127  29.407  1.00  0.00     0.031 C 
ATOM     55  C   UNL A   1      37.328  34.263  33.302  1.00  0.00     0.029 A 
ATOM     56  N   UNL A   1      38.999  32.779  33.402  1.00  0.00    -0.354 N 
ATOM     57  C   UNL A   1      39.630  29.910  30.244  1.00  0.00     0.074 A 
ATOM     58  C   UNL A   1      38.656  30.073  29.187  1.00  0.00     0.031 C 
ATOM     59  C   UNL A   1      37.970  34.456  34.466  1.00  0.00     0.029 A 
ATOM     60  C   UNL A   1      39.056  33.487  34.577  1.00  0.00     0.049 A 
ATOM     61  H   UNL A   1      39.626  32.054  33.178  1.00  0.00     0.167 HD
ATOM     62  C   UNL A   1      40.611  28.975  30.239  1.00  0.00     0.031 A 
ATOM     63  C   UNL A   1      39.887  33.366  35.630  1.00  0.00     0.031 A 
ATOM     64  C   UNL A   1      41.591  28.823  31.280  1.00  0.00     0.049 A 
ATOM     65  C   UNL A   1      40.964  32.320  35.601  1.00  0.00     0.074 A 
ATOM     66  C   UNL A   1      42.659  27.944  31.338  1.00  0.00     0.029 A 
ATOM     67  N   UNL A   1      41.624  29.571  32.446  1.00  0.00    -0.354 N 
ATOM     68  N   UNL A   1      41.241  31.445  34.664  1.00  0.00    -0.248 NA
ATOM     69  C   UNL A   1      41.851  32.252  36.771  1.00  0.00     0.031 C 
ATOM     70  C   UNL A   1      43.313  28.132  32.560  1.00  0.00     0.029 A 
ATOM     71  C   UNL A   1      42.681  29.161  33.240  1.00  0.00     0.049 A 
ATOM     72  H   UNL A   1      40.989  30.289  32.675  1.00  0.00     0.167 HD
ATOM     73  C   UNL A   1      42.348  30.742  35.119  1.00  0.00     0.074 A 
ATOM     74  C   UNL A   1      42.699  31.299  36.409  1.00  0.00     0.031 C 
ATOM     75  C   UNL A   1      43.015  29.726  34.520  1.00  0.00     0.031 A 
BRANCH  62  76
ATOM     76  C   UNL A   1      40.663  28.037  29.066  1.00  0.00    -0.014 A 
ATOM     77  C   UNL A   1      39.924  26.843  29.058  1.00  0.00     0.009 A 
ATOM     78  C   UNL A   1      41.437  28.365  27.943  1.00  0.00     0.009 A 
ATOM     79  C   UNL A   1      39.990  25.979  27.962  1.00  0.00     0.001 A 
ATOM     80  C   UNL A   1      41.479  27.512  26.838  1.00  0.00     0.001 A 
ATOM     81  C   UNL A   1      40.763  26.316  26.853  1.00  0.00     0.000 A 
ENDBRANCH  62  76
BRANCH  63  82
ATOM     82  C   UNL A   1      39.743  34.274  36.796  1.00  0.00    -0.014 A 
ATOM     83  C   UNL A   1      40.333  35.546  36.781  1.00  0.00     0.009 A 
ATOM     84  C   UNL A   1      39.017  33.874  37.929  1.00  0.00     0.009 A 
ATOM     85  C   UNL A   1      40.221  36.391  37.887  1.00  0.00     0.001 A 
ATOM     86  C   UNL A   1      38.884  34.731  39.022  1.00  0.00     0.001 A 
ATOM     87  C   UNL A   1      39.492  35.986  39.005  1.00  0.00     0.000 A 
ENDBRANCH  63  82
BRANCH  75  88
ATOM     88  C   UNL A   1      44.213  29.175  35.240  1.00  0.00    -0.014 A 
ATOM     89  C   UNL A   1      45.435  29.864  35.252  1.00  0.00     0.009 A 
ATOM     90  C   UNL A   1      44.101  27.970  35.950  1.00  0.00     0.009 A 
ATOM     91  C   UNL A   1      46.532  29.341  35.939  1.00  0.00     0.001 A 
ATOM     92  C   UNL A   1      45.191  27.462  36.657  1.00  0.00     0.001 A 
ATOM     93  C   UNL A   1      46.408  28.143  36.644  1.00  0.00     0.000 A 
ENDBRANCH  75  88
ENDBRANCH  49  50
ENDBRANCH  41  44
ENDBRANCH  39  40
ENDBRANCH  38  39
ENDBRANCH  37  38
ENDBRANCH   1  37
TORSDOF 18
ENDMDL
MODEL 2
REMARK VINA RESULT:     -11.7      0.769      5.487
REMARK SMILES COc1cccc([C@H]2CC(c3ccc(S(C)(=O)=O)cc3)=NN2c2ccc(C(=O)NCCCCCCNC(=O)c3ccc(-c4c5nc(c(-c6ccccc6)c6ccc([nH]6)c(-c6ccccc6)c6nc(c(-c7ccccc7)c7ccc4[nH]7)C=C6)C=C5)cc3)cc2)c1
REMARK SMILES IDX 32 1 31 2 30 3 29 4 27 5 28 6 26 8 23 9 24 10 88 11 25 12
REMARK SMILES IDX 87 13 22 14 8 15 9 16 10 17 21 18 7 19 3 20 4 21 89 22 5 23
REMARK SMILES IDX 6 24 2 25 1 26 11 27 12 28 20 29 13 30 19 31 14 32 15 33
REMARK SMILES IDX 16 34 17 35 18 36 33 37 34 38 35 39 36 40 37 41 38 43 39 44
REMARK SMILES IDX 40 45 86 46 41 47 85 48 42 49 43 50 44 51 79 52 45 53 84 54
REMARK SMILES IDX 78 55 80 56 46 57 83 58 77 59 76 60 47 62 69 63 54 64 68 65
REMARK SMILES IDX 55 66 58 67 67 68 81 69 56 70 57 71 66 73 82 74 59 75 48 76
REMARK SMILES IDX 49 77 53 78 50 79 52 80 51 81 70 82 71 83 75 84 72 85 74 86
REMARK SMILES IDX 73 87 60 88 61 89 65 90 62 91 64 92 63 93
REMARK H PARENT 29 7 36 42 80 61 58 72
REMARK Flexibility Score: inf
ROOT
ATOM      1  C   UNL A   1      31.637  29.822  25.522  1.00  0.00     0.002 C 
ENDROOT
BRANCH   1   2
ATOM      2  C   UNL A   1      32.972  29.367  24.915  1.00  0.00     0.021 C 
BRANCH   2   3
ATOM      3  C   UNL A   1      32.983  29.403  23.385  1.00  0.00     0.116 C 
BRANCH   3   4
ATOM      4  N   UNL A   1      31.810  28.730  22.869  1.00  0.00    -0.352 N 
ATOM      5  C   UNL A   1      31.493  27.407  22.701  1.00  0.00     0.251 C 
ATOM      6  O   UNL A   1      30.399  27.154  22.196  1.00  0.00    -0.269 OA
ATOM      7  H   UNL A   1      31.097  29.345  22.581  1.00  0.00     0.163 HD
BRANCH   5   8
ATOM      8  C   UNL A   1      32.365  26.284  23.146  1.00  0.00     0.039 A 
ATOM      9  C   UNL A   1      33.980  24.213  24.210  1.00  0.00     0.060 A 
ATOM     10  C   UNL A   1      33.031  24.863  25.004  1.00  0.00     0.029 A 
ATOM     11  C   UNL A   1      34.074  24.577  22.865  1.00  0.00     0.029 A 
ATOM     12  C   UNL A   1      32.249  25.899  24.488  1.00  0.00     0.016 A 
ATOM     13  C   UNL A   1      33.245  25.571  22.327  1.00  0.00     0.016 A 
BRANCH   9  14
ATOM     14  N   UNL A   1      34.758  23.208  24.756  1.00  0.00    -0.257 N 
ATOM     15  C   UNL A   1      34.251  22.044  25.480  1.00  0.00     0.144 C 
ATOM     16  C   UNL A   1      35.534  21.408  26.037  1.00  0.00     0.091 C 
ATOM     17  C   UNL A   1      36.550  22.398  25.545  1.00  0.00     0.071 C 
ATOM     18  N   UNL A   1      36.099  23.385  24.839  1.00  0.00    -0.176 NA
BRANCH  15  19
ATOM     19  C   UNL A   1      33.481  21.113  24.556  1.00  0.00    -0.019 A 
ATOM     20  C   UNL A   1      32.785  18.871  23.891  1.00  0.00     0.119 A 
ATOM     21  C   UNL A   1      32.122  19.407  22.789  1.00  0.00     0.046 A 
ATOM     22  C   UNL A   1      33.478  19.719  24.758  1.00  0.00     0.052 A 
ATOM     23  C   UNL A   1      32.114  20.784  22.574  1.00  0.00     0.004 A 
ATOM     24  C   UNL A   1      32.784  21.634  23.454  1.00  0.00     0.006 A 
BRANCH  20  25
ATOM     25  O   UNL A   1      32.741  17.508  24.002  1.00  0.00    -0.497 OA
ATOM     26  C   UNL A   1      32.531  17.021  25.323  1.00  0.00     0.278 C 
ENDBRANCH  20  25
ENDBRANCH  15  19
BRANCH  17  27
ATOM     27  C   UNL A   1      37.966  22.276  25.895  1.00  0.00    -0.002 A 
ATOM     28  C   UNL A   1      38.618  23.397  26.419  1.00  0.00     0.011 A 
ATOM     29  C   UNL A   1      38.652  21.084  25.658  1.00  0.00     0.011 A 
ATOM     30  C   UNL A   1      39.975  23.324  26.726  1.00  0.00     0.021 A 
ATOM     31  C   UNL A   1      40.018  21.017  25.940  1.00  0.00     0.021 A 
ATOM     32  C   UNL A   1      40.671  22.138  26.467  1.00  0.00     0.067 A 
BRANCH  32  33
ATOM     33  S   UNL A   1      42.411  22.067  26.828  1.00  0.00     0.175 S 
ATOM     34  C   UNL A   1      42.967  20.601  25.998  1.00  0.00     0.163 C 
ATOM     35  O   UNL A   1      43.015  23.218  26.189  1.00  0.00    -0.224 OA
ATOM     36  O   UNL A   1      42.551  21.842  28.255  1.00  0.00    -0.224 OA
ENDBRANCH  32  33
ENDBRANCH  17  27
ENDBRANCH   9  14
ENDBRANCH   5   8
ENDBRANCH   3   4
ENDBRANCH   2   3
ENDBRANCH   1   2
BRANCH   1  37
ATOM     37  C   UNL A   1      31.755  30.533  26.877  1.00  0.00     0.002 C 
BRANCH  37  38
ATOM     38  C   UNL A   1      31.544  32.049  26.832  1.00  0.00     0.021 C 
BRANCH  38  39
ATOM     39  C   UNL A   1      32.815  32.866  27.038  1.00  0.00     0.116 C 
BRANCH  39  40
ATOM     40  N   UNL A   1      32.533  34.164  27.629  1.00  0.00    -0.352 N 
ATOM     41  C   UNL A   1      33.077  34.743  28.749  1.00  0.00     0.251 C 
ATOM     42  H   UNL A   1      31.856  34.704  27.161  1.00  0.00     0.163 HD
ATOM     43  O   UNL A   1      32.574  35.752  29.232  1.00  0.00    -0.269 OA
BRANCH  41  44
ATOM     44  C   UNL A   1      34.267  34.138  29.381  1.00  0.00     0.039 A 
ATOM     45  C   UNL A   1      34.090  33.201  30.402  1.00  0.00     0.014 A 
ATOM     46  C   UNL A   1      35.554  34.510  28.980  1.00  0.00     0.014 A 
ATOM     47  C   UNL A   1      35.205  32.597  30.987  1.00  0.00     0.010 A 
ATOM     48  C   UNL A   1      36.661  33.865  29.522  1.00  0.00     0.010 A 
ATOM     49  C   UNL A   1      36.497  32.906  30.534  1.00  0.00    -0.014 A 
BRANCH  49  50
ATOM     50  C   UNL A   1      37.694  32.244  31.110  1.00  0.00     0.031 A 
ATOM     51  C   UNL A   1      38.154  32.593  32.498  1.00  0.00     0.074 A 
ATOM     52  C   UNL A   1      38.404  31.381  30.359  1.00  0.00     0.049 A 
ATOM     53  N   UNL A   1      39.215  32.181  33.143  1.00  0.00    -0.248 NA
ATOM     54  C   UNL A   1      37.325  33.550  33.249  1.00  0.00     0.031 C 
ATOM     55  C   UNL A   1      38.082  30.985  28.986  1.00  0.00     0.029 A 
ATOM     56  N   UNL A   1      39.554  30.688  30.645  1.00  0.00    -0.354 N 
ATOM     57  C   UNL A   1      39.194  32.843  34.364  1.00  0.00     0.074 A 
ATOM     58  C   UNL A   1      38.038  33.713  34.355  1.00  0.00     0.031 C 
ATOM     59  C   UNL A   1      39.001  30.105  28.558  1.00  0.00     0.029 A 
ATOM     60  C   UNL A   1      39.993  29.902  29.609  1.00  0.00     0.049 A 
ATOM     61  H   UNL A   1      40.018  30.749  31.511  1.00  0.00     0.167 HD
ATOM     62  C   UNL A   1      40.050  32.725  35.407  1.00  0.00     0.031 A 
ATOM     63  C   UNL A   1      41.079  29.111  29.512  1.00  0.00     0.031 A 
ATOM     64  C   UNL A   1      41.189  31.848  35.426  1.00  0.00     0.049 A 
ATOM     65  C   UNL A   1      42.014  28.999  30.683  1.00  0.00     0.074 A 
ATOM     66  C   UNL A   1      42.083  31.615  36.457  1.00  0.00     0.029 A 
ATOM     67  N   UNL A   1      41.591  31.056  34.361  1.00  0.00    -0.354 N 
ATOM     68  N   UNL A   1      41.948  29.588  31.852  1.00  0.00    -0.248 NA
ATOM     69  C   UNL A   1      43.169  28.104  30.522  1.00  0.00     0.031 C 
ATOM     70  C   UNL A   1      43.050  30.714  36.002  1.00  0.00     0.029 A 
ATOM     71  C   UNL A   1      42.730  30.349  34.703  1.00  0.00     0.049 A 
ATOM     72  H   UNL A   1      41.133  31.005  33.491  1.00  0.00     0.167 HD
ATOM     73  C   UNL A   1      43.035  29.116  32.575  1.00  0.00     0.074 A 
ATOM     74  C   UNL A   1      43.737  28.183  31.718  1.00  0.00     0.031 C 
ATOM     75  C   UNL A   1      43.415  29.426  33.838  1.00  0.00     0.031 A 
BRANCH  62  76
ATOM     76  C   UNL A   1      39.785  33.578  36.616  1.00  0.00    -0.014 A 
ATOM     77  C   UNL A   1      40.282  34.888  36.704  1.00  0.00     0.009 A 
ATOM     78  C   UNL A   1      39.005  33.075  37.668  1.00  0.00     0.009 A 
ATOM     79  C   UNL A   1      40.032  35.664  37.838  1.00  0.00     0.001 A 
ATOM     80  C   UNL A   1      38.733  33.863  38.788  1.00  0.00     0.001 A 
ATOM     81  C   UNL A   1      39.256  35.153  38.877  1.00  0.00     0.000 A 
ENDBRANCH  62  76
BRANCH  63  82
ATOM     82  C   UNL A   1      41.331  28.347  28.265  1.00  0.00    -0.014 A 
ATOM     83  C   UNL A   1      40.865  27.030  28.133  1.00  0.00     0.009 A 
ATOM     84  C   UNL A   1      42.039  28.927  27.201  1.00  0.00     0.009 A 
ATOM     85  C   UNL A   1      41.123  26.301  26.971  1.00  0.00     0.001 A 
ATOM     86  C   UNL A   1      42.273  28.205  26.030  1.00  0.00     0.001 A 
ATOM     87  C   UNL A   1      41.822  26.890  25.918  1.00  0.00     0.000 A 
ENDBRANCH  63  82
BRANCH  75  88
ATOM     88  C   UNL A   1      44.629  28.724  34.379  1.00  0.00    -0.014 A 
ATOM     89  C   UNL A   1      45.909  29.282  34.251  1.00  0.00     0.009 A 
ATOM     90  C   UNL A   1      44.478  27.508  35.062  1.00  0.00     0.009 A 
ATOM     91  C   UNL A   1      47.021  28.620  34.773  1.00  0.00     0.001 A 
ATOM     92  C   UNL A   1      45.588  26.860  35.605  1.00  0.00     0.001 A 
ATOM     93  C   UNL A   1      46.860  27.412  35.452  1.00  0.00     0.000 A 
ENDBRANCH  75  88
ENDBRANCH  49  50
ENDBRANCH  41  44
ENDBRANCH  39  40
ENDBRANCH  38  39
ENDBRANCH  37  38
ENDBRANCH   1  37
TORSDOF 18
ENDMDL
MODEL 3
REMARK VINA RESULT:     -11.4      1.515      5.724
REMARK SMILES COc1cccc([C@H]2CC(c3ccc(S(C)(=O)=O)cc3)=NN2c2ccc(C(=O)NCCCCCCNC(=O)c3ccc(-c4c5nc(c(-c6ccccc6)c6ccc([nH]6)c(-c6ccccc6)c6nc(c(-c7ccccc7)c7ccc4[nH]7)C=C6)C=C5)cc3)cc2)c1
REMARK SMILES IDX 32 1 31 2 30 3 29 4 27 5 28 6 26 8 23 9 24 10 88 11 25 12
REMARK SMILES IDX 87 13 22 14 8 15 9 16 10 17 21 18 7 19 3 20 4 21 89 22 5 23
REMARK SMILES IDX 6 24 2 25 1 26 11 27 12 28 20 29 13 30 19 31 14 32 15 33
REMARK SMILES IDX 16 34 17 35 18 36 33 37 34 38 35 39 36 40 37 41 38 43 39 44
REMARK SMILES IDX 40 45 86 46 41 47 85 48 42 49 43 50 44 51 79 52 45 53 84 54
REMARK SMILES IDX 78 55 80 56 46 57 83 58 77 59 76 60 47 62 69 63 54 64 68 65
REMARK SMILES IDX 55 66 58 67 67 68 81 69 56 70 57 71 66 73 82 74 59 75 48 76
REMARK SMILES IDX 49 77 53 78 50 79 52 80 51 81 70 82 71 83 75 84 72 85 74 86
REMARK SMILES IDX 73 87 60 88 61 89 65 90 62 91 64 92 63 93
REMARK H PARENT 29 7 36 42 80 61 58 72
REMARK Flexibility Score: inf
ROOT
ATOM      1  C   UNL A   1      33.572  28.750  26.607  1.00  0.00     0.002 C 
ENDROOT
BRANCH   1   2
ATOM      2  C   UNL A   1      32.124  29.212  26.390  1.00  0.00     0.021 C 
BRANCH   2   3
ATOM      3  C   UNL A   1      31.851  29.693  24.963  1.00  0.00     0.116 C 
BRANCH   3   4
ATOM      4  N   UNL A   1      30.752  28.943  24.392  1.00  0.00    -0.352 N 
ATOM      5  C   UNL A   1      30.612  27.631  24.025  1.00  0.00     0.251 C 
ATOM      6  O   UNL A   1      29.533  27.301  23.531  1.00  0.00    -0.269 OA
ATOM      7  H   UNL A   1      29.944  29.484  24.239  1.00  0.00     0.163 HD
BRANCH   5   8
ATOM      8  C   UNL A   1      31.658  26.593  24.244  1.00  0.00     0.039 A 
ATOM      9  C   UNL A   1      33.563  24.592  24.876  1.00  0.00     0.060 A 
ATOM     10  C   UNL A   1      32.397  24.738  25.633  1.00  0.00     0.029 A 
ATOM     11  C   UNL A   1      33.738  25.426  23.769  1.00  0.00     0.029 A 
ATOM     12  C   UNL A   1      31.467  25.738  25.337  1.00  0.00     0.016 A 
ATOM     13  C   UNL A   1      32.775  26.386  23.430  1.00  0.00     0.016 A 
BRANCH   9  14
ATOM     14  N   UNL A   1      34.479  23.611  25.208  1.00  0.00    -0.257 N 
ATOM     15  C   UNL A   1      34.148  22.294  25.750  1.00  0.00     0.144 C 
ATOM     16  C   UNL A   1      35.525  21.730  26.132  1.00  0.00     0.091 C 
ATOM     17  C   UNL A   1      36.395  22.898  25.766  1.00  0.00     0.071 C 
ATOM     18  N   UNL A   1      35.795  23.927  25.257  1.00  0.00    -0.176 NA
BRANCH  15  19
ATOM     19  C   UNL A   1      33.423  21.441  24.721  1.00  0.00    -0.019 A 
ATOM     20  C   UNL A   1      32.730  19.261  23.870  1.00  0.00     0.119 A 
ATOM     21  C   UNL A   1      32.153  19.880  22.763  1.00  0.00     0.046 A 
ATOM     22  C   UNL A   1      33.381  20.037  24.832  1.00  0.00     0.052 A 
ATOM     23  C   UNL A   1      32.185  21.269  22.636  1.00  0.00     0.004 A 
ATOM     24  C   UNL A   1      32.811  22.046  23.611  1.00  0.00     0.006 A 
BRANCH  20  25
ATOM     25  O   UNL A   1      32.654  17.896  23.890  1.00  0.00    -0.497 OA
ATOM     26  C   UNL A   1      32.541  17.321  25.187  1.00  0.00     0.278 C 
ENDBRANCH  20  25
ENDBRANCH  15  19
BRANCH  17  27
ATOM     27  C   UNL A   1      37.836  22.888  26.023  1.00  0.00    -0.002 A 
ATOM     28  C   UNL A   1      38.544  21.707  25.776  1.00  0.00     0.011 A 
ATOM     29  C   UNL A   1      38.467  24.014  26.551  1.00  0.00     0.011 A 
ATOM     30  C   UNL A   1      39.910  21.653  26.048  1.00  0.00     0.021 A 
ATOM     31  C   UNL A   1      39.830  23.953  26.849  1.00  0.00     0.021 A 
ATOM     32  C   UNL A   1      40.541  22.774  26.601  1.00  0.00     0.067 A 
BRANCH  32  33
ATOM     33  S   UNL A   1      42.276  22.683  26.977  1.00  0.00     0.175 S 
ATOM     34  C   UNL A   1      42.377  23.178  28.678  1.00  0.00     0.163 C 
ATOM     35  O   UNL A   1      42.650  21.286  26.880  1.00  0.00    -0.224 OA
ATOM     36  O   UNL A   1      42.949  23.695  26.185  1.00  0.00    -0.224 OA
ENDBRANCH  32  33
ENDBRANCH  17  27
ENDBRANCH   9  14
ENDBRANCH   5   8
ENDBRANCH   3   4
ENDBRANCH   2   3
ENDBRANCH   1   2
BRANCH   1  37
ATOM     37  C   UNL A   1      34.500  29.806  27.222  1.00  0.00     0.002 C 
BRANCH  37  38
ATOM     38  C   UNL A   1      33.787  31.005  27.853  1.00  0.00     0.021 C 
BRANCH  38  39
ATOM     39  C   UNL A   1      34.626  32.276  27.912  1.00  0.00     0.116 C 
BRANCH  39  40
ATOM     40  N   UNL A   1      33.899  33.376  28.524  1.00  0.00    -0.352 N 
ATOM     41  C   UNL A   1      34.023  33.901  29.786  1.00  0.00     0.251 C 
ATOM     42  H   UNL A   1      33.221  33.805  27.954  1.00  0.00     0.163 HD
ATOM     43  O   UNL A   1      33.187  34.687  30.218  1.00  0.00    -0.269 OA
BRANCH  41  44
ATOM     44  C   UNL A   1      35.168  33.506  30.634  1.00  0.00     0.039 A 
ATOM     45  C   UNL A   1      35.028  32.415  31.495  1.00  0.00     0.014 A 
ATOM     46  C   UNL A   1      36.367  34.223  30.592  1.00  0.00     0.014 A 
ATOM     47  C   UNL A   1      36.111  32.009  32.278  1.00  0.00     0.010 A 
ATOM     48  C   UNL A   1      37.463  33.783  31.328  1.00  0.00     0.010 A 
ATOM     49  C   UNL A   1      37.342  32.675  32.182  1.00  0.00    -0.014 A 
BRANCH  49  50
ATOM     50  C   UNL A   1      38.519  32.234  32.972  1.00  0.00     0.031 A 
ATOM     51  C   UNL A   1      38.708  32.724  34.381  1.00  0.00     0.074 A 
ATOM     52  C   UNL A   1      39.451  31.450  32.397  1.00  0.00     0.049 A 
ATOM     53  N   UNL A   1      39.707  32.513  35.200  1.00  0.00    -0.248 NA
ATOM     54  C   UNL A   1      37.647  33.583  34.931  1.00  0.00     0.031 C 
ATOM     55  C   UNL A   1      39.402  30.936  31.027  1.00  0.00     0.029 A 
ATOM     56  N   UNL A   1      40.631  30.956  32.896  1.00  0.00    -0.354 N 
ATOM     57  C   UNL A   1      39.405  33.229  36.352  1.00  0.00     0.074 A 
ATOM     58  C   UNL A   1      38.152  33.912  36.111  1.00  0.00     0.031 C 
ATOM     59  C   UNL A   1      40.491  30.184  30.802  1.00  0.00     0.029 A 
ATOM     60  C   UNL A   1      41.330  30.192  31.996  1.00  0.00     0.049 A 
ATOM     61  H   UNL A   1      40.944  31.133  33.813  1.00  0.00     0.167 HD
ATOM     62  C   UNL A   1      40.100  33.299  37.512  1.00  0.00     0.031 A 
ATOM     63  C   UNL A   1      42.520  29.571  32.116  1.00  0.00     0.031 A 
ATOM     64  C   UNL A   1      41.336  32.607  37.760  1.00  0.00     0.049 A 
ATOM     65  C   UNL A   1      43.272  29.666  33.413  1.00  0.00     0.074 A 
ATOM     66  C   UNL A   1      42.087  32.569  38.922  1.00  0.00     0.029 A 
ATOM     67  N   UNL A   1      42.004  31.830  36.827  1.00  0.00    -0.354 N 
ATOM     68  N   UNL A   1      42.945  30.300  34.513  1.00  0.00    -0.248 NA
ATOM     69  C   UNL A   1      44.553  28.950  33.488  1.00  0.00     0.031 C 
ATOM     70  C   UNL A   1      43.230  31.802  38.680  1.00  0.00     0.029 A 
ATOM     71  C   UNL A   1      43.167  31.324  37.381  1.00  0.00     0.049 A 
ATOM     72  H   UNL A   1      41.696  31.662  35.906  1.00  0.00     0.167 HD
ATOM     73  C   UNL A   1      43.965  30.039  35.418  1.00  0.00     0.074 A 
ATOM     74  C   UNL A   1      44.915  29.178  34.742  1.00  0.00     0.031 C 
ATOM     75  C   UNL A   1      44.101  30.470  36.695  1.00  0.00     0.031 A 
BRANCH  62  76
ATOM     76  C   UNL A   1      39.536  34.165  38.603  1.00  0.00    -0.014 A 
ATOM     77  C   UNL A   1      38.737  33.623  39.621  1.00  0.00     0.009 A 
ATOM     78  C   UNL A   1      39.832  35.536  38.629  1.00  0.00     0.009 A 
ATOM     79  C   UNL A   1      38.215  34.443  40.624  1.00  0.00     0.001 A 
ATOM     80  C   UNL A   1      39.332  36.349  39.648  1.00  0.00     0.001 A 
ATOM     81  C   UNL A   1      38.515  35.804  40.638  1.00  0.00     0.000 A 
ENDBRANCH  62  76
BRANCH  63  82
ATOM     82  C   UNL A   1      43.065  28.788  30.979  1.00  0.00    -0.014 A 
ATOM     83  C   UNL A   1      43.950  29.383  30.067  1.00  0.00     0.009 A 
ATOM     84  C   UNL A   1      42.703  27.444  30.797  1.00  0.00     0.009 A 
ATOM     85  C   UNL A   1      44.443  28.655  28.983  1.00  0.00     0.001 A 
ATOM     86  C   UNL A   1      43.219  26.712  29.726  1.00  0.00     0.001 A 
ATOM     87  C   UNL A   1      44.082  27.319  28.815  1.00  0.00     0.000 A 
ENDBRANCH  63  82
BRANCH  75  88
ATOM     88  C   UNL A   1      45.304  29.991  37.455  1.00  0.00    -0.014 A 
ATOM     89  C   UNL A   1      45.284  28.780  38.161  1.00  0.00     0.009 A 
ATOM     90  C   UNL A   1      46.487  30.746  37.426  1.00  0.00     0.009 A 
ATOM     91  C   UNL A   1      46.418  28.347  38.850  1.00  0.00     0.001 A 
ATOM     92  C   UNL A   1      47.628  30.298  38.094  1.00  0.00     0.001 A 
ATOM     93  C   UNL A   1      47.589  29.104  38.813  1.00  0.00     0.000 A 
ENDBRANCH  75  88
ENDBRANCH  49  50
ENDBRANCH  41  44
ENDBRANCH  39  40
ENDBRANCH  38  39
ENDBRANCH  37  38
ENDBRANCH   1  37
TORSDOF 18
ENDMDL
