MODEL 1
REMARK VINA RESULT:      -9.3      0.000      0.000
REMARK SMILES O=C(COCCNC(=O)[C@@H]1CCCCO1)NCCCCCCNC(=O)c1ccc(-c2c3nc(c(-c4ccccc4)c4ccc([nH]4)c(-c4ccccc4)c4nc(c(-c5ccccc5)c5ccc2[nH]5)C=C4)C=C3)cc1
REMARK SMILES IDX 18 1 17 2 16 3 1 4 2 5 3 7 4 8 5 9 6 10 7 11 8 12 9 14 10 15
REMARK SMILES IDX 11 16 15 17 12 18 14 19 13 20 19 21 20 22 21 23 22 24 23 25
REMARK SMILES IDX 24 26 25 28 26 29 27 30 73 31 28 32 72 33 29 34 30 35 31 36
REMARK SMILES IDX 66 37 32 38 71 39 65 40 67 41 33 42 70 43 64 44 63 45 34 47
REMARK SMILES IDX 56 48 41 49 55 50 42 51 45 52 54 53 68 54 43 55 44 56 53 58
REMARK SMILES IDX 69 59 46 60 35 61 36 62 40 63 37 64 39 65 38 66 57 67 58 68
REMARK SMILES IDX 62 69 59 70 61 71 60 72 47 73 48 74 52 75 49 76 51 77 50 78
REMARK H PARENT 16 6 7 13 23 27 67 46 45 57
REMARK Flexibility Score: inf
ROOT
ATOM      1  C   UNL A   1      37.141  23.535  25.980  1.00  0.00     0.021 C 
ENDROOT
BRANCH   1   2
ATOM      2  C   UNL A   1      35.945  23.624  25.033  1.00  0.00     0.116 C 
BRANCH   2   3
ATOM      3  N   UNL A   1      34.692  23.630  25.752  1.00  0.00    -0.354 N 
ATOM      4  O   UNL A   1      34.196  21.417  25.392  1.00  0.00    -0.272 OA
ATOM      5  C   UNL A   1      33.896  22.512  25.856  1.00  0.00     0.245 C 
ATOM      6  H   UNL A   1      34.396  24.465  26.183  1.00  0.00     0.163 HD
BRANCH   5   7
ATOM      7  C   UNL A   1      32.571  22.775  26.585  1.00  0.00     0.260 C 
BRANCH   7   8
ATOM      8  O   UNL A   1      31.368  22.633  25.841  1.00  0.00    -0.370 OA
BRANCH   8   9
ATOM      9  C   UNL A   1      31.024  23.739  25.001  1.00  0.00     0.182 C 
BRANCH   9  10
ATOM     10  C   UNL A   1      31.368  23.562  23.514  1.00  0.00     0.144 C 
BRANCH  10  11
ATOM     11  N   UNL A   1      31.038  24.714  22.695  1.00  0.00    -0.352 N 
ATOM     12  C   UNL A   1      31.775  25.786  22.289  1.00  0.00     0.249 C 
ATOM     13  H   UNL A   1      30.107  24.723  22.372  1.00  0.00     0.163 HD
ATOM     14  O   UNL A   1      31.205  26.582  21.537  1.00  0.00    -0.272 OA
BRANCH  12  15
ATOM     15  C   UNL A   1      33.269  25.931  22.682  1.00  0.00     0.207 C 
ATOM     16  C   UNL A   1      33.519  26.393  24.120  1.00  0.00     0.042 C 
ATOM     17  O   UNL A   1      34.048  26.731  21.785  1.00  0.00    -0.368 OA
ATOM     18  C   UNL A   1      33.281  27.888  24.296  1.00  0.00     0.006 C 
ATOM     19  C   UNL A   1      33.761  28.130  21.855  1.00  0.00     0.161 C 
ATOM     20  C   UNL A   1      34.050  28.675  23.244  1.00  0.00     0.029 C 
ENDBRANCH  12  15
ENDBRANCH  10  11
ENDBRANCH   9  10
ENDBRANCH   8   9
ENDBRANCH   7   8
ENDBRANCH   5   7
ENDBRANCH   2   3
ENDBRANCH   1   2
BRANCH   1  21
ATOM     21  C   UNL A   1      38.063  22.335  25.727  1.00  0.00     0.002 C 
BRANCH  21  22
ATOM     22  C   UNL A   1      37.565  21.331  24.684  1.00  0.00     0.002 C 
BRANCH  22  23
ATOM     23  C   UNL A   1      38.229  19.952  24.733  1.00  0.00     0.021 C 
BRANCH  23  24
ATOM     24  C   UNL A   1      38.935  19.619  26.044  1.00  0.00     0.116 C 
BRANCH  24  25
ATOM     25  N   UNL A   1      40.230  18.992  25.839  1.00  0.00    -0.352 N 
ATOM     26  C   UNL A   1      41.491  19.522  25.951  1.00  0.00     0.251 C 
ATOM     27  H   UNL A   1      40.198  18.042  25.580  1.00  0.00     0.163 HD
ATOM     28  O   UNL A   1      42.462  18.868  25.588  1.00  0.00    -0.269 OA
BRANCH  26  29
ATOM     29  C   UNL A   1      41.685  20.890  26.482  1.00  0.00     0.039 A 
ATOM     30  C   UNL A   1      41.588  21.090  27.861  1.00  0.00     0.014 A 
ATOM     31  C   UNL A   1      41.939  21.974  25.636  1.00  0.00     0.014 A 
ATOM     32  C   UNL A   1      41.803  22.363  28.396  1.00  0.00     0.010 A 
ATOM     33  C   UNL A   1      42.220  23.228  26.175  1.00  0.00     0.010 A 
ATOM     34  C   UNL A   1      42.152  23.436  27.561  1.00  0.00    -0.014 A 
BRANCH  34  35
ATOM     35  C   UNL A   1      42.465  24.770  28.132  1.00  0.00     0.031 A 
ATOM     36  C   UNL A   1      43.865  25.119  28.551  1.00  0.00     0.074 A 
ATOM     37  C   UNL A   1      41.470  25.659  28.313  1.00  0.00     0.049 A 
ATOM     38  N   UNL A   1      44.322  26.243  29.045  1.00  0.00    -0.248 NA
ATOM     39  C   UNL A   1      44.882  24.065  28.418  1.00  0.00     0.031 C 
ATOM     40  C   UNL A   1      40.059  25.431  27.995  1.00  0.00     0.029 A 
ATOM     41  N   UNL A   1      41.495  26.941  28.805  1.00  0.00    -0.354 N 
ATOM     42  C   UNL A   1      45.670  26.025  29.299  1.00  0.00     0.074 A 
ATOM     43  C   UNL A   1      45.948  24.649  28.945  1.00  0.00     0.031 C 
ATOM     44  C   UNL A   1      39.363  26.548  28.256  1.00  0.00     0.029 A 
ATOM     45  C   UNL A   1      40.269  27.559  28.790  1.00  0.00     0.049 A 
ATOM     46  H   UNL A   1      42.314  27.376  29.136  1.00  0.00     0.167 HD
ATOM     47  C   UNL A   1      46.599  26.894  29.767  1.00  0.00     0.031 A 
ATOM     48  C   UNL A   1      39.914  28.805  29.154  1.00  0.00     0.031 A 
ATOM     49  C   UNL A   1      46.329  28.266  30.110  1.00  0.00     0.049 A 
ATOM     50  C   UNL A   1      40.962  29.749  29.669  1.00  0.00     0.074 A 
ATOM     51  C   UNL A   1      47.218  29.245  30.518  1.00  0.00     0.029 A 
ATOM     52  N   UNL A   1      45.072  28.850  30.092  1.00  0.00    -0.354 N 
ATOM     53  N   UNL A   1      42.249  29.555  29.819  1.00  0.00    -0.248 NA
ATOM     54  C   UNL A   1      40.504  31.091  30.054  1.00  0.00     0.031 C 
ATOM     55  C   UNL A   1      46.490  30.407  30.798  1.00  0.00     0.029 A 
ATOM     56  C   UNL A   1      45.156  30.167  30.513  1.00  0.00     0.049 A 
ATOM     57  H   UNL A   1      44.242  28.397  29.820  1.00  0.00     0.167 HD
ATOM     58  C   UNL A   1      42.760  30.756  30.291  1.00  0.00     0.074 A 
ATOM     59  C   UNL A   1      41.645  31.678  30.385  1.00  0.00     0.031 C 
ATOM     60  C   UNL A   1      44.038  31.069  30.616  1.00  0.00     0.031 A 
BRANCH  47  61
ATOM     61  C   UNL A   1      47.998  26.373  29.951  1.00  0.00    -0.014 A 
ATOM     62  C   UNL A   1      48.420  25.826  31.174  1.00  0.00     0.009 A 
ATOM     63  C   UNL A   1      48.902  26.411  28.878  1.00  0.00     0.009 A 
ATOM     64  C   UNL A   1      49.730  25.368  31.330  1.00  0.00     0.001 A 
ATOM     65  C   UNL A   1      50.203  25.925  29.028  1.00  0.00     0.001 A 
ATOM     66  C   UNL A   1      50.618  25.415  30.257  1.00  0.00     0.000 A 
ENDBRANCH  47  61
BRANCH  48  67
ATOM     67  C   UNL A   1      38.505  29.248  29.004  1.00  0.00    -0.014 A 
ATOM     68  C   UNL A   1      37.623  29.178  30.094  1.00  0.00     0.009 A 
ATOM     69  C   UNL A   1      38.034  29.743  27.779  1.00  0.00     0.009 A 
ATOM     70  C   UNL A   1      36.291  29.573  29.954  1.00  0.00     0.001 A 
ATOM     71  C   UNL A   1      36.708  30.162  27.649  1.00  0.00     0.001 A 
ATOM     72  C   UNL A   1      35.836  30.068  28.733  1.00  0.00     0.000 A 
ENDBRANCH  48  67
BRANCH  60  73
ATOM     73  C   UNL A   1      44.296  32.474  31.084  1.00  0.00    -0.014 A 
ATOM     74  C   UNL A   1      44.621  33.495  30.178  1.00  0.00     0.009 A 
ATOM     75  C   UNL A   1      44.203  32.780  32.450  1.00  0.00     0.009 A 
ATOM     76  C   UNL A   1      44.890  34.786  30.636  1.00  0.00     0.001 A 
ATOM     77  C   UNL A   1      44.445  34.078  32.902  1.00  0.00     0.001 A 
ATOM     78  C   UNL A   1      44.799  35.077  31.997  1.00  0.00     0.000 A 
ENDBRANCH  60  73
ENDBRANCH  34  35
ENDBRANCH  26  29
ENDBRANCH  24  25
ENDBRANCH  23  24
ENDBRANCH  22  23
ENDBRANCH  21  22
ENDBRANCH   1  21
TORSDOF 18
ENDMDL
MODEL 2
REMARK VINA RESULT:      -9.0      1.451      6.217
REMARK SMILES O=C(COCCNC(=O)[C@@H]1CCCCO1)NCCCCCCNC(=O)c1ccc(-c2c3nc(c(-c4ccccc4)c4ccc([nH]4)c(-c4ccccc4)c4nc(c(-c5ccccc5)c5ccc2[nH]5)C=C4)C=C3)cc1
REMARK SMILES IDX 18 1 17 2 16 3 1 4 2 5 3 7 4 8 5 9 6 10 7 11 8 12 9 14 10 15
REMARK SMILES IDX 11 16 15 17 12 18 14 19 13 20 19 21 20 22 21 23 22 24 23 25
REMARK SMILES IDX 24 26 25 28 26 29 27 30 73 31 28 32 72 33 29 34 30 35 31 36
REMARK SMILES IDX 66 37 32 38 71 39 65 40 67 41 33 42 70 43 64 44 63 45 34 47
REMARK SMILES IDX 56 48 41 49 55 50 42 51 45 52 54 53 68 54 43 55 44 56 53 58
REMARK SMILES IDX 69 59 46 60 35 61 36 62 40 63 37 64 39 65 38 66 57 67 58 68
REMARK SMILES IDX 62 69 59 70 61 71 60 72 47 73 48 74 52 75 49 76 51 77 50 78
REMARK H PARENT 16 6 7 13 23 27 67 46 45 57
REMARK Flexibility Score: inf
ROOT
ATOM      1  C   UNL A   1      36.398  23.484  25.361  1.00  0.00     0.021 C 
ENDROOT
BRANCH   1   2
ATOM      2  C   UNL A   1      35.684  23.600  24.015  1.00  0.00     0.116 C 
BRANCH   2   3
ATOM      3  N   UNL A   1      34.434  22.874  24.009  1.00  0.00    -0.354 N 
ATOM      4  O   UNL A   1      33.814  23.482  21.883  1.00  0.00    -0.272 OA
ATOM      5  C   UNL A   1      33.576  22.894  22.932  1.00  0.00     0.245 C 
ATOM      6  H   UNL A   1      34.186  22.349  24.803  1.00  0.00     0.163 HD
BRANCH   5   7
ATOM      7  C   UNL A   1      32.269  22.129  23.183  1.00  0.00     0.260 C 
BRANCH   7   8
ATOM      8  O   UNL A   1      31.210  22.825  23.827  1.00  0.00    -0.370 OA
BRANCH   8   9
ATOM      9  C   UNL A   1      31.226  22.793  25.258  1.00  0.00     0.182 C 
BRANCH   9  10
ATOM     10  C   UNL A   1      30.997  24.148  25.944  1.00  0.00     0.144 C 
BRANCH  10  11
ATOM     11  N   UNL A   1      32.221  24.873  26.233  1.00  0.00    -0.352 N 
ATOM     12  C   UNL A   1      32.934  25.782  25.511  1.00  0.00     0.249 C 
ATOM     13  H   UNL A   1      32.608  24.670  27.116  1.00  0.00     0.163 HD
ATOM     14  O   UNL A   1      33.922  26.265  26.073  1.00  0.00    -0.272 OA
BRANCH  12  15
ATOM     15  C   UNL A   1      32.463  26.243  24.106  1.00  0.00     0.207 C 
ATOM     16  C   UNL A   1      33.555  26.861  23.228  1.00  0.00     0.042 C 
ATOM     17  O   UNL A   1      31.317  27.103  24.112  1.00  0.00    -0.368 OA
ATOM     18  C   UNL A   1      33.884  28.292  23.638  1.00  0.00     0.006 C 
ATOM     19  C   UNL A   1      31.580  28.420  24.599  1.00  0.00     0.161 C 
ATOM     20  C   UNL A   1      32.613  29.123  23.732  1.00  0.00     0.029 C 
ENDBRANCH  12  15
ENDBRANCH  10  11
ENDBRANCH   9  10
ENDBRANCH   8   9
ENDBRANCH   7   8
ENDBRANCH   5   7
ENDBRANCH   2   3
ENDBRANCH   1   2
BRANCH   1  21
ATOM     21  C   UNL A   1      37.514  22.432  25.399  1.00  0.00     0.002 C 
BRANCH  21  22
ATOM     22  C   UNL A   1      37.298  21.211  24.500  1.00  0.00     0.002 C 
BRANCH  22  23
ATOM     23  C   UNL A   1      38.148  19.985  24.845  1.00  0.00     0.021 C 
BRANCH  23  24
ATOM     24  C   UNL A   1      39.122  20.177  26.003  1.00  0.00     0.116 C 
BRANCH  24  25
ATOM     25  N   UNL A   1      40.225  19.232  25.969  1.00  0.00    -0.352 N 
ATOM     26  C   UNL A   1      41.569  19.444  26.150  1.00  0.00     0.251 C 
ATOM     27  H   UNL A   1      39.970  18.298  25.789  1.00  0.00     0.163 HD
ATOM     28  O   UNL A   1      42.365  18.536  25.932  1.00  0.00    -0.269 OA
BRANCH  26  29
ATOM     29  C   UNL A   1      42.070  20.768  26.581  1.00  0.00     0.039 A 
ATOM     30  C   UNL A   1      42.504  21.667  25.604  1.00  0.00     0.014 A 
ATOM     31  C   UNL A   1      42.135  21.122  27.932  1.00  0.00     0.014 A 
ATOM     32  C   UNL A   1      42.948  22.939  25.975  1.00  0.00     0.010 A 
ATOM     33  C   UNL A   1      42.513  22.413  28.297  1.00  0.00     0.010 A 
ATOM     34  C   UNL A   1      42.925  23.333  27.322  1.00  0.00    -0.014 A 
BRANCH  34  35
ATOM     35  C   UNL A   1      43.314  24.712  27.714  1.00  0.00     0.031 A 
ATOM     36  C   UNL A   1      42.271  25.746  28.032  1.00  0.00     0.074 A 
ATOM     37  C   UNL A   1      44.619  25.046  27.742  1.00  0.00     0.049 A 
ATOM     38  N   UNL A   1      42.430  26.989  28.415  1.00  0.00    -0.248 NA
ATOM     39  C   UNL A   1      40.865  25.340  27.883  1.00  0.00     0.031 C 
ATOM     40  C   UNL A   1      45.730  24.153  27.409  1.00  0.00     0.029 A 
ATOM     41  N   UNL A   1      45.231  26.229  28.074  1.00  0.00    -0.354 N 
ATOM     42  C   UNL A   1      41.151  27.516  28.533  1.00  0.00     0.074 A 
ATOM     43  C   UNL A   1      40.227  26.473  28.140  1.00  0.00     0.031 C 
ATOM     44  C   UNL A   1      46.889  24.804  27.597  1.00  0.00     0.029 A 
ATOM     45  C   UNL A   1      46.603  26.168  28.031  1.00  0.00     0.049 A 
ATOM     46  H   UNL A   1      44.735  27.043  28.320  1.00  0.00     0.167 HD
ATOM     47  C   UNL A   1      40.775  28.750  28.947  1.00  0.00     0.031 A 
ATOM     48  C   UNL A   1      47.528  27.101  28.319  1.00  0.00     0.031 A 
ATOM     49  C   UNL A   1      41.690  29.786  29.348  1.00  0.00     0.049 A 
ATOM     50  C   UNL A   1      47.086  28.462  28.777  1.00  0.00     0.074 A 
ATOM     51  C   UNL A   1      41.403  31.042  29.856  1.00  0.00     0.029 A 
ATOM     52  N   UNL A   1      43.071  29.689  29.279  1.00  0.00    -0.354 N 
ATOM     53  N   UNL A   1      45.872  28.916  28.968  1.00  0.00    -0.248 NA
ATOM     54  C   UNL A   1      48.148  29.433  29.070  1.00  0.00     0.031 C 
ATOM     55  C   UNL A   1      42.611  31.724  30.044  1.00  0.00     0.029 A 
ATOM     56  C   UNL A   1      43.650  30.874  29.704  1.00  0.00     0.049 A 
ATOM     57  H   UNL A   1      43.567  28.897  28.972  1.00  0.00     0.167 HD
ATOM     58  C   UNL A   1      46.023  30.217  29.427  1.00  0.00     0.074 A 
ATOM     59  C   UNL A   1      47.448  30.472  29.503  1.00  0.00     0.031 C 
ATOM     60  C   UNL A   1      45.068  31.120  29.759  1.00  0.00     0.031 A 
BRANCH  47  61
ATOM     61  C   UNL A   1      39.301  29.049  28.969  1.00  0.00    -0.014 A 
ATOM     62  C   UNL A   1      38.526  28.821  30.118  1.00  0.00     0.009 A 
ATOM     63  C   UNL A   1      38.683  29.589  27.831  1.00  0.00     0.009 A 
ATOM     64  C   UNL A   1      37.155  29.085  30.110  1.00  0.00     0.001 A 
ATOM     65  C   UNL A   1      37.316  29.880  27.836  1.00  0.00     0.001 A 
ATOM     66  C   UNL A   1      36.552  29.617  28.971  1.00  0.00     0.000 A 
ENDBRANCH  47  61
BRANCH  48  67
ATOM     67  C   UNL A   1      48.972  26.768  28.226  1.00  0.00    -0.014 A 
ATOM     68  C   UNL A   1      49.653  26.919  27.008  1.00  0.00     0.009 A 
ATOM     69  C   UNL A   1      49.676  26.300  29.346  1.00  0.00     0.009 A 
ATOM     70  C   UNL A   1      51.006  26.586  26.907  1.00  0.00     0.001 A 
ATOM     71  C   UNL A   1      51.035  25.993  29.249  1.00  0.00     0.001 A 
ATOM     72  C   UNL A   1      51.696  26.128  28.028  1.00  0.00     0.000 A 
ENDBRANCH  48  67
BRANCH  60  73
ATOM     73  C   UNL A   1      45.541  32.459  30.253  1.00  0.00    -0.014 A 
ATOM     74  C   UNL A   1      45.733  33.533  29.372  1.00  0.00     0.009 A 
ATOM     75  C   UNL A   1      45.788  32.648  31.622  1.00  0.00     0.009 A 
ATOM     76  C   UNL A   1      46.205  34.759  29.846  1.00  0.00     0.001 A 
ATOM     77  C   UNL A   1      46.232  33.882  32.096  1.00  0.00     0.001 A 
ATOM     78  C   UNL A   1      46.452  34.934  31.207  1.00  0.00     0.000 A 
ENDBRANCH  60  73
ENDBRANCH  34  35
ENDBRANCH  26  29
ENDBRANCH  24  25
ENDBRANCH  23  24
ENDBRANCH  22  23
ENDBRANCH  21  22
ENDBRANCH   1  21
TORSDOF 18
ENDMDL
MODEL 3
REMARK VINA RESULT:      -9.0      4.137      9.343
REMARK SMILES O=C(COCCNC(=O)[C@@H]1CCCCO1)NCCCCCCNC(=O)c1ccc(-c2c3nc(c(-c4ccccc4)c4ccc([nH]4)c(-c4ccccc4)c4nc(c(-c5ccccc5)c5ccc2[nH]5)C=C4)C=C3)cc1
REMARK SMILES IDX 18 1 17 2 16 3 1 4 2 5 3 7 4 8 5 9 6 10 7 11 8 12 9 14 10 15
REMARK SMILES IDX 11 16 15 17 12 18 14 19 13 20 19 21 20 22 21 23 22 24 23 25
REMARK SMILES IDX 24 26 25 28 26 29 27 30 73 31 28 32 72 33 29 34 30 35 31 36
REMARK SMILES IDX 66 37 32 38 71 39 65 40 67 41 33 42 70 43 64 44 63 45 34 47
REMARK SMILES IDX 56 48 41 49 55 50 42 51 45 52 54 53 68 54 43 55 44 56 53 58
REMARK SMILES IDX 69 59 46 60 35 61 36 62 40 63 37 64 39 65 38 66 57 67 58 68
REMARK SMILES IDX 62 69 59 70 61 71 60 72 47 73 48 74 52 75 49 76 51 77 50 78
REMARK H PARENT 16 6 7 13 23 27 67 46 45 57
REMARK Flexibility Score: inf
ROOT
ATOM      1  C   UNL A   1      33.067  28.750  25.989  1.00  0.00     0.021 C 
ENDROOT
BRANCH   1   2
ATOM      2  C   UNL A   1      32.148  28.323  24.846  1.00  0.00     0.116 C 
BRANCH   2   3
ATOM      3  N   UNL A   1      31.520  27.049  25.112  1.00  0.00    -0.354 N 
ATOM      4  O   UNL A   1      32.225  26.025  23.181  1.00  0.00    -0.272 OA
ATOM      5  C   UNL A   1      31.593  25.993  24.232  1.00  0.00     0.245 C 
ATOM      6  H   UNL A   1      31.020  26.932  25.952  1.00  0.00     0.163 HD
BRANCH   5   7
ATOM      7  C   UNL A   1      30.776  24.773  24.678  1.00  0.00     0.260 C 
BRANCH   7   8
ATOM      8  O   UNL A   1      30.603  24.568  26.074  1.00  0.00    -0.370 OA
BRANCH   8   9
ATOM      9  C   UNL A   1      30.678  23.210  26.516  1.00  0.00     0.182 C 
BRANCH   9  10
ATOM     10  C   UNL A   1      32.067  22.752  26.987  1.00  0.00     0.144 C 
BRANCH  10  11
ATOM     11  N   UNL A   1      32.668  21.737  26.140  1.00  0.00    -0.352 N 
ATOM     12  C   UNL A   1      33.554  21.819  25.108  1.00  0.00     0.249 C 
ATOM     13  H   UNL A   1      32.382  20.818  26.351  1.00  0.00     0.163 HD
ATOM     14  O   UNL A   1      33.918  20.744  24.621  1.00  0.00    -0.272 OA
BRANCH  12  15
ATOM     15  C   UNL A   1      34.133  23.184  24.650  1.00  0.00     0.207 C 
ATOM     16  C   UNL A   1      35.065  23.117  23.436  1.00  0.00     0.042 C 
ATOM     17  O   UNL A   1      34.762  23.945  25.688  1.00  0.00    -0.368 OA
ATOM     18  C   UNL A   1      36.451  22.598  23.800  1.00  0.00     0.006 C 
ATOM     19  C   UNL A   1      36.015  23.412  26.123  1.00  0.00     0.161 C 
ATOM     20  C   UNL A   1      37.017  23.377  24.980  1.00  0.00     0.029 C 
ENDBRANCH  12  15
ENDBRANCH  10  11
ENDBRANCH   9  10
ENDBRANCH   8   9
ENDBRANCH   7   8
ENDBRANCH   5   7
ENDBRANCH   2   3
ENDBRANCH   1   2
BRANCH   1  21
ATOM     21  C   UNL A   1      32.588  29.989  26.758  1.00  0.00     0.002 C 
BRANCH  21  22
ATOM     22  C   UNL A   1      31.401  30.731  26.138  1.00  0.00     0.002 C 
BRANCH  22  23
ATOM     23  C   UNL A   1      31.301  32.217  26.490  1.00  0.00     0.021 C 
BRANCH  23  24
ATOM     24  C   UNL A   1      32.545  32.814  27.142  1.00  0.00     0.116 C 
BRANCH  24  25
ATOM     25  N   UNL A   1      32.326  34.165  27.632  1.00  0.00    -0.352 N 
ATOM     26  C   UNL A   1      32.982  34.858  28.619  1.00  0.00     0.251 C 
ATOM     27  H   UNL A   1      31.597  34.657  27.189  1.00  0.00     0.163 HD
ATOM     28  O   UNL A   1      32.548  35.943  28.993  1.00  0.00    -0.269 OA
BRANCH  26  29
ATOM     29  C   UNL A   1      34.193  34.294  29.255  1.00  0.00     0.039 A 
ATOM     30  C   UNL A   1      34.046  33.555  30.431  1.00  0.00     0.014 A 
ATOM     31  C   UNL A   1      35.467  34.505  28.718  1.00  0.00     0.014 A 
ATOM     32  C   UNL A   1      35.165  32.978  31.036  1.00  0.00     0.010 A 
ATOM     33  C   UNL A   1      36.574  33.874  29.283  1.00  0.00     0.010 A 
ATOM     34  C   UNL A   1      36.435  33.106  30.449  1.00  0.00    -0.014 A 
BRANCH  34  35
ATOM     35  C   UNL A   1      37.614  32.425  31.039  1.00  0.00     0.031 A 
ATOM     36  C   UNL A   1      38.209  32.898  32.336  1.00  0.00     0.074 A 
ATOM     37  C   UNL A   1      38.180  31.396  30.379  1.00  0.00     0.049 A 
ATOM     38  N   UNL A   1      39.221  32.407  33.007  1.00  0.00    -0.248 NA
ATOM     39  C   UNL A   1      37.602  34.089  32.950  1.00  0.00     0.031 C 
ATOM     40  C   UNL A   1      37.733  30.867  29.088  1.00  0.00     0.029 A 
ATOM     41  N   UNL A   1      39.253  30.605  30.708  1.00  0.00    -0.354 N 
ATOM     42  C   UNL A   1      39.384  33.238  34.108  1.00  0.00     0.074 A 
ATOM     43  C   UNL A   1      38.394  34.289  33.993  1.00  0.00     0.031 C 
ATOM     44  C   UNL A   1      38.495  29.813  28.758  1.00  0.00     0.029 A 
ATOM     45  C   UNL A   1      39.503  29.611  29.793  1.00  0.00     0.049 A 
ATOM     46  H   UNL A   1      39.791  30.736  31.521  1.00  0.00     0.167 HD
ATOM     47  C   UNL A   1      40.263  33.129  35.133  1.00  0.00     0.031 A 
ATOM     48  C   UNL A   1      40.432  28.638  29.793  1.00  0.00     0.031 A 
ATOM     49  C   UNL A   1      41.241  32.080  35.256  1.00  0.00     0.049 A 
ATOM     50  C   UNL A   1      41.396  28.538  30.941  1.00  0.00     0.074 A 
ATOM     51  C   UNL A   1      42.124  31.841  36.295  1.00  0.00     0.029 A 
ATOM     52  N   UNL A   1      41.470  31.100  34.304  1.00  0.00    -0.354 N 
ATOM     53  N   UNL A   1      41.479  29.279  32.018  1.00  0.00    -0.248 NA
ATOM     54  C   UNL A   1      42.387  27.456  30.873  1.00  0.00     0.031 C 
ATOM     55  C   UNL A   1      42.924  30.746  35.946  1.00  0.00     0.029 A 
ATOM     56  C   UNL A   1      42.502  30.272  34.715  1.00  0.00     0.049 A 
ATOM     57  H   UNL A   1      40.974  31.005  33.459  1.00  0.00     0.167 HD
ATOM     58  C   UNL A   1      42.513  28.738  32.769  1.00  0.00     0.074 A 
ATOM     59  C   UNL A   1      43.015  27.596  32.031  1.00  0.00     0.031 C 
ATOM     60  C   UNL A   1      43.003  29.149  33.965  1.00  0.00     0.031 A 
BRANCH  47  61
ATOM     61  C   UNL A   1      40.215  34.190  36.198  1.00  0.00    -0.014 A 
ATOM     62  C   UNL A   1      40.993  35.356  36.105  1.00  0.00     0.009 A 
ATOM     63  C   UNL A   1      39.360  34.033  37.300  1.00  0.00     0.009 A 
ATOM     64  C   UNL A   1      40.950  36.318  37.115  1.00  0.00     0.001 A 
ATOM     65  C   UNL A   1      39.297  35.011  38.294  1.00  0.00     0.001 A 
ATOM     66  C   UNL A   1      40.099  36.147  38.207  1.00  0.00     0.000 A 
ENDBRANCH  47  61
BRANCH  48  67
ATOM     67  C   UNL A   1      40.471  27.649  28.686  1.00  0.00    -0.014 A 
ATOM     68  C   UNL A   1      41.220  27.915  27.529  1.00  0.00     0.009 A 
ATOM     69  C   UNL A   1      39.764  26.441  28.776  1.00  0.00     0.009 A 
ATOM     70  C   UNL A   1      41.243  26.999  26.474  1.00  0.00     0.001 A 
ATOM     71  C   UNL A   1      39.810  25.515  27.731  1.00  0.00     0.001 A 
ATOM     72  C   UNL A   1      40.542  25.799  26.579  1.00  0.00     0.000 A 
ENDBRANCH  48  67
BRANCH  60  73
ATOM     73  C   UNL A   1      44.126  28.342  34.553  1.00  0.00    -0.014 A 
ATOM     74  C   UNL A   1      43.877  27.286  35.442  1.00  0.00     0.009 A 
ATOM     75  C   UNL A   1      45.453  28.639  34.203  1.00  0.00     0.009 A 
ATOM     76  C   UNL A   1      44.937  26.571  36.004  1.00  0.00     0.001 A 
ATOM     77  C   UNL A   1      46.508  27.904  34.744  1.00  0.00     0.001 A 
ATOM     78  C   UNL A   1      46.251  26.878  35.652  1.00  0.00     0.000 A 
ENDBRANCH  60  73
ENDBRANCH  34  35
ENDBRANCH  26  29
ENDBRANCH  24  25
ENDBRANCH  23  24
ENDBRANCH  22  23
ENDBRANCH  21  22
ENDBRANCH   1  21
TORSDOF 18
ENDMDL
