MODEL 1
REMARK VINA RESULT:     -12.2      0.000      0.000
REMARK SMILES COc1ccc2c(c1)c(CC(=O)NCCCCCCNC(=O)c1ccc(-c3c4nc(c(-c5ccccc5)c5ccc([nH]5)c(-c5ccccc5)c5nc(c(-c6ccccc6)c6ccc3[nH]6)C=C5)C=C4)cc1)c(C)n2C(=O)c1ccc(Cl)cc1
REMARK SMILES IDX 16 1 15 2 14 3 13 4 11 5 12 6 10 8 9 9 3 10 4 11 8 12 5 13
REMARK SMILES IDX 7 14 6 15 73 16 71 17 72 18 2 19 1 20 74 21 75 22 76 23
REMARK SMILES IDX 77 24 82 25 78 26 81 27 79 28 80 29 17 30 18 31 19 32 20 33
REMARK SMILES IDX 21 34 22 36 23 37 24 38 70 39 25 40 69 41 26 42 27 43 28 44
REMARK SMILES IDX 63 45 29 46 68 47 62 48 64 49 30 50 67 51 61 52 60 53 31 55
REMARK SMILES IDX 53 56 38 57 52 58 39 59 42 60 51 61 65 62 40 63 41 64 50 66
REMARK SMILES IDX 66 67 43 68 32 69 33 70 37 71 34 72 36 73 35 74 54 75 55 76
REMARK SMILES IDX 59 77 56 78 58 79 57 80 44 81 45 82 49 83 46 84 48 85 47 86
REMARK H PARENT 13 7 20 35 64 54 42 65
REMARK Flexibility Score: inf
ROOT
ATOM      1  C   UNL A   1      31.499  27.661  24.742  1.00  0.00     0.002 C 
ENDROOT
BRANCH   1   2
ATOM      2  C   UNL A   1      31.051  26.850  25.964  1.00  0.00     0.021 C 
BRANCH   2   3
ATOM      3  C   UNL A   1      29.869  25.920  25.691  1.00  0.00     0.116 C 
BRANCH   3   4
ATOM      4  N   UNL A   1      30.056  25.160  24.471  1.00  0.00    -0.356 N 
ATOM      5  C   UNL A   1      30.742  23.993  24.289  1.00  0.00     0.224 C 
ATOM      6  O   UNL A   1      30.800  23.519  23.152  1.00  0.00    -0.275 OA
ATOM      7  H   UNL A   1      29.631  25.534  23.666  1.00  0.00     0.163 HD
BRANCH   5   8
ATOM      8  C   UNL A   1      31.356  23.270  25.479  1.00  0.00     0.138 C 
BRANCH   8   9
ATOM      9  C   UNL A   1      32.719  22.696  25.205  1.00  0.00    -0.009 A 
ATOM     10  C   UNL A   1      32.821  18.899  24.833  1.00  0.00     0.119 A 
ATOM     11  C   UNL A   1      34.196  18.795  24.700  1.00  0.00     0.048 A 
ATOM     12  C   UNL A   1      32.227  20.154  24.967  1.00  0.00     0.057 A 
ATOM     13  C   UNL A   1      35.003  19.936  24.719  1.00  0.00     0.031 A 
ATOM     14  C   UNL A   1      33.022  21.322  24.993  1.00  0.00     0.008 A 
ATOM     15  C   UNL A   1      34.408  21.211  24.832  1.00  0.00     0.057 A 
ATOM     16  N   UNL A   1      34.937  22.510  24.779  1.00  0.00    -0.280 N 
ATOM     17  C   UNL A   1      33.927  23.385  25.201  1.00  0.00     0.028 A 
ATOM     18  C   UNL A   1      34.153  24.824  25.546  1.00  0.00     0.065 C 
BRANCH  10  19
ATOM     19  O   UNL A   1      31.971  17.827  24.810  1.00  0.00    -0.497 OA
ATOM     20  C   UNL A   1      32.529  16.644  25.376  1.00  0.00     0.278 C 
ENDBRANCH  10  19
BRANCH  16  21
ATOM     21  C   UNL A   1      36.248  22.888  24.363  1.00  0.00     0.262 C 
ATOM     22  O   UNL A   1      36.415  23.325  23.233  1.00  0.00    -0.268 OA
BRANCH  21  23
ATOM     23  C   UNL A   1      37.462  22.771  25.190  1.00  0.00     0.040 A 
ATOM     24  C   UNL A   1      38.165  21.563  25.255  1.00  0.00     0.015 A 
ATOM     25  C   UNL A   1      37.879  23.886  25.924  1.00  0.00     0.015 A 
ATOM     26  C   UNL A   1      39.253  21.452  26.125  1.00  0.00     0.021 A 
ATOM     27  C   UNL A   1      38.972  23.770  26.785  1.00  0.00     0.021 A 
ATOM     28  C   UNL A   1      39.643  22.551  26.894  1.00  0.00     0.041 A 
ATOM     29  Cl  UNL A   1      40.949  22.396  28.002  1.00  0.00    -0.084 Cl
ENDBRANCH  21  23
ENDBRANCH  16  21
ENDBRANCH   8   9
ENDBRANCH   5   8
ENDBRANCH   3   4
ENDBRANCH   2   3
ENDBRANCH   1   2
BRANCH   1  30
ATOM     30  C   UNL A   1      31.570  29.178  24.955  1.00  0.00     0.002 C 
BRANCH  30  31
ATOM     31  C   UNL A   1      32.899  29.710  25.506  1.00  0.00     0.021 C 
BRANCH  31  32
ATOM     32  C   UNL A   1      32.905  29.983  27.012  1.00  0.00     0.116 C 
BRANCH  32  33
ATOM     33  N   UNL A   1      33.362  31.315  27.357  1.00  0.00    -0.352 N 
ATOM     34  C   UNL A   1      34.554  31.869  27.733  1.00  0.00     0.251 C 
ATOM     35  H   UNL A   1      32.639  31.981  27.309  1.00  0.00     0.163 HD
ATOM     36  O   UNL A   1      34.556  33.095  27.873  1.00  0.00    -0.269 OA
BRANCH  34  37
ATOM     37  C   UNL A   1      35.817  31.123  28.011  1.00  0.00     0.039 A 
ATOM     38  C   UNL A   1      36.081  29.806  27.646  1.00  0.00     0.014 A 
ATOM     39  C   UNL A   1      36.806  31.818  28.739  1.00  0.00     0.014 A 
ATOM     40  C   UNL A   1      37.266  29.187  28.046  1.00  0.00     0.010 A 
ATOM     41  C   UNL A   1      38.001  31.208  29.126  1.00  0.00     0.010 A 
ATOM     42  C   UNL A   1      38.224  29.876  28.803  1.00  0.00    -0.014 A 
BRANCH  42  43
ATOM     43  C   UNL A   1      39.452  29.153  29.146  1.00  0.00     0.031 A 
ATOM     44  C   UNL A   1      39.674  28.918  30.599  1.00  0.00     0.074 A 
ATOM     45  C   UNL A   1      40.359  28.659  28.281  1.00  0.00     0.049 A 
ATOM     46  N   UNL A   1      40.603  29.422  31.345  1.00  0.00    -0.248 NA
ATOM     47  C   UNL A   1      38.717  28.065  31.317  1.00  0.00     0.031 C 
ATOM     48  C   UNL A   1      40.230  28.478  26.835  1.00  0.00     0.029 A 
ATOM     49  N   UNL A   1      41.600  28.144  28.553  1.00  0.00    -0.354 N 
ATOM     50  C   UNL A   1      40.439  28.853  32.605  1.00  0.00     0.074 A 
ATOM     51  C   UNL A   1      39.213  28.094  32.556  1.00  0.00     0.031 C 
ATOM     52  C   UNL A   1      41.249  27.706  26.390  1.00  0.00     0.029 A 
ATOM     53  C   UNL A   1      42.189  27.497  27.481  1.00  0.00     0.049 A 
ATOM     54  H   UNL A   1      42.033  28.225  29.433  1.00  0.00     0.167 HD
ATOM     55  C   UNL A   1      41.414  28.908  33.552  1.00  0.00     0.031 A 
ATOM     56  C   UNL A   1      43.365  26.831  27.475  1.00  0.00     0.031 A 
ATOM     57  C   UNL A   1      42.456  29.837  33.214  1.00  0.00     0.049 A 
ATOM     58  C   UNL A   1      44.224  27.345  28.562  1.00  0.00     0.074 A 
ATOM     59  C   UNL A   1      42.668  31.192  33.318  1.00  0.00     0.029 A 
ATOM     60  N   UNL A   1      43.415  29.333  32.379  1.00  0.00    -0.354 N 
ATOM     61  N   UNL A   1      44.715  28.550  28.582  1.00  0.00    -0.248 NA
ATOM     62  C   UNL A   1      44.391  26.582  29.793  1.00  0.00     0.031 C 
ATOM     63  C   UNL A   1      43.668  31.513  32.351  1.00  0.00     0.029 A 
ATOM     64  C   UNL A   1      44.040  30.343  31.693  1.00  0.00     0.049 A 
ATOM     65  H   UNL A   1      43.628  28.377  32.283  1.00  0.00     0.167 HD
ATOM     66  C   UNL A   1      44.863  28.837  29.922  1.00  0.00     0.074 A 
ATOM     67  C   UNL A   1      44.840  27.547  30.597  1.00  0.00     0.031 C 
ATOM     68  C   UNL A   1      44.650  30.094  30.402  1.00  0.00     0.031 A 
BRANCH  55  69
ATOM     69  C   UNL A   1      41.637  27.863  34.614  1.00  0.00    -0.014 A 
ATOM     70  C   UNL A   1      41.503  26.483  34.368  1.00  0.00     0.009 A 
ATOM     71  C   UNL A   1      42.270  28.233  35.816  1.00  0.00     0.009 A 
ATOM     72  C   UNL A   1      41.967  25.524  35.275  1.00  0.00     0.001 A 
ATOM     73  C   UNL A   1      42.767  27.275  36.709  1.00  0.00     0.001 A 
ATOM     74  C   UNL A   1      42.615  25.919  36.436  1.00  0.00     0.000 A 
ENDBRANCH  55  69
BRANCH  56  75
ATOM     75  C   UNL A   1      43.746  25.632  26.703  1.00  0.00    -0.014 A 
ATOM     76  C   UNL A   1      44.976  25.610  26.025  1.00  0.00     0.009 A 
ATOM     77  C   UNL A   1      42.791  24.656  26.378  1.00  0.00     0.009 A 
ATOM     78  C   UNL A   1      45.224  24.677  25.014  1.00  0.00     0.001 A 
ATOM     79  C   UNL A   1      43.040  23.723  25.365  1.00  0.00     0.001 A 
ATOM     80  C   UNL A   1      44.248  23.746  24.672  1.00  0.00     0.000 A 
ENDBRANCH  56  75
BRANCH  68  81
ATOM     81  C   UNL A   1      44.809  31.251  29.456  1.00  0.00    -0.014 A 
ATOM     82  C   UNL A   1      46.064  31.874  29.378  1.00  0.00     0.009 A 
ATOM     83  C   UNL A   1      43.751  31.788  28.706  1.00  0.00     0.009 A 
ATOM     84  C   UNL A   1      46.258  33.003  28.580  1.00  0.00     0.001 A 
ATOM     85  C   UNL A   1      43.951  32.903  27.885  1.00  0.00     0.001 A 
ATOM     86  C   UNL A   1      45.202  33.514  27.829  1.00  0.00     0.000 A 
ENDBRANCH  68  81
ENDBRANCH  42  43
ENDBRANCH  34  37
ENDBRANCH  32  33
ENDBRANCH  31  32
ENDBRANCH  30  31
ENDBRANCH   1  30
TORSDOF 17
ENDMDL
MODEL 2
REMARK VINA RESULT:     -12.1      2.583      7.900
REMARK SMILES COc1ccc2c(c1)c(CC(=O)NCCCCCCNC(=O)c1ccc(-c3c4nc(c(-c5ccccc5)c5ccc([nH]5)c(-c5ccccc5)c5nc(c(-c6ccccc6)c6ccc3[nH]6)C=C5)C=C4)cc1)c(C)n2C(=O)c1ccc(Cl)cc1
REMARK SMILES IDX 16 1 15 2 14 3 13 4 11 5 12 6 10 8 9 9 3 10 4 11 8 12 5 13
REMARK SMILES IDX 7 14 6 15 73 16 71 17 72 18 2 19 1 20 74 21 75 22 76 23
REMARK SMILES IDX 77 24 82 25 78 26 81 27 79 28 80 29 17 30 18 31 19 32 20 33
REMARK SMILES IDX 21 34 22 36 23 37 24 38 70 39 25 40 69 41 26 42 27 43 28 44
REMARK SMILES IDX 63 45 29 46 68 47 62 48 64 49 30 50 67 51 61 52 60 53 31 55
REMARK SMILES IDX 53 56 38 57 52 58 39 59 42 60 51 61 65 62 40 63 41 64 50 66
REMARK SMILES IDX 66 67 43 68 32 69 33 70 37 71 34 72 36 73 35 74 54 75 55 76
REMARK SMILES IDX 59 77 56 78 58 79 57 80 44 81 45 82 49 83 46 84 48 85 47 86
REMARK H PARENT 13 7 20 35 64 54 42 65
REMARK Flexibility Score: inf
ROOT
ATOM      1  C   UNL A   1      35.151  24.002  24.227  1.00  0.00     0.002 C 
ENDROOT
BRANCH   1   2
ATOM      2  C   UNL A   1      34.720  24.511  25.608  1.00  0.00     0.021 C 
BRANCH   2   3
ATOM      3  C   UNL A   1      33.431  23.875  26.129  1.00  0.00     0.116 C 
BRANCH   3   4
ATOM      4  N   UNL A   1      32.471  23.662  25.065  1.00  0.00    -0.356 N 
ATOM      5  C   UNL A   1      31.294  24.315  24.833  1.00  0.00     0.224 C 
ATOM      6  O   UNL A   1      30.605  23.959  23.875  1.00  0.00    -0.275 OA
ATOM      7  H   UNL A   1      32.697  22.951  24.421  1.00  0.00     0.163 HD
BRANCH   5   8
ATOM      8  C   UNL A   1      30.888  25.496  25.703  1.00  0.00     0.138 C 
BRANCH   8   9
ATOM      9  C   UNL A   1      31.742  26.718  25.508  1.00  0.00    -0.009 A 
ATOM     10  C   UNL A   1      33.414  26.984  22.087  1.00  0.00     0.119 A 
ATOM     11  C   UNL A   1      34.139  28.133  22.360  1.00  0.00     0.048 A 
ATOM     12  C   UNL A   1      32.557  26.455  23.053  1.00  0.00     0.057 A 
ATOM     13  C   UNL A   1      34.039  28.760  23.605  1.00  0.00     0.031 A 
ATOM     14  C   UNL A   1      32.443  27.070  24.321  1.00  0.00     0.008 A 
ATOM     15  C   UNL A   1      33.159  28.244  24.579  1.00  0.00     0.057 A 
ATOM     16  N   UNL A   1      32.779  28.704  25.850  1.00  0.00    -0.280 N 
ATOM     17  C   UNL A   1      32.072  27.665  26.471  1.00  0.00     0.028 A 
ATOM     18  C   UNL A   1      31.722  27.640  27.926  1.00  0.00     0.065 C 
BRANCH  10  19
ATOM     19  O   UNL A   1      33.454  26.327  20.889  1.00  0.00    -0.497 OA
ATOM     20  C   UNL A   1      32.295  25.538  20.630  1.00  0.00     0.278 C 
ENDBRANCH  10  19
BRANCH  16  21
ATOM     21  C   UNL A   1      33.041  29.988  26.414  1.00  0.00     0.262 C 
ATOM     22  O   UNL A   1      32.214  30.879  26.284  1.00  0.00    -0.268 OA
BRANCH  21  23
ATOM     23  C   UNL A   1      34.271  30.355  27.139  1.00  0.00     0.040 A 
ATOM     24  C   UNL A   1      34.451  31.655  27.623  1.00  0.00     0.015 A 
ATOM     25  C   UNL A   1      35.259  29.380  27.310  1.00  0.00     0.015 A 
ATOM     26  C   UNL A   1      35.668  32.000  28.217  1.00  0.00     0.021 A 
ATOM     27  C   UNL A   1      36.469  29.730  27.912  1.00  0.00     0.021 A 
ATOM     28  C   UNL A   1      36.674  31.040  28.348  1.00  0.00     0.041 A 
ATOM     29  Cl  UNL A   1      38.190  31.481  29.032  1.00  0.00    -0.084 Cl
ENDBRANCH  21  23
ENDBRANCH  16  21
ENDBRANCH   8   9
ENDBRANCH   5   8
ENDBRANCH   3   4
ENDBRANCH   2   3
ENDBRANCH   1   2
BRANCH   1  30
ATOM     30  C   UNL A   1      36.619  23.571  24.118  1.00  0.00     0.002 C 
BRANCH  30  31
ATOM     31  C   UNL A   1      36.908  22.105  24.461  1.00  0.00     0.021 C 
BRANCH  31  32
ATOM     32  C   UNL A   1      37.479  21.876  25.863  1.00  0.00     0.116 C 
BRANCH  32  33
ATOM     33  N   UNL A   1      38.900  21.589  25.868  1.00  0.00    -0.352 N 
ATOM     34  C   UNL A   1      40.014  22.194  26.381  1.00  0.00     0.251 C 
ATOM     35  H   UNL A   1      39.115  20.759  25.385  1.00  0.00     0.163 HD
ATOM     36  O   UNL A   1      41.075  21.581  26.231  1.00  0.00    -0.269 OA
BRANCH  34  37
ATOM     37  C   UNL A   1      40.054  23.519  27.065  1.00  0.00     0.039 A 
ATOM     38  C   UNL A   1      39.079  24.509  26.979  1.00  0.00     0.014 A 
ATOM     39  C   UNL A   1      41.204  23.791  27.837  1.00  0.00     0.014 A 
ATOM     40  C   UNL A   1      39.273  25.748  27.593  1.00  0.00     0.010 A 
ATOM     41  C   UNL A   1      41.396  25.022  28.467  1.00  0.00     0.010 A 
ATOM     42  C   UNL A   1      40.438  26.019  28.323  1.00  0.00    -0.014 A 
BRANCH  42  43
ATOM     43  C   UNL A   1      40.537  27.335  28.960  1.00  0.00     0.031 A 
ATOM     44  C   UNL A   1      41.479  28.292  28.316  1.00  0.00     0.074 A 
ATOM     45  C   UNL A   1      39.838  27.762  30.030  1.00  0.00     0.049 A 
ATOM     46  N   UNL A   1      42.584  28.757  28.802  1.00  0.00    -0.248 NA
ATOM     47  C   UNL A   1      41.185  28.738  26.948  1.00  0.00     0.031 C 
ATOM     48  C   UNL A   1      38.655  27.157  30.642  1.00  0.00     0.029 A 
ATOM     49  N   UNL A   1      40.025  28.904  30.766  1.00  0.00    -0.354 N 
ATOM     50  C   UNL A   1      43.069  29.662  27.863  1.00  0.00     0.074 A 
ATOM     51  C   UNL A   1      42.218  29.548  26.704  1.00  0.00     0.031 C 
ATOM     52  C   UNL A   1      38.106  28.036  31.513  1.00  0.00     0.029 A 
ATOM     53  C   UNL A   1      38.996  29.179  31.649  1.00  0.00     0.049 A 
ATOM     54  H   UNL A   1      40.820  29.476  30.675  1.00  0.00     0.167 HD
ATOM     55  C   UNL A   1      44.037  30.567  28.170  1.00  0.00     0.031 A 
ATOM     56  C   UNL A   1      38.869  30.266  32.442  1.00  0.00     0.031 A 
ATOM     57  C   UNL A   1      44.674  30.286  29.426  1.00  0.00     0.049 A 
ATOM     58  C   UNL A   1      40.204  30.846  32.694  1.00  0.00     0.074 A 
ATOM     59  C   UNL A   1      45.684  29.471  29.881  1.00  0.00     0.029 A 
ATOM     60  N   UNL A   1      44.005  30.761  30.520  1.00  0.00    -0.354 N 
ATOM     61  N   UNL A   1      41.130  30.245  33.383  1.00  0.00    -0.248 NA
ATOM     62  C   UNL A   1      40.630  32.050  31.991  1.00  0.00     0.031 C 
ATOM     63  C   UNL A   1      45.467  29.313  31.283  1.00  0.00     0.029 A 
ATOM     64  C   UNL A   1      44.336  30.043  31.641  1.00  0.00     0.049 A 
ATOM     65  H   UNL A   1      43.372  31.515  30.506  1.00  0.00     0.167 HD
ATOM     66  C   UNL A   1      42.312  30.736  32.868  1.00  0.00     0.074 A 
ATOM     67  C   UNL A   1      41.949  31.961  32.172  1.00  0.00     0.031 C 
ATOM     68  C   UNL A   1      43.414  29.943  32.755  1.00  0.00     0.031 A 
BRANCH  55  69
ATOM     69  C   UNL A   1      44.174  31.925  27.531  1.00  0.00    -0.014 A 
ATOM     70  C   UNL A   1      44.387  32.102  26.151  1.00  0.00     0.009 A 
ATOM     71  C   UNL A   1      43.803  33.067  28.266  1.00  0.00     0.009 A 
ATOM     72  C   UNL A   1      44.246  33.350  25.536  1.00  0.00     0.001 A 
ATOM     73  C   UNL A   1      43.627  34.312  27.647  1.00  0.00     0.001 A 
ATOM     74  C   UNL A   1      43.848  34.452  26.281  1.00  0.00     0.000 A 
ENDBRANCH  55  69
BRANCH  56  75
ATOM     75  C   UNL A   1      37.640  30.969  32.860  1.00  0.00    -0.014 A 
ATOM     76  C   UNL A   1      36.547  31.031  31.979  1.00  0.00     0.009 A 
ATOM     77  C   UNL A   1      37.648  31.828  33.970  1.00  0.00     0.009 A 
ATOM     78  C   UNL A   1      35.522  31.962  32.170  1.00  0.00     0.001 A 
ATOM     79  C   UNL A   1      36.621  32.760  34.159  1.00  0.00     0.001 A 
ATOM     80  C   UNL A   1      35.569  32.838  33.248  1.00  0.00     0.000 A 
ENDBRANCH  56  75
BRANCH  68  81
ATOM     81  C   UNL A   1      43.533  28.757  33.672  1.00  0.00    -0.014 A 
ATOM     82  C   UNL A   1      42.755  27.624  33.391  1.00  0.00     0.009 A 
ATOM     83  C   UNL A   1      44.322  28.754  34.833  1.00  0.00     0.009 A 
ATOM     84  C   UNL A   1      42.759  26.520  34.246  1.00  0.00     0.001 A 
ATOM     85  C   UNL A   1      44.346  27.638  35.676  1.00  0.00     0.001 A 
ATOM     86  C   UNL A   1      43.559  26.526  35.386  1.00  0.00     0.000 A 
ENDBRANCH  68  81
ENDBRANCH  42  43
ENDBRANCH  34  37
ENDBRANCH  32  33
ENDBRANCH  31  32
ENDBRANCH  30  31
ENDBRANCH   1  30
TORSDOF 17
ENDMDL
MODEL 3
REMARK VINA RESULT:     -11.9      1.953      5.539
REMARK SMILES COc1ccc2c(c1)c(CC(=O)NCCCCCCNC(=O)c1ccc(-c3c4nc(c(-c5ccccc5)c5ccc([nH]5)c(-c5ccccc5)c5nc(c(-c6ccccc6)c6ccc3[nH]6)C=C5)C=C4)cc1)c(C)n2C(=O)c1ccc(Cl)cc1
REMARK SMILES IDX 16 1 15 2 14 3 13 4 11 5 12 6 10 8 9 9 3 10 4 11 8 12 5 13
REMARK SMILES IDX 7 14 6 15 73 16 71 17 72 18 2 19 1 20 74 21 75 22 76 23
REMARK SMILES IDX 77 24 82 25 78 26 81 27 79 28 80 29 17 30 18 31 19 32 20 33
REMARK SMILES IDX 21 34 22 36 23 37 24 38 70 39 25 40 69 41 26 42 27 43 28 44
REMARK SMILES IDX 63 45 29 46 68 47 62 48 64 49 30 50 67 51 61 52 60 53 31 55
REMARK SMILES IDX 53 56 38 57 52 58 39 59 42 60 51 61 65 62 40 63 41 64 50 66
REMARK SMILES IDX 66 67 43 68 32 69 33 70 37 71 34 72 36 73 35 74 54 75 55 76
REMARK SMILES IDX 59 77 56 78 58 79 57 80 44 81 45 82 49 83 46 84 48 85 47 86
REMARK H PARENT 13 7 20 35 64 54 42 65
REMARK Flexibility Score: inf
ROOT
ATOM      1  C   UNL A   1      31.342  27.837  26.457  1.00  0.00     0.002 C 
ENDROOT
BRANCH   1   2
ATOM      2  C   UNL A   1      30.993  26.928  25.272  1.00  0.00     0.021 C 
BRANCH   2   3
ATOM      3  C   UNL A   1      29.870  25.932  25.563  1.00  0.00     0.116 C 
BRANCH   3   4
ATOM      4  N   UNL A   1      30.294  24.905  26.494  1.00  0.00    -0.356 N 
ATOM      5  C   UNL A   1      30.903  23.712  26.230  1.00  0.00     0.224 C 
ATOM      6  O   UNL A   1      31.160  22.963  27.176  1.00  0.00    -0.275 OA
ATOM      7  H   UNL A   1      30.119  25.093  27.445  1.00  0.00     0.163 HD
BRANCH   5   8
ATOM      8  C   UNL A   1      31.309  23.356  24.807  1.00  0.00     0.138 C 
BRANCH   8   9
ATOM      9  C   UNL A   1      32.676  22.738  24.701  1.00  0.00    -0.009 A 
ATOM     10  C   UNL A   1      32.729  18.923  24.803  1.00  0.00     0.119 A 
ATOM     11  C   UNL A   1      34.108  18.788  24.780  1.00  0.00     0.048 A 
ATOM     12  C   UNL A   1      32.151  20.192  24.741  1.00  0.00     0.057 A 
ATOM     13  C   UNL A   1      34.933  19.914  24.716  1.00  0.00     0.031 A 
ATOM     14  C   UNL A   1      32.966  21.345  24.680  1.00  0.00     0.008 A 
ATOM     15  C   UNL A   1      34.357  21.199  24.630  1.00  0.00     0.057 A 
ATOM     16  N   UNL A   1      34.913  22.476  24.456  1.00  0.00    -0.280 N 
ATOM     17  C   UNL A   1      33.894  23.407  24.696  1.00  0.00     0.028 A 
ATOM     18  C   UNL A   1      34.124  24.875  24.878  1.00  0.00     0.065 C 
BRANCH  10  19
ATOM     19  O   UNL A   1      31.862  17.866  24.853  1.00  0.00    -0.497 OA
ATOM     20  C   UNL A   1      32.428  16.690  25.426  1.00  0.00     0.278 C 
ENDBRANCH  10  19
BRANCH  16  21
ATOM     21  C   UNL A   1      36.257  22.786  24.088  1.00  0.00     0.262 C 
ATOM     22  O   UNL A   1      36.484  23.242  22.977  1.00  0.00    -0.268 OA
BRANCH  21  23
ATOM     23  C   UNL A   1      37.436  22.573  24.947  1.00  0.00     0.040 A 
ATOM     24  C   UNL A   1      38.075  21.329  24.983  1.00  0.00     0.015 A 
ATOM     25  C   UNL A   1      37.885  23.636  25.738  1.00  0.00     0.015 A 
ATOM     26  C   UNL A   1      39.127  21.127  25.880  1.00  0.00     0.021 A 
ATOM     27  C   UNL A   1      38.942  23.429  26.626  1.00  0.00     0.021 A 
ATOM     28  C   UNL A   1      39.547  22.174  26.705  1.00  0.00     0.041 A 
ATOM     29  Cl  UNL A   1      40.807  21.908  27.845  1.00  0.00    -0.084 Cl
ENDBRANCH  21  23
ENDBRANCH  16  21
ENDBRANCH   8   9
ENDBRANCH   5   8
ENDBRANCH   3   4
ENDBRANCH   2   3
ENDBRANCH   1   2
BRANCH   1  30
ATOM     30  C   UNL A   1      32.811  27.803  26.896  1.00  0.00     0.002 C 
BRANCH  30  31
ATOM     31  C   UNL A   1      33.662  29.003  26.462  1.00  0.00     0.021 C 
BRANCH  31  32
ATOM     32  C   UNL A   1      35.098  28.993  26.991  1.00  0.00     0.116 C 
BRANCH  32  33
ATOM     33  N   UNL A   1      35.221  29.503  28.342  1.00  0.00    -0.352 N 
ATOM     34  C   UNL A   1      36.247  29.676  29.229  1.00  0.00     0.251 C 
ATOM     35  H   UNL A   1      34.355  29.793  28.710  1.00  0.00     0.163 HD
ATOM     36  O   UNL A   1      35.949  30.227  30.293  1.00  0.00    -0.269 OA
BRANCH  34  37
ATOM     37  C   UNL A   1      37.658  29.234  29.032  1.00  0.00     0.039 A 
ATOM     38  C   UNL A   1      38.392  28.438  29.907  1.00  0.00     0.014 A 
ATOM     39  C   UNL A   1      38.302  29.702  27.866  1.00  0.00     0.014 A 
ATOM     40  C   UNL A   1      39.738  28.168  29.656  1.00  0.00     0.010 A 
ATOM     41  C   UNL A   1      39.644  29.420  27.602  1.00  0.00     0.010 A 
ATOM     42  C   UNL A   1      40.377  28.671  28.515  1.00  0.00    -0.014 A 
BRANCH  42  43
ATOM     43  C   UNL A   1      41.783  28.307  28.319  1.00  0.00     0.031 A 
ATOM     44  C   UNL A   1      42.021  27.004  27.640  1.00  0.00     0.074 A 
ATOM     45  C   UNL A   1      42.857  29.047  28.657  1.00  0.00     0.049 A 
ATOM     46  N   UNL A   1      42.549  25.937  28.146  1.00  0.00    -0.248 NA
ATOM     47  C   UNL A   1      41.567  26.854  26.251  1.00  0.00     0.031 C 
ATOM     48  C   UNL A   1      42.903  30.460  29.037  1.00  0.00     0.029 A 
ATOM     49  N   UNL A   1      44.177  28.677  28.663  1.00  0.00    -0.354 N 
ATOM     50  C   UNL A   1      42.622  25.012  27.108  1.00  0.00     0.074 A 
ATOM     51  C   UNL A   1      41.925  25.595  25.988  1.00  0.00     0.031 C 
ATOM     52  C   UNL A   1      44.189  30.881  29.029  1.00  0.00     0.029 A 
ATOM     53  C   UNL A   1      45.058  29.732  28.825  1.00  0.00     0.049 A 
ATOM     54  H   UNL A   1      44.472  27.744  28.561  1.00  0.00     0.167 HD
ATOM     55  C   UNL A   1      43.399  23.899  27.191  1.00  0.00     0.031 A 
ATOM     56  C   UNL A   1      46.408  29.680  28.793  1.00  0.00     0.031 A 
ATOM     57  C   UNL A   1      43.872  23.656  28.525  1.00  0.00     0.049 A 
ATOM     58  C   UNL A   1      46.854  28.315  29.140  1.00  0.00     0.074 A 
ATOM     59  C   UNL A   1      43.392  23.064  29.670  1.00  0.00     0.029 A 
ATOM     60  N   UNL A   1      44.994  24.359  28.865  1.00  0.00    -0.354 N 
ATOM     61  N   UNL A   1      46.694  27.784  30.317  1.00  0.00    -0.248 NA
ATOM     62  C   UNL A   1      47.311  27.402  28.099  1.00  0.00     0.031 C 
ATOM     63  C   UNL A   1      44.155  23.606  30.748  1.00  0.00     0.029 A 
ATOM     64  C   UNL A   1      45.081  24.507  30.226  1.00  0.00     0.049 A 
ATOM     65  H   UNL A   1      45.651  24.712  28.222  1.00  0.00     0.167 HD
ATOM     66  C   UNL A   1      46.619  26.429  30.073  1.00  0.00     0.074 A 
ATOM     67  C   UNL A   1      47.193  26.243  28.749  1.00  0.00     0.031 C 
ATOM     68  C   UNL A   1      45.797  25.626  30.806  1.00  0.00     0.031 A 
BRANCH  55  69
ATOM     69  C   UNL A   1      44.051  23.220  26.014  1.00  0.00    -0.014 A 
ATOM     70  C   UNL A   1      45.066  23.825  25.248  1.00  0.00     0.009 A 
ATOM     71  C   UNL A   1      43.857  21.838  25.827  1.00  0.00     0.009 A 
ATOM     72  C   UNL A   1      45.840  23.095  24.340  1.00  0.00     0.001 A 
ATOM     73  C   UNL A   1      44.654  21.098  24.944  1.00  0.00     0.001 A 
ATOM     74  C   UNL A   1      45.646  21.728  24.201  1.00  0.00     0.000 A 
ENDBRANCH  55  69
BRANCH  56  75
ATOM     75  C   UNL A   1      47.361  30.692  28.298  1.00  0.00    -0.014 A 
ATOM     76  C   UNL A   1      48.329  30.322  27.349  1.00  0.00     0.009 A 
ATOM     77  C   UNL A   1      47.522  31.914  28.970  1.00  0.00     0.009 A 
ATOM     78  C   UNL A   1      49.454  31.121  27.120  1.00  0.00     0.001 A 
ATOM     79  C   UNL A   1      48.649  32.712  28.739  1.00  0.00     0.001 A 
ATOM     80  C   UNL A   1      49.622  32.305  27.829  1.00  0.00     0.000 A 
ENDBRANCH  56  75
BRANCH  68  81
ATOM     81  C   UNL A   1      45.419  26.071  32.191  1.00  0.00    -0.014 A 
ATOM     82  C   UNL A   1      44.362  26.985  32.325  1.00  0.00     0.009 A 
ATOM     83  C   UNL A   1      46.114  25.681  33.346  1.00  0.00     0.009 A 
ATOM     84  C   UNL A   1      44.013  27.500  33.576  1.00  0.00     0.001 A 
ATOM     85  C   UNL A   1      45.748  26.175  34.602  1.00  0.00     0.001 A 
ATOM     86  C   UNL A   1      44.703  27.090  34.714  1.00  0.00     0.000 A 
ENDBRANCH  68  81
ENDBRANCH  42  43
ENDBRANCH  34  37
ENDBRANCH  32  33
ENDBRANCH  31  32
ENDBRANCH  30  31
ENDBRANCH   1  30
TORSDOF 17
ENDMDL
