MODEL 1
REMARK VINA RESULT:     -12.6      0.000      0.000
REMARK SMILES Cc1n[nH]c(C[N@H+]2CCC[C@H](c3cccc(C(=O)NCCCCCCNC(=O)c4ccc(-c5c6nc(c(-c7ccccc7)c7ccc([nH]7)c(-c7ccccc7)c7nc(c(-c8ccccc8)c8ccc5[nH]8)C=C7)C=C6)cc4)c3)C2)n1
REMARK SMILES IDX 22 1 21 2 20 3 19 4 17 5 18 6 16 8 12 9 13 10 77 11 14 12
REMARK SMILES IDX 15 13 11 14 7 15 8 16 78 17 9 19 10 20 6 21 5 22 1 23 2 24
REMARK SMILES IDX 3 25 79 26 4 27 23 29 24 30 25 31 26 32 27 33 28 35 29 36
REMARK SMILES IDX 30 37 76 38 31 39 75 40 32 41 33 42 34 43 69 44 35 45 74 46
REMARK SMILES IDX 68 47 70 48 36 49 73 50 67 51 66 52 37 54 59 55 44 56 58 57
REMARK SMILES IDX 45 58 48 59 57 60 71 61 46 62 47 63 56 65 72 66 49 67 38 68
REMARK SMILES IDX 39 69 43 70 40 71 42 72 41 73 60 74 61 75 65 76 62 77 64 78
REMARK SMILES IDX 63 79 50 80 51 81 55 82 52 83 54 84 53 85
REMARK H PARENT 19 7 7 18 4 28 26 34 70 53 48 64
REMARK Flexibility Score: inf
ROOT
ATOM      1  C   UNL A   1      37.341  21.873  24.269  1.00  0.00     0.002 C 
ENDROOT
BRANCH   1   2
ATOM      2  C   UNL A   1      36.339  23.009  24.434  1.00  0.00     0.021 C 
BRANCH   2   3
ATOM      3  C   UNL A   1      36.319  23.705  25.787  1.00  0.00     0.116 C 
BRANCH   3   4
ATOM      4  N   UNL A   1      35.614  22.994  26.843  1.00  0.00    -0.352 N 
ATOM      5  C   UNL A   1      34.284  22.638  26.973  1.00  0.00     0.251 C 
ATOM      6  O   UNL A   1      33.933  22.030  27.983  1.00  0.00    -0.269 OA
ATOM      7  H   UNL A   1      36.183  22.717  27.597  1.00  0.00     0.163 HD
BRANCH   5   8
ATOM      8  C   UNL A   1      33.258  23.026  25.965  1.00  0.00     0.040 A 
ATOM      9  C   UNL A   1      31.442  24.516  25.309  1.00  0.00    -0.039 A 
ATOM     10  C   UNL A   1      31.049  23.572  24.353  1.00  0.00     0.004 A 
ATOM     11  C   UNL A   1      32.629  24.267  26.005  1.00  0.00     0.018 A 
ATOM     12  C   UNL A   1      31.785  22.399  24.157  1.00  0.00     0.001 A 
ATOM     13  C   UNL A   1      32.865  22.107  24.991  1.00  0.00     0.014 A 
BRANCH   9  14
ATOM     14  C   UNL A   1      30.571  25.693  25.755  1.00  0.00     0.074 C 
ATOM     15  N   UNL A   1      30.793  27.182  23.777  1.00  0.00    -0.328 N 
ATOM     16  C   UNL A   1      31.569  28.164  24.548  1.00  0.00     0.262 C 
ATOM     17  C   UNL A   1      29.842  26.447  24.629  1.00  0.00     0.270 C 
ATOM     18  H   UNL A   1      31.473  26.513  23.417  1.00  0.00     0.348 HD
ATOM     19  C   UNL A   1      32.277  27.537  25.753  1.00  0.00     0.062 C 
ATOM     20  C   UNL A   1      31.296  26.750  26.613  1.00  0.00     0.020 C 
BRANCH  15  21
ATOM     21  C   UNL A   1      30.124  27.764  22.599  1.00  0.00     0.340 C 
BRANCH  21  22
ATOM     22  C   UNL A   1      29.122  28.821  22.921  1.00  0.00     0.179 A 
ATOM     23  C   UNL A   1      27.781  32.071  23.156  1.00  0.00     0.092 C 
ATOM     24  C   UNL A   1      28.049  30.621  23.144  1.00  0.00     0.147 A 
ATOM     25  N   UNL A   1      27.081  29.698  23.172  1.00  0.00    -0.159 NA
ATOM     26  N   UNL A   1      29.316  30.120  23.034  1.00  0.00    -0.211 NA
ATOM     27  N   UNL A   1      27.788  28.562  23.051  1.00  0.00    -0.258 N 
ATOM     28  H   UNL A   1      27.395  27.660  23.056  1.00  0.00     0.192 HD
ENDBRANCH  21  22
ENDBRANCH  15  21
ENDBRANCH   9  14
ENDBRANCH   5   8
ENDBRANCH   3   4
ENDBRANCH   2   3
ENDBRANCH   1   2
BRANCH   1  29
ATOM     29  C   UNL A   1      36.872  20.460  24.647  1.00  0.00     0.002 C 
BRANCH  29  30
ATOM     30  C   UNL A   1      37.937  19.412  24.996  1.00  0.00     0.021 C 
BRANCH  30  31
ATOM     31  C   UNL A   1      39.179  19.969  25.668  1.00  0.00     0.116 C 
BRANCH  31  32
ATOM     32  N   UNL A   1      40.279  19.005  25.784  1.00  0.00    -0.352 N 
ATOM     33  C   UNL A   1      41.637  19.261  25.954  1.00  0.00     0.251 C 
ATOM     34  H   UNL A   1      40.025  18.054  25.737  1.00  0.00     0.163 HD
ATOM     35  O   UNL A   1      42.486  18.424  25.699  1.00  0.00    -0.269 OA
BRANCH  33  36
ATOM     36  C   UNL A   1      42.023  20.582  26.481  1.00  0.00     0.039 A 
ATOM     37  C   UNL A   1      42.686  21.559  25.734  1.00  0.00     0.014 A 
ATOM     38  C   UNL A   1      41.629  20.836  27.782  1.00  0.00     0.014 A 
ATOM     39  C   UNL A   1      42.896  22.807  26.322  1.00  0.00     0.010 A 
ATOM     40  C   UNL A   1      41.520  22.123  28.197  1.00  0.00     0.010 A 
ATOM     41  C   UNL A   1      42.304  23.068  27.565  1.00  0.00    -0.014 A 
BRANCH  41  42
ATOM     42  C   UNL A   1      42.439  24.321  28.282  1.00  0.00     0.031 A 
ATOM     43  C   UNL A   1      41.334  25.280  28.064  1.00  0.00     0.074 A 
ATOM     44  C   UNL A   1      43.336  24.465  29.286  1.00  0.00     0.049 A 
ATOM     45  N   UNL A   1      41.392  26.407  27.442  1.00  0.00    -0.248 NA
ATOM     46  C   UNL A   1      39.974  24.880  28.462  1.00  0.00     0.031 C 
ATOM     47  C   UNL A   1      44.250  23.469  29.874  1.00  0.00     0.029 A 
ATOM     48  N   UNL A   1      43.510  25.525  30.111  1.00  0.00    -0.354 N 
ATOM     49  C   UNL A   1      40.122  26.962  27.545  1.00  0.00     0.074 A 
ATOM     50  C   UNL A   1      39.255  25.905  28.002  1.00  0.00     0.031 C 
ATOM     51  C   UNL A   1      44.658  23.888  31.092  1.00  0.00     0.029 A 
ATOM     52  C   UNL A   1      44.189  25.247  31.290  1.00  0.00     0.049 A 
ATOM     53  H   UNL A   1      43.180  26.426  29.890  1.00  0.00     0.167 HD
ATOM     54  C   UNL A   1      39.936  28.310  27.503  1.00  0.00     0.031 A 
ATOM     55  C   UNL A   1      44.303  26.069  32.362  1.00  0.00     0.031 A 
ATOM     56  C   UNL A   1      41.125  28.999  27.059  1.00  0.00     0.049 A 
ATOM     57  C   UNL A   1      43.991  27.441  31.885  1.00  0.00     0.074 A 
ATOM     58  C   UNL A   1      41.912  28.938  25.925  1.00  0.00     0.029 A 
ATOM     59  N   UNL A   1      41.912  29.580  28.028  1.00  0.00    -0.354 N 
ATOM     60  N   UNL A   1      44.738  28.082  31.030  1.00  0.00    -0.248 NA
ATOM     61  C   UNL A   1      42.604  27.880  31.954  1.00  0.00     0.031 C 
ATOM     62  C   UNL A   1      43.252  28.982  26.415  1.00  0.00     0.029 A 
ATOM     63  C   UNL A   1      43.200  29.163  27.799  1.00  0.00     0.049 A 
ATOM     64  H   UNL A   1      41.610  30.180  28.747  1.00  0.00     0.167 HD
ATOM     65  C   UNL A   1      43.842  28.683  30.155  1.00  0.00     0.074 A 
ATOM     66  C   UNL A   1      42.542  28.593  30.822  1.00  0.00     0.031 C 
ATOM     67  C   UNL A   1      44.166  28.918  28.847  1.00  0.00     0.031 A 
BRANCH  54  68
ATOM     68  C   UNL A   1      38.849  29.025  28.258  1.00  0.00    -0.014 A 
ATOM     69  C   UNL A   1      38.737  28.804  29.642  1.00  0.00     0.009 A 
ATOM     70  C   UNL A   1      37.769  29.671  27.627  1.00  0.00     0.009 A 
ATOM     71  C   UNL A   1      37.572  29.144  30.339  1.00  0.00     0.001 A 
ATOM     72  C   UNL A   1      36.622  30.050  28.328  1.00  0.00     0.001 A 
ATOM     73  C   UNL A   1      36.512  29.759  29.679  1.00  0.00     0.000 A 
ENDBRANCH  54  68
BRANCH  55  74
ATOM     74  C   UNL A   1      44.330  25.705  33.798  1.00  0.00    -0.014 A 
ATOM     75  C   UNL A   1      43.193  25.184  34.436  1.00  0.00     0.009 A 
ATOM     76  C   UNL A   1      45.557  25.616  34.482  1.00  0.00     0.009 A 
ATOM     77  C   UNL A   1      43.290  24.564  35.692  1.00  0.00     0.001 A 
ATOM     78  C   UNL A   1      45.655  24.999  35.736  1.00  0.00     0.001 A 
ATOM     79  C   UNL A   1      44.522  24.459  36.334  1.00  0.00     0.000 A 
ENDBRANCH  55  74
BRANCH  67  80
ATOM     80  C   UNL A   1      45.587  28.654  28.400  1.00  0.00    -0.014 A 
ATOM     81  C   UNL A   1      46.593  29.637  28.406  1.00  0.00     0.009 A 
ATOM     82  C   UNL A   1      45.962  27.329  28.136  1.00  0.00     0.009 A 
ATOM     83  C   UNL A   1      47.926  29.309  28.130  1.00  0.00     0.001 A 
ATOM     84  C   UNL A   1      47.295  26.997  27.878  1.00  0.00     0.001 A 
ATOM     85  C   UNL A   1      48.276  27.986  27.870  1.00  0.00     0.000 A 
ENDBRANCH  67  80
ENDBRANCH  41  42
ENDBRANCH  33  36
ENDBRANCH  31  32
ENDBRANCH  30  31
ENDBRANCH  29  30
ENDBRANCH   1  29
TORSDOF 16
ENDMDL
MODEL 2
REMARK VINA RESULT:     -12.1      1.917      5.397
REMARK SMILES Cc1n[nH]c(C[N@H+]2CCC[C@H](c3cccc(C(=O)NCCCCCCNC(=O)c4ccc(-c5c6nc(c(-c7ccccc7)c7ccc([nH]7)c(-c7ccccc7)c7nc(c(-c8ccccc8)c8ccc5[nH]8)C=C7)C=C6)cc4)c3)C2)n1
REMARK SMILES IDX 22 1 21 2 20 3 19 4 17 5 18 6 16 8 12 9 13 10 77 11 14 12
REMARK SMILES IDX 15 13 11 14 7 15 8 16 78 17 9 19 10 20 6 21 5 22 1 23 2 24
REMARK SMILES IDX 3 25 79 26 4 27 23 29 24 30 25 31 26 32 27 33 28 35 29 36
REMARK SMILES IDX 30 37 76 38 31 39 75 40 32 41 33 42 34 43 69 44 35 45 74 46
REMARK SMILES IDX 68 47 70 48 36 49 73 50 67 51 66 52 37 54 59 55 44 56 58 57
REMARK SMILES IDX 45 58 48 59 57 60 71 61 46 62 47 63 56 65 72 66 49 67 38 68
REMARK SMILES IDX 39 69 43 70 40 71 42 72 41 73 60 74 61 75 65 76 62 77 64 78
REMARK SMILES IDX 63 79 50 80 51 81 55 82 52 83 54 84 53 85
REMARK H PARENT 19 7 7 18 4 28 26 34 70 53 48 64
REMARK Flexibility Score: inf
ROOT
ATOM      1  C   UNL A   1      40.088  22.072  26.880  1.00  0.00     0.002 C 
ENDROOT
BRANCH   1   2
ATOM      2  C   UNL A   1      39.073  23.169  26.583  1.00  0.00     0.021 C 
BRANCH   2   3
ATOM      3  C   UNL A   1      37.899  22.786  25.694  1.00  0.00     0.116 C 
BRANCH   3   4
ATOM      4  N   UNL A   1      36.720  22.300  26.395  1.00  0.00    -0.352 N 
ATOM      5  C   UNL A   1      35.373  22.538  26.188  1.00  0.00     0.251 C 
ATOM      6  O   UNL A   1      34.559  21.999  26.935  1.00  0.00    -0.269 OA
ATOM      7  H   UNL A   1      36.914  21.696  27.147  1.00  0.00     0.163 HD
BRANCH   5   8
ATOM      8  C   UNL A   1      34.887  23.476  25.137  1.00  0.00     0.040 A 
ATOM      9  C   UNL A   1      33.733  25.548  24.568  1.00  0.00    -0.039 A 
ATOM     10  C   UNL A   1      33.579  25.071  23.261  1.00  0.00     0.004 A 
ATOM     11  C   UNL A   1      34.509  24.780  25.443  1.00  0.00     0.018 A 
ATOM     12  C   UNL A   1      34.126  23.843  22.876  1.00  0.00     0.001 A 
ATOM     13  C   UNL A   1      34.744  23.027  23.824  1.00  0.00     0.014 A 
BRANCH   9  14
ATOM     14  C   UNL A   1      32.970  26.747  25.135  1.00  0.00     0.074 C 
ATOM     15  N   UNL A   1      31.941  27.640  23.056  1.00  0.00    -0.328 N 
ATOM     16  C   UNL A   1      32.785  28.842  23.101  1.00  0.00     0.262 C 
ATOM     17  C   UNL A   1      31.667  27.113  24.404  1.00  0.00     0.270 C 
ATOM     18  H   UNL A   1      32.484  26.939  22.551  1.00  0.00     0.348 HD
ATOM     19  C   UNL A   1      34.084  28.618  23.882  1.00  0.00     0.062 C 
ATOM     20  C   UNL A   1      33.797  28.043  25.264  1.00  0.00     0.020 C 
BRANCH  15  21
ATOM     21  C   UNL A   1      30.698  27.830  22.287  1.00  0.00     0.340 C 
BRANCH  21  22
ATOM     22  C   UNL A   1      30.103  29.192  22.406  1.00  0.00     0.179 A 
ATOM     23  C   UNL A   1      28.240  32.026  21.448  1.00  0.00     0.092 C 
ATOM     24  C   UNL A   1      29.038  30.989  22.130  1.00  0.00     0.147 A 
ATOM     25  N   UNL A   1      29.201  30.947  23.457  1.00  0.00    -0.159 NA
ATOM     26  N   UNL A   1      29.613  29.954  21.448  1.00  0.00    -0.211 NA
ATOM     27  N   UNL A   1      29.900  29.809  23.606  1.00  0.00    -0.258 N 
ATOM     28  H   UNL A   1      30.222  29.465  24.470  1.00  0.00     0.192 HD
ENDBRANCH  21  22
ENDBRANCH  15  21
ENDBRANCH   9  14
ENDBRANCH   5   8
ENDBRANCH   3   4
ENDBRANCH   2   3
ENDBRANCH   1   2
BRANCH   1  29
ATOM     29  C   UNL A   1      40.129  20.874  25.919  1.00  0.00     0.002 C 
BRANCH  29  30
ATOM     30  C   UNL A   1      40.939  19.638  26.336  1.00  0.00     0.021 C 
BRANCH  30  31
ATOM     31  C   UNL A   1      42.304  19.944  26.927  1.00  0.00     0.116 C 
BRANCH  31  32
ATOM     32  N   UNL A   1      43.410  19.816  25.970  1.00  0.00    -0.352 N 
ATOM     33  C   UNL A   1      44.005  20.812  25.201  1.00  0.00     0.251 C 
ATOM     34  H   UNL A   1      43.780  18.910  25.859  1.00  0.00     0.163 HD
ATOM     35  O   UNL A   1      44.666  20.552  24.211  1.00  0.00    -0.269 OA
BRANCH  33  36
ATOM     36  C   UNL A   1      43.831  22.209  25.638  1.00  0.00     0.039 A 
ATOM     37  C   UNL A   1      42.945  23.111  25.043  1.00  0.00     0.014 A 
ATOM     38  C   UNL A   1      44.574  22.578  26.746  1.00  0.00     0.014 A 
ATOM     39  C   UNL A   1      42.800  24.371  25.625  1.00  0.00     0.010 A 
ATOM     40  C   UNL A   1      44.168  23.639  27.487  1.00  0.00     0.010 A 
ATOM     41  C   UNL A   1      43.429  24.617  26.853  1.00  0.00    -0.014 A 
BRANCH  41  42
ATOM     42  C   UNL A   1      43.356  25.879  27.564  1.00  0.00     0.031 A 
ATOM     43  C   UNL A   1      44.376  26.873  27.164  1.00  0.00     0.074 A 
ATOM     44  C   UNL A   1      42.268  26.212  28.298  1.00  0.00     0.049 A 
ATOM     45  N   UNL A   1      45.363  27.304  27.871  1.00  0.00    -0.248 NA
ATOM     46  C   UNL A   1      44.384  27.342  25.769  1.00  0.00     0.031 C 
ATOM     47  C   UNL A   1      41.003  25.477  28.482  1.00  0.00     0.029 A 
ATOM     48  N   UNL A   1      42.007  27.381  28.928  1.00  0.00    -0.354 N 
ATOM     49  C   UNL A   1      46.003  28.255  27.088  1.00  0.00     0.074 A 
ATOM     50  C   UNL A   1      45.485  28.095  25.752  1.00  0.00     0.031 C 
ATOM     51  C   UNL A   1      40.048  26.322  28.931  1.00  0.00     0.029 A 
ATOM     52  C   UNL A   1      40.671  27.595  29.238  1.00  0.00     0.049 A 
ATOM     53  H   UNL A   1      42.713  28.031  29.150  1.00  0.00     0.167 HD
ATOM     54  C   UNL A   1      46.710  29.274  27.652  1.00  0.00     0.031 A 
ATOM     55  C   UNL A   1      40.124  28.760  29.668  1.00  0.00     0.031 A 
ATOM     56  C   UNL A   1      46.932  29.052  29.061  1.00  0.00     0.049 A 
ATOM     57  C   UNL A   1      41.242  29.595  30.181  1.00  0.00     0.074 A 
ATOM     58  C   UNL A   1      47.531  28.050  29.800  1.00  0.00     0.029 A 
ATOM     59  N   UNL A   1      46.110  29.722  29.939  1.00  0.00    -0.354 N 
ATOM     60  N   UNL A   1      41.943  29.274  31.232  1.00  0.00    -0.248 NA
ATOM     61  C   UNL A   1      41.902  30.489  29.240  1.00  0.00     0.031 C 
ATOM     62  C   UNL A   1      46.650  27.844  30.905  1.00  0.00     0.029 A 
ATOM     63  C   UNL A   1      45.626  28.791  30.823  1.00  0.00     0.049 A 
ATOM     64  H   UNL A   1      45.907  30.686  29.934  1.00  0.00     0.167 HD
ATOM     65  C   UNL A   1      43.257  29.551  30.882  1.00  0.00     0.074 A 
ATOM     66  C   UNL A   1      43.163  30.375  29.675  1.00  0.00     0.031 C 
ATOM     67  C   UNL A   1      44.303  28.841  31.405  1.00  0.00     0.031 A 
BRANCH  54  68
ATOM     68  C   UNL A   1      46.823  30.646  27.044  1.00  0.00    -0.014 A 
ATOM     69  C   UNL A   1      48.076  31.283  27.053  1.00  0.00     0.009 A 
ATOM     70  C   UNL A   1      45.706  31.443  26.727  1.00  0.00     0.009 A 
ATOM     71  C   UNL A   1      48.191  32.660  26.832  1.00  0.00     0.001 A 
ATOM     72  C   UNL A   1      45.823  32.809  26.465  1.00  0.00     0.001 A 
ATOM     73  C   UNL A   1      47.063  33.423  26.547  1.00  0.00     0.000 A 
ENDBRANCH  54  68
BRANCH  55  74
ATOM     74  C   UNL A   1      38.785  29.313  29.360  1.00  0.00    -0.014 A 
ATOM     75  C   UNL A   1      38.404  29.595  28.038  1.00  0.00     0.009 A 
ATOM     76  C   UNL A   1      37.775  29.312  30.341  1.00  0.00     0.009 A 
ATOM     77  C   UNL A   1      37.059  29.830  27.709  1.00  0.00     0.001 A 
ATOM     78  C   UNL A   1      36.434  29.547  30.013  1.00  0.00     0.001 A 
ATOM     79  C   UNL A   1      36.074  29.791  28.693  1.00  0.00     0.000 A 
ENDBRANCH  55  74
BRANCH  67  80
ATOM     80  C   UNL A   1      44.016  27.843  32.504  1.00  0.00    -0.014 A 
ATOM     81  C   UNL A   1      43.903  26.458  32.279  1.00  0.00     0.009 A 
ATOM     82  C   UNL A   1      44.038  28.294  33.831  1.00  0.00     0.009 A 
ATOM     83  C   UNL A   1      43.789  25.559  33.347  1.00  0.00     0.001 A 
ATOM     84  C   UNL A   1      43.943  27.396  34.898  1.00  0.00     0.001 A 
ATOM     85  C   UNL A   1      43.814  26.031  34.657  1.00  0.00     0.000 A 
ENDBRANCH  67  80
ENDBRANCH  41  42
ENDBRANCH  33  36
ENDBRANCH  31  32
ENDBRANCH  30  31
ENDBRANCH  29  30
ENDBRANCH   1  29
TORSDOF 16
ENDMDL
MODEL 3
REMARK VINA RESULT:     -12.1      2.970      8.064
REMARK SMILES Cc1n[nH]c(C[N@H+]2CCC[C@H](c3cccc(C(=O)NCCCCCCNC(=O)c4ccc(-c5c6nc(c(-c7ccccc7)c7ccc([nH]7)c(-c7ccccc7)c7nc(c(-c8ccccc8)c8ccc5[nH]8)C=C7)C=C6)cc4)c3)C2)n1
REMARK SMILES IDX 22 1 21 2 20 3 19 4 17 5 18 6 16 8 12 9 13 10 77 11 14 12
REMARK SMILES IDX 15 13 11 14 7 15 8 16 78 17 9 19 10 20 6 21 5 22 1 23 2 24
REMARK SMILES IDX 3 25 79 26 4 27 23 29 24 30 25 31 26 32 27 33 28 35 29 36
REMARK SMILES IDX 30 37 76 38 31 39 75 40 32 41 33 42 34 43 69 44 35 45 74 46
REMARK SMILES IDX 68 47 70 48 36 49 73 50 67 51 66 52 37 54 59 55 44 56 58 57
REMARK SMILES IDX 45 58 48 59 57 60 71 61 46 62 47 63 56 65 72 66 49 67 38 68
REMARK SMILES IDX 39 69 43 70 40 71 42 72 41 73 60 74 61 75 65 76 62 77 64 78
REMARK SMILES IDX 63 79 50 80 51 81 55 82 52 83 54 84 53 85
REMARK H PARENT 19 7 7 18 4 28 26 34 70 53 48 64
REMARK Flexibility Score: inf
ROOT
ATOM      1  C   UNL A   1      33.513  29.088  24.588  1.00  0.00     0.002 C 
ENDROOT
BRANCH   1   2
ATOM      2  C   UNL A   1      34.121  28.977  23.195  1.00  0.00     0.021 C 
BRANCH   2   3
ATOM      3  C   UNL A   1      33.442  28.012  22.233  1.00  0.00     0.116 C 
BRANCH   3   4
ATOM      4  N   UNL A   1      32.022  28.245  22.017  1.00  0.00    -0.352 N 
ATOM      5  C   UNL A   1      30.905  27.646  22.572  1.00  0.00     0.251 C 
ATOM      6  O   UNL A   1      29.792  28.029  22.213  1.00  0.00    -0.269 OA
ATOM      7  H   UNL A   1      31.820  28.951  21.363  1.00  0.00     0.163 HD
BRANCH   5   8
ATOM      8  C   UNL A   1      31.009  26.513  23.534  1.00  0.00     0.040 A 
ATOM      9  C   UNL A   1      31.501  24.156  23.930  1.00  0.00    -0.039 A 
ATOM     10  C   UNL A   1      30.829  24.251  25.155  1.00  0.00     0.004 A 
ATOM     11  C   UNL A   1      31.685  25.340  23.208  1.00  0.00     0.018 A 
ATOM     12  C   UNL A   1      30.311  25.472  25.598  1.00  0.00     0.001 A 
ATOM     13  C   UNL A   1      30.364  26.593  24.769  1.00  0.00     0.014 A 
BRANCH   9  14
ATOM     14  C   UNL A   1      31.879  22.832  23.264  1.00  0.00     0.074 C 
ATOM     15  N   UNL A   1      33.374  21.873  25.003  1.00  0.00    -0.328 N 
ATOM     16  C   UNL A   1      34.552  22.023  24.137  1.00  0.00     0.262 C 
ATOM     17  C   UNL A   1      32.144  21.657  24.221  1.00  0.00     0.270 C 
ATOM     18  H   UNL A   1      33.278  22.760  25.497  1.00  0.00     0.348 HD
ATOM     19  C   UNL A   1      34.368  23.119  23.081  1.00  0.00     0.062 C 
ATOM     20  C   UNL A   1      33.078  22.909  22.297  1.00  0.00     0.020 C 
BRANCH  15  21
ATOM     21  C   UNL A   1      33.542  20.840  26.041  1.00  0.00     0.340 C 
BRANCH  21  22
ATOM     22  C   UNL A   1      33.341  19.444  25.556  1.00  0.00     0.179 A 
ATOM     23  C   UNL A   1      33.903  16.561  23.608  1.00  0.00     0.092 C 
ATOM     24  C   UNL A   1      33.472  17.577  24.587  1.00  0.00     0.147 A 
ATOM     25  N   UNL A   1      32.830  17.273  25.721  1.00  0.00    -0.159 NA
ATOM     26  N   UNL A   1      33.764  18.903  24.431  1.00  0.00    -0.211 NA
ATOM     27  N   UNL A   1      32.739  18.478  26.309  1.00  0.00    -0.258 N 
ATOM     28  H   UNL A   1      32.295  18.642  27.172  1.00  0.00     0.192 HD
ENDBRANCH  21  22
ENDBRANCH  15  21
ENDBRANCH   9  14
ENDBRANCH   5   8
ENDBRANCH   3   4
ENDBRANCH   2   3
ENDBRANCH   1   2
BRANCH   1  29
ATOM     29  C   UNL A   1      33.843  27.972  25.589  1.00  0.00     0.002 C 
BRANCH  29  30
ATOM     30  C   UNL A   1      34.034  28.354  27.064  1.00  0.00     0.021 C 
BRANCH  30  31
ATOM     31  C   UNL A   1      35.306  29.129  27.358  1.00  0.00     0.116 C 
BRANCH  31  32
ATOM     32  N   UNL A   1      35.363  29.689  28.714  1.00  0.00    -0.352 N 
ATOM     33  C   UNL A   1      36.362  29.531  29.671  1.00  0.00     0.251 C 
ATOM     34  H   UNL A   1      34.598  30.249  28.981  1.00  0.00     0.163 HD
ATOM     35  O   UNL A   1      36.159  29.746  30.853  1.00  0.00    -0.269 OA
BRANCH  33  36
ATOM     36  C   UNL A   1      37.696  29.116  29.204  1.00  0.00     0.039 A 
ATOM     37  C   UNL A   1      38.332  29.644  28.077  1.00  0.00     0.014 A 
ATOM     38  C   UNL A   1      38.336  28.183  30.001  1.00  0.00     0.014 A 
ATOM     39  C   UNL A   1      39.640  29.240  27.809  1.00  0.00     0.010 A 
ATOM     40  C   UNL A   1      39.687  28.078  29.936  1.00  0.00     0.010 A 
ATOM     41  C   UNL A   1      40.302  28.447  28.756  1.00  0.00    -0.014 A 
BRANCH  41  42
ATOM     42  C   UNL A   1      41.660  27.963  28.602  1.00  0.00     0.031 A 
ATOM     43  C   UNL A   1      41.783  26.699  27.845  1.00  0.00     0.074 A 
ATOM     44  C   UNL A   1      42.725  28.757  28.864  1.00  0.00     0.049 A 
ATOM     45  N   UNL A   1      42.142  25.549  28.301  1.00  0.00    -0.248 NA
ATOM     46  C   UNL A   1      41.321  26.675  26.447  1.00  0.00     0.031 C 
ATOM     47  C   UNL A   1      42.758  30.175  29.267  1.00  0.00     0.029 A 
ATOM     48  N   UNL A   1      44.038  28.490  28.673  1.00  0.00    -0.354 N 
ATOM     49  C   UNL A   1      42.153  24.693  27.207  1.00  0.00     0.074 A 
ATOM     50  C   UNL A   1      41.458  25.382  26.148  1.00  0.00     0.031 C 
ATOM     51  C   UNL A   1      43.984  30.689  29.023  1.00  0.00     0.029 A 
ATOM     52  C   UNL A   1      44.864  29.605  28.627  1.00  0.00     0.049 A 
ATOM     53  H   UNL A   1      44.382  27.573  28.575  1.00  0.00     0.167 HD
ATOM     54  C   UNL A   1      42.963  23.598  27.175  1.00  0.00     0.031 A 
ATOM     55  C   UNL A   1      46.163  29.625  28.238  1.00  0.00     0.031 A 
ATOM     56  C   UNL A   1      43.528  23.316  28.472  1.00  0.00     0.049 A 
ATOM     57  C   UNL A   1      46.658  28.227  28.324  1.00  0.00     0.074 A 
ATOM     58  C   UNL A   1      43.000  23.054  29.722  1.00  0.00     0.029 A 
ATOM     59  N   UNL A   1      44.825  23.724  28.694  1.00  0.00    -0.354 N 
ATOM     60  N   UNL A   1      46.770  27.581  29.451  1.00  0.00    -0.248 NA
ATOM     61  C   UNL A   1      46.529  27.392  27.138  1.00  0.00     0.031 C 
ATOM     62  C   UNL A   1      43.808  23.817  30.620  1.00  0.00     0.029 A 
ATOM     63  C   UNL A   1      44.829  24.416  29.879  1.00  0.00     0.049 A 
ATOM     64  H   UNL A   1      45.601  23.552  28.113  1.00  0.00     0.167 HD
ATOM     65  C   UNL A   1      46.289  26.307  29.182  1.00  0.00     0.074 A 
ATOM     66  C   UNL A   1      46.233  26.224  27.721  1.00  0.00     0.031 C 
ATOM     67  C   UNL A   1      45.687  25.549  30.148  1.00  0.00     0.031 A 
BRANCH  54  68
ATOM     68  C   UNL A   1      43.575  23.052  25.914  1.00  0.00    -0.014 A 
ATOM     69  C   UNL A   1      43.593  21.659  25.725  1.00  0.00     0.009 A 
ATOM     70  C   UNL A   1      44.379  23.821  25.051  1.00  0.00     0.009 A 
ATOM     71  C   UNL A   1      44.433  21.066  24.775  1.00  0.00     0.001 A 
ATOM     72  C   UNL A   1      45.185  23.236  24.073  1.00  0.00     0.001 A 
ATOM     73  C   UNL A   1      45.234  21.855  23.956  1.00  0.00     0.000 A 
ENDBRANCH  54  68
BRANCH  55  74
ATOM     74  C   UNL A   1      46.883  30.687  27.497  1.00  0.00    -0.014 A 
ATOM     75  C   UNL A   1      46.197  31.790  26.964  1.00  0.00     0.009 A 
ATOM     76  C   UNL A   1      48.288  30.757  27.544  1.00  0.00     0.009 A 
ATOM     77  C   UNL A   1      46.891  32.932  26.531  1.00  0.00     0.001 A 
ATOM     78  C   UNL A   1      48.981  31.894  27.112  1.00  0.00     0.001 A 
ATOM     79  C   UNL A   1      48.281  32.989  26.619  1.00  0.00     0.000 A 
ENDBRANCH  55  74
BRANCH  67  80
ATOM     80  C   UNL A   1      45.693  26.061  31.571  1.00  0.00    -0.014 A 
ATOM     81  C   UNL A   1      44.713  26.931  32.084  1.00  0.00     0.009 A 
ATOM     82  C   UNL A   1      46.616  25.507  32.470  1.00  0.00     0.009 A 
ATOM     83  C   UNL A   1      44.675  27.255  33.445  1.00  0.00     0.001 A 
ATOM     84  C   UNL A   1      46.568  25.816  33.832  1.00  0.00     0.001 A 
ATOM     85  C   UNL A   1      45.602  26.692  34.319  1.00  0.00     0.000 A 
ENDBRANCH  67  80
ENDBRANCH  41  42
ENDBRANCH  33  36
ENDBRANCH  31  32
ENDBRANCH  30  31
ENDBRANCH  29  30
ENDBRANCH   1  29
TORSDOF 16
ENDMDL
