MODEL 1
REMARK VINA RESULT:     -12.4      0.000      0.000
REMARK SMILES C[C@H]1[C@H](C)CC[C@@]2(C(=O)NCCCCCCNC(=O)c3ccc(-c4c5nc(c(-c6ccccc6)c6ccc([nH]6)c(-c6ccccc6)c6nc(c(-c7ccccc7)c7ccc4[nH]7)C=C6)C=C5)cc3)CC[C@@]3(C)C(=CC[C@@H]4[C@@]5(C)CC[C@H](O)C(C)(C)[C@@H]5CC[C@]43C)[C@H]12
REMARK SMILES IDX 14 1 13 2 12 3 11 4 10 5 8 6 9 7 7 9 1 10 2 11 3 12 90 13
REMARK SMILES IDX 4 14 5 15 72 16 6 17 68 18 70 19 73 20 69 21 71 22 88 23
REMARK SMILES IDX 74 24 75 25 87 26 89 27 76 28 86 29 77 30 78 31 85 32 79 33
REMARK SMILES IDX 82 34 80 35 83 36 84 37 81 38 15 40 16 41 17 42 18 43 19 45
REMARK SMILES IDX 20 46 21 47 67 48 22 49 66 50 23 51 24 52 25 53 60 54 26 55
REMARK SMILES IDX 65 56 59 57 61 58 27 59 64 60 58 61 57 62 28 64 50 65 35 66
REMARK SMILES IDX 49 67 36 68 39 69 48 70 62 71 37 72 38 73 47 75 63 76 40 77
REMARK SMILES IDX 29 78 30 79 34 80 31 81 33 82 32 83 51 84 52 85 56 86 53 87
REMARK SMILES IDX 55 88 54 89 41 90 42 91 46 92 43 93 45 94 44 95
REMARK H PARENT 10 8 81 39 17 44 61 63 39 74
REMARK Flexibility Score: inf
ROOT
ATOM      1  C   UNL A   1      39.286  22.203  26.520  1.00  0.00     0.002 C 
ENDROOT
BRANCH   1   2
ATOM      2  C   UNL A   1      38.700  23.391  25.749  1.00  0.00     0.002 C 
BRANCH   2   3
ATOM      3  C   UNL A   1      37.639  24.279  26.417  1.00  0.00     0.021 C 
BRANCH   3   4
ATOM      4  C   UNL A   1      36.163  24.003  26.118  1.00  0.00     0.116 C 
BRANCH   4   5
ATOM      5  N   UNL A   1      35.632  22.788  26.706  1.00  0.00    -0.356 N 
ATOM      6  C   UNL A   1      34.906  21.763  26.154  1.00  0.00     0.226 C 
ATOM      7  O   UNL A   1      34.027  21.313  26.902  1.00  0.00    -0.274 OA
ATOM      8  H   UNL A   1      35.825  22.680  27.665  1.00  0.00     0.163 HD
BRANCH   6   9
ATOM      9  C   UNL A   1      35.162  21.115  24.736  1.00  0.00     0.056 C 
ATOM     10  C   UNL A   1      32.153  18.667  23.958  1.00  0.00     0.008 C 
ATOM     11  C   UNL A   1      33.423  19.201  24.640  1.00  0.00    -0.003 C 
ATOM     12  C   UNL A   1      34.595  18.172  24.488  1.00  0.00    -0.011 C 
ATOM     13  C   UNL A   1      33.854  20.582  24.075  1.00  0.00     0.034 C 
ATOM     14  C   UNL A   1      34.346  16.812  25.157  1.00  0.00     0.008 C 
ATOM     15  C   UNL A   1      35.964  18.644  25.001  1.00  0.00     0.005 C 
ATOM     16  C   UNL A   1      32.893  21.796  24.088  1.00  0.00    -0.063 C 
ATOM     17  C   UNL A   1      36.314  20.099  24.794  1.00  0.00     0.018 C 
ATOM     18  C   UNL A   1      35.703  22.221  23.746  1.00  0.00     0.018 C 
ATOM     19  C   UNL A   1      33.240  22.933  23.080  1.00  0.00    -0.006 C 
ATOM     20  C   UNL A   1      32.028  21.992  25.106  1.00  0.00    -0.027 C 
ATOM     21  C   UNL A   1      34.739  23.327  23.303  1.00  0.00     0.013 C 
ATOM     22  C   UNL A   1      33.091  22.399  21.630  1.00  0.00     0.017 C 
ATOM     23  C   UNL A   1      32.284  24.238  23.282  1.00  0.00    -0.020 C 
ATOM     24  C   UNL A   1      31.512  23.350  25.520  1.00  0.00     0.032 C 
ATOM     25  C   UNL A   1      32.281  24.512  24.831  1.00  0.00     0.006 C 
ATOM     26  C   UNL A   1      32.788  25.467  22.479  1.00  0.00     0.008 C 
ATOM     27  C   UNL A   1      30.843  23.962  22.751  1.00  0.00     0.012 C 
ATOM     28  C   UNL A   1      31.986  25.979  25.363  1.00  0.00    -0.025 C 
ATOM     29  C   UNL A   1      32.160  26.787  22.929  1.00  0.00     0.005 C 
ATOM     30  C   UNL A   1      30.486  26.125  25.671  1.00  0.00     0.012 C 
ATOM     31  C   UNL A   1      32.788  26.183  26.692  1.00  0.00     0.010 C 
ATOM     32  C   UNL A   1      32.565  27.067  24.380  1.00  0.00     0.003 C 
ATOM     33  C   UNL A   1      32.705  27.599  27.261  1.00  0.00     0.033 C 
ATOM     34  C   UNL A   1      32.412  28.565  24.846  1.00  0.00    -0.006 C 
ATOM     35  C   UNL A   1      33.068  28.697  26.257  1.00  0.00     0.120 C 
ATOM     36  C   UNL A   1      30.964  29.099  24.814  1.00  0.00     0.014 C 
ATOM     37  C   UNL A   1      33.205  29.510  23.896  1.00  0.00     0.014 C 
BRANCH  35  38
ATOM     38  O   UNL A   1      32.787  29.969  26.844  1.00  0.00    -0.393 OA
ATOM     39  H   UNL A   1      33.617  30.441  27.007  1.00  0.00     0.210 HD
ENDBRANCH  35  38
ENDBRANCH   6   9
ENDBRANCH   4   5
ENDBRANCH   3   4
ENDBRANCH   2   3
ENDBRANCH   1   2
BRANCH   1  40
ATOM     40  C   UNL A   1      39.613  20.923  25.753  1.00  0.00     0.021 C 
BRANCH  40  41
ATOM     41  C   UNL A   1      40.403  19.839  26.467  1.00  0.00     0.116 C 
BRANCH  41  42
ATOM     42  N   UNL A   1      41.670  19.526  25.843  1.00  0.00    -0.352 N 
ATOM     43  C   UNL A   1      42.795  20.303  25.705  1.00  0.00     0.251 C 
ATOM     44  H   UNL A   1      41.736  18.621  25.461  1.00  0.00     0.163 HD
ATOM     45  O   UNL A   1      43.749  19.872  25.066  1.00  0.00    -0.269 OA
BRANCH  43  46
ATOM     46  C   UNL A   1      42.863  21.669  26.285  1.00  0.00     0.039 A 
ATOM     47  C   UNL A   1      42.812  21.792  27.677  1.00  0.00     0.014 A 
ATOM     48  C   UNL A   1      42.938  22.820  25.496  1.00  0.00     0.014 A 
ATOM     49  C   UNL A   1      42.869  23.054  28.270  1.00  0.00     0.010 A 
ATOM     50  C   UNL A   1      43.086  24.075  26.091  1.00  0.00     0.010 A 
ATOM     51  C   UNL A   1      43.031  24.208  27.485  1.00  0.00    -0.014 A 
BRANCH  51  52
ATOM     52  C   UNL A   1      43.126  25.543  28.131  1.00  0.00     0.031 A 
ATOM     53  C   UNL A   1      44.460  26.105  28.547  1.00  0.00     0.074 A 
ATOM     54  C   UNL A   1      42.003  26.260  28.334  1.00  0.00     0.049 A 
ATOM     55  N   UNL A   1      44.742  27.289  29.029  1.00  0.00    -0.248 NA
ATOM     56  C   UNL A   1      45.628  25.218  28.425  1.00  0.00     0.031 C 
ATOM     57  C   UNL A   1      40.644  25.807  28.027  1.00  0.00     0.029 A 
ATOM     58  N   UNL A   1      41.827  27.530  28.824  1.00  0.00    -0.354 N 
ATOM     59  C   UNL A   1      46.111  27.287  29.270  1.00  0.00     0.074 A 
ATOM     60  C   UNL A   1      46.593  25.964  28.941  1.00  0.00     0.031 C 
ATOM     61  C   UNL A   1      39.781  26.804  28.279  1.00  0.00     0.029 A 
ATOM     62  C   UNL A   1      40.518  27.951  28.797  1.00  0.00     0.049 A 
ATOM     63  H   UNL A   1      42.565  28.086  29.161  1.00  0.00     0.167 HD
ATOM     64  C   UNL A   1      46.903  28.300  29.699  1.00  0.00     0.031 A 
ATOM     65  C   UNL A   1      39.973  29.134  29.136  1.00  0.00     0.031 A 
ATOM     66  C   UNL A   1      46.421  29.615  30.028  1.00  0.00     0.049 A 
ATOM     67  C   UNL A   1      40.872  30.242  29.608  1.00  0.00     0.074 A 
ATOM     68  C   UNL A   1      47.145  30.726  30.427  1.00  0.00     0.029 A 
ATOM     69  N   UNL A   1      45.088  29.996  30.002  1.00  0.00    -0.354 N 
ATOM     70  N   UNL A   1      42.176  30.249  29.748  1.00  0.00    -0.248 NA
ATOM     71  C   UNL A   1      40.223  31.516  29.947  1.00  0.00     0.031 C 
ATOM     72  C   UNL A   1      46.244  31.761  30.699  1.00  0.00     0.029 A 
ATOM     73  C   UNL A   1      44.965  31.317  30.402  1.00  0.00     0.049 A 
ATOM     74  H   UNL A   1      44.339  29.415  29.737  1.00  0.00     0.167 HD
ATOM     75  C   UNL A   1      42.505  31.531  30.167  1.00  0.00     0.074 A 
ATOM     76  C   UNL A   1      41.268  32.281  30.229  1.00  0.00     0.031 C 
ATOM     77  C   UNL A   1      43.723  32.044  30.473  1.00  0.00     0.031 A 
BRANCH  64  78
ATOM     78  C   UNL A   1      48.375  28.015  29.846  1.00  0.00    -0.014 A 
ATOM     79  C   UNL A   1      49.268  28.223  28.782  1.00  0.00     0.009 A 
ATOM     80  C   UNL A   1      48.881  27.564  31.075  1.00  0.00     0.009 A 
ATOM     81  C   UNL A   1      50.629  27.945  28.934  1.00  0.00     0.001 A 
ATOM     82  C   UNL A   1      50.246  27.319  31.233  1.00  0.00     0.001 A 
ATOM     83  C   UNL A   1      51.118  27.498  30.160  1.00  0.00     0.000 A 
ENDBRANCH  64  78
BRANCH  65  84
ATOM     84  C   UNL A   1      38.506  29.345  29.009  1.00  0.00    -0.014 A 
ATOM     85  C   UNL A   1      37.659  29.185  30.117  1.00  0.00     0.009 A 
ATOM     86  C   UNL A   1      37.943  29.703  27.774  1.00  0.00     0.009 A 
ATOM     87  C   UNL A   1      36.278  29.347  29.983  1.00  0.00     0.001 A 
ATOM     88  C   UNL A   1      36.566  29.897  27.650  1.00  0.00     0.001 A 
ATOM     89  C   UNL A   1      35.734  29.708  28.751  1.00  0.00     0.000 A 
ENDBRANCH  65  84
BRANCH  77  90
ATOM     90  C   UNL A   1      43.770  33.494  30.872  1.00  0.00    -0.014 A 
ATOM     91  C   UNL A   1      43.705  33.887  32.218  1.00  0.00     0.009 A 
ATOM     92  C   UNL A   1      43.887  34.482  29.881  1.00  0.00     0.009 A 
ATOM     93  C   UNL A   1      43.699  35.241  32.559  1.00  0.00     0.001 A 
ATOM     94  C   UNL A   1      43.919  35.833  30.227  1.00  0.00     0.001 A 
ATOM     95  C   UNL A   1      43.809  36.212  31.564  1.00  0.00     0.000 A 
ENDBRANCH  77  90
ENDBRANCH  51  52
ENDBRANCH  43  46
ENDBRANCH  41  42
ENDBRANCH  40  41
ENDBRANCH   1  40
TORSDOF 14
ENDMDL
MODEL 2
REMARK VINA RESULT:     -12.4      3.114      8.930
REMARK SMILES C[C@H]1[C@H](C)CC[C@@]2(C(=O)NCCCCCCNC(=O)c3ccc(-c4c5nc(c(-c6ccccc6)c6ccc([nH]6)c(-c6ccccc6)c6nc(c(-c7ccccc7)c7ccc4[nH]7)C=C6)C=C5)cc3)CC[C@@]3(C)C(=CC[C@@H]4[C@@]5(C)CC[C@H](O)C(C)(C)[C@@H]5CC[C@]43C)[C@H]12
REMARK SMILES IDX 14 1 13 2 12 3 11 4 10 5 8 6 9 7 7 9 1 10 2 11 3 12 90 13
REMARK SMILES IDX 4 14 5 15 72 16 6 17 68 18 70 19 73 20 69 21 71 22 88 23
REMARK SMILES IDX 74 24 75 25 87 26 89 27 76 28 86 29 77 30 78 31 85 32 79 33
REMARK SMILES IDX 82 34 80 35 83 36 84 37 81 38 15 40 16 41 17 42 18 43 19 45
REMARK SMILES IDX 20 46 21 47 67 48 22 49 66 50 23 51 24 52 25 53 60 54 26 55
REMARK SMILES IDX 65 56 59 57 61 58 27 59 64 60 58 61 57 62 28 64 50 65 35 66
REMARK SMILES IDX 49 67 36 68 39 69 48 70 62 71 37 72 38 73 47 75 63 76 40 77
REMARK SMILES IDX 29 78 30 79 34 80 31 81 33 82 32 83 51 84 52 85 56 86 53 87
REMARK SMILES IDX 55 88 54 89 41 90 42 91 46 92 43 93 45 94 44 95
REMARK H PARENT 10 8 81 39 17 44 61 63 39 74
REMARK Flexibility Score: inf
ROOT
ATOM      1  C   UNL A   1      34.715  31.695  27.634  1.00  0.00     0.002 C 
ENDROOT
BRANCH   1   2
ATOM      2  C   UNL A   1      34.778  30.272  28.198  1.00  0.00     0.002 C 
BRANCH   2   3
ATOM      3  C   UNL A   1      35.365  29.141  27.341  1.00  0.00     0.021 C 
BRANCH   3   4
ATOM      4  C   UNL A   1      34.419  28.335  26.446  1.00  0.00     0.116 C 
BRANCH   4   5
ATOM      5  N   UNL A   1      34.025  28.993  25.215  1.00  0.00    -0.356 N 
ATOM      6  C   UNL A   1      32.825  29.020  24.553  1.00  0.00     0.226 C 
ATOM      7  O   UNL A   1      32.932  28.985  23.319  1.00  0.00    -0.274 OA
ATOM      8  H   UNL A   1      34.742  29.508  24.780  1.00  0.00     0.163 HD
BRANCH   6   9
ATOM      9  C   UNL A   1      31.404  29.160  25.231  1.00  0.00     0.056 C 
ATOM     10  C   UNL A   1      28.679  29.106  22.363  1.00  0.00     0.008 C 
ATOM     11  C   UNL A   1      29.838  29.632  23.224  1.00  0.00    -0.003 C 
ATOM     12  C   UNL A   1      29.452  31.005  23.875  1.00  0.00    -0.011 C 
ATOM     13  C   UNL A   1      30.253  28.621  24.328  1.00  0.00     0.034 C 
ATOM     14  C   UNL A   1      29.178  32.136  22.873  1.00  0.00     0.008 C 
ATOM     15  C   UNL A   1      30.468  31.573  24.879  1.00  0.00     0.005 C 
ATOM     16  C   UNL A   1      30.682  27.175  23.978  1.00  0.00    -0.063 C 
ATOM     17  C   UNL A   1      31.187  30.585  25.766  1.00  0.00     0.018 C 
ATOM     18  C   UNL A   1      31.357  28.271  26.534  1.00  0.00     0.018 C 
ATOM     19  C   UNL A   1      30.589  26.149  25.148  1.00  0.00    -0.006 C 
ATOM     20  C   UNL A   1      31.382  26.906  22.855  1.00  0.00    -0.027 C 
ATOM     21  C   UNL A   1      31.364  26.747  26.370  1.00  0.00     0.013 C 
ATOM     22  C   UNL A   1      29.103  25.970  25.558  1.00  0.00     0.017 C 
ATOM     23  C   UNL A   1      31.221  24.703  24.741  1.00  0.00    -0.020 C 
ATOM     24  C   UNL A   1      32.324  25.733  22.713  1.00  0.00     0.032 C 
ATOM     25  C   UNL A   1      32.605  25.030  24.071  1.00  0.00     0.006 C 
ATOM     26  C   UNL A   1      31.381  23.764  25.967  1.00  0.00     0.008 C 
ATOM     27  C   UNL A   1      30.280  23.939  23.758  1.00  0.00     0.012 C 
ATOM     28  C   UNL A   1      33.757  23.937  24.084  1.00  0.00    -0.025 C 
ATOM     29  C   UNL A   1      32.303  22.572  25.704  1.00  0.00     0.005 C 
ATOM     30  C   UNL A   1      33.701  23.112  22.787  1.00  0.00     0.012 C 
ATOM     31  C   UNL A   1      35.133  24.683  24.139  1.00  0.00     0.010 C 
ATOM     32  C   UNL A   1      33.716  23.085  25.409  1.00  0.00     0.003 C 
ATOM     33  C   UNL A   1      36.340  23.757  24.285  1.00  0.00     0.033 C 
ATOM     34  C   UNL A   1      34.868  22.022  25.579  1.00  0.00    -0.006 C 
ATOM     35  C   UNL A   1      36.232  22.772  25.452  1.00  0.00     0.120 C 
ATOM     36  C   UNL A   1      34.767  20.812  24.626  1.00  0.00     0.014 C 
ATOM     37  C   UNL A   1      34.829  21.407  27.009  1.00  0.00     0.014 C 
BRANCH  35  38
ATOM     38  O   UNL A   1      37.325  21.853  25.382  1.00  0.00    -0.393 OA
ATOM     39  H   UNL A   1      38.145  22.339  25.205  1.00  0.00     0.210 HD
ENDBRANCH  35  38
ENDBRANCH   6   9
ENDBRANCH   4   5
ENDBRANCH   3   4
ENDBRANCH   2   3
ENDBRANCH   1   2
BRANCH   1  40
ATOM     40  C   UNL A   1      33.471  32.537  27.909  1.00  0.00     0.021 C 
BRANCH  40  41
ATOM     41  C   UNL A   1      33.631  34.046  28.002  1.00  0.00     0.116 C 
BRANCH  41  42
ATOM     42  N   UNL A   1      33.217  34.605  29.270  1.00  0.00    -0.352 N 
ATOM     43  C   UNL A   1      33.779  34.464  30.515  1.00  0.00     0.251 C 
ATOM     44  H   UNL A   1      32.412  35.170  29.234  1.00  0.00     0.163 HD
ATOM     45  O   UNL A   1      33.221  34.963  31.487  1.00  0.00    -0.269 OA
BRANCH  43  46
ATOM     46  C   UNL A   1      35.031  33.689  30.711  1.00  0.00     0.039 A 
ATOM     47  C   UNL A   1      36.192  34.153  30.085  1.00  0.00     0.014 A 
ATOM     48  C   UNL A   1      35.078  32.510  31.460  1.00  0.00     0.014 A 
ATOM     49  C   UNL A   1      37.394  33.457  30.236  1.00  0.00     0.010 A 
ATOM     50  C   UNL A   1      36.297  31.865  31.685  1.00  0.00     0.010 A 
ATOM     51  C   UNL A   1      37.465  32.320  31.057  1.00  0.00    -0.014 A 
BRANCH  51  52
ATOM     52  C   UNL A   1      38.757  31.609  31.238  1.00  0.00     0.031 A 
ATOM     53  C   UNL A   1      39.724  32.029  32.314  1.00  0.00     0.074 A 
ATOM     54  C   UNL A   1      39.057  30.569  30.434  1.00  0.00     0.049 A 
ATOM     55  N   UNL A   1      40.847  31.463  32.680  1.00  0.00    -0.248 NA
ATOM     56  C   UNL A   1      39.401  33.252  33.065  1.00  0.00     0.031 C 
ATOM     57  C   UNL A   1      38.232  30.097  29.319  1.00  0.00     0.029 A 
ATOM     58  N   UNL A   1      40.125  29.707  30.445  1.00  0.00    -0.354 N 
ATOM     59  C   UNL A   1      41.361  32.261  33.695  1.00  0.00     0.074 A 
ATOM     60  C   UNL A   1      40.463  33.383  33.845  1.00  0.00     0.031 C 
ATOM     61  C   UNL A   1      38.793  28.997  28.793  1.00  0.00     0.029 A 
ATOM     62  C   UNL A   1      40.032  28.707  29.506  1.00  0.00     0.049 A 
ATOM     63  H   UNL A   1      40.884  29.796  31.065  1.00  0.00     0.167 HD
ATOM     64  C   UNL A   1      42.466  32.065  34.455  1.00  0.00     0.031 A 
ATOM     65  C   UNL A   1      40.843  27.662  29.258  1.00  0.00     0.031 A 
ATOM     66  C   UNL A   1      43.361  30.949  34.305  1.00  0.00     0.049 A 
ATOM     67  C   UNL A   1      42.062  27.466  30.116  1.00  0.00     0.074 A 
ATOM     68  C   UNL A   1      44.482  30.632  35.053  1.00  0.00     0.029 A 
ATOM     69  N   UNL A   1      43.240  29.966  33.333  1.00  0.00    -0.354 N 
ATOM     70  N   UNL A   1      42.488  28.184  31.127  1.00  0.00    -0.248 NA
ATOM     71  C   UNL A   1      42.901  26.299  29.809  1.00  0.00     0.031 C 
ATOM     72  C   UNL A   1      45.071  29.491  34.497  1.00  0.00     0.029 A 
ATOM     73  C   UNL A   1      44.278  29.057  33.446  1.00  0.00     0.049 A 
ATOM     74  H   UNL A   1      42.520  29.921  32.662  1.00  0.00     0.167 HD
ATOM     75  C   UNL A   1      43.628  27.543  31.593  1.00  0.00     0.074 A 
ATOM     76  C   UNL A   1      43.809  26.364  30.772  1.00  0.00     0.031 C 
ATOM     77  C   UNL A   1      44.453  27.896  32.610  1.00  0.00     0.031 A 
BRANCH  64  78
ATOM     78  C   UNL A   1      42.771  33.093  35.514  1.00  0.00    -0.014 A 
ATOM     79  C   UNL A   1      42.265  32.970  36.818  1.00  0.00     0.009 A 
ATOM     80  C   UNL A   1      43.603  34.183  35.212  1.00  0.00     0.009 A 
ATOM     81  C   UNL A   1      42.550  33.938  37.784  1.00  0.00     0.001 A 
ATOM     82  C   UNL A   1      43.914  35.130  36.189  1.00  0.00     0.001 A 
ATOM     83  C   UNL A   1      43.379  35.014  37.471  1.00  0.00     0.000 A 
ENDBRANCH  64  78
BRANCH  65  84
ATOM     84  C   UNL A   1      40.513  26.701  28.172  1.00  0.00    -0.014 A 
ATOM     85  C   UNL A   1      39.636  25.630  28.403  1.00  0.00     0.009 A 
ATOM     86  C   UNL A   1      41.081  26.847  26.897  1.00  0.00     0.009 A 
ATOM     87  C   UNL A   1      39.360  24.709  27.390  1.00  0.00     0.001 A 
ATOM     88  C   UNL A   1      40.778  25.943  25.876  1.00  0.00     0.001 A 
ATOM     89  C   UNL A   1      39.926  24.869  26.126  1.00  0.00     0.000 A 
ENDBRANCH  65  84
BRANCH  77  90
ATOM     90  C   UNL A   1      45.605  26.975  32.904  1.00  0.00    -0.014 A 
ATOM     91  C   UNL A   1      46.859  27.154  32.298  1.00  0.00     0.009 A 
ATOM     92  C   UNL A   1      45.432  25.914  33.807  1.00  0.00     0.009 A 
ATOM     93  C   UNL A   1      47.898  26.254  32.548  1.00  0.00     0.001 A 
ATOM     94  C   UNL A   1      46.484  25.040  34.084  1.00  0.00     0.001 A 
ATOM     95  C   UNL A   1      47.710  25.201  33.442  1.00  0.00     0.000 A 
ENDBRANCH  77  90
ENDBRANCH  51  52
ENDBRANCH  43  46
ENDBRANCH  41  42
ENDBRANCH  40  41
ENDBRANCH   1  40
TORSDOF 14
ENDMDL
MODEL 3
REMARK VINA RESULT:     -12.2      3.269      9.221
REMARK SMILES C[C@H]1[C@H](C)CC[C@@]2(C(=O)NCCCCCCNC(=O)c3ccc(-c4c5nc(c(-c6ccccc6)c6ccc([nH]6)c(-c6ccccc6)c6nc(c(-c7ccccc7)c7ccc4[nH]7)C=C6)C=C5)cc3)CC[C@@]3(C)C(=CC[C@@H]4[C@@]5(C)CC[C@H](O)C(C)(C)[C@@H]5CC[C@]43C)[C@H]12
REMARK SMILES IDX 14 1 13 2 12 3 11 4 10 5 8 6 9 7 7 9 1 10 2 11 3 12 90 13
REMARK SMILES IDX 4 14 5 15 72 16 6 17 68 18 70 19 73 20 69 21 71 22 88 23
REMARK SMILES IDX 74 24 75 25 87 26 89 27 76 28 86 29 77 30 78 31 85 32 79 33
REMARK SMILES IDX 82 34 80 35 83 36 84 37 81 38 15 40 16 41 17 42 18 43 19 45
REMARK SMILES IDX 20 46 21 47 67 48 22 49 66 50 23 51 24 52 25 53 60 54 26 55
REMARK SMILES IDX 65 56 59 57 61 58 27 59 64 60 58 61 57 62 28 64 50 65 35 66
REMARK SMILES IDX 49 67 36 68 39 69 48 70 62 71 37 72 38 73 47 75 63 76 40 77
REMARK SMILES IDX 29 78 30 79 34 80 31 81 33 82 32 83 51 84 52 85 56 86 53 87
REMARK SMILES IDX 55 88 54 89 41 90 42 91 46 92 43 93 45 94 44 95
REMARK H PARENT 10 8 81 39 17 44 61 63 39 74
REMARK Flexibility Score: inf
ROOT
ATOM      1  C   UNL A   1      34.891  31.628  27.656  1.00  0.00     0.002 C 
ENDROOT
BRANCH   1   2
ATOM      2  C   UNL A   1      34.775  30.204  28.211  1.00  0.00     0.002 C 
BRANCH   2   3
ATOM      3  C   UNL A   1      35.323  29.024  27.394  1.00  0.00     0.021 C 
BRANCH   3   4
ATOM      4  C   UNL A   1      34.372  28.285  26.450  1.00  0.00     0.116 C 
BRANCH   4   5
ATOM      5  N   UNL A   1      34.016  29.007  25.243  1.00  0.00    -0.356 N 
ATOM      6  C   UNL A   1      32.833  29.081  24.553  1.00  0.00     0.226 C 
ATOM      7  O   UNL A   1      32.972  29.105  23.322  1.00  0.00    -0.274 OA
ATOM      8  H   UNL A   1      34.750  29.534  24.851  1.00  0.00     0.163 HD
BRANCH   6   9
ATOM      9  C   UNL A   1      31.397  29.206  25.202  1.00  0.00     0.056 C 
ATOM     10  C   UNL A   1      28.733  29.129  22.278  1.00  0.00     0.008 C 
ATOM     11  C   UNL A   1      29.868  29.666  23.164  1.00  0.00    -0.003 C 
ATOM     12  C   UNL A   1      29.456  31.033  23.809  1.00  0.00    -0.011 C 
ATOM     13  C   UNL A   1      30.270  28.657  24.275  1.00  0.00     0.034 C 
ATOM     14  C   UNL A   1      29.191  32.164  22.803  1.00  0.00     0.008 C 
ATOM     15  C   UNL A   1      30.444  31.610  24.834  1.00  0.00     0.005 C 
ATOM     16  C   UNL A   1      30.722  27.216  23.931  1.00  0.00    -0.063 C 
ATOM     17  C   UNL A   1      31.155  30.628  25.734  1.00  0.00     0.018 C 
ATOM     18  C   UNL A   1      31.332  28.314  26.503  1.00  0.00     0.018 C 
ATOM     19  C   UNL A   1      30.614  26.187  25.097  1.00  0.00    -0.006 C 
ATOM     20  C   UNL A   1      31.448  26.956  22.823  1.00  0.00    -0.027 C 
ATOM     21  C   UNL A   1      31.358  26.790  26.336  1.00  0.00     0.013 C 
ATOM     22  C   UNL A   1      29.122  25.992  25.476  1.00  0.00     0.017 C 
ATOM     23  C   UNL A   1      31.270  24.748  24.701  1.00  0.00    -0.020 C 
ATOM     24  C   UNL A   1      32.404  25.793  22.698  1.00  0.00     0.032 C 
ATOM     25  C   UNL A   1      32.664  25.090  24.060  1.00  0.00     0.006 C 
ATOM     26  C   UNL A   1      31.414  23.809  25.928  1.00  0.00     0.008 C 
ATOM     27  C   UNL A   1      30.357  23.976  23.697  1.00  0.00     0.012 C 
ATOM     28  C   UNL A   1      33.826  24.009  24.096  1.00  0.00    -0.025 C 
ATOM     29  C   UNL A   1      32.352  22.626  25.683  1.00  0.00     0.005 C 
ATOM     30  C   UNL A   1      33.806  23.186  22.796  1.00  0.00     0.012 C 
ATOM     31  C   UNL A   1      35.193  24.768  24.180  1.00  0.00     0.010 C 
ATOM     32  C   UNL A   1      33.766  23.153  25.418  1.00  0.00     0.003 C 
ATOM     33  C   UNL A   1      36.406  23.854  24.349  1.00  0.00     0.033 C 
ATOM     34  C   UNL A   1      34.925  22.102  25.610  1.00  0.00    -0.006 C 
ATOM     35  C   UNL A   1      36.284  22.866  25.513  1.00  0.00     0.120 C 
ATOM     36  C   UNL A   1      34.855  20.893  24.653  1.00  0.00     0.014 C 
ATOM     37  C   UNL A   1      34.863  21.484  27.038  1.00  0.00     0.014 C 
BRANCH  35  38
ATOM     38  O   UNL A   1      37.387  21.958  25.464  1.00  0.00    -0.393 OA
ATOM     39  H   UNL A   1      37.108  21.091  25.794  1.00  0.00     0.210 HD
ENDBRANCH  35  38
ENDBRANCH   6   9
ENDBRANCH   4   5
ENDBRANCH   3   4
ENDBRANCH   2   3
ENDBRANCH   1   2
BRANCH   1  40
ATOM     40  C   UNL A   1      33.666  32.538  27.714  1.00  0.00     0.021 C 
BRANCH  40  41
ATOM     41  C   UNL A   1      33.888  34.032  27.881  1.00  0.00     0.116 C 
BRANCH  41  42
ATOM     42  N   UNL A   1      33.320  34.580  29.093  1.00  0.00    -0.352 N 
ATOM     43  C   UNL A   1      33.750  34.466  30.392  1.00  0.00     0.251 C 
ATOM     44  H   UNL A   1      32.503  35.115  28.967  1.00  0.00     0.163 HD
ATOM     45  O   UNL A   1      33.073  34.947  31.294  1.00  0.00    -0.269 OA
BRANCH  43  46
ATOM     46  C   UNL A   1      35.002  33.740  30.727  1.00  0.00     0.039 A 
ATOM     47  C   UNL A   1      34.903  32.604  31.536  1.00  0.00     0.014 A 
ATOM     48  C   UNL A   1      36.261  34.171  30.299  1.00  0.00     0.014 A 
ATOM     49  C   UNL A   1      36.051  31.889  31.882  1.00  0.00     0.010 A 
ATOM     50  C   UNL A   1      37.398  33.405  30.570  1.00  0.00     0.010 A 
ATOM     51  C   UNL A   1      37.308  32.268  31.384  1.00  0.00    -0.014 A 
BRANCH  51  52
ATOM     52  C   UNL A   1      38.519  31.478  31.731  1.00  0.00     0.031 A 
ATOM     53  C   UNL A   1      38.946  30.310  30.882  1.00  0.00     0.074 A 
ATOM     54  C   UNL A   1      39.245  31.823  32.813  1.00  0.00     0.049 A 
ATOM     55  N   UNL A   1      40.025  29.573  30.976  1.00  0.00    -0.248 NA
ATOM     56  C   UNL A   1      38.038  29.900  29.799  1.00  0.00     0.031 C 
ATOM     57  C   UNL A   1      38.908  32.900  33.748  1.00  0.00     0.029 A 
ATOM     58  N   UNL A   1      40.428  31.322  33.296  1.00  0.00    -0.354 N 
ATOM     59  C   UNL A   1      39.922  28.617  29.973  1.00  0.00     0.074 A 
ATOM     60  C   UNL A   1      38.648  28.825  29.322  1.00  0.00     0.031 C 
ATOM     61  C   UNL A   1      39.890  33.017  34.655  1.00  0.00     0.029 A 
ATOM     62  C   UNL A   1      40.906  32.004  34.389  1.00  0.00     0.049 A 
ATOM     63  H   UNL A   1      40.889  30.550  32.898  1.00  0.00     0.167 HD
ATOM     64  C   UNL A   1      40.817  27.668  29.605  1.00  0.00     0.031 A 
ATOM     65  C   UNL A   1      42.044  31.844  35.090  1.00  0.00     0.031 A 
ATOM     66  C   UNL A   1      42.084  27.460  30.255  1.00  0.00     0.049 A 
ATOM     67  C   UNL A   1      43.022  30.786  34.661  1.00  0.00     0.074 A 
ATOM     68  C   UNL A   1      43.083  26.558  29.931  1.00  0.00     0.029 A 
ATOM     69  N   UNL A   1      42.525  28.162  31.367  1.00  0.00    -0.354 N 
ATOM     70  N   UNL A   1      42.946  29.946  33.657  1.00  0.00    -0.248 NA
ATOM     71  C   UNL A   1      44.254  30.669  35.454  1.00  0.00     0.031 C 
ATOM     72  C   UNL A   1      44.102  26.674  30.883  1.00  0.00     0.029 A 
ATOM     73  C   UNL A   1      43.770  27.696  31.758  1.00  0.00     0.049 A 
ATOM     74  H   UNL A   1      42.027  28.885  31.812  1.00  0.00     0.167 HD
ATOM     75  C   UNL A   1      44.130  29.220  33.681  1.00  0.00     0.074 A 
ATOM     76  C   UNL A   1      44.915  29.739  34.782  1.00  0.00     0.031 C 
ATOM     77  C   UNL A   1      44.532  28.214  32.866  1.00  0.00     0.031 A 
BRANCH  64  78
ATOM     78  C   UNL A   1      40.447  26.775  28.450  1.00  0.00    -0.014 A 
ATOM     79  C   UNL A   1      40.972  26.989  27.165  1.00  0.00     0.009 A 
ATOM     80  C   UNL A   1      39.585  25.686  28.655  1.00  0.00     0.009 A 
ATOM     81  C   UNL A   1      40.610  26.156  26.102  1.00  0.00     0.001 A 
ATOM     82  C   UNL A   1      39.251  24.836  27.599  1.00  0.00     0.001 A 
ATOM     83  C   UNL A   1      39.755  25.078  26.321  1.00  0.00     0.000 A 
ENDBRANCH  64  78
BRANCH  65  84
ATOM     84  C   UNL A   1      42.339  32.730  36.249  1.00  0.00    -0.014 A 
ATOM     85  C   UNL A   1      41.906  32.390  37.540  1.00  0.00     0.009 A 
ATOM     86  C   UNL A   1      43.052  33.925  36.067  1.00  0.00     0.009 A 
ATOM     87  C   UNL A   1      42.153  33.243  38.618  1.00  0.00     0.001 A 
ATOM     88  C   UNL A   1      43.326  34.761  37.152  1.00  0.00     0.001 A 
ATOM     89  C   UNL A   1      42.867  34.425  38.424  1.00  0.00     0.000 A 
ENDBRANCH  65  84
BRANCH  77  90
ATOM     90  C   UNL A   1      45.896  27.634  33.122  1.00  0.00    -0.014 A 
ATOM     91  C   UNL A   1      47.047  28.174  32.525  1.00  0.00     0.009 A 
ATOM     92  C   UNL A   1      46.031  26.532  33.982  1.00  0.00     0.009 A 
ATOM     93  C   UNL A   1      48.295  27.586  32.739  1.00  0.00     0.001 A 
ATOM     94  C   UNL A   1      47.285  25.970  34.224  1.00  0.00     0.001 A 
ATOM     95  C   UNL A   1      48.413  26.487  33.590  1.00  0.00     0.000 A 
ENDBRANCH  77  90
ENDBRANCH  51  52
ENDBRANCH  43  46
ENDBRANCH  41  42
ENDBRANCH  40  41
ENDBRANCH   1  40
TORSDOF 14
ENDMDL
