MODEL 1
REMARK VINA RESULT:     -10.9      0.000      0.000
REMARK SMILES C=Cc1cncc(-c2ccc([C@@H](C)C(=O)NCCCCCCNC(=O)c3ccc(-c4c5nc(c(-c6ccccc6)c6ccc([nH]6)c(-c6ccccc6)c6nc(c(-c7ccccc7)c7ccc4[nH]7)C=C6)C=C5)cc3)cc2)c1
REMARK SMILES IDX 19 1 18 2 17 3 16 4 14 5 15 6 12 8 13 9 11 10 8 11 9 12
REMARK SMILES IDX 75 13 10 14 74 15 7 16 3 17 4 18 76 19 5 20 6 21 2 22 1 23
REMARK SMILES IDX 20 24 21 25 22 26 23 27 24 28 25 30 26 31 27 32 73 33 28 34
REMARK SMILES IDX 72 35 29 36 30 37 31 38 66 39 32 40 71 41 65 42 67 43 33 44
REMARK SMILES IDX 70 45 64 46 63 47 34 49 56 50 41 51 55 52 42 53 45 54 54 55
REMARK SMILES IDX 68 56 43 57 44 58 53 60 69 61 46 62 35 63 36 64 40 65 37 66
REMARK SMILES IDX 39 67 38 68 57 69 58 70 62 71 59 72 61 73 60 74 47 75 48 76
REMARK SMILES IDX 52 77 49 78 51 79 50 80
REMARK H PARENT 16 7 23 29 67 48 45 59
REMARK Flexibility Score: inf
ROOT
ATOM      1  C   UNL A   1      37.284  22.482  25.439  1.00  0.00     0.002 C 
ENDROOT
BRANCH   1   2
ATOM      2  C   UNL A   1      36.565  23.635  24.732  1.00  0.00     0.021 C 
BRANCH   2   3
ATOM      3  C   UNL A   1      35.239  24.024  25.390  1.00  0.00     0.116 C 
BRANCH   3   4
ATOM      4  N   UNL A   1      34.308  24.566  24.424  1.00  0.00    -0.356 N 
ATOM      5  C   UNL A   1      33.104  25.182  24.573  1.00  0.00     0.227 C 
ATOM      6  O   UNL A   1      32.487  25.436  23.532  1.00  0.00    -0.274 OA
ATOM      7  H   UNL A   1      34.599  24.471  23.489  1.00  0.00     0.163 HD
BRANCH   5   8
ATOM      8  C   UNL A   1      32.512  25.587  25.933  1.00  0.00     0.105 C 
ATOM      9  C   UNL A   1      31.121  25.007  26.191  1.00  0.00     0.023 C 
BRANCH   8  10
ATOM     10  C   UNL A   1      32.687  27.060  26.270  1.00  0.00    -0.036 A 
ATOM     11  C   UNL A   1      32.994  29.797  27.050  1.00  0.00    -0.017 A 
ATOM     12  C   UNL A   1      34.051  29.062  26.493  1.00  0.00     0.009 A 
ATOM     13  C   UNL A   1      31.765  29.134  27.187  1.00  0.00     0.009 A 
ATOM     14  C   UNL A   1      33.890  27.740  26.073  1.00  0.00     0.005 A 
ATOM     15  C   UNL A   1      31.620  27.785  26.822  1.00  0.00     0.005 A 
BRANCH  11  16
ATOM     16  C   UNL A   1      33.197  31.203  27.451  1.00  0.00     0.001 A 
ATOM     17  C   UNL A   1      34.542  33.028  28.356  1.00  0.00    -0.007 A 
ATOM     18  C   UNL A   1      33.478  33.880  28.075  1.00  0.00     0.119 A 
ATOM     19  C   UNL A   1      34.383  31.671  28.040  1.00  0.00     0.020 A 
ATOM     20  N   UNL A   1      32.313  33.486  27.520  1.00  0.00    -0.263 NA
ATOM     21  C   UNL A   1      32.205  32.168  27.234  1.00  0.00     0.119 A 
BRANCH  17  22
ATOM     22  C   UNL A   1      35.741  33.567  29.003  1.00  0.00     0.002 C 
ATOM     23  C   UNL A   1      36.993  33.244  28.655  1.00  0.00     0.009 C 
ENDBRANCH  17  22
ENDBRANCH  11  16
ENDBRANCH   8  10
ENDBRANCH   5   8
ENDBRANCH   3   4
ENDBRANCH   2   3
ENDBRANCH   1   2
BRANCH   1  24
ATOM     24  C   UNL A   1      36.828  21.080  25.014  1.00  0.00     0.002 C 
BRANCH  24  25
ATOM     25  C   UNL A   1      37.927  20.014  25.012  1.00  0.00     0.021 C 
BRANCH  25  26
ATOM     26  C   UNL A   1      39.172  20.406  25.797  1.00  0.00     0.116 C 
BRANCH  26  27
ATOM     27  N   UNL A   1      40.125  19.308  25.877  1.00  0.00    -0.352 N 
ATOM     28  C   UNL A   1      41.486  19.359  26.067  1.00  0.00     0.251 C 
ATOM     29  H   UNL A   1      39.743  18.406  25.782  1.00  0.00     0.163 HD
ATOM     30  O   UNL A   1      42.186  18.375  25.875  1.00  0.00    -0.269 OA
BRANCH  28  31
ATOM     31  C   UNL A   1      42.092  20.632  26.503  1.00  0.00     0.039 A 
ATOM     32  C   UNL A   1      42.567  21.533  25.547  1.00  0.00     0.014 A 
ATOM     33  C   UNL A   1      42.157  20.936  27.864  1.00  0.00     0.014 A 
ATOM     34  C   UNL A   1      43.048  22.778  25.957  1.00  0.00     0.010 A 
ATOM     35  C   UNL A   1      42.566  22.200  28.263  1.00  0.00     0.010 A 
ATOM     36  C   UNL A   1      43.017  23.133  27.314  1.00  0.00    -0.014 A 
BRANCH  36  37
ATOM     37  C   UNL A   1      43.463  24.462  27.796  1.00  0.00     0.031 A 
ATOM     38  C   UNL A   1      42.435  25.500  28.149  1.00  0.00     0.074 A 
ATOM     39  C   UNL A   1      44.773  24.774  27.806  1.00  0.00     0.049 A 
ATOM     40  N   UNL A   1      42.596  26.772  28.406  1.00  0.00    -0.248 NA
ATOM     41  C   UNL A   1      41.032  25.051  28.183  1.00  0.00     0.031 C 
ATOM     42  C   UNL A   1      45.868  23.860  27.472  1.00  0.00     0.029 A 
ATOM     43  N   UNL A   1      45.404  25.961  28.083  1.00  0.00    -0.354 N 
ATOM     44  C   UNL A   1      41.318  27.280  28.601  1.00  0.00     0.074 A 
ATOM     45  C   UNL A   1      40.390  26.190  28.388  1.00  0.00     0.031 C 
ATOM     46  C   UNL A   1      47.035  24.517  27.574  1.00  0.00     0.029 A 
ATOM     47  C   UNL A   1      46.768  25.909  27.925  1.00  0.00     0.049 A 
ATOM     48  H   UNL A   1      44.925  26.771  28.371  1.00  0.00     0.167 HD
ATOM     49  C   UNL A   1      40.950  28.538  28.938  1.00  0.00     0.031 A 
ATOM     50  C   UNL A   1      47.697  26.880  28.022  1.00  0.00     0.031 A 
ATOM     51  C   UNL A   1      41.878  29.614  29.156  1.00  0.00     0.049 A 
ATOM     52  C   UNL A   1      47.260  28.281  28.359  1.00  0.00     0.074 A 
ATOM     53  C   UNL A   1      41.610  30.914  29.548  1.00  0.00     0.029 A 
ATOM     54  N   UNL A   1      43.251  29.514  28.999  1.00  0.00    -0.354 N 
ATOM     55  N   UNL A   1      46.053  28.737  28.586  1.00  0.00    -0.248 NA
ATOM     56  C   UNL A   1      48.316  29.300  28.455  1.00  0.00     0.031 C 
ATOM     57  C   UNL A   1      42.818  31.617  29.573  1.00  0.00     0.029 A 
ATOM     58  C   UNL A   1      43.844  30.736  29.264  1.00  0.00     0.049 A 
ATOM     59  H   UNL A   1      43.733  28.697  28.737  1.00  0.00     0.167 HD
ATOM     60  C   UNL A   1      46.207  30.083  28.894  1.00  0.00     0.074 A 
ATOM     61  C   UNL A   1      47.624  30.370  28.825  1.00  0.00     0.031 C 
ATOM     62  C   UNL A   1      45.259  30.998  29.210  1.00  0.00     0.031 A 
BRANCH  49  63
ATOM     63  C   UNL A   1      39.479  28.819  29.073  1.00  0.00    -0.014 A 
ATOM     64  C   UNL A   1      38.823  28.694  30.307  1.00  0.00     0.009 A 
ATOM     65  C   UNL A   1      38.746  29.245  27.955  1.00  0.00     0.009 A 
ATOM     66  C   UNL A   1      37.454  28.951  30.410  1.00  0.00     0.001 A 
ATOM     67  C   UNL A   1      37.385  29.535  28.067  1.00  0.00     0.001 A 
ATOM     68  C   UNL A   1      36.738  29.377  29.292  1.00  0.00     0.000 A 
ENDBRANCH  49  63
BRANCH  50  69
ATOM     69  C   UNL A   1      49.132  26.568  27.798  1.00  0.00    -0.014 A 
ATOM     70  C   UNL A   1      49.651  26.505  26.495  1.00  0.00     0.009 A 
ATOM     71  C   UNL A   1      49.992  26.322  28.881  1.00  0.00     0.009 A 
ATOM     72  C   UNL A   1      50.990  26.173  26.280  1.00  0.00     0.001 A 
ATOM     73  C   UNL A   1      51.339  26.022  28.664  1.00  0.00     0.001 A 
ATOM     74  C   UNL A   1      51.835  25.937  27.364  1.00  0.00     0.000 A 
ENDBRANCH  50  69
BRANCH  62  75
ATOM     75  C   UNL A   1      45.717  32.383  29.573  1.00  0.00    -0.014 A 
ATOM     76  C   UNL A   1      45.822  33.397  28.610  1.00  0.00     0.009 A 
ATOM     77  C   UNL A   1      45.961  32.694  30.921  1.00  0.00     0.009 A 
ATOM     78  C   UNL A   1      46.180  34.692  28.990  1.00  0.00     0.001 A 
ATOM     79  C   UNL A   1      46.289  33.995  31.300  1.00  0.00     0.001 A 
ATOM     80  C   UNL A   1      46.403  34.992  30.334  1.00  0.00     0.000 A 
ENDBRANCH  62  75
ENDBRANCH  36  37
ENDBRANCH  28  31
ENDBRANCH  26  27
ENDBRANCH  25  26
ENDBRANCH  24  25
ENDBRANCH   1  24
TORSDOF 16
ENDMDL
MODEL 2
REMARK VINA RESULT:     -10.8      3.876      9.033
REMARK SMILES C=Cc1cncc(-c2ccc([C@@H](C)C(=O)NCCCCCCNC(=O)c3ccc(-c4c5nc(c(-c6ccccc6)c6ccc([nH]6)c(-c6ccccc6)c6nc(c(-c7ccccc7)c7ccc4[nH]7)C=C6)C=C5)cc3)cc2)c1
REMARK SMILES IDX 19 1 18 2 17 3 16 4 14 5 15 6 12 8 13 9 11 10 8 11 9 12
REMARK SMILES IDX 75 13 10 14 74 15 7 16 3 17 4 18 76 19 5 20 6 21 2 22 1 23
REMARK SMILES IDX 20 24 21 25 22 26 23 27 24 28 25 30 26 31 27 32 73 33 28 34
REMARK SMILES IDX 72 35 29 36 30 37 31 38 66 39 32 40 71 41 65 42 67 43 33 44
REMARK SMILES IDX 70 45 64 46 63 47 34 49 56 50 41 51 55 52 42 53 45 54 54 55
REMARK SMILES IDX 68 56 43 57 44 58 53 60 69 61 46 62 35 63 36 64 40 65 37 66
REMARK SMILES IDX 39 67 38 68 57 69 58 70 62 71 59 72 61 73 60 74 47 75 48 76
REMARK SMILES IDX 52 77 49 78 51 79 50 80
REMARK H PARENT 16 7 23 29 67 48 45 59
REMARK Flexibility Score: inf
ROOT
ATOM      1  C   UNL A   1      33.584  28.777  25.947  1.00  0.00     0.002 C 
ENDROOT
BRANCH   1   2
ATOM      2  C   UNL A   1      33.501  27.306  26.369  1.00  0.00     0.021 C 
BRANCH   2   3
ATOM      3  C   UNL A   1      34.284  26.362  25.453  1.00  0.00     0.116 C 
BRANCH   3   4
ATOM      4  N   UNL A   1      34.095  24.979  25.833  1.00  0.00    -0.356 N 
ATOM      5  C   UNL A   1      33.391  23.969  25.255  1.00  0.00     0.227 C 
ATOM      6  O   UNL A   1      33.331  22.910  25.890  1.00  0.00    -0.274 OA
ATOM      7  H   UNL A   1      34.561  24.722  26.661  1.00  0.00     0.163 HD
BRANCH   5   8
ATOM      8  C   UNL A   1      32.712  24.077  23.879  1.00  0.00     0.105 C 
ATOM      9  C   UNL A   1      33.657  23.801  22.708  1.00  0.00     0.023 C 
BRANCH   8  10
ATOM     10  C   UNL A   1      31.809  25.291  23.728  1.00  0.00    -0.036 A 
ATOM     11  C   UNL A   1      30.070  27.525  23.305  1.00  0.00    -0.017 A 
ATOM     12  C   UNL A   1      29.826  26.575  24.308  1.00  0.00     0.009 A 
ATOM     13  C   UNL A   1      31.224  27.344  22.528  1.00  0.00     0.009 A 
ATOM     14  C   UNL A   1      30.697  25.509  24.542  1.00  0.00     0.005 A 
ATOM     15  C   UNL A   1      32.068  26.237  22.723  1.00  0.00     0.005 A 
BRANCH  11  16
ATOM     16  C   UNL A   1      29.141  28.656  23.111  1.00  0.00     0.001 A 
ATOM     17  C   UNL A   1      28.638  30.975  22.536  1.00  0.00    -0.007 A 
ATOM     18  C   UNL A   1      27.290  30.664  22.691  1.00  0.00     0.119 A 
ATOM     19  C   UNL A   1      29.568  29.948  22.758  1.00  0.00     0.020 A 
ATOM     20  N   UNL A   1      26.825  29.446  23.037  1.00  0.00    -0.263 NA
ATOM     21  C   UNL A   1      27.758  28.488  23.242  1.00  0.00     0.119 A 
BRANCH  17  22
ATOM     22  C   UNL A   1      29.024  32.348  22.202  1.00  0.00     0.002 C 
ATOM     23  C   UNL A   1      28.928  33.383  23.045  1.00  0.00     0.009 C 
ENDBRANCH  17  22
ENDBRANCH  11  16
ENDBRANCH   8  10
ENDBRANCH   5   8
ENDBRANCH   3   4
ENDBRANCH   2   3
ENDBRANCH   1   2
BRANCH   1  24
ATOM     24  C   UNL A   1      32.274  29.369  25.412  1.00  0.00     0.002 C 
BRANCH  24  25
ATOM     25  C   UNL A   1      31.700  30.524  26.237  1.00  0.00     0.021 C 
BRANCH  25  26
ATOM     26  C   UNL A   1      32.728  31.233  27.110  1.00  0.00     0.116 C 
BRANCH  26  27
ATOM     27  N   UNL A   1      32.398  32.639  27.296  1.00  0.00    -0.352 N 
ATOM     28  C   UNL A   1      33.032  33.579  28.074  1.00  0.00     0.251 C 
ATOM     29  H   UNL A   1      31.612  32.960  26.797  1.00  0.00     0.163 HD
ATOM     30  O   UNL A   1      32.505  34.654  28.317  1.00  0.00    -0.269 OA
BRANCH  28  31
ATOM     31  C   UNL A   1      34.366  33.261  28.618  1.00  0.00     0.039 A 
ATOM     32  C   UNL A   1      34.472  32.581  29.833  1.00  0.00     0.014 A 
ATOM     33  C   UNL A   1      35.509  33.619  27.899  1.00  0.00     0.014 A 
ATOM     34  C   UNL A   1      35.732  32.195  30.296  1.00  0.00     0.010 A 
ATOM     35  C   UNL A   1      36.752  33.170  28.324  1.00  0.00     0.010 A 
ATOM     36  C   UNL A   1      36.875  32.455  29.527  1.00  0.00    -0.014 A 
BRANCH  36  37
ATOM     37  C   UNL A   1      38.229  32.017  29.944  1.00  0.00     0.031 A 
ATOM     38  C   UNL A   1      38.770  30.712  29.434  1.00  0.00     0.074 A 
ATOM     39  C   UNL A   1      38.915  32.725  30.862  1.00  0.00     0.049 A 
ATOM     40  N   UNL A   1      39.834  30.052  29.812  1.00  0.00    -0.248 NA
ATOM     41  C   UNL A   1      37.989  30.043  28.379  1.00  0.00     0.031 C 
ATOM     42  C   UNL A   1      38.492  34.000  31.446  1.00  0.00     0.029 A 
ATOM     43  N   UNL A   1      40.107  32.454  31.487  1.00  0.00    -0.354 N 
ATOM     44  C   UNL A   1      39.833  28.880  29.066  1.00  0.00     0.074 A 
ATOM     45  C   UNL A   1      38.640  28.899  28.247  1.00  0.00     0.031 C 
ATOM     46  C   UNL A   1      39.414  34.404  32.334  1.00  0.00     0.029 A 
ATOM     47  C   UNL A   1      40.463  33.392  32.425  1.00  0.00     0.049 A 
ATOM     48  H   UNL A   1      40.656  31.663  31.280  1.00  0.00     0.167 HD
ATOM     49  C   UNL A   1      40.748  27.884  29.055  1.00  0.00     0.031 A 
ATOM     50  C   UNL A   1      41.502  33.421  33.282  1.00  0.00     0.031 A 
ATOM     51  C   UNL A   1      41.936  27.876  29.865  1.00  0.00     0.049 A 
ATOM     52  C   UNL A   1      42.486  32.283  33.279  1.00  0.00     0.074 A 
ATOM     53  C   UNL A   1      42.951  26.936  29.893  1.00  0.00     0.029 A 
ATOM     54  N   UNL A   1      42.265  28.854  30.791  1.00  0.00    -0.354 N 
ATOM     55  N   UNL A   1      42.498  31.203  32.536  1.00  0.00    -0.248 NA
ATOM     56  C   UNL A   1      43.602  32.368  34.233  1.00  0.00     0.031 C 
ATOM     57  C   UNL A   1      43.868  27.318  30.877  1.00  0.00     0.029 A 
ATOM     58  C   UNL A   1      43.457  28.529  31.412  1.00  0.00     0.049 A 
ATOM     59  H   UNL A   1      41.730  29.658  30.978  1.00  0.00     0.167 HD
ATOM     60  C   UNL A   1      43.641  30.503  32.901  1.00  0.00     0.074 A 
ATOM     61  C   UNL A   1      44.298  31.280  33.931  1.00  0.00     0.031 C 
ATOM     62  C   UNL A   1      44.107  29.325  32.422  1.00  0.00     0.031 A 
BRANCH  49  63
ATOM     63  C   UNL A   1      40.488  26.711  28.150  1.00  0.00    -0.014 A 
ATOM     64  C   UNL A   1      41.054  26.640  26.868  1.00  0.00     0.009 A 
ATOM     65  C   UNL A   1      39.690  25.647  28.599  1.00  0.00     0.009 A 
ATOM     66  C   UNL A   1      40.793  25.547  26.038  1.00  0.00     0.001 A 
ATOM     67  C   UNL A   1      39.459  24.540  27.782  1.00  0.00     0.001 A 
ATOM     68  C   UNL A   1      40.002  24.496  26.498  1.00  0.00     0.000 A 
ENDBRANCH  49  63
BRANCH  50  69
ATOM     69  C   UNL A   1      41.669  34.565  34.216  1.00  0.00    -0.014 A 
ATOM     70  C   UNL A   1      41.129  34.511  35.510  1.00  0.00     0.009 A 
ATOM     71  C   UNL A   1      42.362  35.721  33.820  1.00  0.00     0.009 A 
ATOM     72  C   UNL A   1      41.251  35.599  36.376  1.00  0.00     0.001 A 
ATOM     73  C   UNL A   1      42.511  36.796  34.700  1.00  0.00     0.001 A 
ATOM     74  C   UNL A   1      41.946  36.739  35.973  1.00  0.00     0.000 A 
ENDBRANCH  50  69
BRANCH  62  75
ATOM     75  C   UNL A   1      45.422  28.826  32.950  1.00  0.00    -0.014 A 
ATOM     76  C   UNL A   1      46.638  29.180  32.347  1.00  0.00     0.009 A 
ATOM     77  C   UNL A   1      45.443  28.058  34.126  1.00  0.00     0.009 A 
ATOM     78  C   UNL A   1      47.848  28.760  32.904  1.00  0.00     0.001 A 
ATOM     79  C   UNL A   1      46.653  27.665  34.696  1.00  0.00     0.001 A 
ATOM     80  C   UNL A   1      47.854  28.012  34.081  1.00  0.00     0.000 A 
ENDBRANCH  62  75
ENDBRANCH  36  37
ENDBRANCH  28  31
ENDBRANCH  26  27
ENDBRANCH  25  26
ENDBRANCH  24  25
ENDBRANCH   1  24
TORSDOF 16
ENDMDL
MODEL 3
REMARK VINA RESULT:     -10.6      3.125      8.851
REMARK SMILES C=Cc1cncc(-c2ccc([C@@H](C)C(=O)NCCCCCCNC(=O)c3ccc(-c4c5nc(c(-c6ccccc6)c6ccc([nH]6)c(-c6ccccc6)c6nc(c(-c7ccccc7)c7ccc4[nH]7)C=C6)C=C5)cc3)cc2)c1
REMARK SMILES IDX 19 1 18 2 17 3 16 4 14 5 15 6 12 8 13 9 11 10 8 11 9 12
REMARK SMILES IDX 75 13 10 14 74 15 7 16 3 17 4 18 76 19 5 20 6 21 2 22 1 23
REMARK SMILES IDX 20 24 21 25 22 26 23 27 24 28 25 30 26 31 27 32 73 33 28 34
REMARK SMILES IDX 72 35 29 36 30 37 31 38 66 39 32 40 71 41 65 42 67 43 33 44
REMARK SMILES IDX 70 45 64 46 63 47 34 49 56 50 41 51 55 52 42 53 45 54 54 55
REMARK SMILES IDX 68 56 43 57 44 58 53 60 69 61 46 62 35 63 36 64 40 65 37 66
REMARK SMILES IDX 39 67 38 68 57 69 58 70 62 71 59 72 61 73 60 74 47 75 48 76
REMARK SMILES IDX 52 77 49 78 51 79 50 80
REMARK H PARENT 16 7 23 29 67 48 45 59
REMARK Flexibility Score: inf
ROOT
ATOM      1  C   UNL A   1      34.009  25.083  23.441  1.00  0.00     0.002 C 
ENDROOT
BRANCH   1   2
ATOM      2  C   UNL A   1      33.581  26.541  23.248  1.00  0.00     0.021 C 
BRANCH   2   3
ATOM      3  C   UNL A   1      32.111  26.797  23.587  1.00  0.00     0.116 C 
BRANCH   3   4
ATOM      4  N   UNL A   1      31.929  27.047  25.000  1.00  0.00    -0.356 N 
ATOM      5  C   UNL A   1      31.103  26.480  25.921  1.00  0.00     0.227 C 
ATOM      6  O   UNL A   1      31.103  26.996  27.045  1.00  0.00    -0.274 OA
ATOM      7  H   UNL A   1      32.509  27.756  25.361  1.00  0.00     0.163 HD
BRANCH   5   8
ATOM      8  C   UNL A   1      30.223  25.252  25.641  1.00  0.00     0.105 C 
ATOM      9  C   UNL A   1      28.984  25.171  26.535  1.00  0.00     0.023 C 
BRANCH   8  10
ATOM     10  C   UNL A   1      31.003  23.956  25.473  1.00  0.00    -0.036 A 
ATOM     11  C   UNL A   1      32.564  21.593  25.063  1.00  0.00    -0.017 A 
ATOM     12  C   UNL A   1      32.482  22.219  26.316  1.00  0.00     0.009 A 
ATOM     13  C   UNL A   1      31.824  22.167  24.019  1.00  0.00     0.009 A 
ATOM     14  C   UNL A   1      31.686  23.347  26.526  1.00  0.00     0.005 A 
ATOM     15  C   UNL A   1      31.072  23.338  24.215  1.00  0.00     0.005 A 
BRANCH  11  16
ATOM     16  C   UNL A   1      33.391  20.382  24.890  1.00  0.00     0.001 A 
ATOM     17  C   UNL A   1      33.688  18.014  24.378  1.00  0.00    -0.007 A 
ATOM     18  C   UNL A   1      35.060  18.214  24.506  1.00  0.00     0.119 A 
ATOM     19  C   UNL A   1      32.852  19.122  24.583  1.00  0.00     0.020 A 
ATOM     20  N   UNL A   1      35.631  19.398  24.808  1.00  0.00    -0.263 NA
ATOM     21  C   UNL A   1      34.786  20.437  24.998  1.00  0.00     0.119 A 
BRANCH  17  22
ATOM     22  C   UNL A   1      33.183  16.669  24.091  1.00  0.00     0.002 C 
ATOM     23  C   UNL A   1      33.174  15.664  24.974  1.00  0.00     0.009 C 
ENDBRANCH  17  22
ENDBRANCH  11  16
ENDBRANCH   8  10
ENDBRANCH   5   8
ENDBRANCH   3   4
ENDBRANCH   2   3
ENDBRANCH   1   2
BRANCH   1  24
ATOM     24  C   UNL A   1      34.626  24.768  24.809  1.00  0.00     0.002 C 
BRANCH  24  25
ATOM     25  C   UNL A   1      35.872  23.879  24.769  1.00  0.00     0.021 C 
BRANCH  25  26
ATOM     26  C   UNL A   1      36.646  23.837  26.081  1.00  0.00     0.116 C 
BRANCH  26  27
ATOM     27  N   UNL A   1      37.671  22.802  26.068  1.00  0.00    -0.352 N 
ATOM     28  C   UNL A   1      39.021  22.921  26.302  1.00  0.00     0.251 C 
ATOM     29  H   UNL A   1      37.354  21.894  25.862  1.00  0.00     0.163 HD
ATOM     30  O   UNL A   1      39.791  22.014  26.023  1.00  0.00    -0.269 OA
BRANCH  28  31
ATOM     31  C   UNL A   1      39.527  24.175  26.893  1.00  0.00     0.039 A 
ATOM     32  C   UNL A   1      40.198  25.097  26.086  1.00  0.00     0.014 A 
ATOM     33  C   UNL A   1      39.306  24.440  28.247  1.00  0.00     0.014 A 
ATOM     34  C   UNL A   1      40.588  26.325  26.626  1.00  0.00     0.010 A 
ATOM     35  C   UNL A   1      39.628  25.688  28.760  1.00  0.00     0.010 A 
ATOM     36  C   UNL A   1      40.273  26.642  27.956  1.00  0.00    -0.014 A 
BRANCH  36  37
ATOM     37  C   UNL A   1      40.614  27.952  28.560  1.00  0.00     0.031 A 
ATOM     38  C   UNL A   1      41.963  28.141  29.194  1.00  0.00     0.074 A 
ATOM     39  C   UNL A   1      39.682  28.921  28.643  1.00  0.00     0.049 A 
ATOM     40  N   UNL A   1      42.398  29.125  29.938  1.00  0.00    -0.248 NA
ATOM     41  C   UNL A   1      42.943  27.061  28.991  1.00  0.00     0.031 C 
ATOM     42  C   UNL A   1      38.331  28.855  28.080  1.00  0.00     0.029 A 
ATOM     43  N   UNL A   1      39.724  30.146  29.261  1.00  0.00    -0.354 N 
ATOM     44  C   UNL A   1      43.686  28.768  30.316  1.00  0.00     0.074 A 
ATOM     45  C   UNL A   1      43.945  27.459  29.757  1.00  0.00     0.031 C 
ATOM     46  C   UNL A   1      37.679  29.992  28.371  1.00  0.00     0.029 A 
ATOM     47  C   UNL A   1      38.542  30.842  29.185  1.00  0.00     0.049 A 
ATOM     48  H   UNL A   1      40.526  30.494  29.713  1.00  0.00     0.167 HD
ATOM     49  C   UNL A   1      44.577  29.472  31.051  1.00  0.00     0.031 A 
ATOM     50  C   UNL A   1      38.183  32.019  29.734  1.00  0.00     0.031 A 
ATOM     51  C   UNL A   1      44.315  30.776  31.597  1.00  0.00     0.049 A 
ATOM     52  C   UNL A   1      39.178  32.766  30.582  1.00  0.00     0.074 A 
ATOM     53  C   UNL A   1      45.169  31.595  32.316  1.00  0.00     0.029 A 
ATOM     54  N   UNL A   1      43.110  31.450  31.483  1.00  0.00    -0.354 N 
ATOM     55  N   UNL A   1      40.409  32.438  30.892  1.00  0.00    -0.248 NA
ATOM     56  C   UNL A   1      38.734  34.046  31.153  1.00  0.00     0.031 C 
ATOM     57  C   UNL A   1      44.460  32.741  32.686  1.00  0.00     0.029 A 
ATOM     58  C   UNL A   1      43.188  32.666  32.139  1.00  0.00     0.049 A 
ATOM     59  H   UNL A   1      42.316  31.115  31.007  1.00  0.00     0.167 HD
ATOM     60  C   UNL A   1      40.900  33.488  31.657  1.00  0.00     0.074 A 
ATOM     61  C   UNL A   1      39.835  34.464  31.763  1.00  0.00     0.031 C 
ATOM     62  C   UNL A   1      42.124  33.634  32.217  1.00  0.00     0.031 A 
BRANCH  49  63
ATOM     63  C   UNL A   1      45.911  28.834  31.323  1.00  0.00    -0.014 A 
ATOM     64  C   UNL A   1      47.027  29.106  30.517  1.00  0.00     0.009 A 
ATOM     65  C   UNL A   1      46.061  27.973  32.421  1.00  0.00     0.009 A 
ATOM     66  C   UNL A   1      48.256  28.496  30.780  1.00  0.00     0.001 A 
ATOM     67  C   UNL A   1      47.298  27.392  32.704  1.00  0.00     0.001 A 
ATOM     68  C   UNL A   1      48.392  27.645  31.876  1.00  0.00     0.000 A 
ENDBRANCH  49  63
BRANCH  50  69
ATOM     69  C   UNL A   1      36.822  32.568  29.502  1.00  0.00    -0.014 A 
ATOM     70  C   UNL A   1      35.768  32.245  30.372  1.00  0.00     0.009 A 
ATOM     71  C   UNL A   1      36.563  33.411  28.410  1.00  0.00     0.009 A 
ATOM     72  C   UNL A   1      34.479  32.728  30.134  1.00  0.00     0.001 A 
ATOM     73  C   UNL A   1      35.280  33.920  28.193  1.00  0.00     0.001 A 
ATOM     74  C   UNL A   1      34.237  33.569  29.049  1.00  0.00     0.000 A 
ENDBRANCH  50  69
BRANCH  62  75
ATOM     75  C   UNL A   1      42.415  34.918  32.941  1.00  0.00    -0.014 A 
ATOM     76  C   UNL A   1      42.035  35.110  34.278  1.00  0.00     0.009 A 
ATOM     77  C   UNL A   1      43.161  35.918  32.294  1.00  0.00     0.009 A 
ATOM     78  C   UNL A   1      42.383  36.286  34.945  1.00  0.00     0.001 A 
ATOM     79  C   UNL A   1      43.532  37.077  32.973  1.00  0.00     0.001 A 
ATOM     80  C   UNL A   1      43.138  37.263  34.296  1.00  0.00     0.000 A 
ENDBRANCH  62  75
ENDBRANCH  36  37
ENDBRANCH  28  31
ENDBRANCH  26  27
ENDBRANCH  25  26
ENDBRANCH  24  25
ENDBRANCH   1  24
TORSDOF 16
ENDMDL
