MODEL 1
REMARK VINA RESULT:      -8.6      0.000      0.000
REMARK SMILES CCC[NH2+][C@H]1C[C@@H](C(=O)NCCCCCCNC(=O)c2ccc(-c3c4nc(c(-c5ccccc5)c5ccc([nH]5)c(-c5ccccc5)c5nc(c(-c6ccccc6)c6ccc3[nH]6)C=C5)C=C4)cc2)C1
REMARK SMILES IDX 13 1 12 2 11 3 10 4 8 5 9 6 7 8 5 9 68 10 6 11 4 12 3 15
REMARK SMILES IDX 2 16 1 17 14 18 15 19 16 20 17 21 18 22 19 24 20 25 21 26
REMARK SMILES IDX 67 27 22 28 66 29 23 30 24 31 25 32 60 33 26 34 65 35 59 36
REMARK SMILES IDX 61 37 27 38 64 39 58 40 57 41 28 43 50 44 35 45 49 46 36 47
REMARK SMILES IDX 39 48 48 49 62 50 37 51 38 52 47 54 63 55 40 56 29 57 30 58
REMARK SMILES IDX 34 59 31 60 33 61 32 62 51 63 52 64 56 65 53 66 55 67 54 68
REMARK SMILES IDX 41 69 42 70 46 71 43 72 45 73 44 74
REMARK H PARENT 10 7 4 13 4 14 17 23 61 42 39 53
REMARK Flexibility Score: inf
ROOT
ATOM      1  C   UNL A   1      34.128  36.460  33.315  1.00  0.00     0.002 C 
ENDROOT
BRANCH   1   2
ATOM      2  C   UNL A   1      34.294  34.957  33.061  1.00  0.00     0.021 C 
BRANCH   2   3
ATOM      3  C   UNL A   1      35.657  34.401  33.468  1.00  0.00     0.116 C 
BRANCH   3   4
ATOM      4  N   UNL A   1      35.713  34.131  34.890  1.00  0.00    -0.356 N 
ATOM      5  C   UNL A   1      36.659  33.498  35.658  1.00  0.00     0.223 C 
ATOM      6  O   UNL A   1      36.377  33.372  36.858  1.00  0.00    -0.275 OA
ATOM      7  H   UNL A   1      34.934  34.460  35.396  1.00  0.00     0.163 HD
BRANCH   5   8
ATOM      8  C   UNL A   1      38.000  33.014  35.077  1.00  0.00     0.090 C 
ATOM      9  C   UNL A   1      39.475  31.435  34.997  1.00  0.00     0.183 C 
ATOM     10  C   UNL A   1      38.071  31.634  34.392  1.00  0.00     0.078 C 
ATOM     11  C   UNL A   1      39.173  32.591  35.987  1.00  0.00     0.078 C 
BRANCH   9  12
ATOM     12  N   UNL A   1      39.650  30.204  35.771  1.00  0.00    -0.344 N 
ATOM     13  H   UNL A   1      39.500  30.427  36.755  1.00  0.00     0.346 HD
ATOM     14  H   UNL A   1      38.977  29.537  35.394  1.00  0.00     0.346 HD
BRANCH  12  15
ATOM     15  C   UNL A   1      40.956  29.568  35.650  1.00  0.00     0.260 C 
BRANCH  15  16
ATOM     16  C   UNL A   1      41.211  29.036  34.236  1.00  0.00     0.058 C 
ATOM     17  C   UNL A   1      41.528  27.548  34.180  1.00  0.00     0.010 C 
ENDBRANCH  15  16
ENDBRANCH  12  15
ENDBRANCH   9  12
ENDBRANCH   5   8
ENDBRANCH   3   4
ENDBRANCH   2   3
ENDBRANCH   1   2
BRANCH   1  18
ATOM     18  C   UNL A   1      33.596  37.267  32.126  1.00  0.00     0.002 C 
BRANCH  18  19
ATOM     19  C   UNL A   1      32.745  36.474  31.131  1.00  0.00     0.021 C 
BRANCH  19  20
ATOM     20  C   UNL A   1      33.257  36.497  29.694  1.00  0.00     0.116 C 
BRANCH  20  21
ATOM     21  N   UNL A   1      32.599  35.506  28.858  1.00  0.00    -0.352 N 
ATOM     22  C   UNL A   1      33.083  34.320  28.369  1.00  0.00     0.251 C 
ATOM     23  H   UNL A   1      31.670  35.717  28.605  1.00  0.00     0.163 HD
ATOM     24  O   UNL A   1      32.445  33.690  27.527  1.00  0.00    -0.269 OA
BRANCH  22  25
ATOM     25  C   UNL A   1      34.387  33.805  28.838  1.00  0.00     0.039 A 
ATOM     26  C   UNL A   1      34.428  33.024  29.995  1.00  0.00     0.014 A 
ATOM     27  C   UNL A   1      35.564  34.095  28.143  1.00  0.00     0.014 A 
ATOM     28  C   UNL A   1      35.643  32.483  30.421  1.00  0.00     0.010 A 
ATOM     29  C   UNL A   1      36.760  33.496  28.527  1.00  0.00     0.010 A 
ATOM     30  C   UNL A   1      36.812  32.686  29.671  1.00  0.00    -0.014 A 
BRANCH  30  31
ATOM     31  C   UNL A   1      38.098  32.059  30.068  1.00  0.00     0.031 A 
ATOM     32  C   UNL A   1      39.049  32.787  30.978  1.00  0.00     0.074 A 
ATOM     33  C   UNL A   1      38.438  30.858  29.562  1.00  0.00     0.049 A 
ATOM     34  N   UNL A   1      40.237  32.425  31.392  1.00  0.00    -0.248 NA
ATOM     35  C   UNL A   1      38.619  34.107  31.469  1.00  0.00     0.031 C 
ATOM     36  C   UNL A   1      37.621  30.063  28.641  1.00  0.00     0.029 A 
ATOM     37  N   UNL A   1      39.566  30.097  29.745  1.00  0.00    -0.354 N 
ATOM     38  C   UNL A   1      40.701  33.474  32.175  1.00  0.00     0.074 A 
ATOM     39  C   UNL A   1      39.690  34.508  32.137  1.00  0.00     0.031 C 
ATOM     40  C   UNL A   1      38.261  28.915  28.366  1.00  0.00     0.029 A 
ATOM     41  C   UNL A   1      39.549  28.911  29.053  1.00  0.00     0.049 A 
ATOM     42  H   UNL A   1      40.316  30.375  30.319  1.00  0.00     0.167 HD
ATOM     43  C   UNL A   1      41.855  33.563  32.879  1.00  0.00     0.031 A 
ATOM     44  C   UNL A   1      40.469  27.932  28.974  1.00  0.00     0.031 A 
ATOM     45  C   UNL A   1      42.857  32.533  32.921  1.00  0.00     0.049 A 
ATOM     46  C   UNL A   1      41.753  28.066  29.743  1.00  0.00     0.074 A 
ATOM     47  C   UNL A   1      44.036  32.506  33.648  1.00  0.00     0.029 A 
ATOM     48  N   UNL A   1      42.804  31.348  32.203  1.00  0.00    -0.354 N 
ATOM     49  N   UNL A   1      42.146  29.035  30.534  1.00  0.00    -0.248 NA
ATOM     50  C   UNL A   1      42.717  26.964  29.617  1.00  0.00     0.031 C 
ATOM     51  C   UNL A   1      44.721  31.330  33.326  1.00  0.00     0.029 A 
ATOM     52  C   UNL A   1      43.940  30.596  32.447  1.00  0.00     0.049 A 
ATOM     53  H   UNL A   1      42.065  31.081  31.608  1.00  0.00     0.167 HD
ATOM     54  C   UNL A   1      43.386  28.645  31.023  1.00  0.00     0.074 A 
ATOM     55  C   UNL A   1      43.673  27.346  30.451  1.00  0.00     0.031 C 
ATOM     56  C   UNL A   1      44.213  29.305  31.871  1.00  0.00     0.031 A 
BRANCH  43  57
ATOM     57  C   UNL A   1      42.096  34.830  33.653  1.00  0.00    -0.014 A 
ATOM     58  C   UNL A   1      42.919  35.849  33.146  1.00  0.00     0.009 A 
ATOM     59  C   UNL A   1      41.466  35.022  34.893  1.00  0.00     0.009 A 
ATOM     60  C   UNL A   1      43.139  37.015  33.884  1.00  0.00     0.001 A 
ATOM     61  C   UNL A   1      41.663  36.202  35.614  1.00  0.00     0.001 A 
ATOM     62  C   UNL A   1      42.508  37.192  35.113  1.00  0.00     0.000 A 
ENDBRANCH  43  57
BRANCH  44  63
ATOM     63  C   UNL A   1      40.206  26.727  28.144  1.00  0.00    -0.014 A 
ATOM     64  C   UNL A   1      39.437  25.667  28.651  1.00  0.00     0.009 A 
ATOM     65  C   UNL A   1      40.729  26.623  26.845  1.00  0.00     0.009 A 
ATOM     66  C   UNL A   1      39.223  24.519  27.886  1.00  0.00     0.001 A 
ATOM     67  C   UNL A   1      40.487  25.487  26.072  1.00  0.00     0.001 A 
ATOM     68  C   UNL A   1      39.743  24.431  26.596  1.00  0.00     0.000 A 
ENDBRANCH  44  63
BRANCH  56  69
ATOM     69  C   UNL A   1      45.490  28.614  32.262  1.00  0.00    -0.014 A 
ATOM     70  C   UNL A   1      46.671  28.784  31.521  1.00  0.00     0.009 A 
ATOM     71  C   UNL A   1      45.519  27.812  33.413  1.00  0.00     0.009 A 
ATOM     72  C   UNL A   1      47.844  28.135  31.908  1.00  0.00     0.001 A 
ATOM     73  C   UNL A   1      46.701  27.190  33.815  1.00  0.00     0.001 A 
ATOM     74  C   UNL A   1      47.861  27.343  33.056  1.00  0.00     0.000 A 
ENDBRANCH  56  69
ENDBRANCH  30  31
ENDBRANCH  22  25
ENDBRANCH  20  21
ENDBRANCH  19  20
ENDBRANCH  18  19
ENDBRANCH   1  18
TORSDOF 16
ENDMDL
MODEL 2
REMARK VINA RESULT:      -8.0      0.484      6.194
REMARK SMILES CCC[NH2+][C@H]1C[C@@H](C(=O)NCCCCCCNC(=O)c2ccc(-c3c4nc(c(-c5ccccc5)c5ccc([nH]5)c(-c5ccccc5)c5nc(c(-c6ccccc6)c6ccc3[nH]6)C=C5)C=C4)cc2)C1
REMARK SMILES IDX 13 1 12 2 11 3 10 4 8 5 9 6 7 8 5 9 68 10 6 11 4 12 3 15
REMARK SMILES IDX 2 16 1 17 14 18 15 19 16 20 17 21 18 22 19 24 20 25 21 26
REMARK SMILES IDX 67 27 22 28 66 29 23 30 24 31 25 32 60 33 26 34 65 35 59 36
REMARK SMILES IDX 61 37 27 38 64 39 58 40 57 41 28 43 50 44 35 45 49 46 36 47
REMARK SMILES IDX 39 48 48 49 62 50 37 51 38 52 47 54 63 55 40 56 29 57 30 58
REMARK SMILES IDX 34 59 31 60 33 61 32 62 51 63 52 64 56 65 53 66 55 67 54 68
REMARK SMILES IDX 41 69 42 70 46 71 43 72 45 73 44 74
REMARK H PARENT 10 7 4 13 4 14 17 23 61 42 39 53
REMARK Flexibility Score: inf
ROOT
ATOM      1  C   UNL A   1      34.039  36.603  33.267  1.00  0.00     0.002 C 
ENDROOT
BRANCH   1   2
ATOM      2  C   UNL A   1      34.376  35.115  33.111  1.00  0.00     0.021 C 
BRANCH   2   3
ATOM      3  C   UNL A   1      35.816  34.759  33.470  1.00  0.00     0.116 C 
BRANCH   3   4
ATOM      4  N   UNL A   1      35.911  34.245  34.821  1.00  0.00    -0.356 N 
ATOM      5  C   UNL A   1      36.762  33.328  35.387  1.00  0.00     0.223 C 
ATOM      6  O   UNL A   1      36.541  33.054  36.575  1.00  0.00    -0.275 OA
ATOM      7  H   UNL A   1      35.247  34.621  35.445  1.00  0.00     0.163 HD
BRANCH   5   8
ATOM      8  C   UNL A   1      37.940  32.711  34.611  1.00  0.00     0.090 C 
ATOM      9  C   UNL A   1      39.418  31.137  34.513  1.00  0.00     0.183 C 
ATOM     10  C   UNL A   1      37.901  31.212  34.247  1.00  0.00     0.078 C 
ATOM     11  C   UNL A   1      39.317  32.487  35.270  1.00  0.00     0.078 C 
BRANCH   9  12
ATOM     12  N   UNL A   1      39.832  30.105  35.468  1.00  0.00    -0.344 N 
ATOM     13  H   UNL A   1      39.921  30.544  36.384  1.00  0.00     0.346 HD
ATOM     14  H   UNL A   1      39.114  29.382  35.427  1.00  0.00     0.346 HD
BRANCH  12  15
ATOM     15  C   UNL A   1      41.091  29.439  35.165  1.00  0.00     0.260 C 
BRANCH  15  16
ATOM     16  C   UNL A   1      42.205  29.836  36.141  1.00  0.00     0.058 C 
ATOM     17  C   UNL A   1      43.202  28.722  36.432  1.00  0.00     0.010 C 
ENDBRANCH  15  16
ENDBRANCH  12  15
ENDBRANCH   9  12
ENDBRANCH   5   8
ENDBRANCH   3   4
ENDBRANCH   2   3
ENDBRANCH   1   2
BRANCH   1  18
ATOM     18  C   UNL A   1      33.470  37.277  32.015  1.00  0.00     0.002 C 
BRANCH  18  19
ATOM     19  C   UNL A   1      32.721  36.346  31.058  1.00  0.00     0.021 C 
BRANCH  19  20
ATOM     20  C   UNL A   1      33.217  36.378  29.616  1.00  0.00     0.116 C 
BRANCH  20  21
ATOM     21  N   UNL A   1      32.609  35.341  28.799  1.00  0.00    -0.352 N 
ATOM     22  C   UNL A   1      33.156  34.179  28.320  1.00  0.00     0.251 C 
ATOM     23  H   UNL A   1      31.667  35.495  28.555  1.00  0.00     0.163 HD
ATOM     24  O   UNL A   1      32.547  33.503  27.493  1.00  0.00    -0.269 OA
BRANCH  22  25
ATOM     25  C   UNL A   1      34.492  33.746  28.779  1.00  0.00     0.039 A 
ATOM     26  C   UNL A   1      34.595  33.015  29.965  1.00  0.00     0.014 A 
ATOM     27  C   UNL A   1      35.640  34.063  28.048  1.00  0.00     0.014 A 
ATOM     28  C   UNL A   1      35.843  32.550  30.386  1.00  0.00     0.010 A 
ATOM     29  C   UNL A   1      36.871  33.538  28.428  1.00  0.00     0.010 A 
ATOM     30  C   UNL A   1      36.986  32.779  29.603  1.00  0.00    -0.014 A 
BRANCH  30  31
ATOM     31  C   UNL A   1      38.308  32.230  29.996  1.00  0.00     0.031 A 
ATOM     32  C   UNL A   1      38.749  30.882  29.497  1.00  0.00     0.074 A 
ATOM     33  C   UNL A   1      39.088  32.920  30.851  1.00  0.00     0.049 A 
ATOM     34  N   UNL A   1      39.843  30.216  29.774  1.00  0.00    -0.248 NA
ATOM     35  C   UNL A   1      37.831  30.177  28.588  1.00  0.00     0.031 C 
ATOM     36  C   UNL A   1      38.761  34.224  31.435  1.00  0.00     0.029 A 
ATOM     37  N   UNL A   1      40.316  32.617  31.383  1.00  0.00    -0.354 N 
ATOM     38  C   UNL A   1      39.737  29.013  29.087  1.00  0.00     0.074 A 
ATOM     39  C   UNL A   1      38.451  29.018  28.425  1.00  0.00     0.031 C 
ATOM     40  C   UNL A   1      39.776  34.620  32.219  1.00  0.00     0.029 A 
ATOM     41  C   UNL A   1      40.803  33.584  32.229  1.00  0.00     0.049 A 
ATOM     42  H   UNL A   1      40.802  31.786  31.178  1.00  0.00     0.167 HD
ATOM     43  C   UNL A   1      40.634  28.003  28.999  1.00  0.00     0.031 A 
ATOM     44  C   UNL A   1      41.947  33.629  32.938  1.00  0.00     0.031 A 
ATOM     45  C   UNL A   1      41.916  28.002  29.654  1.00  0.00     0.049 A 
ATOM     46  C   UNL A   1      42.915  32.484  32.845  1.00  0.00     0.074 A 
ATOM     47  C   UNL A   1      42.918  27.049  29.583  1.00  0.00     0.029 A 
ATOM     48  N   UNL A   1      42.370  28.998  30.504  1.00  0.00    -0.354 N 
ATOM     49  N   UNL A   1      42.830  31.384  32.137  1.00  0.00    -0.248 NA
ATOM     50  C   UNL A   1      44.146  32.593  33.642  1.00  0.00     0.031 C 
ATOM     51  C   UNL A   1      43.956  27.442  30.435  1.00  0.00     0.029 A 
ATOM     52  C   UNL A   1      43.626  28.670  30.987  1.00  0.00     0.049 A 
ATOM     53  H   UNL A   1      41.873  29.818  30.730  1.00  0.00     0.167 HD
ATOM     54  C   UNL A   1      44.006  30.685  32.379  1.00  0.00     0.074 A 
ATOM     55  C   UNL A   1      44.794  31.493  33.286  1.00  0.00     0.031 C 
ATOM     56  C   UNL A   1      44.398  29.483  31.891  1.00  0.00     0.031 A 
BRANCH  43  57
ATOM     57  C   UNL A   1      40.252  26.808  28.170  1.00  0.00    -0.014 A 
ATOM     58  C   UNL A   1      40.727  26.649  26.858  1.00  0.00     0.009 A 
ATOM     59  C   UNL A   1      39.431  25.810  28.720  1.00  0.00     0.009 A 
ATOM     60  C   UNL A   1      40.353  25.536  26.100  1.00  0.00     0.001 A 
ATOM     61  C   UNL A   1      39.086  24.684  27.971  1.00  0.00     0.001 A 
ATOM     62  C   UNL A   1      39.538  24.553  26.659  1.00  0.00     0.000 A 
ENDBRANCH  43  57
BRANCH  44  63
ATOM     63  C   UNL A   1      42.249  34.808  33.792  1.00  0.00    -0.014 A 
ATOM     64  C   UNL A   1      41.880  34.819  35.147  1.00  0.00     0.009 A 
ATOM     65  C   UNL A   1      42.897  35.933  33.258  1.00  0.00     0.009 A 
ATOM     66  C   UNL A   1      42.129  35.941  35.939  1.00  0.00     0.001 A 
ATOM     67  C   UNL A   1      43.172  37.041  34.061  1.00  0.00     0.001 A 
ATOM     68  C   UNL A   1      42.779  37.049  35.398  1.00  0.00     0.000 A 
ENDBRANCH  44  63
BRANCH  56  69
ATOM     69  C   UNL A   1      45.757  28.986  32.299  1.00  0.00    -0.014 A 
ATOM     70  C   UNL A   1      46.904  29.290  31.548  1.00  0.00     0.009 A 
ATOM     71  C   UNL A   1      45.895  28.233  33.476  1.00  0.00     0.009 A 
ATOM     72  C   UNL A   1      48.155  28.820  31.951  1.00  0.00     0.001 A 
ATOM     73  C   UNL A   1      47.150  27.791  33.892  1.00  0.00     0.001 A 
ATOM     74  C   UNL A   1      48.279  28.076  33.124  1.00  0.00     0.000 A 
ENDBRANCH  56  69
ENDBRANCH  30  31
ENDBRANCH  22  25
ENDBRANCH  20  21
ENDBRANCH  19  20
ENDBRANCH  18  19
ENDBRANCH   1  18
TORSDOF 16
ENDMDL
MODEL 3
REMARK VINA RESULT:      -8.0      1.414      2.232
REMARK SMILES CCC[NH2+][C@H]1C[C@@H](C(=O)NCCCCCCNC(=O)c2ccc(-c3c4nc(c(-c5ccccc5)c5ccc([nH]5)c(-c5ccccc5)c5nc(c(-c6ccccc6)c6ccc3[nH]6)C=C5)C=C4)cc2)C1
REMARK SMILES IDX 13 1 12 2 11 3 10 4 8 5 9 6 7 8 5 9 68 10 6 11 4 12 3 15
REMARK SMILES IDX 2 16 1 17 14 18 15 19 16 20 17 21 18 22 19 24 20 25 21 26
REMARK SMILES IDX 67 27 22 28 66 29 23 30 24 31 25 32 60 33 26 34 65 35 59 36
REMARK SMILES IDX 61 37 27 38 64 39 58 40 57 41 28 43 50 44 35 45 49 46 36 47
REMARK SMILES IDX 39 48 48 49 62 50 37 51 38 52 47 54 63 55 40 56 29 57 30 58
REMARK SMILES IDX 34 59 31 60 33 61 32 62 51 63 52 64 56 65 53 66 55 67 54 68
REMARK SMILES IDX 41 69 42 70 46 71 43 72 45 73 44 74
REMARK H PARENT 10 7 4 13 4 14 17 23 61 42 39 53
REMARK Flexibility Score: inf
ROOT
ATOM      1  C   UNL A   1      34.148  36.439  33.581  1.00  0.00     0.002 C 
ENDROOT
BRANCH   1   2
ATOM      2  C   UNL A   1      34.986  35.207  33.219  1.00  0.00     0.021 C 
BRANCH   2   3
ATOM      3  C   UNL A   1      35.397  34.356  34.419  1.00  0.00     0.116 C 
BRANCH   3   4
ATOM      4  N   UNL A   1      35.946  33.083  33.999  1.00  0.00    -0.356 N 
ATOM      5  C   UNL A   1      37.069  32.403  34.398  1.00  0.00     0.223 C 
ATOM      6  O   UNL A   1      37.299  31.346  33.791  1.00  0.00    -0.275 OA
ATOM      7  H   UNL A   1      35.418  32.624  33.305  1.00  0.00     0.163 HD
BRANCH   5   8
ATOM      8  C   UNL A   1      37.963  32.895  35.550  1.00  0.00     0.090 C 
ATOM      9  C   UNL A   1      38.493  32.708  37.638  1.00  0.00     0.183 C 
ATOM     10  C   UNL A   1      38.764  31.865  36.376  1.00  0.00     0.078 C 
ATOM     11  C   UNL A   1      37.367  33.442  36.864  1.00  0.00     0.078 C 
BRANCH   9  12
ATOM     12  N   UNL A   1      37.884  31.980  38.754  1.00  0.00    -0.344 N 
ATOM     13  H   UNL A   1      36.872  32.011  38.633  1.00  0.00     0.346 HD
ATOM     14  H   UNL A   1      38.273  31.038  38.719  1.00  0.00     0.346 HD
BRANCH  12  15
ATOM     15  C   UNL A   1      38.193  32.494  40.082  1.00  0.00     0.260 C 
BRANCH  15  16
ATOM     16  C   UNL A   1      36.959  32.527  40.990  1.00  0.00     0.058 C 
ATOM     17  C   UNL A   1      36.879  31.364  41.971  1.00  0.00     0.010 C 
ENDBRANCH  15  16
ENDBRANCH  12  15
ENDBRANCH   9  12
ENDBRANCH   5   8
ENDBRANCH   3   4
ENDBRANCH   2   3
ENDBRANCH   1   2
BRANCH   1  18
ATOM     18  C   UNL A   1      33.816  37.368  32.408  1.00  0.00     0.002 C 
BRANCH  18  19
ATOM     19  C   UNL A   1      32.889  36.770  31.347  1.00  0.00     0.021 C 
BRANCH  19  20
ATOM     20  C   UNL A   1      33.536  36.559  29.981  1.00  0.00     0.116 C 
BRANCH  20  21
ATOM     21  N   UNL A   1      32.725  35.724  29.109  1.00  0.00    -0.352 N 
ATOM     22  C   UNL A   1      33.032  34.524  28.521  1.00  0.00     0.251 C 
ATOM     23  H   UNL A   1      31.824  36.071  28.912  1.00  0.00     0.163 HD
ATOM     24  O   UNL A   1      32.288  34.045  27.667  1.00  0.00    -0.269 OA
BRANCH  22  25
ATOM     25  C   UNL A   1      34.272  33.813  28.897  1.00  0.00     0.039 A 
ATOM     26  C   UNL A   1      35.390  33.921  28.068  1.00  0.00     0.014 A 
ATOM     27  C   UNL A   1      34.331  33.040  30.060  1.00  0.00     0.014 A 
ATOM     28  C   UNL A   1      36.587  33.302  28.435  1.00  0.00     0.010 A 
ATOM     29  C   UNL A   1      35.542  32.485  30.461  1.00  0.00     0.010 A 
ATOM     30  C   UNL A   1      36.682  32.608  29.652  1.00  0.00    -0.014 A 
BRANCH  30  31
ATOM     31  C   UNL A   1      37.965  32.005  30.095  1.00  0.00     0.031 A 
ATOM     32  C   UNL A   1      38.852  32.736  31.064  1.00  0.00     0.074 A 
ATOM     33  C   UNL A   1      38.360  30.827  29.577  1.00  0.00     0.049 A 
ATOM     34  N   UNL A   1      40.030  32.396  31.524  1.00  0.00    -0.248 NA
ATOM     35  C   UNL A   1      38.364  34.032  31.564  1.00  0.00     0.031 C 
ATOM     36  C   UNL A   1      37.608  30.032  28.601  1.00  0.00     0.029 A 
ATOM     37  N   UNL A   1      39.499  30.092  29.796  1.00  0.00    -0.354 N 
ATOM     38  C   UNL A   1      40.428  33.438  32.352  1.00  0.00     0.074 A 
ATOM     39  C   UNL A   1      39.392  34.445  32.290  1.00  0.00     0.031 C 
ATOM     40  C   UNL A   1      38.292  28.909  28.330  1.00  0.00     0.029 A 
ATOM     41  C   UNL A   1      39.546  28.922  29.076  1.00  0.00     0.049 A 
ATOM     42  H   UNL A   1      40.214  30.375  30.410  1.00  0.00     0.167 HD
ATOM     43  C   UNL A   1      41.545  33.540  33.111  1.00  0.00     0.031 A 
ATOM     44  C   UNL A   1      40.495  27.970  29.018  1.00  0.00     0.031 A 
ATOM     45  C   UNL A   1      42.573  32.535  33.176  1.00  0.00     0.049 A 
ATOM     46  C   UNL A   1      41.739  28.119  29.849  1.00  0.00     0.074 A 
ATOM     47  C   UNL A   1      43.717  32.523  33.956  1.00  0.00     0.029 A 
ATOM     48  N   UNL A   1      42.585  31.367  32.429  1.00  0.00    -0.354 N 
ATOM     49  N   UNL A   1      42.068  29.079  30.679  1.00  0.00    -0.248 NA
ATOM     50  C   UNL A   1      42.737  27.046  29.742  1.00  0.00     0.031 C 
ATOM     51  C   UNL A   1      44.449  31.373  33.639  1.00  0.00     0.029 A 
ATOM     52  C   UNL A   1      43.729  30.640  32.709  1.00  0.00     0.049 A 
ATOM     53  H   UNL A   1      41.882  31.095  31.795  1.00  0.00     0.167 HD
ATOM     54  C   UNL A   1      43.295  28.710  31.216  1.00  0.00     0.074 A 
ATOM     55  C   UNL A   1      43.643  27.433  30.629  1.00  0.00     0.031 C 
ATOM     56  C   UNL A   1      44.063  29.371  32.116  1.00  0.00     0.031 A 
BRANCH  43  57
ATOM     57  C   UNL A   1      41.716  34.794  33.924  1.00  0.00    -0.014 A 
ATOM     58  C   UNL A   1      42.534  35.846  33.479  1.00  0.00     0.009 A 
ATOM     59  C   UNL A   1      41.024  34.939  35.137  1.00  0.00     0.009 A 
ATOM     60  C   UNL A   1      42.688  36.999  34.253  1.00  0.00     0.001 A 
ATOM     61  C   UNL A   1      41.155  36.106  35.892  1.00  0.00     0.001 A 
ATOM     62  C   UNL A   1      41.995  37.130  35.455  1.00  0.00     0.000 A 
ENDBRANCH  43  57
BRANCH  44  63
ATOM     63  C   UNL A   1      40.304  26.778  28.149  1.00  0.00    -0.014 A 
ATOM     64  C   UNL A   1      40.844  26.748  26.853  1.00  0.00     0.009 A 
ATOM     65  C   UNL A   1      39.574  25.669  28.604  1.00  0.00     0.009 A 
ATOM     66  C   UNL A   1      40.632  25.646  26.023  1.00  0.00     0.001 A 
ATOM     67  C   UNL A   1      39.390  24.556  27.782  1.00  0.00     0.001 A 
ATOM     68  C   UNL A   1      39.911  24.549  26.489  1.00  0.00     0.000 A 
ENDBRANCH  44  63
BRANCH  56  69
ATOM     69  C   UNL A   1      45.339  28.705  32.550  1.00  0.00    -0.014 A 
ATOM     70  C   UNL A   1      45.369  27.818  33.639  1.00  0.00     0.009 A 
ATOM     71  C   UNL A   1      46.523  28.940  31.833  1.00  0.00     0.009 A 
ATOM     72  C   UNL A   1      46.566  27.209  34.019  1.00  0.00     0.001 A 
ATOM     73  C   UNL A   1      47.711  28.306  32.196  1.00  0.00     0.001 A 
ATOM     74  C   UNL A   1      47.734  27.448  33.296  1.00  0.00     0.000 A 
ENDBRANCH  56  69
ENDBRANCH  30  31
ENDBRANCH  22  25
ENDBRANCH  20  21
ENDBRANCH  19  20
ENDBRANCH  18  19
ENDBRANCH   1  18
TORSDOF 16
ENDMDL
