MODEL 1
REMARK VINA RESULT:     -12.1      0.000      0.000
REMARK SMILES CC(C)[C@@H]1C(=O)Nc2ccccc2N1C(=O)N[C@H](Cc1ccccc1)C(=O)NCCCCCCNC(=O)c1ccc(-c2c3nc(c(-c4ccccc4)c4ccc([nH]4)c(-c4ccccc4)c4nc(c(-c5ccccc5)c5ccc2[nH]5)C=C4)C=C3)cc1
REMARK SMILES IDX 31 1 30 2 29 3 28 4 26 5 27 6 18 8 17 9 15 10 16 11 14 13
REMARK SMILES IDX 4 14 5 15 6 16 7 17 13 18 8 19 12 21 9 22 11 23 10 24 2 25
REMARK SMILES IDX 1 26 3 27 19 28 20 29 21 30 25 31 22 32 24 33 23 34 32 35
REMARK SMILES IDX 33 36 34 37 35 38 36 39 37 41 38 42 39 43 85 44 40 45 84 46
REMARK SMILES IDX 41 47 42 48 43 49 78 50 44 51 83 52 77 53 79 54 45 55 82 56
REMARK SMILES IDX 76 57 75 58 46 60 68 61 53 62 67 63 54 64 57 65 66 66 80 67
REMARK SMILES IDX 55 68 56 69 65 71 81 72 58 73 47 74 48 75 52 76 49 77 51 78
REMARK SMILES IDX 50 79 69 80 70 81 74 82 71 83 73 84 72 85 59 86 60 87 64 88
REMARK SMILES IDX 61 89 63 90 62 91
REMARK H PARENT 28 7 17 12 7 20 35 40 79 59 57 70
REMARK Flexibility Score: inf
ROOT
ATOM      1  C   UNL A   1      34.647  32.155  28.832  1.00  0.00     0.002 C 
ENDROOT
BRANCH   1   2
ATOM      2  C   UNL A   1      33.712  31.697  27.681  1.00  0.00     0.021 C 
BRANCH   2   3
ATOM      3  C   UNL A   1      33.847  30.307  26.858  1.00  0.00     0.116 C 
BRANCH   3   4
ATOM      4  N   UNL A   1      32.607  29.558  26.230  1.00  0.00    -0.354 N 
ATOM      5  C   UNL A   1      32.062  28.267  26.465  1.00  0.00     0.242 C 
ATOM      6  O   UNL A   1      31.460  28.146  27.545  1.00  0.00    -0.273 OA
ATOM      7  H   UNL A   1      32.122  30.082  25.551  1.00  0.00     0.163 HD
BRANCH   5   8
ATOM      8  C   UNL A   1      31.771  27.026  25.252  1.00  0.00     0.177 C 
BRANCH   8   9
ATOM      9  N   UNL A   1      32.750  26.336  24.145  1.00  0.00    -0.326 N 
ATOM     10  C   UNL A   1      33.525  25.281  23.695  1.00  0.00     0.323 C 
ATOM     11  O   UNL A   1      34.098  25.528  22.622  1.00  0.00    -0.248 OA
ATOM     12  H   UNL A   1      32.830  27.014  23.436  1.00  0.00     0.166 HD
BRANCH  10  13
ATOM     13  N   UNL A   1      33.625  24.006  24.249  1.00  0.00    -0.280 N 
ATOM     14  C   UNL A   1      32.657  22.894  24.240  1.00  0.00     0.184 C 
ATOM     15  C   UNL A   1      32.345  22.502  25.672  1.00  0.00     0.247 C 
ATOM     16  O   UNL A   1      31.231  22.258  26.150  1.00  0.00    -0.272 OA
ATOM     17  N   UNL A   1      33.526  22.111  26.302  1.00  0.00    -0.322 N 
ATOM     18  C   UNL A   1      34.872  23.397  24.688  1.00  0.00     0.070 A 
ATOM     19  C   UNL A   1      34.762  22.319  25.628  1.00  0.00     0.065 A 
ATOM     20  H   UNL A   1      33.505  21.699  27.195  1.00  0.00     0.170 HD
ATOM     21  C   UNL A   1      36.003  23.478  23.875  1.00  0.00     0.028 A 
ATOM     22  C   UNL A   1      35.721  21.309  25.680  1.00  0.00     0.028 A 
ATOM     23  C   UNL A   1      36.925  22.421  23.888  1.00  0.00     0.002 A 
ATOM     24  C   UNL A   1      36.771  21.337  24.762  1.00  0.00     0.002 A 
BRANCH  14  25
ATOM     25  C   UNL A   1      31.826  22.964  23.036  1.00  0.00     0.015 C 
ATOM     26  C   UNL A   1      32.069  21.466  22.411  1.00  0.00     0.010 C 
ATOM     27  C   UNL A   1      30.519  23.737  23.255  1.00  0.00     0.010 C 
ENDBRANCH  14  25
ENDBRANCH  10  13
ENDBRANCH   8   9
BRANCH   8  28
ATOM     28  C   UNL A   1      30.313  27.148  24.672  1.00  0.00     0.070 C 
BRANCH  28  29
ATOM     29  C   UNL A   1      29.899  28.147  23.605  1.00  0.00    -0.045 A 
ATOM     30  C   UNL A   1      28.509  28.273  23.384  1.00  0.00     0.004 A 
ATOM     31  C   UNL A   1      30.752  28.972  22.869  1.00  0.00     0.004 A 
ATOM     32  C   UNL A   1      27.988  29.177  22.458  1.00  0.00     0.000 A 
ATOM     33  C   UNL A   1      30.228  29.880  21.933  1.00  0.00     0.000 A 
ATOM     34  C   UNL A   1      28.852  29.982  21.727  1.00  0.00     0.000 A 
ENDBRANCH  28  29
ENDBRANCH   8  28
ENDBRANCH   5   8
ENDBRANCH   3   4
ENDBRANCH   2   3
ENDBRANCH   1   2
BRANCH   1  35
ATOM     35  C   UNL A   1      34.563  33.713  29.109  1.00  0.00     0.002 C 
BRANCH  35  36
ATOM     36  C   UNL A   1      33.197  34.453  28.982  1.00  0.00     0.021 C 
BRANCH  36  37
ATOM     37  C   UNL A   1      33.181  35.960  29.321  1.00  0.00     0.116 C 
BRANCH  37  38
ATOM     38  N   UNL A   1      32.517  36.266  30.585  1.00  0.00    -0.352 N 
ATOM     39  C   UNL A   1      32.689  35.880  31.893  1.00  0.00     0.251 C 
ATOM     40  H   UNL A   1      31.771  36.899  30.474  1.00  0.00     0.163 HD
ATOM     41  O   UNL A   1      31.823  36.229  32.698  1.00  0.00    -0.269 OA
BRANCH  39  42
ATOM     42  C   UNL A   1      33.836  35.083  32.413  1.00  0.00     0.039 A 
ATOM     43  C   UNL A   1      35.120  35.648  32.304  1.00  0.00     0.014 A 
ATOM     44  C   UNL A   1      33.734  33.758  32.839  1.00  0.00     0.014 A 
ATOM     45  C   UNL A   1      36.272  34.913  32.625  1.00  0.00     0.010 A 
ATOM     46  C   UNL A   1      34.886  33.037  33.211  1.00  0.00     0.010 A 
ATOM     47  C   UNL A   1      36.172  33.597  33.093  1.00  0.00    -0.014 A 
BRANCH  47  48
ATOM     48  C   UNL A   1      37.392  32.789  33.407  1.00  0.00     0.031 A 
ATOM     49  C   UNL A   1      38.141  32.998  34.703  1.00  0.00     0.074 A 
ATOM     50  C   UNL A   1      37.863  31.879  32.529  1.00  0.00     0.049 A 
ATOM     51  N   UNL A   1      39.272  32.467  35.106  1.00  0.00    -0.248 NA
ATOM     52  C   UNL A   1      37.551  33.943  35.664  1.00  0.00     0.031 C 
ATOM     53  C   UNL A   1      37.258  31.554  31.237  1.00  0.00     0.029 A 
ATOM     54  N   UNL A   1      38.971  31.064  32.590  1.00  0.00    -0.354 N 
ATOM     55  C   UNL A   1      39.547  33.044  36.341  1.00  0.00     0.074 A 
ATOM     56  C   UNL A   1      38.477  33.983  36.610  1.00  0.00     0.031 C 
ATOM     57  C   UNL A   1      37.991  30.603  30.635  1.00  0.00     0.029 A 
ATOM     58  C   UNL A   1      39.141  30.276  31.475  1.00  0.00     0.049 A 
ATOM     59  H   UNL A   1      39.584  31.046  33.359  1.00  0.00     0.167 HD
ATOM     60  C   UNL A   1      40.583  32.813  37.185  1.00  0.00     0.031 A 
ATOM     61  C   UNL A   1      40.113  29.401  31.151  1.00  0.00     0.031 A 
ATOM     62  C   UNL A   1      41.631  31.854  36.953  1.00  0.00     0.049 A 
ATOM     63  C   UNL A   1      41.254  29.160  32.101  1.00  0.00     0.074 A 
ATOM     64  C   UNL A   1      42.687  31.513  37.784  1.00  0.00     0.029 A 
ATOM     65  N   UNL A   1      41.754  31.075  35.815  1.00  0.00    -0.354 N 
ATOM     66  N   UNL A   1      41.478  29.695  33.276  1.00  0.00    -0.248 NA
ATOM     67  C   UNL A   1      42.276  28.188  31.679  1.00  0.00     0.031 C 
ATOM     68  C   UNL A   1      43.473  30.558  37.130  1.00  0.00     0.029 A 
ATOM     69  C   UNL A   1      42.877  30.270  35.913  1.00  0.00     0.049 A 
ATOM     70  H   UNL A   1      41.136  31.092  35.050  1.00  0.00     0.167 HD
ATOM     71  C   UNL A   1      42.647  29.108  33.744  1.00  0.00     0.074 A 
ATOM     72  C   UNL A   1      43.081  28.166  32.733  1.00  0.00     0.031 C 
ATOM     73  C   UNL A   1      43.302  29.332  34.908  1.00  0.00     0.031 A 
BRANCH  60  74
ATOM     74  C   UNL A   1      40.647  33.630  38.447  1.00  0.00    -0.014 A 
ATOM     75  C   UNL A   1      40.052  33.185  39.638  1.00  0.00     0.009 A 
ATOM     76  C   UNL A   1      41.353  34.844  38.455  1.00  0.00     0.009 A 
ATOM     77  C   UNL A   1      40.126  33.959  40.798  1.00  0.00     0.001 A 
ATOM     78  C   UNL A   1      41.451  35.602  39.623  1.00  0.00     0.001 A 
ATOM     79  C   UNL A   1      40.828  35.163  40.792  1.00  0.00     0.000 A 
ENDBRANCH  60  74
BRANCH  61  80
ATOM     80  C   UNL A   1      40.056  28.673  29.855  1.00  0.00    -0.014 A 
ATOM     81  C   UNL A   1      39.456  27.408  29.776  1.00  0.00     0.009 A 
ATOM     82  C   UNL A   1      40.609  29.237  28.695  1.00  0.00     0.009 A 
ATOM     83  C   UNL A   1      39.429  26.711  28.565  1.00  0.00     0.001 A 
ATOM     84  C   UNL A   1      40.557  28.551  27.480  1.00  0.00     0.001 A 
ATOM     85  C   UNL A   1      39.975  27.285  27.417  1.00  0.00     0.000 A 
ENDBRANCH  61  80
BRANCH  73  86
ATOM     86  C   UNL A   1      44.539  28.521  35.175  1.00  0.00    -0.014 A 
ATOM     87  C   UNL A   1      45.818  29.035  34.912  1.00  0.00     0.009 A 
ATOM     88  C   UNL A   1      44.423  27.242  35.743  1.00  0.00     0.009 A 
ATOM     89  C   UNL A   1      46.956  28.271  35.185  1.00  0.00     0.001 A 
ATOM     90  C   UNL A   1      45.562  26.492  36.038  1.00  0.00     0.001 A 
ATOM     91  C   UNL A   1      46.827  27.003  35.752  1.00  0.00     0.000 A 
ENDBRANCH  73  86
ENDBRANCH  47  48
ENDBRANCH  39  42
ENDBRANCH  37  38
ENDBRANCH  36  37
ENDBRANCH  35  36
ENDBRANCH   1  35
TORSDOF 18
ENDMDL
MODEL 2
REMARK VINA RESULT:     -12.1      3.148      8.959
REMARK SMILES CC(C)[C@@H]1C(=O)Nc2ccccc2N1C(=O)N[C@H](Cc1ccccc1)C(=O)NCCCCCCNC(=O)c1ccc(-c2c3nc(c(-c4ccccc4)c4ccc([nH]4)c(-c4ccccc4)c4nc(c(-c5ccccc5)c5ccc2[nH]5)C=C4)C=C3)cc1
REMARK SMILES IDX 31 1 30 2 29 3 28 4 26 5 27 6 18 8 17 9 15 10 16 11 14 13
REMARK SMILES IDX 4 14 5 15 6 16 7 17 13 18 8 19 12 21 9 22 11 23 10 24 2 25
REMARK SMILES IDX 1 26 3 27 19 28 20 29 21 30 25 31 22 32 24 33 23 34 32 35
REMARK SMILES IDX 33 36 34 37 35 38 36 39 37 41 38 42 39 43 85 44 40 45 84 46
REMARK SMILES IDX 41 47 42 48 43 49 78 50 44 51 83 52 77 53 79 54 45 55 82 56
REMARK SMILES IDX 76 57 75 58 46 60 68 61 53 62 67 63 54 64 57 65 66 66 80 67
REMARK SMILES IDX 55 68 56 69 65 71 81 72 58 73 47 74 48 75 52 76 49 77 51 78
REMARK SMILES IDX 50 79 69 80 70 81 74 82 71 83 73 84 72 85 59 86 60 87 64 88
REMARK SMILES IDX 61 89 63 90 62 91
REMARK H PARENT 28 7 17 12 7 20 35 40 79 59 57 70
REMARK Flexibility Score: inf
ROOT
ATOM      1  C   UNL A   1      41.906  21.449  27.569  1.00  0.00     0.002 C 
ENDROOT
BRANCH   1   2
ATOM      2  C   UNL A   1      40.478  22.013  27.341  1.00  0.00     0.021 C 
BRANCH   2   3
ATOM      3  C   UNL A   1      39.492  21.609  26.119  1.00  0.00     0.116 C 
BRANCH   3   4
ATOM      4  N   UNL A   1      38.573  22.655  25.375  1.00  0.00    -0.354 N 
ATOM      5  C   UNL A   1      37.504  23.471  25.833  1.00  0.00     0.242 C 
ATOM      6  O   UNL A   1      37.849  24.430  26.543  1.00  0.00    -0.273 OA
ATOM      7  H   UNL A   1      38.780  22.763  24.418  1.00  0.00     0.163 HD
BRANCH   5   8
ATOM      8  C   UNL A   1      35.879  23.527  25.162  1.00  0.00     0.177 C 
BRANCH   8   9
ATOM      9  N   UNL A   1      34.450  23.977  25.807  1.00  0.00    -0.326 N 
ATOM     10  C   UNL A   1      33.403  24.874  25.941  1.00  0.00     0.323 C 
ATOM     11  O   UNL A   1      32.559  24.507  26.775  1.00  0.00    -0.248 OA
ATOM     12  H   UNL A   1      34.209  23.233  26.404  1.00  0.00     0.166 HD
BRANCH  10  13
ATOM     13  N   UNL A   1      33.173  26.025  25.191  1.00  0.00    -0.280 N 
ATOM     14  C   UNL A   1      32.635  26.172  23.827  1.00  0.00     0.184 C 
ATOM     15  C   UNL A   1      33.646  26.915  22.975  1.00  0.00     0.247 C 
ATOM     16  O   UNL A   1      33.995  26.638  21.822  1.00  0.00    -0.272 OA
ATOM     17  N   UNL A   1      33.879  28.169  23.541  1.00  0.00    -0.322 N 
ATOM     18  C   UNL A   1      33.123  27.370  25.746  1.00  0.00     0.070 A 
ATOM     19  C   UNL A   1      33.337  28.451  24.826  1.00  0.00     0.065 A 
ATOM     20  H   UNL A   1      34.407  28.845  23.060  1.00  0.00     0.170 HD
ATOM     21  C   UNL A   1      32.403  27.607  26.917  1.00  0.00     0.028 A 
ATOM     22  C   UNL A   1      32.766  29.703  25.042  1.00  0.00     0.028 A 
ATOM     23  C   UNL A   1      31.777  28.850  27.090  1.00  0.00     0.002 A 
ATOM     24  C   UNL A   1      31.936  29.877  26.150  1.00  0.00     0.002 A 
BRANCH  14  25
ATOM     25  C   UNL A   1      31.722  25.065  23.528  1.00  0.00     0.015 C 
ATOM     26  C   UNL A   1      30.304  25.685  24.071  1.00  0.00     0.010 C 
ATOM     27  C   UNL A   1      32.044  24.365  22.202  1.00  0.00     0.010 C 
ENDBRANCH  14  25
ENDBRANCH  10  13
ENDBRANCH   8   9
BRANCH   8  28
ATOM     28  C   UNL A   1      35.657  22.344  24.147  1.00  0.00     0.070 C 
BRANCH  28  29
ATOM     29  C   UNL A   1      34.613  21.254  24.321  1.00  0.00    -0.045 A 
ATOM     30  C   UNL A   1      33.307  21.575  23.885  1.00  0.00     0.004 A 
ATOM     31  C   UNL A   1      34.835  19.968  24.818  1.00  0.00     0.004 A 
ATOM     32  C   UNL A   1      32.260  20.656  23.953  1.00  0.00     0.000 A 
ATOM     33  C   UNL A   1      33.779  19.043  24.890  1.00  0.00     0.000 A 
ATOM     34  C   UNL A   1      32.496  19.386  24.462  1.00  0.00     0.000 A 
ENDBRANCH  28  29
ENDBRANCH   8  28
ENDBRANCH   5   8
ENDBRANCH   3   4
ENDBRANCH   2   3
ENDBRANCH   1   2
BRANCH   1  35
ATOM     35  C   UNL A   1      42.447  20.627  26.327  1.00  0.00     0.002 C 
BRANCH  35  36
ATOM     36  C   UNL A   1      43.654  21.166  25.503  1.00  0.00     0.021 C 
BRANCH  36  37
ATOM     37  C   UNL A   1      43.405  22.418  24.631  1.00  0.00     0.116 C 
BRANCH  37  38
ATOM     38  N   UNL A   1      44.562  23.303  24.538  1.00  0.00    -0.352 N 
ATOM     39  C   UNL A   1      44.887  24.536  25.050  1.00  0.00     0.251 C 
ATOM     40  H   UNL A   1      45.278  22.928  23.977  1.00  0.00     0.163 HD
ATOM     41  O   UNL A   1      45.918  25.065  24.626  1.00  0.00    -0.269 OA
BRANCH  39  42
ATOM     42  C   UNL A   1      44.101  25.280  26.076  1.00  0.00     0.039 A 
ATOM     43  C   UNL A   1      44.318  26.666  26.178  1.00  0.00     0.014 A 
ATOM     44  C   UNL A   1      43.302  24.665  27.040  1.00  0.00     0.014 A 
ATOM     45  C   UNL A   1      43.740  27.422  27.210  1.00  0.00     0.010 A 
ATOM     46  C   UNL A   1      42.680  25.431  28.045  1.00  0.00     0.010 A 
ATOM     47  C   UNL A   1      42.903  26.817  28.157  1.00  0.00    -0.014 A 
BRANCH  47  48
ATOM     48  C   UNL A   1      42.307  27.602  29.283  1.00  0.00     0.031 A 
ATOM     49  C   UNL A   1      42.971  27.625  30.640  1.00  0.00     0.074 A 
ATOM     50  C   UNL A   1      41.154  28.281  29.116  1.00  0.00     0.049 A 
ATOM     51  N   UNL A   1      42.553  28.163  31.762  1.00  0.00    -0.248 NA
ATOM     52  C   UNL A   1      44.265  26.935  30.756  1.00  0.00     0.031 C 
ATOM     53  C   UNL A   1      40.390  28.366  27.871  1.00  0.00     0.029 A 
ATOM     54  N   UNL A   1      40.416  29.027  30.008  1.00  0.00    -0.354 N 
ATOM     55  C   UNL A   1      43.508  27.840  32.720  1.00  0.00     0.074 A 
ATOM     56  C   UNL A   1      44.514  27.039  32.054  1.00  0.00     0.031 C 
ATOM     57  C   UNL A   1      39.302  29.128  28.073  1.00  0.00     0.029 A 
ATOM     58  C   UNL A   1      39.266  29.556  29.470  1.00  0.00     0.049 A 
ATOM     59  H   UNL A   1      40.686  29.170  30.943  1.00  0.00     0.167 HD
ATOM     60  C   UNL A   1      43.558  28.182  34.032  1.00  0.00     0.031 A 
ATOM     61  C   UNL A   1      38.283  30.289  30.030  1.00  0.00     0.031 A 
ATOM     62  C   UNL A   1      42.590  29.012  34.700  1.00  0.00     0.049 A 
ATOM     63  C   UNL A   1      38.357  30.656  31.487  1.00  0.00     0.074 A 
ATOM     64  C   UNL A   1      42.596  29.457  36.013  1.00  0.00     0.029 A 
ATOM     65  N   UNL A   1      41.448  29.529  34.111  1.00  0.00    -0.354 N 
ATOM     66  N   UNL A   1      39.284  30.365  32.366  1.00  0.00    -0.248 NA
ATOM     67  C   UNL A   1      37.249  31.460  32.026  1.00  0.00     0.031 C 
ATOM     68  C   UNL A   1      41.437  30.210  36.229  1.00  0.00     0.029 A 
ATOM     69  C   UNL A   1      40.734  30.273  35.037  1.00  0.00     0.049 A 
ATOM     70  H   UNL A   1      41.184  29.388  33.173  1.00  0.00     0.167 HD
ATOM     71  C   UNL A   1      38.885  30.969  33.552  1.00  0.00     0.074 A 
ATOM     72  C   UNL A   1      37.639  31.655  33.279  1.00  0.00     0.031 C 
ATOM     73  C   UNL A   1      39.499  30.956  34.760  1.00  0.00     0.031 A 
BRANCH  60  74
ATOM     74  C   UNL A   1      44.701  27.642  34.848  1.00  0.00    -0.014 A 
ATOM     75  C   UNL A   1      44.624  26.389  35.475  1.00  0.00     0.009 A 
ATOM     76  C   UNL A   1      45.890  28.382  34.954  1.00  0.00     0.009 A 
ATOM     77  C   UNL A   1      45.699  25.907  36.227  1.00  0.00     0.001 A 
ATOM     78  C   UNL A   1      46.973  27.885  35.681  1.00  0.00     0.001 A 
ATOM     79  C   UNL A   1      46.873  26.652  36.325  1.00  0.00     0.000 A 
ENDBRANCH  60  74
BRANCH  61  80
ATOM     80  C   UNL A   1      37.127  30.733  29.207  1.00  0.00    -0.014 A 
ATOM     81  C   UNL A   1      36.123  29.825  28.841  1.00  0.00     0.009 A 
ATOM     82  C   UNL A   1      37.028  32.066  28.775  1.00  0.00     0.009 A 
ATOM     83  C   UNL A   1      35.053  30.236  28.043  1.00  0.00     0.001 A 
ATOM     84  C   UNL A   1      35.943  32.480  28.000  1.00  0.00     0.001 A 
ATOM     85  C   UNL A   1      34.961  31.563  27.627  1.00  0.00     0.000 A 
ENDBRANCH  61  80
BRANCH  73  86
ATOM     86  C   UNL A   1      38.855  31.733  35.873  1.00  0.00    -0.014 A 
ATOM     87  C   UNL A   1      39.005  33.125  35.972  1.00  0.00     0.009 A 
ATOM     88  C   UNL A   1      38.046  31.068  36.808  1.00  0.00     0.009 A 
ATOM     89  C   UNL A   1      38.382  33.831  37.004  1.00  0.00     0.001 A 
ATOM     90  C   UNL A   1      37.405  31.779  37.823  1.00  0.00     0.001 A 
ATOM     91  C   UNL A   1      37.578  33.158  37.925  1.00  0.00     0.000 A 
ENDBRANCH  73  86
ENDBRANCH  47  48
ENDBRANCH  39  42
ENDBRANCH  37  38
ENDBRANCH  36  37
ENDBRANCH  35  36
ENDBRANCH   1  35
TORSDOF 18
ENDMDL
MODEL 3
REMARK VINA RESULT:     -12.0      1.767      6.078
REMARK SMILES CC(C)[C@@H]1C(=O)Nc2ccccc2N1C(=O)N[C@H](Cc1ccccc1)C(=O)NCCCCCCNC(=O)c1ccc(-c2c3nc(c(-c4ccccc4)c4ccc([nH]4)c(-c4ccccc4)c4nc(c(-c5ccccc5)c5ccc2[nH]5)C=C4)C=C3)cc1
REMARK SMILES IDX 31 1 30 2 29 3 28 4 26 5 27 6 18 8 17 9 15 10 16 11 14 13
REMARK SMILES IDX 4 14 5 15 6 16 7 17 13 18 8 19 12 21 9 22 11 23 10 24 2 25
REMARK SMILES IDX 1 26 3 27 19 28 20 29 21 30 25 31 22 32 24 33 23 34 32 35
REMARK SMILES IDX 33 36 34 37 35 38 36 39 37 41 38 42 39 43 85 44 40 45 84 46
REMARK SMILES IDX 41 47 42 48 43 49 78 50 44 51 83 52 77 53 79 54 45 55 82 56
REMARK SMILES IDX 76 57 75 58 46 60 68 61 53 62 67 63 54 64 57 65 66 66 80 67
REMARK SMILES IDX 55 68 56 69 65 71 81 72 58 73 47 74 48 75 52 76 49 77 51 78
REMARK SMILES IDX 50 79 69 80 70 81 74 82 71 83 73 84 72 85 59 86 60 87 64 88
REMARK SMILES IDX 61 89 63 90 62 91
REMARK H PARENT 28 7 17 12 7 20 35 40 79 59 57 70
REMARK Flexibility Score: inf
ROOT
ATOM      1  C   UNL A   1      36.133  31.968  28.116  1.00  0.00     0.002 C 
ENDROOT
BRANCH   1   2
ATOM      2  C   UNL A   1      35.117  30.799  28.209  1.00  0.00     0.021 C 
BRANCH   2   3
ATOM      3  C   UNL A   1      34.918  29.637  27.096  1.00  0.00     0.116 C 
BRANCH   3   4
ATOM      4  N   UNL A   1      33.674  29.582  26.126  1.00  0.00    -0.354 N 
ATOM      5  C   UNL A   1      32.700  28.574  25.891  1.00  0.00     0.242 C 
ATOM      6  O   UNL A   1      31.868  28.432  26.803  1.00  0.00    -0.273 OA
ATOM      7  H   UNL A   1      33.548  30.395  25.585  1.00  0.00     0.163 HD
BRANCH   5   8
ATOM      8  C   UNL A   1      32.296  27.862  24.334  1.00  0.00     0.177 C 
BRANCH   8   9
ATOM      9  N   UNL A   1      33.092  26.804  23.382  1.00  0.00    -0.326 N 
ATOM     10  C   UNL A   1      33.708  25.582  23.169  1.00  0.00     0.323 C 
ATOM     11  O   UNL A   1      34.205  25.484  22.036  1.00  0.00    -0.248 OA
ATOM     12  H   UNL A   1      33.180  27.271  22.520  1.00  0.00     0.166 HD
BRANCH  10  13
ATOM     13  N   UNL A   1      33.723  24.481  24.023  1.00  0.00    -0.280 N 
ATOM     14  C   UNL A   1      32.656  23.511  24.332  1.00  0.00     0.184 C 
ATOM     15  C   UNL A   1      32.398  23.521  25.827  1.00  0.00     0.247 C 
ATOM     16  O   UNL A   1      31.299  23.523  26.392  1.00  0.00    -0.272 OA
ATOM     17  N   UNL A   1      33.575  23.174  26.491  1.00  0.00    -0.322 N 
ATOM     18  C   UNL A   1      34.932  23.870  24.555  1.00  0.00     0.070 A 
ATOM     19  C   UNL A   1      34.780  23.075  25.740  1.00  0.00     0.065 A 
ATOM     20  H   UNL A   1      33.572  23.001  27.459  1.00  0.00     0.170 HD
ATOM     21  C   UNL A   1      36.012  23.625  23.706  1.00  0.00     0.028 A 
ATOM     22  C   UNL A   1      35.641  22.012  26.009  1.00  0.00     0.028 A 
ATOM     23  C   UNL A   1      36.829  22.512  23.951  1.00  0.00     0.002 A 
ATOM     24  C   UNL A   1      36.629  21.700  25.075  1.00  0.00     0.002 A 
BRANCH  14  25
ATOM     25  C   UNL A   1      31.760  23.370  23.181  1.00  0.00     0.015 C 
ATOM     26  C   UNL A   1      32.049  21.810  22.760  1.00  0.00     0.010 C 
ATOM     27  C   UNL A   1      30.427  24.106  23.365  1.00  0.00     0.010 C 
ENDBRANCH  14  25
ENDBRANCH  10  13
ENDBRANCH   8   9
BRANCH   8  28
ATOM     28  C   UNL A   1      31.506  28.891  23.442  1.00  0.00     0.070 C 
BRANCH  28  29
ATOM     29  C   UNL A   1      29.993  28.920  23.308  1.00  0.00    -0.045 A 
ATOM     30  C   UNL A   1      29.331  27.691  23.527  1.00  0.00     0.004 A 
ATOM     31  C   UNL A   1      29.207  30.044  23.042  1.00  0.00     0.004 A 
ATOM     32  C   UNL A   1      27.941  27.580  23.471  1.00  0.00     0.000 A 
ATOM     33  C   UNL A   1      27.807  29.932  22.981  1.00  0.00     0.000 A 
ATOM     34  C   UNL A   1      27.177  28.706  23.193  1.00  0.00     0.000 A 
ENDBRANCH  28  29
ENDBRANCH   8  28
ENDBRANCH   5   8
ENDBRANCH   3   4
ENDBRANCH   2   3
ENDBRANCH   1   2
BRANCH   1  35
ATOM     35  C   UNL A   1      35.432  33.377  27.928  1.00  0.00     0.002 C 
BRANCH  35  36
ATOM     36  C   UNL A   1      34.016  33.627  28.528  1.00  0.00     0.021 C 
BRANCH  36  37
ATOM     37  C   UNL A   1      33.802  34.951  29.294  1.00  0.00     0.116 C 
BRANCH  37  38
ATOM     38  N   UNL A   1      33.524  34.764  30.716  1.00  0.00    -0.352 N 
ATOM     39  C   UNL A   1      34.100  34.040  31.732  1.00  0.00     0.251 C 
ATOM     40  H   UNL A   1      32.741  35.279  31.016  1.00  0.00     0.163 HD
ATOM     41  O   UNL A   1      33.491  33.998  32.804  1.00  0.00    -0.269 OA
BRANCH  39  42
ATOM     42  C   UNL A   1      35.397  33.311  31.645  1.00  0.00     0.039 A 
ATOM     43  C   UNL A   1      35.430  31.989  32.126  1.00  0.00     0.014 A 
ATOM     44  C   UNL A   1      36.603  33.909  31.278  1.00  0.00     0.014 A 
ATOM     45  C   UNL A   1      36.636  31.277  32.226  1.00  0.00     0.010 A 
ATOM     46  C   UNL A   1      37.806  33.177  31.330  1.00  0.00     0.010 A 
ATOM     47  C   UNL A   1      37.844  31.858  31.820  1.00  0.00    -0.014 A 
BRANCH  47  48
ATOM     48  C   UNL A   1      39.142  31.125  31.952  1.00  0.00     0.031 A 
ATOM     49  C   UNL A   1      39.505  30.023  30.985  1.00  0.00     0.074 A 
ATOM     50  C   UNL A   1      40.000  31.415  32.953  1.00  0.00     0.049 A 
ATOM     51  N   UNL A   1      40.534  29.208  30.999  1.00  0.00    -0.248 NA
ATOM     52  C   UNL A   1      38.578  29.792  29.866  1.00  0.00     0.031 C 
ATOM     53  C   UNL A   1      39.803  32.451  33.967  1.00  0.00     0.029 A 
ATOM     54  N   UNL A   1      41.212  30.853  33.285  1.00  0.00    -0.354 N 
ATOM     55  C   UNL A   1      40.356  28.348  29.921  1.00  0.00     0.074 A 
ATOM     56  C   UNL A   1      39.107  28.722  29.290  1.00  0.00     0.031 C 
ATOM     57  C   UNL A   1      40.858  32.460  34.798  1.00  0.00     0.029 A 
ATOM     58  C   UNL A   1      41.791  31.406  34.404  1.00  0.00     0.049 A 
ATOM     59  H   UNL A   1      41.626  30.124  32.771  1.00  0.00     0.167 HD
ATOM     60  C   UNL A   1      41.155  27.343  29.484  1.00  0.00     0.031 A 
ATOM     61  C   UNL A   1      42.931  31.098  35.053  1.00  0.00     0.031 A 
ATOM     62  C   UNL A   1      42.419  26.984  30.073  1.00  0.00     0.049 A 
ATOM     63  C   UNL A   1      43.802  29.979  34.551  1.00  0.00     0.074 A 
ATOM     64  C   UNL A   1      43.321  26.018  29.656  1.00  0.00     0.029 A 
ATOM     65  N   UNL A   1      42.965  27.579  31.198  1.00  0.00    -0.354 N 
ATOM     66  N   UNL A   1      43.629  29.198  33.514  1.00  0.00    -0.248 NA
ATOM     67  C   UNL A   1      45.033  29.705  35.311  1.00  0.00     0.031 C 
ATOM     68  C   UNL A   1      44.394  26.000  30.553  1.00  0.00     0.029 A 
ATOM     69  C   UNL A   1      44.182  26.989  31.500  1.00  0.00     0.049 A 
ATOM     70  H   UNL A   1      42.550  28.312  31.707  1.00  0.00     0.167 HD
ATOM     71  C   UNL A   1      44.735  28.359  33.481  1.00  0.00     0.074 A 
ATOM     72  C   UNL A   1      45.583  28.733  34.594  1.00  0.00     0.031 C 
ATOM     73  C   UNL A   1      45.023  27.367  32.604  1.00  0.00     0.031 A 
BRANCH  60  74
ATOM     74  C   UNL A   1      40.677  26.537  28.305  1.00  0.00    -0.014 A 
ATOM     75  C   UNL A   1      41.208  26.736  27.021  1.00  0.00     0.009 A 
ATOM     76  C   UNL A   1      39.713  25.534  28.494  1.00  0.00     0.009 A 
ATOM     77  C   UNL A   1      40.750  25.975  25.942  1.00  0.00     0.001 A 
ATOM     78  C   UNL A   1      39.279  24.756  27.419  1.00  0.00     0.001 A 
ATOM     79  C   UNL A   1      39.791  24.983  26.143  1.00  0.00     0.000 A 
ENDBRANCH  60  74
BRANCH  61  80
ATOM     80  C   UNL A   1      43.327  31.866  36.264  1.00  0.00    -0.014 A 
ATOM     81  C   UNL A   1      42.907  31.453  37.536  1.00  0.00     0.009 A 
ATOM     82  C   UNL A   1      44.117  33.021  36.150  1.00  0.00     0.009 A 
ATOM     83  C   UNL A   1      43.253  32.191  38.671  1.00  0.00     0.001 A 
ATOM     84  C   UNL A   1      44.485  33.741  37.289  1.00  0.00     0.001 A 
ATOM     85  C   UNL A   1      44.046  33.331  38.547  1.00  0.00     0.000 A 
ENDBRANCH  61  80
BRANCH  73  86
ATOM     86  C   UNL A   1      46.322  26.635  32.787  1.00  0.00    -0.014 A 
ATOM     87  C   UNL A   1      47.504  27.085  32.178  1.00  0.00     0.009 A 
ATOM     88  C   UNL A   1      46.374  25.506  33.621  1.00  0.00     0.009 A 
ATOM     89  C   UNL A   1      48.706  26.401  32.377  1.00  0.00     0.001 A 
ATOM     90  C   UNL A   1      47.580  24.840  33.838  1.00  0.00     0.001 A 
ATOM     91  C   UNL A   1      48.744  25.282  33.210  1.00  0.00     0.000 A 
ENDBRANCH  73  86
ENDBRANCH  47  48
ENDBRANCH  39  42
ENDBRANCH  37  38
ENDBRANCH  36  37
ENDBRANCH  35  36
ENDBRANCH   1  35
TORSDOF 18
ENDMDL
