MODEL 1
REMARK VINA RESULT:     -10.8      0.000      0.000
REMARK SMILES O=C(NCCCCCCNC(=O)C1(CCc2ccccn2)CCCCC1)c1ccc(-c2c3nc(c(-c4ccccc4)c4ccc([nH]4)c(-c4ccccc4)c4nc(c(-c5ccccc5)c5ccc2[nH]5)C=C4)C=C3)cc1
REMARK SMILES IDX 7 1 6 2 5 3 4 4 3 5 1 6 2 7 27 9 28 10 74 11 29 12 73 13
REMARK SMILES IDX 30 14 31 15 32 16 67 17 33 18 72 19 66 20 68 21 34 22 71 23
REMARK SMILES IDX 65 24 64 25 35 27 57 28 42 29 56 30 43 31 46 32 55 33 69 34
REMARK SMILES IDX 44 35 45 36 54 38 70 39 47 40 36 41 37 42 41 43 38 44 40 45
REMARK SMILES IDX 39 46 58 47 59 48 63 49 60 50 62 51 61 52 48 53 49 54 53 55
REMARK SMILES IDX 50 56 52 57 51 58 8 59 9 60 10 61 11 62 12 64 13 65 22 66
REMARK SMILES IDX 26 67 23 68 25 69 24 70 14 71 15 72 16 73 17 74 21 75 18 76
REMARK SMILES IDX 20 77 19 78
REMARK H PARENT 3 8 68 26 46 37 10 63
REMARK Flexibility Score: inf
ROOT
ATOM      1  C   UNL A   1      34.652  20.166  24.673  1.00  0.00     0.002 C 
ENDROOT
BRANCH   1   2
ATOM      2  C   UNL A   1      35.978  20.784  25.136  1.00  0.00     0.002 C 
BRANCH   2   3
ATOM      3  C   UNL A   1      37.213  19.908  24.925  1.00  0.00     0.021 C 
BRANCH   3   4
ATOM      4  C   UNL A   1      38.503  20.519  25.451  1.00  0.00     0.116 C 
BRANCH   4   5
ATOM      5  N   UNL A   1      39.550  19.524  25.604  1.00  0.00    -0.352 N 
ATOM      6  O   UNL A   1      41.668  18.799  25.886  1.00  0.00    -0.269 OA
ATOM      7  C   UNL A   1      40.850  19.699  26.006  1.00  0.00     0.251 C 
ATOM      8  H   UNL A   1      39.292  18.598  25.390  1.00  0.00     0.163 HD
BRANCH   7   9
ATOM      9  C   UNL A   1      41.251  21.001  26.577  1.00  0.00     0.039 A 
ATOM     10  C   UNL A   1      41.753  22.008  25.747  1.00  0.00     0.014 A 
ATOM     11  C   UNL A   1      41.120  21.216  27.951  1.00  0.00     0.014 A 
ATOM     12  C   UNL A   1      42.239  23.181  26.305  1.00  0.00     0.010 A 
ATOM     13  C   UNL A   1      41.521  22.436  28.498  1.00  0.00     0.010 A 
ATOM     14  C   UNL A   1      42.096  23.421  27.681  1.00  0.00    -0.014 A 
BRANCH  14  15
ATOM     15  C   UNL A   1      42.467  24.751  28.220  1.00  0.00     0.031 A 
ATOM     16  C   UNL A   1      43.882  25.076  28.597  1.00  0.00     0.074 A 
ATOM     17  C   UNL A   1      41.494  25.675  28.349  1.00  0.00     0.049 A 
ATOM     18  N   UNL A   1      44.365  26.194  29.077  1.00  0.00    -0.248 NA
ATOM     19  C   UNL A   1      44.885  24.015  28.419  1.00  0.00     0.031 C 
ATOM     20  C   UNL A   1      40.081  25.465  28.017  1.00  0.00     0.029 A 
ATOM     21  N   UNL A   1      41.543  26.976  28.775  1.00  0.00    -0.354 N 
ATOM     22  C   UNL A   1      45.720  25.966  29.280  1.00  0.00     0.074 A 
ATOM     23  C   UNL A   1      45.981  24.598  28.890  1.00  0.00     0.031 C 
ATOM     24  C   UNL A   1      39.410  26.610  28.202  1.00  0.00     0.029 A 
ATOM     25  C   UNL A   1      40.325  27.609  28.736  1.00  0.00     0.049 A 
ATOM     26  H   UNL A   1      42.370  27.415  29.078  1.00  0.00     0.167 HD
ATOM     27  C   UNL A   1      46.657  26.825  29.748  1.00  0.00     0.031 A 
ATOM     28  C   UNL A   1      39.973  28.851  29.113  1.00  0.00     0.031 A 
ATOM     29  C   UNL A   1      46.386  28.185  30.138  1.00  0.00     0.049 A 
ATOM     30  C   UNL A   1      41.027  29.762  29.668  1.00  0.00     0.074 A 
ATOM     31  C   UNL A   1      47.273  29.143  30.599  1.00  0.00     0.029 A 
ATOM     32  N   UNL A   1      45.132  28.777  30.122  1.00  0.00    -0.354 N 
ATOM     33  N   UNL A   1      42.310  29.543  29.818  1.00  0.00    -0.248 NA
ATOM     34  C   UNL A   1      40.583  31.092  30.102  1.00  0.00     0.031 C 
ATOM     35  C   UNL A   1      46.547  30.296  30.914  1.00  0.00     0.029 A 
ATOM     36  C   UNL A   1      45.218  30.079  30.589  1.00  0.00     0.049 A 
ATOM     37  H   UNL A   1      44.304  28.338  29.821  1.00  0.00     0.167 HD
ATOM     38  C   UNL A   1      42.832  30.713  30.348  1.00  0.00     0.074 A 
ATOM     39  C   UNL A   1      41.731  31.647  30.468  1.00  0.00     0.031 C 
ATOM     40  C   UNL A   1      44.110  30.991  30.705  1.00  0.00     0.031 A 
BRANCH  27  41
ATOM     41  C   UNL A   1      48.065  26.315  29.894  1.00  0.00    -0.014 A 
ATOM     42  C   UNL A   1      48.992  26.411  28.845  1.00  0.00     0.009 A 
ATOM     43  C   UNL A   1      48.486  25.783  31.123  1.00  0.00     0.009 A 
ATOM     44  C   UNL A   1      50.304  25.961  29.016  1.00  0.00     0.001 A 
ATOM     45  C   UNL A   1      49.805  25.359  31.301  1.00  0.00     0.001 A 
ATOM     46  C   UNL A   1      50.711  25.442  30.245  1.00  0.00     0.000 A 
ENDBRANCH  27  41
BRANCH  28  47
ATOM     47  C   UNL A   1      38.558  29.288  29.003  1.00  0.00    -0.014 A 
ATOM     48  C   UNL A   1      38.071  29.846  27.812  1.00  0.00     0.009 A 
ATOM     49  C   UNL A   1      37.682  29.142  30.092  1.00  0.00     0.009 A 
ATOM     50  C   UNL A   1      36.743  30.275  27.724  1.00  0.00     0.001 A 
ATOM     51  C   UNL A   1      36.349  29.538  29.989  1.00  0.00     0.001 A 
ATOM     52  C   UNL A   1      35.883  30.115  28.810  1.00  0.00     0.000 A 
ENDBRANCH  28  47
BRANCH  40  53
ATOM     53  C   UNL A   1      44.384  32.374  31.222  1.00  0.00    -0.014 A 
ATOM     54  C   UNL A   1      44.329  32.664  32.594  1.00  0.00     0.009 A 
ATOM     55  C   UNL A   1      44.728  33.394  30.321  1.00  0.00     0.009 A 
ATOM     56  C   UNL A   1      44.575  33.961  33.050  1.00  0.00     0.001 A 
ATOM     57  C   UNL A   1      45.005  34.682  30.784  1.00  0.00     0.001 A 
ATOM     58  C   UNL A   1      44.918  34.966  32.145  1.00  0.00     0.000 A 
ENDBRANCH  40  53
ENDBRANCH  14  15
ENDBRANCH   7   9
ENDBRANCH   4   5
ENDBRANCH   3   4
ENDBRANCH   2   3
ENDBRANCH   1   2
BRANCH   1  59
ATOM     59  C   UNL A   1      33.516  20.203  25.702  1.00  0.00     0.021 C 
BRANCH  59  60
ATOM     60  C   UNL A   1      32.237  20.838  25.175  1.00  0.00     0.116 C 
BRANCH  60  61
ATOM     61  N   UNL A   1      31.603  21.649  26.186  1.00  0.00    -0.356 N 
ATOM     62  C   UNL A   1      31.667  22.952  26.546  1.00  0.00     0.226 C 
ATOM     63  H   UNL A   1      30.977  21.133  26.745  1.00  0.00     0.163 HD
ATOM     64  O   UNL A   1      30.975  23.241  27.532  1.00  0.00    -0.274 OA
BRANCH  62  65
ATOM     65  C   UNL A   1      32.488  24.045  25.799  1.00  0.00     0.050 C 
ATOM     66  C   UNL A   1      33.964  23.784  26.274  1.00  0.00     0.017 C 
ATOM     67  C   UNL A   1      32.448  23.921  24.254  1.00  0.00     0.017 C 
ATOM     68  C   UNL A   1      35.054  24.496  25.482  1.00  0.00     0.001 C 
ATOM     69  C   UNL A   1      33.598  24.562  23.478  1.00  0.00     0.001 C 
ATOM     70  C   UNL A   1      34.954  24.148  24.010  1.00  0.00     0.000 C 
BRANCH  65  71
ATOM     71  C   UNL A   1      32.072  25.474  26.283  1.00  0.00     0.023 C 
BRANCH  71  72
ATOM     72  C   UNL A   1      30.678  26.025  25.903  1.00  0.00     0.057 C 
BRANCH  72  73
ATOM     73  C   UNL A   1      30.651  27.139  24.882  1.00  0.00     0.040 A 
ATOM     74  C   UNL A   1      29.918  26.996  23.705  1.00  0.00     0.024 A 
ATOM     75  N   UNL A   1      31.335  28.271  25.161  1.00  0.00    -0.261 NA
ATOM     76  C   UNL A   1      29.791  28.090  22.850  1.00  0.00     0.003 A 
ATOM     77  C   UNL A   1      31.194  29.319  24.322  1.00  0.00     0.111 A 
ATOM     78  C   UNL A   1      30.424  29.284  23.174  1.00  0.00     0.020 A 
ENDBRANCH  72  73
ENDBRANCH  71  72
ENDBRANCH  65  71
ENDBRANCH  62  65
ENDBRANCH  60  61
ENDBRANCH  59  60
ENDBRANCH   1  59
TORSDOF 16
ENDMDL
MODEL 2
REMARK VINA RESULT:     -10.7      1.487      6.963
REMARK SMILES O=C(NCCCCCCNC(=O)C1(CCc2ccccn2)CCCCC1)c1ccc(-c2c3nc(c(-c4ccccc4)c4ccc([nH]4)c(-c4ccccc4)c4nc(c(-c5ccccc5)c5ccc2[nH]5)C=C4)C=C3)cc1
REMARK SMILES IDX 7 1 6 2 5 3 4 4 3 5 1 6 2 7 27 9 28 10 74 11 29 12 73 13
REMARK SMILES IDX 30 14 31 15 32 16 67 17 33 18 72 19 66 20 68 21 34 22 71 23
REMARK SMILES IDX 65 24 64 25 35 27 57 28 42 29 56 30 43 31 46 32 55 33 69 34
REMARK SMILES IDX 44 35 45 36 54 38 70 39 47 40 36 41 37 42 41 43 38 44 40 45
REMARK SMILES IDX 39 46 58 47 59 48 63 49 60 50 62 51 61 52 48 53 49 54 53 55
REMARK SMILES IDX 50 56 52 57 51 58 8 59 9 60 10 61 11 62 12 64 13 65 22 66
REMARK SMILES IDX 26 67 23 68 25 69 24 70 14 71 15 72 16 73 17 74 21 75 18 76
REMARK SMILES IDX 20 77 19 78
REMARK H PARENT 3 8 68 26 46 37 10 63
REMARK Flexibility Score: inf
ROOT
ATOM      1  C   UNL A   1      36.716  21.596  25.636  1.00  0.00     0.002 C 
ENDROOT
BRANCH   1   2
ATOM      2  C   UNL A   1      37.345  20.803  24.484  1.00  0.00     0.002 C 
BRANCH   2   3
ATOM      3  C   UNL A   1      38.207  19.614  24.907  1.00  0.00     0.021 C 
BRANCH   3   4
ATOM      4  C   UNL A   1      39.205  19.933  26.010  1.00  0.00     0.116 C 
BRANCH   4   5
ATOM      5  N   UNL A   1      40.417  19.142  25.889  1.00  0.00    -0.352 N 
ATOM      6  O   UNL A   1      42.638  18.808  25.667  1.00  0.00    -0.269 OA
ATOM      7  C   UNL A   1      41.723  19.548  25.998  1.00  0.00     0.251 C 
ATOM      8  H   UNL A   1      40.283  18.184  25.704  1.00  0.00     0.163 HD
BRANCH   7   9
ATOM      9  C   UNL A   1      42.009  20.903  26.513  1.00  0.00     0.039 A 
ATOM     10  C   UNL A   1      41.993  21.149  27.889  1.00  0.00     0.014 A 
ATOM     11  C   UNL A   1      42.301  21.930  25.613  1.00  0.00     0.014 A 
ATOM     12  C   UNL A   1      42.144  22.446  28.358  1.00  0.00     0.010 A 
ATOM     13  C   UNL A   1      42.548  23.217  26.094  1.00  0.00     0.010 A 
ATOM     14  C   UNL A   1      42.458  23.486  27.468  1.00  0.00    -0.014 A 
BRANCH  14  15
ATOM     15  C   UNL A   1      42.783  24.825  28.015  1.00  0.00     0.031 A 
ATOM     16  C   UNL A   1      41.717  25.851  28.258  1.00  0.00     0.074 A 
ATOM     17  C   UNL A   1      44.072  25.093  28.307  1.00  0.00     0.049 A 
ATOM     18  N   UNL A   1      41.842  27.064  28.736  1.00  0.00    -0.248 NA
ATOM     19  C   UNL A   1      40.335  25.478  27.920  1.00  0.00     0.031 C 
ATOM     20  C   UNL A   1      45.193  24.169  28.106  1.00  0.00     0.029 A 
ATOM     21  N   UNL A   1      44.656  26.207  28.849  1.00  0.00    -0.354 N 
ATOM     22  C   UNL A   1      40.563  27.606  28.735  1.00  0.00     0.074 A 
ATOM     23  C   UNL A   1      39.678  26.598  28.192  1.00  0.00     0.031 C 
ATOM     24  C   UNL A   1      46.317  24.734  28.566  1.00  0.00     0.029 A 
ATOM     25  C   UNL A   1      46.013  26.082  29.021  1.00  0.00     0.049 A 
ATOM     26  H   UNL A   1      44.153  27.018  29.091  1.00  0.00     0.167 HD
ATOM     27  C   UNL A   1      40.168  28.833  29.153  1.00  0.00     0.031 A 
ATOM     28  C   UNL A   1      46.921  26.966  29.473  1.00  0.00     0.031 A 
ATOM     29  C   UNL A   1      41.058  29.830  29.688  1.00  0.00     0.049 A 
ATOM     30  C   UNL A   1      46.457  28.330  29.886  1.00  0.00     0.074 A 
ATOM     31  C   UNL A   1      40.751  31.094  30.164  1.00  0.00     0.029 A 
ATOM     32  N   UNL A   1      42.432  29.681  29.810  1.00  0.00    -0.354 N 
ATOM     33  N   UNL A   1      45.238  28.814  29.913  1.00  0.00    -0.248 NA
ATOM     34  C   UNL A   1      47.492  29.270  30.332  1.00  0.00     0.031 C 
ATOM     35  C   UNL A   1      41.944  31.729  30.521  1.00  0.00     0.029 A 
ATOM     36  C   UNL A   1      42.989  30.839  30.329  1.00  0.00     0.049 A 
ATOM     37  H   UNL A   1      42.936  28.872  29.565  1.00  0.00     0.167 HD
ATOM     38  C   UNL A   1      45.358  30.108  30.397  1.00  0.00     0.074 A 
ATOM     39  C   UNL A   1      46.764  30.323  30.674  1.00  0.00     0.031 C 
ATOM     40  C   UNL A   1      44.391  31.036  30.594  1.00  0.00     0.031 A 
BRANCH  27  41
ATOM     41  C   UNL A   1      38.711  29.182  29.022  1.00  0.00    -0.014 A 
ATOM     42  C   UNL A   1      37.818  29.013  30.091  1.00  0.00     0.009 A 
ATOM     43  C   UNL A   1      38.237  29.746  27.826  1.00  0.00     0.009 A 
ATOM     44  C   UNL A   1      36.476  29.377  29.956  1.00  0.00     0.001 A 
ATOM     45  C   UNL A   1      36.901  30.135  27.703  1.00  0.00     0.001 A 
ATOM     46  C   UNL A   1      36.020  29.944  28.766  1.00  0.00     0.000 A 
ENDBRANCH  27  41
BRANCH  28  47
ATOM     47  C   UNL A   1      48.357  26.592  29.528  1.00  0.00    -0.014 A 
ATOM     48  C   UNL A   1      48.868  25.866  30.614  1.00  0.00     0.009 A 
ATOM     49  C   UNL A   1      49.227  26.955  28.486  1.00  0.00     0.009 A 
ATOM     50  C   UNL A   1      50.225  25.537  30.668  1.00  0.00     0.001 A 
ATOM     51  C   UNL A   1      50.573  26.595  28.527  1.00  0.00     0.001 A 
ATOM     52  C   UNL A   1      51.074  25.897  29.622  1.00  0.00     0.000 A 
ENDBRANCH  28  47
BRANCH  40  53
ATOM     53  C   UNL A   1      44.822  32.354  31.170  1.00  0.00    -0.014 A 
ATOM     54  C   UNL A   1      45.123  33.448  30.344  1.00  0.00     0.009 A 
ATOM     55  C   UNL A   1      44.904  32.507  32.563  1.00  0.00     0.009 A 
ATOM     56  C   UNL A   1      45.535  34.660  30.903  1.00  0.00     0.001 A 
ATOM     57  C   UNL A   1      45.285  33.729  33.119  1.00  0.00     0.001 A 
ATOM     58  C   UNL A   1      45.610  34.800  32.289  1.00  0.00     0.000 A 
ENDBRANCH  40  53
ENDBRANCH  14  15
ENDBRANCH   7   9
ENDBRANCH   4   5
ENDBRANCH   3   4
ENDBRANCH   2   3
ENDBRANCH   1   2
BRANCH   1  59
ATOM     59  C   UNL A   1      37.176  23.054  25.756  1.00  0.00     0.021 C 
BRANCH  59  60
ATOM     60  C   UNL A   1      36.057  24.065  25.542  1.00  0.00     0.116 C 
BRANCH  60  61
ATOM     61  N   UNL A   1      34.873  23.696  26.282  1.00  0.00    -0.356 N 
ATOM     62  C   UNL A   1      33.585  23.437  25.957  1.00  0.00     0.226 C 
ATOM     63  H   UNL A   1      35.044  23.613  27.248  1.00  0.00     0.163 HD
ATOM     64  O   UNL A   1      32.855  23.198  26.929  1.00  0.00    -0.274 OA
BRANCH  62  65
ATOM     65  C   UNL A   1      33.022  23.391  24.506  1.00  0.00     0.050 C 
ATOM     66  C   UNL A   1      31.473  23.572  24.706  1.00  0.00     0.017 C 
ATOM     67  C   UNL A   1      33.529  24.538  23.593  1.00  0.00     0.017 C 
ATOM     68  C   UNL A   1      30.670  23.879  23.448  1.00  0.00     0.001 C 
ATOM     69  C   UNL A   1      32.664  24.896  22.386  1.00  0.00     0.001 C 
ATOM     70  C   UNL A   1      31.213  25.115  22.759  1.00  0.00     0.000 C 
BRANCH  65  71
ATOM     71  C   UNL A   1      33.263  21.983  23.865  1.00  0.00     0.023 C 
BRANCH  71  72
ATOM     72  C   UNL A   1      32.642  20.734  24.532  1.00  0.00     0.057 C 
BRANCH  72  73
ATOM     73  C   UNL A   1      33.153  19.393  24.057  1.00  0.00     0.040 A 
ATOM     74  C   UNL A   1      34.300  18.838  24.623  1.00  0.00     0.024 A 
ATOM     75  N   UNL A   1      32.454  18.754  23.094  1.00  0.00    -0.261 NA
ATOM     76  C   UNL A   1      34.667  17.540  24.271  1.00  0.00     0.003 A 
ATOM     77  C   UNL A   1      32.824  17.495  22.772  1.00  0.00     0.111 A 
ATOM     78  C   UNL A   1      33.902  16.844  23.343  1.00  0.00     0.020 A 
ENDBRANCH  72  73
ENDBRANCH  71  72
ENDBRANCH  65  71
ENDBRANCH  62  65
ENDBRANCH  60  61
ENDBRANCH  59  60
ENDBRANCH   1  59
TORSDOF 16
ENDMDL
MODEL 3
REMARK VINA RESULT:     -10.6      2.161      7.698
REMARK SMILES O=C(NCCCCCCNC(=O)C1(CCc2ccccn2)CCCCC1)c1ccc(-c2c3nc(c(-c4ccccc4)c4ccc([nH]4)c(-c4ccccc4)c4nc(c(-c5ccccc5)c5ccc2[nH]5)C=C4)C=C3)cc1
REMARK SMILES IDX 7 1 6 2 5 3 4 4 3 5 1 6 2 7 27 9 28 10 74 11 29 12 73 13
REMARK SMILES IDX 30 14 31 15 32 16 67 17 33 18 72 19 66 20 68 21 34 22 71 23
REMARK SMILES IDX 65 24 64 25 35 27 57 28 42 29 56 30 43 31 46 32 55 33 69 34
REMARK SMILES IDX 44 35 45 36 54 38 70 39 47 40 36 41 37 42 41 43 38 44 40 45
REMARK SMILES IDX 39 46 58 47 59 48 63 49 60 50 62 51 61 52 48 53 49 54 53 55
REMARK SMILES IDX 50 56 52 57 51 58 8 59 9 60 10 61 11 62 12 64 13 65 22 66
REMARK SMILES IDX 26 67 23 68 25 69 24 70 14 71 15 72 16 73 17 74 21 75 18 76
REMARK SMILES IDX 20 77 19 78
REMARK H PARENT 3 8 68 26 46 37 10 63
REMARK Flexibility Score: inf
ROOT
ATOM      1  C   UNL A   1      32.232  26.527  26.281  1.00  0.00     0.002 C 
ENDROOT
BRANCH   1   2
ATOM      2  C   UNL A   1      32.873  27.428  25.217  1.00  0.00     0.002 C 
BRANCH   2   3
ATOM      3  C   UNL A   1      33.947  28.384  25.735  1.00  0.00     0.021 C 
BRANCH   3   4
ATOM      4  C   UNL A   1      33.933  28.572  27.245  1.00  0.00     0.116 C 
BRANCH   4   5
ATOM      5  N   UNL A   1      33.778  29.968  27.614  1.00  0.00    -0.352 N 
ATOM      6  O   UNL A   1      34.301  31.874  28.705  1.00  0.00    -0.269 OA
ATOM      7  C   UNL A   1      34.656  30.782  28.285  1.00  0.00     0.251 C 
ATOM      8  H   UNL A   1      32.928  30.388  27.348  1.00  0.00     0.163 HD
BRANCH   7   9
ATOM      9  C   UNL A   1      36.040  30.313  28.504  1.00  0.00     0.039 A 
ATOM     10  C   UNL A   1      36.987  30.417  27.481  1.00  0.00     0.014 A 
ATOM     11  C   UNL A   1      36.392  29.773  29.743  1.00  0.00     0.014 A 
ATOM     12  C   UNL A   1      38.249  29.867  27.653  1.00  0.00     0.010 A 
ATOM     13  C   UNL A   1      37.692  29.307  29.946  1.00  0.00     0.010 A 
ATOM     14  C   UNL A   1      38.625  29.338  28.898  1.00  0.00    -0.014 A 
BRANCH  14  15
ATOM     15  C   UNL A   1      40.030  28.916  29.104  1.00  0.00     0.031 A 
ATOM     16  C   UNL A   1      41.037  29.830  29.737  1.00  0.00     0.074 A 
ATOM     17  C   UNL A   1      40.381  27.672  28.719  1.00  0.00     0.049 A 
ATOM     18  N   UNL A   1      42.302  29.605  29.989  1.00  0.00    -0.248 NA
ATOM     19  C   UNL A   1      40.573  31.167  30.136  1.00  0.00     0.031 C 
ATOM     20  C   UNL A   1      39.483  26.699  28.087  1.00  0.00     0.029 A 
ATOM     21  N   UNL A   1      41.574  27.006  28.815  1.00  0.00    -0.354 N 
ATOM     22  C   UNL A   1      42.791  30.777  30.553  1.00  0.00     0.074 A 
ATOM     23  C   UNL A   1      41.692  31.718  30.590  1.00  0.00     0.031 C 
ATOM     24  C   UNL A   1      40.142  25.548  27.901  1.00  0.00     0.029 A 
ATOM     25  C   UNL A   1      41.523  25.722  28.328  1.00  0.00     0.049 A 
ATOM     26  H   UNL A   1      42.388  27.406  29.198  1.00  0.00     0.167 HD
ATOM     27  C   UNL A   1      44.042  31.038  31.001  1.00  0.00     0.031 A 
ATOM     28  C   UNL A   1      42.488  24.793  28.210  1.00  0.00     0.031 A 
ATOM     29  C   UNL A   1      45.130  30.095  30.955  1.00  0.00     0.049 A 
ATOM     30  C   UNL A   1      43.873  25.130  28.675  1.00  0.00     0.074 A 
ATOM     31  C   UNL A   1      46.429  30.255  31.408  1.00  0.00     0.029 A 
ATOM     32  N   UNL A   1      45.050  28.819  30.418  1.00  0.00    -0.354 N 
ATOM     33  N   UNL A   1      44.309  26.230  29.240  1.00  0.00    -0.248 NA
ATOM     34  C   UNL A   1      44.899  24.097  28.487  1.00  0.00     0.031 C 
ATOM     35  C   UNL A   1      47.148  29.098  31.094  1.00  0.00     0.029 A 
ATOM     36  C   UNL A   1      46.282  28.191  30.504  1.00  0.00     0.049 A 
ATOM     37  H   UNL A   1      44.237  28.419  30.033  1.00  0.00     0.167 HD
ATOM     38  C   UNL A   1      45.656  26.014  29.492  1.00  0.00     0.074 A 
ATOM     39  C   UNL A   1      45.957  24.670  29.043  1.00  0.00     0.031 C 
ATOM     40  C   UNL A   1      46.563  26.855  30.047  1.00  0.00     0.031 A 
BRANCH  27  41
ATOM     41  C   UNL A   1      44.317  32.409  31.553  1.00  0.00    -0.014 A 
ATOM     42  C   UNL A   1      44.727  33.465  30.725  1.00  0.00     0.009 A 
ATOM     43  C   UNL A   1      44.103  32.664  32.918  1.00  0.00     0.009 A 
ATOM     44  C   UNL A   1      44.942  34.739  31.256  1.00  0.00     0.001 A 
ATOM     45  C   UNL A   1      44.292  33.945  33.442  1.00  0.00     0.001 A 
ATOM     46  C   UNL A   1      44.718  34.980  32.611  1.00  0.00     0.000 A 
ENDBRANCH  27  41
BRANCH  28  47
ATOM     47  C   UNL A   1      42.179  23.474  27.604  1.00  0.00    -0.014 A 
ATOM     48  C   UNL A   1      42.393  23.245  26.237  1.00  0.00     0.009 A 
ATOM     49  C   UNL A   1      41.671  22.430  28.395  1.00  0.00     0.009 A 
ATOM     50  C   UNL A   1      42.079  22.007  25.670  1.00  0.00     0.001 A 
ATOM     51  C   UNL A   1      41.391  21.184  27.833  1.00  0.00     0.001 A 
ATOM     52  C   UNL A   1      41.584  20.977  26.469  1.00  0.00     0.000 A 
ENDBRANCH  28  47
BRANCH  40  53
ATOM     53  C   UNL A   1      47.956  26.324  30.229  1.00  0.00    -0.014 A 
ATOM     54  C   UNL A   1      48.914  26.421  29.207  1.00  0.00     0.009 A 
ATOM     55  C   UNL A   1      48.320  25.741  31.453  1.00  0.00     0.009 A 
ATOM     56  C   UNL A   1      50.199  25.908  29.396  1.00  0.00     0.001 A 
ATOM     57  C   UNL A   1      49.615  25.260  31.649  1.00  0.00     0.001 A 
ATOM     58  C   UNL A   1      50.549  25.334  30.618  1.00  0.00     0.000 A 
ENDBRANCH  40  53
ENDBRANCH  14  15
ENDBRANCH   7   9
ENDBRANCH   4   5
ENDBRANCH   3   4
ENDBRANCH   2   3
ENDBRANCH   1   2
BRANCH   1  59
ATOM     59  C   UNL A   1      30.766  26.156  26.028  1.00  0.00     0.021 C 
BRANCH  59  60
ATOM     60  C   UNL A   1      30.484  24.665  26.155  1.00  0.00     0.116 C 
BRANCH  60  61
ATOM     61  N   UNL A   1      30.439  24.031  24.859  1.00  0.00    -0.356 N 
ATOM     62  C   UNL A   1      31.317  23.327  24.108  1.00  0.00     0.226 C 
ATOM     63  H   UNL A   1      29.564  24.137  24.419  1.00  0.00     0.163 HD
ATOM     64  O   UNL A   1      30.882  22.993  22.998  1.00  0.00    -0.274 OA
BRANCH  62  65
ATOM     65  C   UNL A   1      32.747  22.909  24.563  1.00  0.00     0.050 C 
ATOM     66  C   UNL A   1      33.690  23.767  23.643  1.00  0.00     0.017 C 
ATOM     67  C   UNL A   1      33.067  23.254  26.041  1.00  0.00     0.017 C 
ATOM     68  C   UNL A   1      35.158  23.814  24.053  1.00  0.00     0.001 C 
ATOM     69  C   UNL A   1      34.542  23.389  26.416  1.00  0.00     0.001 C 
ATOM     70  C   UNL A   1      35.295  24.310  25.480  1.00  0.00     0.000 C 
BRANCH  65  71
ATOM     71  C   UNL A   1      33.008  21.399  24.245  1.00  0.00     0.023 C 
BRANCH  71  72
ATOM     72  C   UNL A   1      32.186  20.318  24.985  1.00  0.00     0.057 C 
BRANCH  72  73
ATOM     73  C   UNL A   1      32.560  18.880  24.706  1.00  0.00     0.040 A 
ATOM     74  C   UNL A   1      32.993  18.501  23.436  1.00  0.00     0.024 A 
ATOM     75  N   UNL A   1      32.482  17.996  25.724  1.00  0.00    -0.261 NA
ATOM     76  C   UNL A   1      33.468  17.204  23.243  1.00  0.00     0.003 A 
ATOM     77  C   UNL A   1      32.953  16.748  25.517  1.00  0.00     0.111 A 
ATOM     78  C   UNL A   1      33.469  16.314  24.310  1.00  0.00     0.020 A 
ENDBRANCH  72  73
ENDBRANCH  71  72
ENDBRANCH  65  71
ENDBRANCH  62  65
ENDBRANCH  60  61
ENDBRANCH  59  60
ENDBRANCH   1  59
TORSDOF 16
ENDMDL
