MODEL 1
REMARK VINA RESULT:     -11.6      0.000      0.000
REMARK SMILES CC(C)CCc1cc2c(cc1Cl)C=C(C(=O)NCCCCCCNC(=O)c1ccc(-c3c4nc(c(-c5ccccc5)c5ccc([nH]5)c(-c5ccccc5)c5nc(c(-c6ccccc6)c6ccc3[nH]6)C=C5)C=C4)cc1)[C@H](C(F)(F)F)O2
REMARK SMILES IDX 20 1 19 2 18 3 17 4 15 5 16 6 14 8 6 9 7 10 11 11 8 12 10 13
REMARK SMILES IDX 12 14 9 15 80 16 13 17 75 18 5 19 4 20 2 21 1 22 3 23 76 24
REMARK SMILES IDX 77 25 78 26 79 27 21 28 22 29 23 30 24 31 25 32 26 34 27 35
REMARK SMILES IDX 28 36 74 37 29 38 73 39 30 40 31 41 32 42 67 43 33 44 72 45
REMARK SMILES IDX 66 46 68 47 34 48 71 49 65 50 64 51 35 53 57 54 42 55 56 56
REMARK SMILES IDX 43 57 46 58 55 59 69 60 44 61 45 62 54 64 70 65 47 66 36 67
REMARK SMILES IDX 37 68 41 69 38 70 40 71 39 72 58 73 59 74 63 75 60 76 62 77
REMARK SMILES IDX 61 78 48 79 49 80 53 81 50 82 52 83 51 84
REMARK H PARENT 17 7 24 33 68 52 46 63
REMARK Flexibility Score: inf
ROOT
ATOM      1  C   UNL A   1      36.908  22.424  24.302  1.00  0.00     0.002 C 
ENDROOT
BRANCH   1   2
ATOM      2  C   UNL A   1      35.717  23.117  23.634  1.00  0.00     0.021 C 
BRANCH   2   3
ATOM      3  C   UNL A   1      35.084  24.222  24.474  1.00  0.00     0.116 C 
BRANCH   3   4
ATOM      4  N   UNL A   1      33.904  23.755  25.171  1.00  0.00    -0.352 N 
ATOM      5  C   UNL A   1      32.635  24.176  25.363  1.00  0.00     0.251 C 
ATOM      6  O   UNL A   1      31.951  23.448  26.091  1.00  0.00    -0.270 OA
ATOM      7  H   UNL A   1      34.072  22.898  25.628  1.00  0.00     0.163 HD
BRANCH   5   8
ATOM      8  C   UNL A   1      32.029  25.405  24.773  1.00  0.00     0.067 C 
ATOM      9  C   UNL A   1      28.786  28.734  22.801  1.00  0.00    -0.026 A 
ATOM     10  C   UNL A   1      30.186  28.596  22.776  1.00  0.00     0.052 A 
ATOM     11  C   UNL A   1      28.037  27.754  23.477  1.00  0.00     0.045 A 
ATOM     12  C   UNL A   1      30.803  27.514  23.401  1.00  0.00     0.128 A 
ATOM     13  C   UNL A   1      28.657  26.626  24.021  1.00  0.00     0.032 A 
ATOM     14  Cl  UNL A   1      26.335  27.887  23.737  1.00  0.00    -0.084 Cl
ATOM     15  C   UNL A   1      30.043  26.503  23.981  1.00  0.00     0.019 A 
ATOM     16  O   UNL A   1      32.170  27.482  23.401  1.00  0.00    -0.475 OA
ATOM     17  C   UNL A   1      30.709  25.331  24.527  1.00  0.00     0.025 C 
ATOM     18  C   UNL A   1      32.762  26.684  24.471  1.00  0.00     0.314 C 
BRANCH   9  19
ATOM     19  C   UNL A   1      28.173  29.922  22.090  1.00  0.00     0.037 C 
BRANCH  19  20
ATOM     20  C   UNL A   1      27.818  31.094  23.025  1.00  0.00     0.008 C 
BRANCH  20  21
ATOM     21  C   UNL A   1      27.901  32.498  22.394  1.00  0.00    -0.017 C 
ATOM     22  C   UNL A   1      29.013  33.349  23.015  1.00  0.00     0.007 C 
ATOM     23  C   UNL A   1      28.138  32.398  20.884  1.00  0.00     0.007 C 
ENDBRANCH  20  21
ENDBRANCH  19  20
ENDBRANCH   9  19
BRANCH  18  24
ATOM     24  C   UNL A   1      32.992  27.547  25.732  1.00  0.00     0.429 C 
ATOM     25  F   UNL A   1      31.947  27.497  26.593  1.00  0.00    -0.167 F 
ATOM     26  F   UNL A   1      34.076  27.105  26.420  1.00  0.00    -0.167 F 
ATOM     27  F   UNL A   1      33.203  28.852  25.452  1.00  0.00    -0.167 F 
ENDBRANCH  18  24
ENDBRANCH   5   8
ENDBRANCH   3   4
ENDBRANCH   2   3
ENDBRANCH   1   2
BRANCH   1  28
ATOM     28  C   UNL A   1      36.606  21.064  24.941  1.00  0.00     0.002 C 
BRANCH  28  29
ATOM     29  C   UNL A   1      37.761  20.060  24.926  1.00  0.00     0.021 C 
BRANCH  29  30
ATOM     30  C   UNL A   1      38.975  20.480  25.746  1.00  0.00     0.116 C 
BRANCH  30  31
ATOM     31  N   UNL A   1      39.984  19.436  25.810  1.00  0.00    -0.352 N 
ATOM     32  C   UNL A   1      41.324  19.540  26.100  1.00  0.00     0.251 C 
ATOM     33  H   UNL A   1      39.663  18.525  25.619  1.00  0.00     0.163 HD
ATOM     34  O   UNL A   1      42.074  18.589  25.931  1.00  0.00    -0.269 OA
BRANCH  32  35
ATOM     35  C   UNL A   1      41.857  20.828  26.592  1.00  0.00     0.039 A 
ATOM     36  C   UNL A   1      41.859  21.116  27.958  1.00  0.00     0.014 A 
ATOM     37  C   UNL A   1      42.330  21.766  25.671  1.00  0.00     0.014 A 
ATOM     38  C   UNL A   1      42.177  22.397  28.389  1.00  0.00     0.010 A 
ATOM     39  C   UNL A   1      42.732  23.027  26.117  1.00  0.00     0.010 A 
ATOM     40  C   UNL A   1      42.614  23.369  27.473  1.00  0.00    -0.014 A 
BRANCH  40  41
ATOM     41  C   UNL A   1      42.943  24.734  27.958  1.00  0.00     0.031 A 
ATOM     42  C   UNL A   1      41.857  25.748  28.194  1.00  0.00     0.074 A 
ATOM     43  C   UNL A   1      44.224  25.039  28.238  1.00  0.00     0.049 A 
ATOM     44  N   UNL A   1      41.964  26.977  28.637  1.00  0.00    -0.248 NA
ATOM     45  C   UNL A   1      40.474  25.339  27.899  1.00  0.00     0.031 C 
ATOM     46  C   UNL A   1      45.360  24.129  28.074  1.00  0.00     0.029 A 
ATOM     47  N   UNL A   1      44.785  26.183  28.747  1.00  0.00    -0.354 N 
ATOM     48  C   UNL A   1      40.672  27.488  28.657  1.00  0.00     0.074 A 
ATOM     49  C   UNL A   1      39.798  26.450  28.156  1.00  0.00     0.031 C 
ATOM     50  C   UNL A   1      46.470  24.727  28.528  1.00  0.00     0.029 A 
ATOM     51  C   UNL A   1      46.141  26.085  28.949  1.00  0.00     0.049 A 
ATOM     52  H   UNL A   1      44.266  26.995  28.947  1.00  0.00     0.167 HD
ATOM     53  C   UNL A   1      40.254  28.709  29.066  1.00  0.00     0.031 A 
ATOM     54  C   UNL A   1      47.027  26.988  29.407  1.00  0.00     0.031 A 
ATOM     55  C   UNL A   1      41.126  29.734  29.575  1.00  0.00     0.049 A 
ATOM     56  C   UNL A   1      46.544  28.353  29.802  1.00  0.00     0.074 A 
ATOM     57  C   UNL A   1      40.788  30.997  30.030  1.00  0.00     0.029 A 
ATOM     58  N   UNL A   1      42.502  29.617  29.697  1.00  0.00    -0.354 N 
ATOM     59  N   UNL A   1      45.318  28.816  29.820  1.00  0.00    -0.248 NA
ATOM     60  C   UNL A   1      47.562  29.320  30.237  1.00  0.00     0.031 C 
ATOM     61  C   UNL A   1      41.966  31.666  30.371  1.00  0.00     0.029 A 
ATOM     62  C   UNL A   1      43.030  30.796  30.196  1.00  0.00     0.049 A 
ATOM     63  H   UNL A   1      43.025  28.815  29.465  1.00  0.00     0.167 HD
ATOM     64  C   UNL A   1      45.414  30.123  30.279  1.00  0.00     0.074 A 
ATOM     65  C   UNL A   1      46.816  30.372  30.548  1.00  0.00     0.031 C 
ATOM     66  C   UNL A   1      44.426  31.033  30.458  1.00  0.00     0.031 A 
BRANCH  53  67
ATOM     67  C   UNL A   1      38.786  29.024  28.978  1.00  0.00    -0.014 A 
ATOM     68  C   UNL A   1      38.255  29.535  27.782  1.00  0.00     0.009 A 
ATOM     69  C   UNL A   1      37.951  28.920  30.101  1.00  0.00     0.009 A 
ATOM     70  C   UNL A   1      36.923  29.949  27.716  1.00  0.00     0.001 A 
ATOM     71  C   UNL A   1      36.612  29.310  30.025  1.00  0.00     0.001 A 
ATOM     72  C   UNL A   1      36.102  29.833  28.837  1.00  0.00     0.000 A 
ENDBRANCH  53  67
BRANCH  54  73
ATOM     73  C   UNL A   1      48.461  26.610  29.516  1.00  0.00    -0.014 A 
ATOM     74  C   UNL A   1      48.968  26.067  30.709  1.00  0.00     0.009 A 
ATOM     75  C   UNL A   1      49.344  26.846  28.451  1.00  0.00     0.009 A 
ATOM     76  C   UNL A   1      50.331  25.800  30.845  1.00  0.00     0.001 A 
ATOM     77  C   UNL A   1      50.703  26.546  28.579  1.00  0.00     0.001 A 
ATOM     78  C   UNL A   1      51.197  26.035  29.779  1.00  0.00     0.000 A 
ENDBRANCH  54  73
BRANCH  66  79
ATOM     79  C   UNL A   1      44.807  32.390  30.980  1.00  0.00    -0.014 A 
ATOM     80  C   UNL A   1      45.178  33.402  30.080  1.00  0.00     0.009 A 
ATOM     81  C   UNL A   1      44.906  32.633  32.358  1.00  0.00     0.009 A 
ATOM     82  C   UNL A   1      45.661  34.625  30.549  1.00  0.00     0.001 A 
ATOM     83  C   UNL A   1      45.362  33.868  32.824  1.00  0.00     0.001 A 
ATOM     84  C   UNL A   1      45.749  34.857  31.920  1.00  0.00     0.000 A 
ENDBRANCH  66  79
ENDBRANCH  40  41
ENDBRANCH  32  35
ENDBRANCH  30  31
ENDBRANCH  29  30
ENDBRANCH  28  29
ENDBRANCH   1  28
TORSDOF 17
ENDMDL
MODEL 2
REMARK VINA RESULT:     -11.6      0.490      5.737
REMARK SMILES CC(C)CCc1cc2c(cc1Cl)C=C(C(=O)NCCCCCCNC(=O)c1ccc(-c3c4nc(c(-c5ccccc5)c5ccc([nH]5)c(-c5ccccc5)c5nc(c(-c6ccccc6)c6ccc3[nH]6)C=C5)C=C4)cc1)[C@H](C(F)(F)F)O2
REMARK SMILES IDX 20 1 19 2 18 3 17 4 15 5 16 6 14 8 6 9 7 10 11 11 8 12 10 13
REMARK SMILES IDX 12 14 9 15 80 16 13 17 75 18 5 19 4 20 2 21 1 22 3 23 76 24
REMARK SMILES IDX 77 25 78 26 79 27 21 28 22 29 23 30 24 31 25 32 26 34 27 35
REMARK SMILES IDX 28 36 74 37 29 38 73 39 30 40 31 41 32 42 67 43 33 44 72 45
REMARK SMILES IDX 66 46 68 47 34 48 71 49 65 50 64 51 35 53 57 54 42 55 56 56
REMARK SMILES IDX 43 57 46 58 55 59 69 60 44 61 45 62 54 64 70 65 47 66 36 67
REMARK SMILES IDX 37 68 41 69 38 70 40 71 39 72 58 73 59 74 63 75 60 76 62 77
REMARK SMILES IDX 61 78 48 79 49 80 53 81 50 82 52 83 51 84
REMARK H PARENT 17 7 24 33 68 52 46 63
REMARK Flexibility Score: inf
ROOT
ATOM      1  C   UNL A   1      36.851  22.164  23.984  1.00  0.00     0.002 C 
ENDROOT
BRANCH   1   2
ATOM      2  C   UNL A   1      35.622  22.944  23.509  1.00  0.00     0.021 C 
BRANCH   2   3
ATOM      3  C   UNL A   1      35.064  23.922  24.538  1.00  0.00     0.116 C 
BRANCH   3   4
ATOM      4  N   UNL A   1      33.846  23.425  25.144  1.00  0.00    -0.352 N 
ATOM      5  C   UNL A   1      32.569  23.842  25.287  1.00  0.00     0.251 C 
ATOM      6  O   UNL A   1      31.843  23.080  25.935  1.00  0.00    -0.270 OA
ATOM      7  H   UNL A   1      33.985  22.544  25.563  1.00  0.00     0.163 HD
BRANCH   5   8
ATOM      8  C   UNL A   1      32.000  25.103  24.730  1.00  0.00     0.067 C 
ATOM      9  C   UNL A   1      28.848  28.594  22.892  1.00  0.00    -0.026 A 
ATOM     10  C   UNL A   1      30.241  28.397  22.827  1.00  0.00     0.052 A 
ATOM     11  C   UNL A   1      28.077  27.637  23.576  1.00  0.00     0.045 A 
ATOM     12  C   UNL A   1      30.828  27.281  23.419  1.00  0.00     0.128 A 
ATOM     13  C   UNL A   1      28.663  26.476  24.088  1.00  0.00     0.032 A 
ATOM     14  Cl  UNL A   1      26.391  27.838  23.885  1.00  0.00    -0.084 Cl
ATOM     15  C   UNL A   1      30.041  26.296  24.008  1.00  0.00     0.019 A 
ATOM     16  O   UNL A   1      32.191  27.192  23.381  1.00  0.00    -0.475 OA
ATOM     17  C   UNL A   1      30.672  25.088  24.520  1.00  0.00     0.025 C 
ATOM     18  C   UNL A   1      32.778  26.355  24.424  1.00  0.00     0.314 C 
BRANCH   9  19
ATOM     19  C   UNL A   1      28.267  29.817  22.214  1.00  0.00     0.037 C 
BRANCH  19  20
ATOM     20  C   UNL A   1      27.971  30.983  23.177  1.00  0.00     0.008 C 
BRANCH  20  21
ATOM     21  C   UNL A   1      27.938  32.384  22.535  1.00  0.00    -0.017 C 
ATOM     22  C   UNL A   1      29.043  33.296  23.076  1.00  0.00     0.007 C 
ATOM     23  C   UNL A   1      28.077  32.285  21.013  1.00  0.00     0.007 C 
ENDBRANCH  20  21
ENDBRANCH  19  20
ENDBRANCH   9  19
BRANCH  18  24
ATOM     24  C   UNL A   1      33.078  27.189  25.689  1.00  0.00     0.429 C 
ATOM     25  F   UNL A   1      32.856  28.513  25.504  1.00  0.00    -0.167 F 
ATOM     26  F   UNL A   1      32.274  26.806  26.714  1.00  0.00    -0.167 F 
ATOM     27  F   UNL A   1      34.354  27.066  26.116  1.00  0.00    -0.167 F 
ENDBRANCH  18  24
ENDBRANCH   5   8
ENDBRANCH   3   4
ENDBRANCH   2   3
ENDBRANCH   1   2
BRANCH   1  28
ATOM     28  C   UNL A   1      36.559  20.966  24.896  1.00  0.00     0.002 C 
BRANCH  28  29
ATOM     29  C   UNL A   1      37.667  19.913  24.971  1.00  0.00     0.021 C 
BRANCH  29  30
ATOM     30  C   UNL A   1      38.957  20.397  25.623  1.00  0.00     0.116 C 
BRANCH  30  31
ATOM     31  N   UNL A   1      39.924  19.326  25.792  1.00  0.00    -0.352 N 
ATOM     32  C   UNL A   1      41.247  19.400  26.161  1.00  0.00     0.251 C 
ATOM     33  H   UNL A   1      39.585  18.418  25.619  1.00  0.00     0.163 HD
ATOM     34  O   UNL A   1      41.973  18.420  26.077  1.00  0.00    -0.269 OA
BRANCH  32  35
ATOM     35  C   UNL A   1      41.792  20.691  26.631  1.00  0.00     0.039 A 
ATOM     36  C   UNL A   1      41.795  21.002  27.993  1.00  0.00     0.014 A 
ATOM     37  C   UNL A   1      42.276  21.608  25.696  1.00  0.00     0.014 A 
ATOM     38  C   UNL A   1      42.126  22.288  28.402  1.00  0.00     0.010 A 
ATOM     39  C   UNL A   1      42.691  22.873  26.120  1.00  0.00     0.010 A 
ATOM     40  C   UNL A   1      42.575  23.239  27.471  1.00  0.00    -0.014 A 
BRANCH  40  41
ATOM     41  C   UNL A   1      42.917  24.608  27.933  1.00  0.00     0.031 A 
ATOM     42  C   UNL A   1      44.352  25.036  28.077  1.00  0.00     0.074 A 
ATOM     43  C   UNL A   1      41.923  25.486  28.170  1.00  0.00     0.049 A 
ATOM     44  N   UNL A   1      44.829  26.199  28.445  1.00  0.00    -0.248 NA
ATOM     45  C   UNL A   1      45.388  24.037  27.770  1.00  0.00     0.031 C 
ATOM     46  C   UNL A   1      40.494  25.194  28.040  1.00  0.00     0.029 A 
ATOM     47  N   UNL A   1      41.960  26.807  28.540  1.00  0.00    -0.354 N 
ATOM     48  C   UNL A   1      46.212  26.067  28.430  1.00  0.00     0.074 A 
ATOM     49  C   UNL A   1      46.502  24.703  28.044  1.00  0.00     0.031 C 
ATOM     50  C   UNL A   1      39.796  26.315  28.266  1.00  0.00     0.029 A 
ATOM     51  C   UNL A   1      40.718  27.387  28.628  1.00  0.00     0.049 A 
ATOM     52  H   UNL A   1      42.797  27.292  28.724  1.00  0.00     0.167 HD
ATOM     53  C   UNL A   1      47.152  27.001  28.703  1.00  0.00     0.031 A 
ATOM     54  C   UNL A   1      40.354  28.635  28.974  1.00  0.00     0.031 A 
ATOM     55  C   UNL A   1      46.858  28.360  29.075  1.00  0.00     0.049 A 
ATOM     56  C   UNL A   1      41.416  29.636  29.325  1.00  0.00     0.074 A 
ATOM     57  C   UNL A   1      47.749  29.383  29.353  1.00  0.00     0.029 A 
ATOM     58  N   UNL A   1      45.584  28.885  29.219  1.00  0.00    -0.354 N 
ATOM     59  N   UNL A   1      42.719  29.494  29.299  1.00  0.00    -0.248 NA
ATOM     60  C   UNL A   1      40.962  30.966  29.756  1.00  0.00     0.031 C 
ATOM     61  C   UNL A   1      47.014  30.511  29.725  1.00  0.00     0.029 A 
ATOM     62  C   UNL A   1      45.666  30.212  29.610  1.00  0.00     0.049 A 
ATOM     63  H   UNL A   1      44.747  28.390  29.067  1.00  0.00     0.167 HD
ATOM     64  C   UNL A   1      43.241  30.718  29.696  1.00  0.00     0.074 A 
ATOM     65  C   UNL A   1      42.115  31.597  29.938  1.00  0.00     0.031 C 
ATOM     66  C   UNL A   1      44.539  31.076  29.849  1.00  0.00     0.031 A 
BRANCH  53  67
ATOM     67  C   UNL A   1      48.598  26.598  28.622  1.00  0.00    -0.014 A 
ATOM     68  C   UNL A   1      49.258  26.615  27.382  1.00  0.00     0.009 A 
ATOM     69  C   UNL A   1      49.278  26.100  29.744  1.00  0.00     0.009 A 
ATOM     70  C   UNL A   1      50.561  26.129  27.263  1.00  0.00     0.001 A 
ATOM     71  C   UNL A   1      50.592  25.640  29.628  1.00  0.00     0.001 A 
ATOM     72  C   UNL A   1      51.228  25.645  28.387  1.00  0.00     0.000 A 
ENDBRANCH  53  67
BRANCH  54  73
ATOM     73  C   UNL A   1      38.911  28.994  28.995  1.00  0.00    -0.014 A 
ATOM     74  C   UNL A   1      38.292  29.529  27.852  1.00  0.00     0.009 A 
ATOM     75  C   UNL A   1      38.160  28.862  30.172  1.00  0.00     0.009 A 
ATOM     76  C   UNL A   1      36.963  29.953  27.897  1.00  0.00     0.001 A 
ATOM     77  C   UNL A   1      36.820  29.257  30.204  1.00  0.00     0.001 A 
ATOM     78  C   UNL A   1      36.227  29.813  29.071  1.00  0.00     0.000 A 
ENDBRANCH  54  73
BRANCH  66  79
ATOM     79  C   UNL A   1      44.833  32.483  30.288  1.00  0.00    -0.014 A 
ATOM     80  C   UNL A   1      45.038  33.483  29.325  1.00  0.00     0.009 A 
ATOM     81  C   UNL A   1      45.017  32.794  31.644  1.00  0.00     0.009 A 
ATOM     82  C   UNL A   1      45.441  34.764  29.708  1.00  0.00     0.001 A 
ATOM     83  C   UNL A   1      45.392  34.084  32.026  1.00  0.00     0.001 A 
ATOM     84  C   UNL A   1      45.614  35.063  31.057  1.00  0.00     0.000 A 
ENDBRANCH  66  79
ENDBRANCH  40  41
ENDBRANCH  32  35
ENDBRANCH  30  31
ENDBRANCH  29  30
ENDBRANCH  28  29
ENDBRANCH   1  28
TORSDOF 17
ENDMDL
MODEL 3
REMARK VINA RESULT:     -11.3      3.843      9.187
REMARK SMILES CC(C)CCc1cc2c(cc1Cl)C=C(C(=O)NCCCCCCNC(=O)c1ccc(-c3c4nc(c(-c5ccccc5)c5ccc([nH]5)c(-c5ccccc5)c5nc(c(-c6ccccc6)c6ccc3[nH]6)C=C5)C=C4)cc1)[C@H](C(F)(F)F)O2
REMARK SMILES IDX 20 1 19 2 18 3 17 4 15 5 16 6 14 8 6 9 7 10 11 11 8 12 10 13
REMARK SMILES IDX 12 14 9 15 80 16 13 17 75 18 5 19 4 20 2 21 1 22 3 23 76 24
REMARK SMILES IDX 77 25 78 26 79 27 21 28 22 29 23 30 24 31 25 32 26 34 27 35
REMARK SMILES IDX 28 36 74 37 29 38 73 39 30 40 31 41 32 42 67 43 33 44 72 45
REMARK SMILES IDX 66 46 68 47 34 48 71 49 65 50 64 51 35 53 57 54 42 55 56 56
REMARK SMILES IDX 43 57 46 58 55 59 69 60 44 61 45 62 54 64 70 65 47 66 36 67
REMARK SMILES IDX 37 68 41 69 38 70 40 71 39 72 58 73 59 74 63 75 60 76 62 77
REMARK SMILES IDX 61 78 48 79 49 80 53 81 50 82 52 83 51 84
REMARK H PARENT 17 7 24 33 68 52 46 63
REMARK Flexibility Score: inf
ROOT
ATOM      1  C   UNL A   1      33.552  28.705  26.791  1.00  0.00     0.002 C 
ENDROOT
BRANCH   1   2
ATOM      2  C   UNL A   1      33.119  28.825  25.328  1.00  0.00     0.021 C 
BRANCH   2   3
ATOM      3  C   UNL A   1      33.784  27.820  24.393  1.00  0.00     0.116 C 
BRANCH   3   4
ATOM      4  N   UNL A   1      32.932  27.488  23.270  1.00  0.00    -0.352 N 
ATOM      5  C   UNL A   1      32.247  26.410  22.831  1.00  0.00     0.251 C 
ATOM      6  O   UNL A   1      31.657  26.571  21.757  1.00  0.00    -0.270 OA
ATOM      7  H   UNL A   1      32.820  28.256  22.663  1.00  0.00     0.163 HD
BRANCH   5   8
ATOM      8  C   UNL A   1      32.153  25.096  23.531  1.00  0.00     0.067 C 
ATOM      9  C   UNL A   1      33.082  20.419  25.193  1.00  0.00    -0.026 A 
ATOM     10  C   UNL A   1      31.924  21.213  25.093  1.00  0.00     0.052 A 
ATOM     11  C   UNL A   1      34.293  20.955  24.720  1.00  0.00     0.045 A 
ATOM     12  C   UNL A   1      31.984  22.488  24.534  1.00  0.00     0.128 A 
ATOM     13  C   UNL A   1      34.327  22.197  24.080  1.00  0.00     0.032 A 
ATOM     14  Cl  UNL A   1      35.816  20.170  24.938  1.00  0.00    -0.084 Cl
ATOM     15  C   UNL A   1      33.170  22.965  23.984  1.00  0.00     0.019 A 
ATOM     16  O   UNL A   1      30.837  23.231  24.536  1.00  0.00    -0.475 OA
ATOM     17  C   UNL A   1      33.177  24.254  23.308  1.00  0.00     0.025 C 
ATOM     18  C   UNL A   1      31.044  24.674  24.457  1.00  0.00     0.314 C 
BRANCH   9  19
ATOM     19  C   UNL A   1      32.951  19.036  25.794  1.00  0.00     0.037 C 
BRANCH  19  20
ATOM     20  C   UNL A   1      32.537  17.951  24.780  1.00  0.00     0.008 C 
BRANCH  20  21
ATOM     21  C   UNL A   1      33.317  17.951  23.450  1.00  0.00    -0.017 C 
ATOM     22  C   UNL A   1      34.092  16.648  23.232  1.00  0.00     0.007 C 
ATOM     23  C   UNL A   1      32.369  18.169  22.268  1.00  0.00     0.007 C 
ENDBRANCH  20  21
ENDBRANCH  19  20
ENDBRANCH   9  19
BRANCH  18  24
ATOM     24  C   UNL A   1      31.190  25.282  25.870  1.00  0.00     0.429 C 
ATOM     25  F   UNL A   1      30.579  26.486  25.984  1.00  0.00    -0.167 F 
ATOM     26  F   UNL A   1      30.616  24.473  26.799  1.00  0.00    -0.167 F 
ATOM     27  F   UNL A   1      32.477  25.463  26.241  1.00  0.00    -0.167 F 
ENDBRANCH  18  24
ENDBRANCH   5   8
ENDBRANCH   3   4
ENDBRANCH   2   3
ENDBRANCH   1   2
BRANCH   1  28
ATOM     28  C   UNL A   1      33.681  30.030  27.552  1.00  0.00     0.002 C 
BRANCH  28  29
ATOM     29  C   UNL A   1      32.576  31.054  27.279  1.00  0.00     0.021 C 
BRANCH  29  30
ATOM     30  C   UNL A   1      33.072  32.393  26.748  1.00  0.00     0.116 C 
BRANCH  30  31
ATOM     31  N   UNL A   1      32.582  33.512  27.534  1.00  0.00    -0.352 N 
ATOM     32  C   UNL A   1      33.120  34.079  28.666  1.00  0.00     0.251 C 
ATOM     33  H   UNL A   1      31.748  33.924  27.211  1.00  0.00     0.163 HD
ATOM     34  O   UNL A   1      32.485  34.899  29.314  1.00  0.00    -0.269 OA
BRANCH  32  35
ATOM     35  C   UNL A   1      34.466  33.663  29.111  1.00  0.00     0.039 A 
ATOM     36  C   UNL A   1      35.604  34.115  28.438  1.00  0.00     0.014 A 
ATOM     37  C   UNL A   1      34.587  32.787  30.192  1.00  0.00     0.014 A 
ATOM     38  C   UNL A   1      36.843  33.565  28.739  1.00  0.00     0.010 A 
ATOM     39  C   UNL A   1      35.847  32.301  30.550  1.00  0.00     0.010 A 
ATOM     40  C   UNL A   1      36.979  32.650  29.796  1.00  0.00    -0.014 A 
BRANCH  40  41
ATOM     41  C   UNL A   1      38.314  32.072  30.094  1.00  0.00     0.031 A 
ATOM     42  C   UNL A   1      39.257  32.760  31.043  1.00  0.00     0.074 A 
ATOM     43  C   UNL A   1      38.652  30.889  29.546  1.00  0.00     0.049 A 
ATOM     44  N   UNL A   1      40.449  32.384  31.434  1.00  0.00    -0.248 NA
ATOM     45  C   UNL A   1      38.811  34.034  31.632  1.00  0.00     0.031 C 
ATOM     46  C   UNL A   1      37.811  30.114  28.632  1.00  0.00     0.029 A 
ATOM     47  N   UNL A   1      39.776  30.116  29.699  1.00  0.00    -0.354 N 
ATOM     48  C   UNL A   1      40.899  33.377  32.296  1.00  0.00     0.074 A 
ATOM     49  C   UNL A   1      39.866  34.388  32.353  1.00  0.00     0.031 C 
ATOM     50  C   UNL A   1      38.419  28.954  28.353  1.00  0.00     0.029 A 
ATOM     51  C   UNL A   1      39.723  28.930  29.008  1.00  0.00     0.049 A 
ATOM     52  H   UNL A   1      40.545  30.387  30.251  1.00  0.00     0.167 HD
ATOM     53  C   UNL A   1      42.063  33.432  32.984  1.00  0.00     0.031 A 
ATOM     54  C   UNL A   1      40.625  27.937  28.898  1.00  0.00     0.031 A 
ATOM     55  C   UNL A   1      43.082  32.417  32.933  1.00  0.00     0.049 A 
ATOM     56  C   UNL A   1      41.931  28.051  29.629  1.00  0.00     0.074 A 
ATOM     57  C   UNL A   1      44.288  32.381  33.613  1.00  0.00     0.029 A 
ATOM     58  N   UNL A   1      43.017  31.265  32.166  1.00  0.00    -0.354 N 
ATOM     59  N   UNL A   1      42.336  28.993  30.444  1.00  0.00    -0.248 NA
ATOM     60  C   UNL A   1      42.905  26.969  29.425  1.00  0.00     0.031 C 
ATOM     61  C   UNL A   1      44.980  31.236  33.210  1.00  0.00     0.029 A 
ATOM     62  C   UNL A   1      44.175  30.524  32.334  1.00  0.00     0.049 A 
ATOM     63  H   UNL A   1      42.261  31.011  31.589  1.00  0.00     0.167 HD
ATOM     64  C   UNL A   1      43.605  28.614  30.862  1.00  0.00     0.074 A 
ATOM     65  C   UNL A   1      43.894  27.345  30.225  1.00  0.00     0.031 C 
ATOM     66  C   UNL A   1      44.453  29.264  31.695  1.00  0.00     0.031 A 
BRANCH  53  67
ATOM     67  C   UNL A   1      42.318  34.632  33.854  1.00  0.00    -0.014 A 
ATOM     68  C   UNL A   1      41.945  34.603  35.208  1.00  0.00     0.009 A 
ATOM     69  C   UNL A   1      42.824  35.826  33.316  1.00  0.00     0.009 A 
ATOM     70  C   UNL A   1      42.058  35.745  36.001  1.00  0.00     0.001 A 
ATOM     71  C   UNL A   1      42.962  36.960  34.120  1.00  0.00     0.001 A 
ATOM     72  C   UNL A   1      42.570  36.922  35.457  1.00  0.00     0.000 A 
ENDBRANCH  53  67
BRANCH  54  73
ATOM     73  C   UNL A   1      40.305  26.752  28.059  1.00  0.00    -0.014 A 
ATOM     74  C   UNL A   1      39.572  25.678  28.593  1.00  0.00     0.009 A 
ATOM     75  C   UNL A   1      40.781  26.659  26.743  1.00  0.00     0.009 A 
ATOM     76  C   UNL A   1      39.351  24.525  27.838  1.00  0.00     0.001 A 
ATOM     77  C   UNL A   1      40.528  25.516  25.979  1.00  0.00     0.001 A 
ATOM     78  C   UNL A   1      39.825  24.446  26.531  1.00  0.00     0.000 A 
ENDBRANCH  54  73
BRANCH  66  79
ATOM     79  C   UNL A   1      45.779  28.621  31.990  1.00  0.00    -0.014 A 
ATOM     80  C   UNL A   1      45.893  27.722  33.061  1.00  0.00     0.009 A 
ATOM     81  C   UNL A   1      46.934  28.988  31.282  1.00  0.00     0.009 A 
ATOM     82  C   UNL A   1      47.140  27.217  33.433  1.00  0.00     0.001 A 
ATOM     83  C   UNL A   1      48.176  28.459  31.638  1.00  0.00     0.001 A 
ATOM     84  C   UNL A   1      48.279  27.583  32.719  1.00  0.00     0.000 A 
ENDBRANCH  66  79
ENDBRANCH  40  41
ENDBRANCH  32  35
ENDBRANCH  30  31
ENDBRANCH  29  30
ENDBRANCH  28  29
ENDBRANCH   1  28
TORSDOF 17
ENDMDL
