MODEL 1
REMARK VINA RESULT:     -11.5      0.000      0.000
REMARK SMILES COc1cc(C)cc2c1O[C@H](C(F)(F)F)C(C(=O)NCCCCCCNC(=O)c1ccc(-c3c4nc(c(-c5ccccc5)c5ccc([nH]5)c(-c5ccccc5)c5nc(c(-c6ccccc6)c6ccc3[nH]6)C=C5)C=C4)cc1)=C2
REMARK SMILES IDX 23 1 22 2 21 3 20 4 19 5 17 6 18 7 16 9 3 10 4 11 9 12 5 13
REMARK SMILES IDX 8 14 10 15 6 16 7 17 77 18 11 19 2 20 1 21 12 22 13 23 14 24
REMARK SMILES IDX 15 25 24 26 25 27 26 28 27 29 28 31 29 32 30 33 76 34 31 35
REMARK SMILES IDX 75 36 32 37 33 38 34 39 69 40 35 41 74 42 68 43 70 44 36 45
REMARK SMILES IDX 73 46 67 47 66 48 37 50 59 51 44 52 58 53 45 54 48 55 57 56
REMARK SMILES IDX 71 57 46 58 47 59 56 61 72 62 49 63 38 64 39 65 43 66 40 67
REMARK SMILES IDX 42 68 41 69 60 70 61 71 65 72 62 73 64 74 63 75 50 76 51 77
REMARK SMILES IDX 55 78 52 79 54 80 53 81
REMARK H PARENT 19 8 26 30 70 49 48 60
REMARK Flexibility Score: inf
ROOT
ATOM      1  C   UNL A   1      34.658  33.505  29.072  1.00  0.00     0.002 C 
ENDROOT
BRANCH   1   2
ATOM      2  C   UNL A   1      34.502  32.000  28.812  1.00  0.00     0.002 C 
BRANCH   2   3
ATOM      3  C   UNL A   1      33.858  31.618  27.476  1.00  0.00     0.021 C 
BRANCH   3   4
ATOM      4  C   UNL A   1      33.639  30.120  27.288  1.00  0.00     0.116 C 
BRANCH   4   5
ATOM      5  N   UNL A   1      33.974  29.683  25.945  1.00  0.00    -0.352 N 
ATOM      6  C   UNL A   1      33.757  28.594  25.173  1.00  0.00     0.251 C 
ATOM      7  O   UNL A   1      34.220  28.664  24.030  1.00  0.00    -0.270 OA
ATOM      8  H   UNL A   1      34.500  30.363  25.467  1.00  0.00     0.163 HD
BRANCH   6   9
ATOM      9  C   UNL A   1      33.025  27.360  25.595  1.00  0.00     0.067 C 
ATOM     10  C   UNL A   1      31.185  23.797  26.864  1.00  0.00     0.161 A 
ATOM     11  C   UNL A   1      31.899  22.598  26.837  1.00  0.00     0.054 A 
ATOM     12  C   UNL A   1      31.809  24.989  26.482  1.00  0.00     0.169 A 
ATOM     13  C   UNL A   1      33.250  22.592  26.463  1.00  0.00    -0.047 A 
ATOM     14  C   UNL A   1      33.150  24.997  26.097  1.00  0.00     0.021 A 
ATOM     15  O   UNL A   1      31.071  26.135  26.565  1.00  0.00    -0.471 OA
ATOM     16  C   UNL A   1      34.030  21.310  26.423  1.00  0.00     0.044 C 
ATOM     17  C   UNL A   1      33.868  23.796  26.092  1.00  0.00     0.015 A 
ATOM     18  C   UNL A   1      33.784  26.256  25.729  1.00  0.00     0.025 C 
ATOM     19  C   UNL A   1      31.540  27.286  25.822  1.00  0.00     0.314 C 
BRANCH  10  20
ATOM     20  O   UNL A   1      29.849  23.849  27.166  1.00  0.00    -0.493 OA
ATOM     21  C   UNL A   1      29.242  22.566  27.274  1.00  0.00     0.278 C 
ENDBRANCH  10  20
BRANCH  19  22
ATOM     22  C   UNL A   1      30.721  27.407  24.526  1.00  0.00     0.429 C 
ATOM     23  F   UNL A   1      29.601  26.644  24.598  1.00  0.00    -0.167 F 
ATOM     24  F   UNL A   1      30.299  28.672  24.296  1.00  0.00    -0.167 F 
ATOM     25  F   UNL A   1      31.413  27.017  23.433  1.00  0.00    -0.167 F 
ENDBRANCH  19  22
ENDBRANCH   6   9
ENDBRANCH   4   5
ENDBRANCH   3   4
ENDBRANCH   2   3
ENDBRANCH   1   2
BRANCH   1  26
ATOM     26  C   UNL A   1      33.368  34.328  29.021  1.00  0.00     0.021 C 
BRANCH  26  27
ATOM     27  C   UNL A   1      33.523  35.794  29.403  1.00  0.00     0.116 C 
BRANCH  27  28
ATOM     28  N   UNL A   1      32.595  36.208  30.444  1.00  0.00    -0.352 N 
ATOM     29  C   UNL A   1      32.600  35.899  31.783  1.00  0.00     0.251 C 
ATOM     30  H   UNL A   1      31.859  36.791  30.147  1.00  0.00     0.163 HD
ATOM     31  O   UNL A   1      31.659  36.226  32.499  1.00  0.00    -0.269 OA
BRANCH  29  32
ATOM     32  C   UNL A   1      33.735  35.140  32.354  1.00  0.00     0.039 A 
ATOM     33  C   UNL A   1      35.013  35.698  32.397  1.00  0.00     0.014 A 
ATOM     34  C   UNL A   1      33.518  33.843  32.831  1.00  0.00     0.014 A 
ATOM     35  C   UNL A   1      36.097  34.906  32.760  1.00  0.00     0.010 A 
ATOM     36  C   UNL A   1      34.600  33.076  33.277  1.00  0.00     0.010 A 
ATOM     37  C   UNL A   1      35.905  33.584  33.202  1.00  0.00    -0.014 A 
BRANCH  37  38
ATOM     38  C   UNL A   1      37.092  32.774  33.580  1.00  0.00     0.031 A 
ATOM     39  C   UNL A   1      37.695  31.785  32.616  1.00  0.00     0.074 A 
ATOM     40  C   UNL A   1      37.689  33.005  34.767  1.00  0.00     0.049 A 
ATOM     41  N   UNL A   1      38.791  31.078  32.745  1.00  0.00    -0.248 NA
ATOM     42  C   UNL A   1      36.988  31.560  31.345  1.00  0.00     0.031 C 
ATOM     43  C   UNL A   1      37.211  33.953  35.777  1.00  0.00     0.029 A 
ATOM     44  N   UNL A   1      38.851  32.508  35.302  1.00  0.00    -0.354 N 
ATOM     45  C   UNL A   1      38.899  30.325  31.584  1.00  0.00     0.074 A 
ATOM     46  C   UNL A   1      37.744  30.633  30.771  1.00  0.00     0.031 C 
ATOM     47  C   UNL A   1      38.114  34.033  36.765  1.00  0.00     0.029 A 
ATOM     48  C   UNL A   1      39.200  33.097  36.494  1.00  0.00     0.049 A 
ATOM     49  H   UNL A   1      39.381  31.797  34.874  1.00  0.00     0.167 HD
ATOM     50  C   UNL A   1      39.880  29.465  31.221  1.00  0.00     0.031 A 
ATOM     51  C   UNL A   1      40.277  32.914  37.281  1.00  0.00     0.031 A 
ATOM     52  C   UNL A   1      41.036  29.164  32.022  1.00  0.00     0.049 A 
ATOM     53  C   UNL A   1      41.322  31.916  36.872  1.00  0.00     0.074 A 
ATOM     54  C   UNL A   1      42.083  28.305  31.730  1.00  0.00     0.029 A 
ATOM     55  N   UNL A   1      41.306  29.715  33.264  1.00  0.00    -0.354 N 
ATOM     56  N   UNL A   1      41.406  31.215  35.768  1.00  0.00    -0.248 NA
ATOM     57  C   UNL A   1      42.419  31.683  37.821  1.00  0.00     0.031 C 
ATOM     58  C   UNL A   1      42.959  28.298  32.817  1.00  0.00     0.029 A 
ATOM     59  C   UNL A   1      42.492  29.198  33.760  1.00  0.00     0.049 A 
ATOM     60  H   UNL A   1      40.739  30.375  33.726  1.00  0.00     0.167 HD
ATOM     61  C   UNL A   1      42.568  30.465  35.885  1.00  0.00     0.074 A 
ATOM     62  C   UNL A   1      43.173  30.821  37.151  1.00  0.00     0.031 C 
ATOM     63  C   UNL A   1      43.081  29.555  35.023  1.00  0.00     0.031 A 
BRANCH  50  64
ATOM     64  C   UNL A   1      39.765  28.773  29.891  1.00  0.00    -0.014 A 
ATOM     65  C   UNL A   1      39.308  27.446  29.831  1.00  0.00     0.009 A 
ATOM     66  C   UNL A   1      40.228  29.386  28.717  1.00  0.00     0.009 A 
ATOM     67  C   UNL A   1      39.337  26.740  28.627  1.00  0.00     0.001 A 
ATOM     68  C   UNL A   1      40.234  28.685  27.509  1.00  0.00     0.001 A 
ATOM     69  C   UNL A   1      39.799  27.359  27.467  1.00  0.00     0.000 A 
ENDBRANCH  50  64
BRANCH  51  70
ATOM     70  C   UNL A   1      40.428  33.706  38.531  1.00  0.00    -0.014 A 
ATOM     71  C   UNL A   1      39.889  33.243  39.742  1.00  0.00     0.009 A 
ATOM     72  C   UNL A   1      41.106  34.934  38.517  1.00  0.00     0.009 A 
ATOM     73  C   UNL A   1      40.011  34.001  40.908  1.00  0.00     0.001 A 
ATOM     74  C   UNL A   1      41.255  35.674  39.692  1.00  0.00     0.001 A 
ATOM     75  C   UNL A   1      40.701  35.211  40.885  1.00  0.00     0.000 A 
ENDBRANCH  51  70
BRANCH  63  76
ATOM     76  C   UNL A   1      44.366  28.880  35.410  1.00  0.00    -0.014 A 
ATOM     77  C   UNL A   1      45.591  29.383  34.942  1.00  0.00     0.009 A 
ATOM     78  C   UNL A   1      44.361  27.708  36.182  1.00  0.00     0.009 A 
ATOM     79  C   UNL A   1      46.784  28.723  35.234  1.00  0.00     0.001 A 
ATOM     80  C   UNL A   1      45.561  27.067  36.498  1.00  0.00     0.001 A 
ATOM     81  C   UNL A   1      46.770  27.570  36.018  1.00  0.00     0.000 A 
ENDBRANCH  63  76
ENDBRANCH  37  38
ENDBRANCH  29  32
ENDBRANCH  27  28
ENDBRANCH  26  27
ENDBRANCH   1  26
TORSDOF 15
ENDMDL
MODEL 2
REMARK VINA RESULT:     -11.2      4.787      9.932
REMARK SMILES COc1cc(C)cc2c1O[C@H](C(F)(F)F)C(C(=O)NCCCCCCNC(=O)c1ccc(-c3c4nc(c(-c5ccccc5)c5ccc([nH]5)c(-c5ccccc5)c5nc(c(-c6ccccc6)c6ccc3[nH]6)C=C5)C=C4)cc1)=C2
REMARK SMILES IDX 23 1 22 2 21 3 20 4 19 5 17 6 18 7 16 9 3 10 4 11 9 12 5 13
REMARK SMILES IDX 8 14 10 15 6 16 7 17 77 18 11 19 2 20 1 21 12 22 13 23 14 24
REMARK SMILES IDX 15 25 24 26 25 27 26 28 27 29 28 31 29 32 30 33 76 34 31 35
REMARK SMILES IDX 75 36 32 37 33 38 34 39 69 40 35 41 74 42 68 43 70 44 36 45
REMARK SMILES IDX 73 46 67 47 66 48 37 50 59 51 44 52 58 53 45 54 48 55 57 56
REMARK SMILES IDX 71 57 46 58 47 59 56 61 72 62 49 63 38 64 39 65 43 66 40 67
REMARK SMILES IDX 42 68 41 69 60 70 61 71 65 72 62 73 64 74 63 75 50 76 51 77
REMARK SMILES IDX 55 78 52 79 54 80 53 81
REMARK H PARENT 19 8 26 30 70 49 48 60
REMARK Flexibility Score: inf
ROOT
ATOM      1  C   UNL A   1      35.900  21.278  25.373  1.00  0.00     0.002 C 
ENDROOT
BRANCH   1   2
ATOM      2  C   UNL A   1      34.602  20.972  24.613  1.00  0.00     0.002 C 
BRANCH   2   3
ATOM      3  C   UNL A   1      33.339  20.852  25.471  1.00  0.00     0.021 C 
BRANCH   3   4
ATOM      4  C   UNL A   1      32.180  21.732  25.011  1.00  0.00     0.116 C 
BRANCH   4   5
ATOM      5  N   UNL A   1      31.287  22.073  26.103  1.00  0.00    -0.352 N 
ATOM      6  C   UNL A   1      30.789  23.201  26.661  1.00  0.00     0.251 C 
ATOM      7  O   UNL A   1      30.004  23.016  27.597  1.00  0.00    -0.270 OA
ATOM      8  H   UNL A   1      30.954  21.268  26.561  1.00  0.00     0.163 HD
BRANCH   6   9
ATOM      9  C   UNL A   1      31.113  24.598  26.238  1.00  0.00     0.067 C 
ATOM     10  C   UNL A   1      31.777  28.562  24.999  1.00  0.00     0.161 A 
ATOM     11  C   UNL A   1      30.973  29.124  24.006  1.00  0.00     0.054 A 
ATOM     12  C   UNL A   1      31.531  27.258  25.442  1.00  0.00     0.169 A 
ATOM     13  C   UNL A   1      29.897  28.398  23.478  1.00  0.00    -0.047 A 
ATOM     14  C   UNL A   1      30.469  26.520  24.917  1.00  0.00     0.021 A 
ATOM     15  O   UNL A   1      32.326  26.777  26.441  1.00  0.00    -0.471 OA
ATOM     16  C   UNL A   1      29.028  28.986  22.404  1.00  0.00     0.044 C 
ATOM     17  C   UNL A   1      29.653  27.095  23.937  1.00  0.00     0.015 A 
ATOM     18  C   UNL A   1      30.217  25.173  25.414  1.00  0.00     0.025 C 
ATOM     19  C   UNL A   1      32.357  25.342  26.636  1.00  0.00     0.314 C 
BRANCH  10  20
ATOM     20  O   UNL A   1      32.876  29.207  25.507  1.00  0.00    -0.493 OA
ATOM     21  C   UNL A   1      32.547  30.283  26.379  1.00  0.00     0.278 C 
ENDBRANCH  10  20
BRANCH  19  22
ATOM     22  C   UNL A   1      33.633  24.781  25.986  1.00  0.00     0.429 C 
ATOM     23  F   UNL A   1      34.584  25.746  25.895  1.00  0.00    -0.167 F 
ATOM     24  F   UNL A   1      34.185  23.778  26.708  1.00  0.00    -0.167 F 
ATOM     25  F   UNL A   1      33.417  24.299  24.743  1.00  0.00    -0.167 F 
ENDBRANCH  19  22
ENDBRANCH   6   9
ENDBRANCH   4   5
ENDBRANCH   3   4
ENDBRANCH   2   3
ENDBRANCH   1   2
BRANCH   1  26
ATOM     26  C   UNL A   1      37.122  20.452  24.966  1.00  0.00     0.021 C 
BRANCH  26  27
ATOM     27  C   UNL A   1      38.430  20.864  25.629  1.00  0.00     0.116 C 
BRANCH  27  28
ATOM     28  N   UNL A   1      39.405  19.786  25.675  1.00  0.00    -0.352 N 
ATOM     29  C   UNL A   1      40.733  19.832  26.026  1.00  0.00     0.251 C 
ATOM     30  H   UNL A   1      39.066  18.898  25.419  1.00  0.00     0.163 HD
ATOM     31  O   UNL A   1      41.449  18.847  25.878  1.00  0.00    -0.269 OA
BRANCH  29  32
ATOM     32  C   UNL A   1      41.307  21.091  26.552  1.00  0.00     0.039 A 
ATOM     33  C   UNL A   1      41.211  21.401  27.909  1.00  0.00     0.014 A 
ATOM     34  C   UNL A   1      41.929  21.980  25.671  1.00  0.00     0.014 A 
ATOM     35  C   UNL A   1      41.585  22.665  28.353  1.00  0.00     0.010 A 
ATOM     36  C   UNL A   1      42.384  23.219  26.137  1.00  0.00     0.010 A 
ATOM     37  C   UNL A   1      42.173  23.590  27.473  1.00  0.00    -0.014 A 
BRANCH  37  38
ATOM     38  C   UNL A   1      42.557  24.930  27.991  1.00  0.00     0.031 A 
ATOM     39  C   UNL A   1      41.523  26.003  28.208  1.00  0.00     0.074 A 
ATOM     40  C   UNL A   1      43.836  25.144  28.360  1.00  0.00     0.049 A 
ATOM     41  N   UNL A   1      41.670  27.186  28.751  1.00  0.00    -0.248 NA
ATOM     42  C   UNL A   1      40.148  25.720  27.765  1.00  0.00     0.031 C 
ATOM     43  C   UNL A   1      44.925  24.174  28.219  1.00  0.00     0.029 A 
ATOM     44  N   UNL A   1      44.426  26.217  28.980  1.00  0.00    -0.354 N 
ATOM     45  C   UNL A   1      40.419  27.786  28.710  1.00  0.00     0.074 A 
ATOM     46  C   UNL A   1      39.525  26.853  28.060  1.00  0.00     0.031 C 
ATOM     47  C   UNL A   1      46.025  24.660  28.813  1.00  0.00     0.029 A 
ATOM     48  C   UNL A   1      45.740  25.999  29.318  1.00  0.00     0.049 A 
ATOM     49  H   UNL A   1      43.954  27.062  29.162  1.00  0.00     0.167 HD
ATOM     50  C   UNL A   1      40.044  28.998  29.183  1.00  0.00     0.031 A 
ATOM     51  C   UNL A   1      46.620  26.782  29.970  1.00  0.00     0.031 A 
ATOM     52  C   UNL A   1      40.928  29.924  29.840  1.00  0.00     0.049 A 
ATOM     53  C   UNL A   1      46.185  28.141  30.439  1.00  0.00     0.074 A 
ATOM     54  C   UNL A   1      40.632  31.175  30.355  1.00  0.00     0.029 A 
ATOM     55  N   UNL A   1      42.273  29.700  30.083  1.00  0.00    -0.354 N 
ATOM     56  N   UNL A   1      44.996  28.687  30.390  1.00  0.00    -0.248 NA
ATOM     57  C   UNL A   1      47.217  28.991  31.048  1.00  0.00     0.031 C 
ATOM     58  C   UNL A   1      41.809  31.729  30.862  1.00  0.00     0.029 A 
ATOM     59  C   UNL A   1      42.825  30.799  30.720  1.00  0.00     0.049 A 
ATOM     60  H   UNL A   1      42.764  28.882  29.837  1.00  0.00     0.167 HD
ATOM     61  C   UNL A   1      45.133  29.941  30.972  1.00  0.00     0.074 A 
ATOM     62  C   UNL A   1      46.512  30.060  31.394  1.00  0.00     0.031 C 
ATOM     63  C   UNL A   1      44.199  30.910  31.131  1.00  0.00     0.031 A 
BRANCH  50  64
ATOM     64  C   UNL A   1      38.608  29.414  29.019  1.00  0.00    -0.014 A 
ATOM     65  C   UNL A   1      37.710  29.256  30.086  1.00  0.00     0.009 A 
ATOM     66  C   UNL A   1      38.119  29.839  27.775  1.00  0.00     0.009 A 
ATOM     67  C   UNL A   1      36.346  29.495  29.906  1.00  0.00     0.001 A 
ATOM     68  C   UNL A   1      36.757  30.100  27.604  1.00  0.00     0.001 A 
ATOM     69  C   UNL A   1      35.871  29.916  28.666  1.00  0.00     0.000 A 
ENDBRANCH  50  64
BRANCH  51  70
ATOM     70  C   UNL A   1      48.001  26.294  30.230  1.00  0.00    -0.014 A 
ATOM     71  C   UNL A   1      48.332  25.702  31.460  1.00  0.00     0.009 A 
ATOM     72  C   UNL A   1      48.998  26.425  29.252  1.00  0.00     0.009 A 
ATOM     73  C   UNL A   1      49.635  25.268  31.710  1.00  0.00     0.001 A 
ATOM     74  C   UNL A   1      50.293  25.960  29.494  1.00  0.00     0.001 A 
ATOM     75  C   UNL A   1      50.612  25.389  30.725  1.00  0.00     0.000 A 
ENDBRANCH  51  70
BRANCH  63  76
ATOM     76  C   UNL A   1      44.630  32.185  31.795  1.00  0.00    -0.014 A 
ATOM     77  C   UNL A   1      45.151  33.237  31.023  1.00  0.00     0.009 A 
ATOM     78  C   UNL A   1      44.587  32.323  33.191  1.00  0.00     0.009 A 
ATOM     79  C   UNL A   1      45.623  34.398  31.635  1.00  0.00     0.001 A 
ATOM     80  C   UNL A   1      45.032  33.499  33.798  1.00  0.00     0.001 A 
ATOM     81  C   UNL A   1      45.556  34.532  33.021  1.00  0.00     0.000 A 
ENDBRANCH  63  76
ENDBRANCH  37  38
ENDBRANCH  29  32
ENDBRANCH  27  28
ENDBRANCH  26  27
ENDBRANCH   1  26
TORSDOF 15
ENDMDL
MODEL 3
REMARK VINA RESULT:     -11.2      4.615      6.538
REMARK SMILES COc1cc(C)cc2c1O[C@H](C(F)(F)F)C(C(=O)NCCCCCCNC(=O)c1ccc(-c3c4nc(c(-c5ccccc5)c5ccc([nH]5)c(-c5ccccc5)c5nc(c(-c6ccccc6)c6ccc3[nH]6)C=C5)C=C4)cc1)=C2
REMARK SMILES IDX 23 1 22 2 21 3 20 4 19 5 17 6 18 7 16 9 3 10 4 11 9 12 5 13
REMARK SMILES IDX 8 14 10 15 6 16 7 17 77 18 11 19 2 20 1 21 12 22 13 23 14 24
REMARK SMILES IDX 15 25 24 26 25 27 26 28 27 29 28 31 29 32 30 33 76 34 31 35
REMARK SMILES IDX 75 36 32 37 33 38 34 39 69 40 35 41 74 42 68 43 70 44 36 45
REMARK SMILES IDX 73 46 67 47 66 48 37 50 59 51 44 52 58 53 45 54 48 55 57 56
REMARK SMILES IDX 71 57 46 58 47 59 56 61 72 62 49 63 38 64 39 65 43 66 40 67
REMARK SMILES IDX 42 68 41 69 60 70 61 71 65 72 62 73 64 74 63 75 50 76 51 77
REMARK SMILES IDX 55 78 52 79 54 80 53 81
REMARK H PARENT 19 8 26 30 70 49 48 60
REMARK Flexibility Score: inf
ROOT
ATOM      1  C   UNL A   1      32.034  29.367  25.188  1.00  0.00     0.002 C 
ENDROOT
BRANCH   1   2
ATOM      2  C   UNL A   1      31.745  28.444  23.997  1.00  0.00     0.002 C 
BRANCH   2   3
ATOM      3  C   UNL A   1      30.544  27.507  24.156  1.00  0.00     0.021 C 
BRANCH   3   4
ATOM      4  C   UNL A   1      30.804  26.069  23.715  1.00  0.00     0.116 C 
BRANCH   4   5
ATOM      5  N   UNL A   1      31.631  26.005  22.524  1.00  0.00    -0.352 N 
ATOM      6  C   UNL A   1      32.657  25.249  22.069  1.00  0.00     0.251 C 
ATOM      7  O   UNL A   1      33.053  25.539  20.934  1.00  0.00    -0.270 OA
ATOM      8  H   UNL A   1      31.376  26.696  21.871  1.00  0.00     0.163 HD
BRANCH   6   9
ATOM      9  C   UNL A   1      33.316  24.135  22.815  1.00  0.00     0.067 C 
ATOM     10  C   UNL A   1      35.049  20.836  24.765  1.00  0.00     0.161 A 
ATOM     11  C   UNL A   1      34.340  19.638  24.868  1.00  0.00     0.054 A 
ATOM     12  C   UNL A   1      34.490  21.920  24.081  1.00  0.00     0.169 A 
ATOM     13  C   UNL A   1      33.086  19.507  24.254  1.00  0.00    -0.047 A 
ATOM     14  C   UNL A   1      33.239  21.808  23.475  1.00  0.00     0.021 A 
ATOM     15  O   UNL A   1      35.247  23.053  23.982  1.00  0.00    -0.471 OA
ATOM     16  C   UNL A   1      32.309  18.228  24.361  1.00  0.00     0.044 C 
ATOM     17  C   UNL A   1      32.541  20.599  23.562  1.00  0.00     0.015 A 
ATOM     18  C   UNL A   1      32.691  22.944  22.744  1.00  0.00     0.025 C 
ATOM     19  C   UNL A   1      34.563  24.283  23.641  1.00  0.00     0.314 C 
BRANCH  10  20
ATOM     20  O   UNL A   1      36.251  21.034  25.395  1.00  0.00    -0.493 OA
ATOM     21  C   UNL A   1      37.255  20.104  25.003  1.00  0.00     0.278 C 
ENDBRANCH  10  20
BRANCH  19  22
ATOM     22  C   UNL A   1      34.347  25.101  24.926  1.00  0.00     0.429 C 
ATOM     23  F   UNL A   1      35.378  24.914  25.788  1.00  0.00    -0.167 F 
ATOM     24  F   UNL A   1      34.292  26.433  24.689  1.00  0.00    -0.167 F 
ATOM     25  F   UNL A   1      33.207  24.769  25.571  1.00  0.00    -0.167 F 
ENDBRANCH  19  22
ENDBRANCH   6   9
ENDBRANCH   4   5
ENDBRANCH   3   4
ENDBRANCH   2   3
ENDBRANCH   1   2
BRANCH   1  26
ATOM     26  C   UNL A   1      33.489  29.411  25.660  1.00  0.00     0.021 C 
BRANCH  26  27
ATOM     27  C   UNL A   1      33.684  29.281  27.165  1.00  0.00     0.116 C 
BRANCH  27  28
ATOM     28  N   UNL A   1      33.688  30.564  27.849  1.00  0.00    -0.352 N 
ATOM     29  C   UNL A   1      34.663  31.120  28.642  1.00  0.00     0.251 C 
ATOM     30  H   UNL A   1      32.879  31.112  27.725  1.00  0.00     0.163 HD
ATOM     31  O   UNL A   1      34.446  32.162  29.254  1.00  0.00    -0.269 OA
BRANCH  29  32
ATOM     32  C   UNL A   1      35.969  30.439  28.783  1.00  0.00     0.039 A 
ATOM     33  C   UNL A   1      36.276  29.725  29.942  1.00  0.00     0.014 A 
ATOM     34  C   UNL A   1      36.905  30.535  27.749  1.00  0.00     0.014 A 
ATOM     35  C   UNL A   1      37.569  29.252  30.135  1.00  0.00     0.010 A 
ATOM     36  C   UNL A   1      38.180  29.983  27.911  1.00  0.00     0.010 A 
ATOM     37  C   UNL A   1      38.539  29.377  29.124  1.00  0.00    -0.014 A 
BRANCH  37  38
ATOM     38  C   UNL A   1      39.909  28.858  29.374  1.00  0.00     0.031 A 
ATOM     39  C   UNL A   1      40.315  27.484  28.910  1.00  0.00     0.074 A 
ATOM     40  C   UNL A   1      40.822  29.675  29.939  1.00  0.00     0.049 A 
ATOM     41  N   UNL A   1      41.497  26.920  28.952  1.00  0.00    -0.248 NA
ATOM     42  C   UNL A   1      39.270  26.631  28.321  1.00  0.00     0.031 C 
ATOM     43  C   UNL A   1      40.554  31.035  30.412  1.00  0.00     0.029 A 
ATOM     44  N   UNL A   1      42.166  29.505  30.159  1.00  0.00    -0.354 N 
ATOM     45  C   UNL A   1      41.337  25.654  28.405  1.00  0.00     0.074 A 
ATOM     46  C   UNL A   1      39.939  25.514  28.065  1.00  0.00     0.031 C 
ATOM     47  C   UNL A   1      41.710  31.606  30.783  1.00  0.00     0.029 A 
ATOM     48  C   UNL A   1      42.788  30.633  30.639  1.00  0.00     0.049 A 
ATOM     49  H   UNL A   1      42.638  28.657  29.992  1.00  0.00     0.167 HD
ATOM     50  C   UNL A   1      42.274  24.700  28.192  1.00  0.00     0.031 A 
ATOM     51  C   UNL A   1      44.083  30.867  30.924  1.00  0.00     0.031 A 
ATOM     52  C   UNL A   1      43.668  24.840  28.518  1.00  0.00     0.049 A 
ATOM     53  C   UNL A   1      45.087  29.770  30.721  1.00  0.00     0.074 A 
ATOM     54  C   UNL A   1      44.689  23.922  28.334  1.00  0.00     0.029 A 
ATOM     55  N   UNL A   1      44.241  25.966  29.086  1.00  0.00    -0.354 N 
ATOM     56  N   UNL A   1      44.915  28.580  30.202  1.00  0.00    -0.248 NA
ATOM     57  C   UNL A   1      46.465  30.048  31.150  1.00  0.00     0.031 C 
ATOM     58  C   UNL A   1      45.869  24.474  28.836  1.00  0.00     0.029 A 
ATOM     59  C   UNL A   1      45.596  25.758  29.277  1.00  0.00     0.049 A 
ATOM     60  H   UNL A   1      43.756  26.791  29.319  1.00  0.00     0.167 HD
ATOM     61  C   UNL A   1      46.163  27.971  30.230  1.00  0.00     0.074 A 
ATOM     62  C   UNL A   1      47.088  28.934  30.789  1.00  0.00     0.031 C 
ATOM     63  C   UNL A   1      46.506  26.721  29.838  1.00  0.00     0.031 A 
BRANCH  50  64
ATOM     64  C   UNL A   1      41.839  23.402  27.569  1.00  0.00    -0.014 A 
ATOM     65  C   UNL A   1      41.339  22.371  28.381  1.00  0.00     0.009 A 
ATOM     66  C   UNL A   1      42.044  23.153  26.204  1.00  0.00     0.009 A 
ATOM     67  C   UNL A   1      41.073  21.110  27.843  1.00  0.00     0.001 A 
ATOM     68  C   UNL A   1      41.754  21.898  25.663  1.00  0.00     0.001 A 
ATOM     69  C   UNL A   1      41.280  20.875  26.485  1.00  0.00     0.000 A 
ENDBRANCH  50  64
BRANCH  51  70
ATOM     70  C   UNL A   1      44.506  32.204  31.421  1.00  0.00    -0.014 A 
ATOM     71  C   UNL A   1      44.504  32.492  32.795  1.00  0.00     0.009 A 
ATOM     72  C   UNL A   1      44.905  33.203  30.520  1.00  0.00     0.009 A 
ATOM     73  C   UNL A   1      44.877  33.756  33.255  1.00  0.00     0.001 A 
ATOM     74  C   UNL A   1      45.309  34.456  30.986  1.00  0.00     0.001 A 
ATOM     75  C   UNL A   1      45.288  34.734  32.352  1.00  0.00     0.000 A 
ENDBRANCH  51  70
BRANCH  63  76
ATOM     76  C   UNL A   1      47.945  26.318  29.990  1.00  0.00    -0.014 A 
ATOM     77  C   UNL A   1      48.827  26.445  28.904  1.00  0.00     0.009 A 
ATOM     78  C   UNL A   1      48.413  25.749  31.184  1.00  0.00     0.009 A 
ATOM     79  C   UNL A   1      50.146  26.006  29.009  1.00  0.00     0.001 A 
ATOM     80  C   UNL A   1      49.744  25.338  31.296  1.00  0.00     0.001 A 
ATOM     81  C   UNL A   1      50.607  25.460  30.207  1.00  0.00     0.000 A 
ENDBRANCH  63  76
ENDBRANCH  37  38
ENDBRANCH  29  32
ENDBRANCH  27  28
ENDBRANCH  26  27
ENDBRANCH   1  26
TORSDOF 15
ENDMDL
