MODEL 1
REMARK VINA RESULT:      -9.8      0.000      0.000
REMARK SMILES O=C(NCCCCCCNC(=O)c1ccc(C[NH2+]CCOc2ccccc2)nc1)c1ccc(-c2c3nc(c(-c4ccccc4)c4ccc([nH]4)c(-c4ccccc4)c4nc(c(-c5ccccc5)c5ccc2[nH]5)C=C4)C=C3)cc1
REMARK SMILES IDX 8 1 7 2 6 3 5 4 4 5 3 6 1 7 2 8 30 10 31 11 77 12 32 13
REMARK SMILES IDX 76 14 33 15 34 16 35 17 70 18 36 19 75 20 69 21 71 22 37 23
REMARK SMILES IDX 74 24 68 25 67 26 38 28 60 29 45 30 59 31 46 32 49 33 58 34
REMARK SMILES IDX 72 35 47 36 48 37 57 39 73 40 50 41 39 42 40 43 44 44 41 45
REMARK SMILES IDX 43 46 42 47 61 48 62 49 66 50 63 51 65 52 64 53 51 54 52 55
REMARK SMILES IDX 56 56 53 57 55 58 54 59 9 60 10 61 11 62 12 64 13 65 14 66
REMARK SMILES IDX 29 67 15 68 28 69 16 70 17 71 18 72 19 75 20 76 21 77 22 78
REMARK SMILES IDX 23 79 27 80 24 81 26 82 25 83
REMARK H PARENT 3 9 71 27 49 38 10 63 18 73 18 74
REMARK Flexibility Score: inf
ROOT
ATOM      1  C   UNL A   1      34.497  31.943  28.834  1.00  0.00     0.021 C 
ENDROOT
BRANCH   1   2
ATOM      2  C   UNL A   1      35.384  32.990  28.155  1.00  0.00     0.002 C 
BRANCH   2   3
ATOM      3  C   UNL A   1      34.769  34.384  28.011  1.00  0.00     0.002 C 
BRANCH   3   4
ATOM      4  C   UNL A   1      33.540  34.656  28.880  1.00  0.00     0.021 C 
BRANCH   4   5
ATOM      5  C   UNL A   1      33.399  36.094  29.369  1.00  0.00     0.116 C 
BRANCH   5   6
ATOM      6  N   UNL A   1      32.521  36.199  30.521  1.00  0.00    -0.352 N 
ATOM      7  O   UNL A   1      31.673  35.651  32.535  1.00  0.00    -0.269 OA
ATOM      8  C   UNL A   1      32.610  35.588  31.745  1.00  0.00     0.251 C 
ATOM      9  H   UNL A   1      31.748  36.798  30.406  1.00  0.00     0.163 HD
BRANCH   8  10
ATOM     10  C   UNL A   1      33.828  34.835  32.112  1.00  0.00     0.039 A 
ATOM     11  C   UNL A   1      35.069  35.472  32.216  1.00  0.00     0.014 A 
ATOM     12  C   UNL A   1      33.711  33.473  32.398  1.00  0.00     0.014 A 
ATOM     13  C   UNL A   1      36.210  34.728  32.505  1.00  0.00     0.010 A 
ATOM     14  C   UNL A   1      34.846  32.740  32.749  1.00  0.00     0.010 A 
ATOM     15  C   UNL A   1      36.106  33.357  32.785  1.00  0.00    -0.014 A 
BRANCH  15  16
ATOM     16  C   UNL A   1      37.304  32.575  33.174  1.00  0.00     0.031 A 
ATOM     17  C   UNL A   1      38.006  32.844  34.472  1.00  0.00     0.074 A 
ATOM     18  C   UNL A   1      37.790  31.653  32.321  1.00  0.00     0.049 A 
ATOM     19  N   UNL A   1      39.119  32.329  34.930  1.00  0.00    -0.248 NA
ATOM     20  C   UNL A   1      37.381  33.827  35.371  1.00  0.00     0.031 C 
ATOM     21  C   UNL A   1      37.196  31.304  31.029  1.00  0.00     0.029 A 
ATOM     22  N   UNL A   1      38.901  30.855  32.406  1.00  0.00    -0.354 N 
ATOM     23  C   UNL A   1      39.344  32.943  36.155  1.00  0.00     0.074 A 
ATOM     24  C   UNL A   1      38.262  33.882  36.361  1.00  0.00     0.031 C 
ATOM     25  C   UNL A   1      37.948  30.362  30.443  1.00  0.00     0.029 A 
ATOM     26  C   UNL A   1      39.104  30.084  31.289  1.00  0.00     0.049 A 
ATOM     27  H   UNL A   1      39.495  30.837  33.191  1.00  0.00     0.167 HD
ATOM     28  C   UNL A   1      40.363  32.744  37.026  1.00  0.00     0.031 A 
ATOM     29  C   UNL A   1      40.124  29.271  30.959  1.00  0.00     0.031 A 
ATOM     30  C   UNL A   1      41.443  31.817  36.810  1.00  0.00     0.049 A 
ATOM     31  C   UNL A   1      41.265  29.098  31.918  1.00  0.00     0.074 A 
ATOM     32  C   UNL A   1      42.499  31.512  37.651  1.00  0.00     0.029 A 
ATOM     33  N   UNL A   1      41.612  31.056  35.663  1.00  0.00    -0.354 N 
ATOM     34  N   UNL A   1      41.443  29.651  33.092  1.00  0.00    -0.248 NA
ATOM     35  C   UNL A   1      42.342  28.187  31.508  1.00  0.00     0.031 C 
ATOM     36  C   UNL A   1      43.337  30.608  36.989  1.00  0.00     0.029 A 
ATOM     37  C   UNL A   1      42.772  30.304  35.762  1.00  0.00     0.049 A 
ATOM     38  H   UNL A   1      40.999  31.050  34.892  1.00  0.00     0.167 HD
ATOM     39  C   UNL A   1      42.639  29.140  33.576  1.00  0.00     0.074 A 
ATOM     40  C   UNL A   1      43.141  28.227  32.567  1.00  0.00     0.031 C 
ATOM     41  C   UNL A   1      43.259  29.400  34.751  1.00  0.00     0.031 A 
BRANCH  28  42
ATOM     42  C   UNL A   1      40.377  33.582  38.275  1.00  0.00    -0.014 A 
ATOM     43  C   UNL A   1      39.749  33.152  39.454  1.00  0.00     0.009 A 
ATOM     44  C   UNL A   1      41.044  34.817  38.273  1.00  0.00     0.009 A 
ATOM     45  C   UNL A   1      39.751  33.963  40.592  1.00  0.00     0.001 A 
ATOM     46  C   UNL A   1      41.069  35.612  39.419  1.00  0.00     0.001 A 
ATOM     47  C   UNL A   1      40.413  35.190  40.574  1.00  0.00     0.000 A 
ENDBRANCH  28  42
BRANCH  29  48
ATOM     48  C   UNL A   1      40.104  28.583  29.644  1.00  0.00    -0.014 A 
ATOM     49  C   UNL A   1      40.666  29.189  28.512  1.00  0.00     0.009 A 
ATOM     50  C   UNL A   1      39.577  27.286  29.532  1.00  0.00     0.009 A 
ATOM     51  C   UNL A   1      40.695  28.510  27.292  1.00  0.00     0.001 A 
ATOM     52  C   UNL A   1      39.631  26.600  28.318  1.00  0.00     0.001 A 
ATOM     53  C   UNL A   1      40.186  27.215  27.198  1.00  0.00     0.000 A 
ENDBRANCH  29  48
BRANCH  41  54
ATOM     54  C   UNL A   1      44.534  28.659  35.038  1.00  0.00    -0.014 A 
ATOM     55  C   UNL A   1      44.523  27.397  35.648  1.00  0.00     0.009 A 
ATOM     56  C   UNL A   1      45.759  29.207  34.624  1.00  0.00     0.009 A 
ATOM     57  C   UNL A   1      45.718  26.705  35.856  1.00  0.00     0.001 A 
ATOM     58  C   UNL A   1      46.949  28.502  34.810  1.00  0.00     0.001 A 
ATOM     59  C   UNL A   1      46.928  27.254  35.429  1.00  0.00     0.000 A 
ENDBRANCH  41  54
ENDBRANCH  15  16
ENDBRANCH   8  10
ENDBRANCH   5   6
ENDBRANCH   4   5
ENDBRANCH   3   4
ENDBRANCH   2   3
ENDBRANCH   1   2
BRANCH   1  60
ATOM     60  C   UNL A   1      34.011  30.820  27.922  1.00  0.00     0.116 C 
BRANCH  60  61
ATOM     61  N   UNL A   1      32.838  31.205  27.156  1.00  0.00    -0.352 N 
ATOM     62  C   UNL A   1      32.063  30.434  26.324  1.00  0.00     0.252 C 
ATOM     63  H   UNL A   1      32.562  32.145  27.245  1.00  0.00     0.163 HD
ATOM     64  O   UNL A   1      31.204  30.942  25.617  1.00  0.00    -0.269 OA
BRANCH  62  65
ATOM     65  C   UNL A   1      32.286  28.983  26.276  1.00  0.00     0.058 A 
ATOM     66  C   UNL A   1      33.349  28.423  25.571  1.00  0.00     0.017 A 
ATOM     67  C   UNL A   1      31.413  28.140  26.941  1.00  0.00     0.125 A 
ATOM     68  C   UNL A   1      33.456  27.036  25.499  1.00  0.00     0.030 A 
ATOM     69  N   UNL A   1      31.494  26.789  26.882  1.00  0.00    -0.255 NA
ATOM     70  C   UNL A   1      32.505  26.250  26.151  1.00  0.00     0.094 A 
BRANCH  70  71
ATOM     71  C   UNL A   1      32.599  24.731  26.082  1.00  0.00     0.318 C 
BRANCH  71  72
ATOM     72  N   UNL A   1      31.336  24.113  25.675  1.00  0.00    -0.338 N 
ATOM     73  H   UNL A   1      30.575  24.735  25.942  1.00  0.00     0.346 HD
ATOM     74  H   UNL A   1      31.294  23.206  26.142  1.00  0.00     0.346 HD
BRANCH  72  75
ATOM     75  C   UNL A   1      31.227  23.845  24.239  1.00  0.00     0.302 C 
BRANCH  75  76
ATOM     76  C   UNL A   1      30.712  24.999  23.351  1.00  0.00     0.290 C 
BRANCH  76  77
ATOM     77  O   UNL A   1      29.778  25.832  24.054  1.00  0.00    -0.488 OA
BRANCH  77  78
ATOM     78  C   UNL A   1      29.680  27.084  23.516  1.00  0.00     0.119 A 
ATOM     79  C   UNL A   1      28.463  27.763  23.458  1.00  0.00     0.046 A 
ATOM     80  C   UNL A   1      30.825  27.638  22.950  1.00  0.00     0.046 A 
ATOM     81  C   UNL A   1      28.413  29.034  22.881  1.00  0.00     0.004 A 
ATOM     82  C   UNL A   1      30.780  28.917  22.400  1.00  0.00     0.004 A 
ATOM     83  C   UNL A   1      29.573  29.615  22.366  1.00  0.00     0.000 A 
ENDBRANCH  77  78
ENDBRANCH  76  77
ENDBRANCH  75  76
ENDBRANCH  72  75
ENDBRANCH  71  72
ENDBRANCH  70  71
ENDBRANCH  62  65
ENDBRANCH  60  61
ENDBRANCH   1  60
TORSDOF 19
ENDMDL
MODEL 2
REMARK VINA RESULT:      -9.6      0.338      5.856
REMARK SMILES O=C(NCCCCCCNC(=O)c1ccc(C[NH2+]CCOc2ccccc2)nc1)c1ccc(-c2c3nc(c(-c4ccccc4)c4ccc([nH]4)c(-c4ccccc4)c4nc(c(-c5ccccc5)c5ccc2[nH]5)C=C4)C=C3)cc1
REMARK SMILES IDX 8 1 7 2 6 3 5 4 4 5 3 6 1 7 2 8 30 10 31 11 77 12 32 13
REMARK SMILES IDX 76 14 33 15 34 16 35 17 70 18 36 19 75 20 69 21 71 22 37 23
REMARK SMILES IDX 74 24 68 25 67 26 38 28 60 29 45 30 59 31 46 32 49 33 58 34
REMARK SMILES IDX 72 35 47 36 48 37 57 39 73 40 50 41 39 42 40 43 44 44 41 45
REMARK SMILES IDX 43 46 42 47 61 48 62 49 66 50 63 51 65 52 64 53 51 54 52 55
REMARK SMILES IDX 56 56 53 57 55 58 54 59 9 60 10 61 11 62 12 64 13 65 14 66
REMARK SMILES IDX 29 67 15 68 28 69 16 70 17 71 18 72 19 75 20 76 21 77 22 78
REMARK SMILES IDX 23 79 27 80 24 81 26 82 25 83
REMARK H PARENT 3 9 71 27 49 38 10 63 18 73 18 74
REMARK Flexibility Score: inf
ROOT
ATOM      1  C   UNL A   1      34.599  31.981  28.854  1.00  0.00     0.021 C 
ENDROOT
BRANCH   1   2
ATOM      2  C   UNL A   1      35.463  33.009  28.118  1.00  0.00     0.002 C 
BRANCH   2   3
ATOM      3  C   UNL A   1      34.868  34.415  28.010  1.00  0.00     0.002 C 
BRANCH   3   4
ATOM      4  C   UNL A   1      33.569  34.645  28.786  1.00  0.00     0.021 C 
BRANCH   4   5
ATOM      5  C   UNL A   1      33.421  36.032  29.402  1.00  0.00     0.116 C 
BRANCH   5   6
ATOM      6  N   UNL A   1      32.528  36.031  30.547  1.00  0.00    -0.352 N 
ATOM      7  O   UNL A   1      31.711  35.358  32.535  1.00  0.00    -0.269 OA
ATOM      8  C   UNL A   1      32.656  35.394  31.754  1.00  0.00     0.251 C 
ATOM      9  H   UNL A   1      31.710  36.569  30.441  1.00  0.00     0.163 HD
BRANCH   8  10
ATOM     10  C   UNL A   1      33.928  34.731  32.111  1.00  0.00     0.039 A 
ATOM     11  C   UNL A   1      33.986  33.352  32.340  1.00  0.00     0.014 A 
ATOM     12  C   UNL A   1      35.090  35.503  32.175  1.00  0.00     0.014 A 
ATOM     13  C   UNL A   1      35.186  32.763  32.733  1.00  0.00     0.010 A 
ATOM     14  C   UNL A   1      36.304  34.901  32.509  1.00  0.00     0.010 A 
ATOM     15  C   UNL A   1      36.357  33.530  32.810  1.00  0.00    -0.014 A 
BRANCH  15  16
ATOM     16  C   UNL A   1      37.653  32.894  33.148  1.00  0.00     0.031 A 
ATOM     17  C   UNL A   1      38.271  31.882  32.230  1.00  0.00     0.074 A 
ATOM     18  C   UNL A   1      38.245  33.198  34.318  1.00  0.00     0.049 A 
ATOM     19  N   UNL A   1      39.345  31.155  32.408  1.00  0.00    -0.248 NA
ATOM     20  C   UNL A   1      37.590  31.647  30.948  1.00  0.00     0.031 C 
ATOM     21  C   UNL A   1      37.740  34.165  35.294  1.00  0.00     0.029 A 
ATOM     22  N   UNL A   1      39.392  32.711  34.891  1.00  0.00    -0.354 N 
ATOM     23  C   UNL A   1      39.454  30.357  31.277  1.00  0.00     0.074 A 
ATOM     24  C   UNL A   1      38.328  30.677  30.426  1.00  0.00     0.031 C 
ATOM     25  C   UNL A   1      38.572  34.202  36.344  1.00  0.00     0.029 A 
ATOM     26  C   UNL A   1      39.634  33.221  36.142  1.00  0.00     0.049 A 
ATOM     27  H   UNL A   1      39.983  32.059  34.450  1.00  0.00     0.167 HD
ATOM     28  C   UNL A   1      40.405  29.440  30.978  1.00  0.00     0.031 A 
ATOM     29  C   UNL A   1      40.581  32.913  37.047  1.00  0.00     0.031 A 
ATOM     30  C   UNL A   1      41.517  29.117  31.834  1.00  0.00     0.049 A 
ATOM     31  C   UNL A   1      41.600  31.862  36.714  1.00  0.00     0.074 A 
ATOM     32  C   UNL A   1      42.557  28.234  31.601  1.00  0.00     0.029 A 
ATOM     33  N   UNL A   1      41.725  29.657  33.094  1.00  0.00    -0.354 N 
ATOM     34  N   UNL A   1      41.717  31.148  35.622  1.00  0.00    -0.248 NA
ATOM     35  C   UNL A   1      42.616  31.578  37.735  1.00  0.00     0.031 C 
ATOM     36  C   UNL A   1      43.362  28.198  32.744  1.00  0.00     0.029 A 
ATOM     37  C   UNL A   1      42.859  29.103  33.664  1.00  0.00     0.049 A 
ATOM     38  H   UNL A   1      41.151  30.334  33.521  1.00  0.00     0.167 HD
ATOM     39  C   UNL A   1      42.833  30.345  35.811  1.00  0.00     0.074 A 
ATOM     40  C   UNL A   1      43.361  30.666  37.123  1.00  0.00     0.031 C 
ATOM     41  C   UNL A   1      43.373  29.431  34.970  1.00  0.00     0.031 A 
BRANCH  28  42
ATOM     42  C   UNL A   1      40.255  28.686  29.685  1.00  0.00    -0.014 A 
ATOM     43  C   UNL A   1      39.560  27.468  29.621  1.00  0.00     0.009 A 
ATOM     44  C   UNL A   1      40.806  29.215  28.507  1.00  0.00     0.009 A 
ATOM     45  C   UNL A   1      39.461  26.774  28.413  1.00  0.00     0.001 A 
ATOM     46  C   UNL A   1      40.680  28.533  27.296  1.00  0.00     0.001 A 
ATOM     47  C   UNL A   1      40.018  27.308  27.252  1.00  0.00     0.000 A 
ENDBRANCH  28  42
BRANCH  29  48
ATOM     48  C   UNL A   1      40.581  33.605  38.359  1.00  0.00    -0.014 A 
ATOM     49  C   UNL A   1      41.258  34.821  38.526  1.00  0.00     0.009 A 
ATOM     50  C   UNL A   1      39.848  33.081  39.436  1.00  0.00     0.009 A 
ATOM     51  C   UNL A   1      41.206  35.495  39.748  1.00  0.00     0.001 A 
ATOM     52  C   UNL A   1      39.775  33.769  40.647  1.00  0.00     0.001 A 
ATOM     53  C   UNL A   1      40.458  34.974  40.803  1.00  0.00     0.000 A 
ENDBRANCH  29  48
BRANCH  41  54
ATOM     54  C   UNL A   1      44.625  28.735  35.419  1.00  0.00    -0.014 A 
ATOM     55  C   UNL A   1      45.892  29.285  35.180  1.00  0.00     0.009 A 
ATOM     56  C   UNL A   1      44.527  27.543  36.156  1.00  0.00     0.009 A 
ATOM     57  C   UNL A   1      47.040  28.645  35.655  1.00  0.00     0.001 A 
ATOM     58  C   UNL A   1      45.672  26.920  36.651  1.00  0.00     0.001 A 
ATOM     59  C   UNL A   1      46.927  27.468  36.397  1.00  0.00     0.000 A 
ENDBRANCH  41  54
ENDBRANCH  15  16
ENDBRANCH   8  10
ENDBRANCH   5   6
ENDBRANCH   4   5
ENDBRANCH   3   4
ENDBRANCH   2   3
ENDBRANCH   1   2
BRANCH   1  60
ATOM     60  C   UNL A   1      34.093  30.828  27.992  1.00  0.00     0.116 C 
BRANCH  60  61
ATOM     61  N   UNL A   1      32.910  31.191  27.230  1.00  0.00    -0.352 N 
ATOM     62  C   UNL A   1      32.152  30.408  26.394  1.00  0.00     0.252 C 
ATOM     63  H   UNL A   1      32.612  32.123  27.327  1.00  0.00     0.163 HD
ATOM     64  O   UNL A   1      31.280  30.901  25.692  1.00  0.00    -0.269 OA
BRANCH  62  65
ATOM     65  C   UNL A   1      32.409  28.962  26.334  1.00  0.00     0.058 A 
ATOM     66  C   UNL A   1      33.511  28.437  25.663  1.00  0.00     0.017 A 
ATOM     67  C   UNL A   1      31.530  28.092  26.953  1.00  0.00     0.125 A 
ATOM     68  C   UNL A   1      33.652  27.054  25.577  1.00  0.00     0.030 A 
ATOM     69  N   UNL A   1      31.644  26.743  26.879  1.00  0.00    -0.255 NA
ATOM     70  C   UNL A   1      32.694  26.237  26.181  1.00  0.00     0.094 A 
BRANCH  70  71
ATOM     71  C   UNL A   1      32.825  24.723  26.094  1.00  0.00     0.318 C 
BRANCH  71  72
ATOM     72  N   UNL A   1      31.598  24.084  25.615  1.00  0.00    -0.338 N 
ATOM     73  H   UNL A   1      30.809  24.674  25.875  1.00  0.00     0.346 HD
ATOM     74  H   UNL A   1      31.566  23.160  26.048  1.00  0.00     0.346 HD
BRANCH  72  75
ATOM     75  C   UNL A   1      31.552  23.867  24.168  1.00  0.00     0.302 C 
BRANCH  75  76
ATOM     76  C   UNL A   1      30.679  24.839  23.344  1.00  0.00     0.290 C 
BRANCH  76  77
ATOM     77  O   UNL A   1      29.866  25.665  24.189  1.00  0.00    -0.488 OA
BRANCH  77  78
ATOM     78  C   UNL A   1      29.678  26.919  23.678  1.00  0.00     0.119 A 
ATOM     79  C   UNL A   1      28.403  27.455  23.501  1.00  0.00     0.046 A 
ATOM     80  C   UNL A   1      30.804  27.623  23.259  1.00  0.00     0.046 A 
ATOM     81  C   UNL A   1      28.265  28.734  22.957  1.00  0.00     0.004 A 
ATOM     82  C   UNL A   1      30.667  28.909  22.743  1.00  0.00     0.004 A 
ATOM     83  C   UNL A   1      29.397  29.465  22.592  1.00  0.00     0.000 A 
ENDBRANCH  77  78
ENDBRANCH  76  77
ENDBRANCH  75  76
ENDBRANCH  72  75
ENDBRANCH  71  72
ENDBRANCH  70  71
ENDBRANCH  62  65
ENDBRANCH  60  61
ENDBRANCH   1  60
TORSDOF 19
ENDMDL
MODEL 3
REMARK VINA RESULT:      -9.1      1.195      2.365
REMARK SMILES O=C(NCCCCCCNC(=O)c1ccc(C[NH2+]CCOc2ccccc2)nc1)c1ccc(-c2c3nc(c(-c4ccccc4)c4ccc([nH]4)c(-c4ccccc4)c4nc(c(-c5ccccc5)c5ccc2[nH]5)C=C4)C=C3)cc1
REMARK SMILES IDX 8 1 7 2 6 3 5 4 4 5 3 6 1 7 2 8 30 10 31 11 77 12 32 13
REMARK SMILES IDX 76 14 33 15 34 16 35 17 70 18 36 19 75 20 69 21 71 22 37 23
REMARK SMILES IDX 74 24 68 25 67 26 38 28 60 29 45 30 59 31 46 32 49 33 58 34
REMARK SMILES IDX 72 35 47 36 48 37 57 39 73 40 50 41 39 42 40 43 44 44 41 45
REMARK SMILES IDX 43 46 42 47 61 48 62 49 66 50 63 51 65 52 64 53 51 54 52 55
REMARK SMILES IDX 56 56 53 57 55 58 54 59 9 60 10 61 11 62 12 64 13 65 14 66
REMARK SMILES IDX 29 67 15 68 28 69 16 70 17 71 18 72 19 75 20 76 21 77 22 78
REMARK SMILES IDX 23 79 27 80 24 81 26 82 25 83
REMARK H PARENT 3 9 71 27 49 38 10 63 18 73 18 74
REMARK Flexibility Score: inf
ROOT
ATOM      1  C   UNL A   1      34.385  32.144  28.668  1.00  0.00     0.021 C 
ENDROOT
BRANCH   1   2
ATOM      2  C   UNL A   1      35.238  33.410  28.562  1.00  0.00     0.002 C 
BRANCH   2   3
ATOM      3  C   UNL A   1      34.480  34.691  28.203  1.00  0.00     0.002 C 
BRANCH   3   4
ATOM      4  C   UNL A   1      33.311  35.046  29.125  1.00  0.00     0.021 C 
BRANCH   4   5
ATOM      5  C   UNL A   1      33.432  36.392  29.831  1.00  0.00     0.116 C 
BRANCH   5   6
ATOM      6  N   UNL A   1      32.544  36.493  30.976  1.00  0.00    -0.352 N 
ATOM      7  O   UNL A   1      31.647  35.910  32.959  1.00  0.00    -0.269 OA
ATOM      8  C   UNL A   1      32.591  35.835  32.178  1.00  0.00     0.251 C 
ATOM      9  H   UNL A   1      31.799  37.128  30.875  1.00  0.00     0.163 HD
BRANCH   8  10
ATOM     10  C   UNL A   1      33.770  35.017  32.531  1.00  0.00     0.039 A 
ATOM     11  C   UNL A   1      33.635  33.677  32.910  1.00  0.00     0.014 A 
ATOM     12  C   UNL A   1      35.038  35.596  32.437  1.00  0.00     0.014 A 
ATOM     13  C   UNL A   1      34.758  32.947  33.294  1.00  0.00     0.010 A 
ATOM     14  C   UNL A   1      36.168  34.844  32.762  1.00  0.00     0.010 A 
ATOM     15  C   UNL A   1      36.035  33.521  33.213  1.00  0.00    -0.014 A 
BRANCH  15  16
ATOM     16  C   UNL A   1      37.241  32.724  33.542  1.00  0.00     0.031 A 
ATOM     17  C   UNL A   1      38.001  32.974  34.810  1.00  0.00     0.074 A 
ATOM     18  C   UNL A   1      37.679  31.806  32.660  1.00  0.00     0.049 A 
ATOM     19  N   UNL A   1      39.127  32.444  35.215  1.00  0.00    -0.248 NA
ATOM     20  C   UNL A   1      37.426  33.955  35.744  1.00  0.00     0.031 C 
ATOM     21  C   UNL A   1      37.027  31.474  31.393  1.00  0.00     0.029 A 
ATOM     22  N   UNL A   1      38.785  30.997  32.690  1.00  0.00    -0.354 N 
ATOM     23  C   UNL A   1      39.412  33.045  36.434  1.00  0.00     0.074 A 
ATOM     24  C   UNL A   1      38.349  33.992  36.695  1.00  0.00     0.031 C 
ATOM     25  C   UNL A   1      37.743  30.530  30.766  1.00  0.00     0.029 A 
ATOM     26  C   UNL A   1      38.932  30.234  31.559  1.00  0.00     0.049 A 
ATOM     27  H   UNL A   1      39.413  30.965  33.448  1.00  0.00     0.167 HD
ATOM     28  C   UNL A   1      40.465  32.829  37.258  1.00  0.00     0.031 A 
ATOM     29  C   UNL A   1      39.929  29.415  31.177  1.00  0.00     0.031 A 
ATOM     30  C   UNL A   1      41.526  31.894  36.987  1.00  0.00     0.049 A 
ATOM     31  C   UNL A   1      41.109  29.222  32.084  1.00  0.00     0.074 A 
ATOM     32  C   UNL A   1      42.615  31.571  37.779  1.00  0.00     0.029 A 
ATOM     33  N   UNL A   1      41.638  31.142  35.827  1.00  0.00    -0.354 N 
ATOM     34  N   UNL A   1      41.343  29.762  33.254  1.00  0.00    -0.248 NA
ATOM     35  C   UNL A   1      42.158  28.305  31.619  1.00  0.00     0.031 C 
ATOM     36  C   UNL A   1      43.414  30.665  37.073  1.00  0.00     0.029 A 
ATOM     37  C   UNL A   1      42.793  30.378  35.869  1.00  0.00     0.049 A 
ATOM     38  H   UNL A   1      40.992  31.149  35.084  1.00  0.00     0.167 HD
ATOM     39  C   UNL A   1      42.554  29.236  33.680  1.00  0.00     0.074 A 
ATOM     40  C   UNL A   1      43.002  28.327  32.643  1.00  0.00     0.031 C 
ATOM     41  C   UNL A   1      43.227  29.479  34.830  1.00  0.00     0.031 A 
BRANCH  28  42
ATOM     42  C   UNL A   1      40.542  33.655  38.512  1.00  0.00    -0.014 A 
ATOM     43  C   UNL A   1      41.197  34.896  38.535  1.00  0.00     0.009 A 
ATOM     44  C   UNL A   1      39.933  33.188  39.688  1.00  0.00     0.009 A 
ATOM     45  C   UNL A   1      41.280  35.630  39.721  1.00  0.00     0.001 A 
ATOM     46  C   UNL A   1      39.992  33.937  40.864  1.00  0.00     0.001 A 
ATOM     47  C   UNL A   1      40.676  35.151  40.883  1.00  0.00     0.000 A 
ENDBRANCH  28  42
BRANCH  29  48
ATOM     48  C   UNL A   1      39.845  28.738  29.858  1.00  0.00    -0.014 A 
ATOM     49  C   UNL A   1      40.273  29.389  28.693  1.00  0.00     0.009 A 
ATOM     50  C   UNL A   1      39.393  27.412  29.771  1.00  0.00     0.009 A 
ATOM     51  C   UNL A   1      40.245  28.726  27.465  1.00  0.00     0.001 A 
ATOM     52  C   UNL A   1      39.391  26.742  28.546  1.00  0.00     0.001 A 
ATOM     53  C   UNL A   1      39.813  27.402  27.394  1.00  0.00     0.000 A 
ENDBRANCH  29  48
BRANCH  41  54
ATOM     54  C   UNL A   1      44.506  28.724  35.054  1.00  0.00    -0.014 A 
ATOM     55  C   UNL A   1      45.755  29.314  34.812  1.00  0.00     0.009 A 
ATOM     56  C   UNL A   1      44.456  27.424  35.585  1.00  0.00     0.009 A 
ATOM     57  C   UNL A   1      46.931  28.610  35.080  1.00  0.00     0.001 A 
ATOM     58  C   UNL A   1      45.633  26.732  35.875  1.00  0.00     0.001 A 
ATOM     59  C   UNL A   1      46.868  27.323  35.618  1.00  0.00     0.000 A 
ENDBRANCH  41  54
ENDBRANCH  15  16
ENDBRANCH   8  10
ENDBRANCH   5   6
ENDBRANCH   4   5
ENDBRANCH   3   4
ENDBRANCH   2   3
ENDBRANCH   1   2
BRANCH   1  60
ATOM     60  C   UNL A   1      34.117  31.434  27.344  1.00  0.00     0.116 C 
BRANCH  60  61
ATOM     61  N   UNL A   1      34.808  30.159  27.256  1.00  0.00    -0.352 N 
ATOM     62  C   UNL A   1      34.446  29.030  26.563  1.00  0.00     0.252 C 
ATOM     63  H   UNL A   1      35.650  30.097  27.761  1.00  0.00     0.163 HD
ATOM     64  O   UNL A   1      35.048  27.977  26.719  1.00  0.00    -0.269 OA
BRANCH  62  65
ATOM     65  C   UNL A   1      33.308  29.091  25.635  1.00  0.00     0.058 A 
ATOM     66  C   UNL A   1      33.457  28.864  24.269  1.00  0.00     0.017 A 
ATOM     67  C   UNL A   1      32.049  29.390  26.125  1.00  0.00     0.125 A 
ATOM     68  C   UNL A   1      32.353  29.017  23.434  1.00  0.00     0.030 A 
ATOM     69  N   UNL A   1      30.961  29.548  25.333  1.00  0.00    -0.255 NA
ATOM     70  C   UNL A   1      31.125  29.374  23.995  1.00  0.00     0.094 A 
BRANCH  70  71
ATOM     71  C   UNL A   1      29.906  29.551  23.101  1.00  0.00     0.318 C 
BRANCH  71  72
ATOM     72  N   UNL A   1      29.428  28.282  22.551  1.00  0.00    -0.338 N 
ATOM     73  H   UNL A   1      30.195  27.849  22.037  1.00  0.00     0.346 HD
ATOM     74  H   UNL A   1      28.627  28.505  21.960  1.00  0.00     0.346 HD
BRANCH  72  75
ATOM     75  C   UNL A   1      28.951  27.326  23.554  1.00  0.00     0.302 C 
BRANCH  75  76
ATOM     76  C   UNL A   1      29.809  26.061  23.776  1.00  0.00     0.290 C 
BRANCH  76  77
ATOM     77  O   UNL A   1      30.605  26.163  24.965  1.00  0.00    -0.488 OA
BRANCH  77  78
ATOM     78  C   UNL A   1      31.877  25.694  24.789  1.00  0.00     0.119 A 
ATOM     79  C   UNL A   1      32.408  25.474  23.518  1.00  0.00     0.046 A 
ATOM     80  C   UNL A   1      32.608  25.361  25.926  1.00  0.00     0.046 A 
ATOM     81  C   UNL A   1      33.706  24.975  23.393  1.00  0.00     0.004 A 
ATOM     82  C   UNL A   1      33.912  24.890  25.801  1.00  0.00     0.004 A 
ATOM     83  C   UNL A   1      34.461  24.697  24.534  1.00  0.00     0.000 A 
ENDBRANCH  77  78
ENDBRANCH  76  77
ENDBRANCH  75  76
ENDBRANCH  72  75
ENDBRANCH  71  72
ENDBRANCH  70  71
ENDBRANCH  62  65
ENDBRANCH  60  61
ENDBRANCH   1  60
TORSDOF 19
ENDMDL
