MODEL 1
REMARK VINA RESULT:     -11.4      0.000      0.000
REMARK SMILES CCn1c([C@@H]2CCC[N@@H+](Cc3ccc(C(=O)NCCCCCCNC(=O)c4ccc(-c5c6nc(c(-c7ccccc7)c7ccc([nH]7)c(-c7ccccc7)c7nc(c(-c8ccccc8)c8ccc5[nH]8)C=C7)C=C6)cc4)cc3)C2)nn(C)c1=O
REMARK SMILES IDX 19 1 18 2 17 3 15 4 16 5 14 7 11 8 12 9 76 10 13 11 75 12
REMARK SMILES IDX 10 13 9 14 5 15 6 16 77 17 7 18 8 19 4 21 3 22 81 23 78 24
REMARK SMILES IDX 79 25 82 26 80 27 2 28 1 29 20 30 21 31 22 32 23 33 24 34
REMARK SMILES IDX 25 35 26 37 27 38 28 39 74 40 29 41 73 42 30 43 31 44 32 45
REMARK SMILES IDX 67 46 33 47 72 48 66 49 68 50 34 51 71 52 65 53 64 54 35 56
REMARK SMILES IDX 57 57 42 58 56 59 43 60 46 61 55 62 69 63 44 64 45 65 54 67
REMARK SMILES IDX 70 68 47 69 36 70 37 71 41 72 38 73 40 74 39 75 58 76 59 77
REMARK SMILES IDX 63 78 60 79 62 80 61 81 48 82 49 83 53 84 50 85 52 86 51 87
REMARK H PARENT 17 6 9 20 24 36 68 55 46 66
REMARK Flexibility Score: inf
ROOT
ATOM      1  C   UNL A   1      36.426  20.241  25.034  1.00  0.00     0.021 C 
ENDROOT
BRANCH   1   2
ATOM      2  C   UNL A   1      35.222  20.996  25.603  1.00  0.00     0.116 C 
BRANCH   2   3
ATOM      3  N   UNL A   1      34.013  20.213  25.435  1.00  0.00    -0.352 N 
ATOM      4  C   UNL A   1      32.715  20.570  25.176  1.00  0.00     0.251 C 
ATOM      5  O   UNL A   1      31.880  19.675  25.054  1.00  0.00    -0.269 OA
ATOM      6  H   UNL A   1      34.150  19.241  25.523  1.00  0.00     0.163 HD
BRANCH   4   7
ATOM      7  C   UNL A   1      32.302  21.982  24.959  1.00  0.00     0.039 A 
ATOM      8  C   UNL A   1      31.316  24.616  24.746  1.00  0.00     0.006 A 
ATOM      9  C   UNL A   1      31.687  24.093  25.992  1.00  0.00     0.010 A 
ATOM     10  C   UNL A   1      31.548  23.843  23.600  1.00  0.00     0.010 A 
ATOM     11  C   UNL A   1      32.176  22.789  26.096  1.00  0.00     0.014 A 
ATOM     12  C   UNL A   1      32.051  22.541  23.704  1.00  0.00     0.014 A 
BRANCH   8  13
ATOM     13  C   UNL A   1      30.673  25.984  24.661  1.00  0.00     0.299 C 
BRANCH  13  14
ATOM     14  N   UNL A   1      31.563  27.113  24.323  1.00  0.00    -0.331 N 
ATOM     15  C   UNL A   1      33.686  28.317  24.830  1.00  0.00     0.113 C 
ATOM     16  C   UNL A   1      33.795  28.754  23.369  1.00  0.00     0.023 C 
ATOM     17  C   UNL A   1      32.851  27.051  25.008  1.00  0.00     0.274 C 
ATOM     18  C   UNL A   1      32.505  28.624  22.567  1.00  0.00     0.062 C 
ATOM     19  C   UNL A   1      31.704  27.353  22.884  1.00  0.00     0.262 C 
ATOM     20  H   UNL A   1      31.082  27.936  24.687  1.00  0.00     0.348 HD
BRANCH  15  21
ATOM     21  C   UNL A   1      33.406  29.419  25.853  1.00  0.00     0.142 A 
ATOM     22  N   UNL A   1      34.136  29.754  26.939  1.00  0.00    -0.279 N 
ATOM     23  C   UNL A   1      33.505  30.857  27.482  1.00  0.00     0.345 A 
ATOM     24  N   UNL A   1      32.346  30.165  25.671  1.00  0.00    -0.155 NA
ATOM     25  N   UNL A   1      32.386  31.069  26.689  1.00  0.00    -0.216 N 
ATOM     26  O   UNL A   1      33.854  31.542  28.428  1.00  0.00    -0.246 OA
ATOM     27  C   UNL A   1      31.455  32.155  26.804  1.00  0.00     0.179 C 
BRANCH  22  28
ATOM     28  C   UNL A   1      35.436  29.276  27.386  1.00  0.00     0.125 C 
ATOM     29  C   UNL A   1      36.569  30.290  27.431  1.00  0.00     0.028 C 
ENDBRANCH  22  28
ENDBRANCH  15  21
ENDBRANCH  13  14
ENDBRANCH   8  13
ENDBRANCH   4   7
ENDBRANCH   2   3
ENDBRANCH   1   2
BRANCH   1  30
ATOM     30  C   UNL A   1      37.586  21.155  24.617  1.00  0.00     0.002 C 
BRANCH  30  31
ATOM     31  C   UNL A   1      38.174  22.034  25.732  1.00  0.00     0.002 C 
BRANCH  31  32
ATOM     32  C   UNL A   1      37.627  23.466  25.828  1.00  0.00     0.021 C 
BRANCH  32  33
ATOM     33  C   UNL A   1      38.508  24.402  26.642  1.00  0.00     0.116 C 
BRANCH  33  34
ATOM     34  N   UNL A   1      39.790  24.666  25.991  1.00  0.00    -0.352 N 
ATOM     35  C   UNL A   1      40.568  25.807  26.052  1.00  0.00     0.251 C 
ATOM     36  H   UNL A   1      40.146  23.934  25.437  1.00  0.00     0.163 HD
ATOM     37  O   UNL A   1      41.397  26.051  25.191  1.00  0.00    -0.269 OA
BRANCH  35  38
ATOM     38  C   UNL A   1      40.378  26.726  27.189  1.00  0.00     0.039 A 
ATOM     39  C   UNL A   1      40.312  26.256  28.502  1.00  0.00     0.014 A 
ATOM     40  C   UNL A   1      40.286  28.088  26.915  1.00  0.00     0.014 A 
ATOM     41  C   UNL A   1      40.233  27.184  29.539  1.00  0.00     0.010 A 
ATOM     42  C   UNL A   1      40.386  28.998  27.934  1.00  0.00     0.010 A 
ATOM     43  C   UNL A   1      40.296  28.558  29.247  1.00  0.00    -0.014 A 
BRANCH  43  44
ATOM     44  C   UNL A   1      40.370  29.551  30.311  1.00  0.00     0.031 A 
ATOM     45  C   UNL A   1      39.098  30.275  30.562  1.00  0.00     0.074 A 
ATOM     46  C   UNL A   1      41.435  29.702  31.129  1.00  0.00     0.049 A 
ATOM     47  N   UNL A   1      38.842  31.504  30.266  1.00  0.00    -0.248 NA
ATOM     48  C   UNL A   1      37.938  29.525  31.066  1.00  0.00     0.031 C 
ATOM     49  C   UNL A   1      42.652  28.887  31.216  1.00  0.00     0.029 A 
ATOM     50  N   UNL A   1      41.603  30.592  32.143  1.00  0.00    -0.354 N 
ATOM     51  C   UNL A   1      37.550  31.749  30.715  1.00  0.00     0.074 A 
ATOM     52  C   UNL A   1      36.989  30.465  31.052  1.00  0.00     0.031 C 
ATOM     53  C   UNL A   1      43.311  29.172  32.363  1.00  0.00     0.029 A 
ATOM     54  C   UNL A   1      42.669  30.312  32.989  1.00  0.00     0.049 A 
ATOM     55  H   UNL A   1      41.016  31.373  32.269  1.00  0.00     0.167 HD
ATOM     56  C   UNL A   1      37.134  33.016  30.987  1.00  0.00     0.031 A 
ATOM     57  C   UNL A   1      43.000  30.975  34.124  1.00  0.00     0.031 A 
ATOM     58  C   UNL A   1      38.065  33.997  30.489  1.00  0.00     0.049 A 
ATOM     59  C   UNL A   1      42.381  32.315  34.039  1.00  0.00     0.074 A 
ATOM     60  C   UNL A   1      38.528  34.363  29.243  1.00  0.00     0.029 A 
ATOM     61  N   UNL A   1      38.974  34.485  31.398  1.00  0.00    -0.354 N 
ATOM     62  N   UNL A   1      42.754  33.218  33.180  1.00  0.00    -0.248 NA
ATOM     63  C   UNL A   1      41.059  32.504  34.613  1.00  0.00     0.031 C 
ATOM     64  C   UNL A   1      39.912  34.649  29.435  1.00  0.00     0.029 A 
ATOM     65  C   UNL A   1      40.205  34.516  30.795  1.00  0.00     0.049 A 
ATOM     66  H   UNL A   1      38.776  34.764  32.320  1.00  0.00     0.167 HD
ATOM     67  C   UNL A   1      41.571  33.806  32.760  1.00  0.00     0.074 A 
ATOM     68  C   UNL A   1      40.580  33.417  33.762  1.00  0.00     0.031 C 
ATOM     69  C   UNL A   1      41.454  34.310  31.495  1.00  0.00     0.031 A 
BRANCH  56  70
ATOM     70  C   UNL A   1      36.131  33.365  32.055  1.00  0.00    -0.014 A 
ATOM     71  C   UNL A   1      34.971  34.069  31.682  1.00  0.00     0.009 A 
ATOM     72  C   UNL A   1      36.418  33.293  33.430  1.00  0.00     0.009 A 
ATOM     73  C   UNL A   1      34.182  34.727  32.633  1.00  0.00     0.001 A 
ATOM     74  C   UNL A   1      35.610  33.917  34.385  1.00  0.00     0.001 A 
ATOM     75  C   UNL A   1      34.508  34.658  33.983  1.00  0.00     0.000 A 
ENDBRANCH  56  70
BRANCH  57  76
ATOM     76  C   UNL A   1      43.612  30.481  35.373  1.00  0.00    -0.014 A 
ATOM     77  C   UNL A   1      43.341  29.184  35.839  1.00  0.00     0.009 A 
ATOM     78  C   UNL A   1      44.703  31.167  35.938  1.00  0.00     0.009 A 
ATOM     79  C   UNL A   1      44.166  28.574  36.792  1.00  0.00     0.001 A 
ATOM     80  C   UNL A   1      45.526  30.556  36.890  1.00  0.00     0.001 A 
ATOM     81  C   UNL A   1      45.269  29.252  37.304  1.00  0.00     0.000 A 
ENDBRANCH  57  76
BRANCH  69  82
ATOM     82  C   UNL A   1      42.718  34.446  30.677  1.00  0.00    -0.014 A 
ATOM     83  C   UNL A   1      43.216  33.429  29.841  1.00  0.00     0.009 A 
ATOM     84  C   UNL A   1      43.353  35.695  30.654  1.00  0.00     0.009 A 
ATOM     85  C   UNL A   1      44.337  33.652  29.033  1.00  0.00     0.001 A 
ATOM     86  C   UNL A   1      44.458  35.923  29.831  1.00  0.00     0.001 A 
ATOM     87  C   UNL A   1      44.955  34.900  29.026  1.00  0.00     0.000 A 
ENDBRANCH  69  82
ENDBRANCH  43  44
ENDBRANCH  35  38
ENDBRANCH  33  34
ENDBRANCH  32  33
ENDBRANCH  31  32
ENDBRANCH  30  31
ENDBRANCH   1  30
TORSDOF 17
ENDMDL
MODEL 2
REMARK VINA RESULT:     -11.3      2.825      8.823
REMARK SMILES CCn1c([C@@H]2CCC[N@@H+](Cc3ccc(C(=O)NCCCCCCNC(=O)c4ccc(-c5c6nc(c(-c7ccccc7)c7ccc([nH]7)c(-c7ccccc7)c7nc(c(-c8ccccc8)c8ccc5[nH]8)C=C7)C=C6)cc4)cc3)C2)nn(C)c1=O
REMARK SMILES IDX 19 1 18 2 17 3 15 4 16 5 14 7 11 8 12 9 76 10 13 11 75 12
REMARK SMILES IDX 10 13 9 14 5 15 6 16 77 17 7 18 8 19 4 21 3 22 81 23 78 24
REMARK SMILES IDX 79 25 82 26 80 27 2 28 1 29 20 30 21 31 22 32 23 33 24 34
REMARK SMILES IDX 25 35 26 37 27 38 28 39 74 40 29 41 73 42 30 43 31 44 32 45
REMARK SMILES IDX 67 46 33 47 72 48 66 49 68 50 34 51 71 52 65 53 64 54 35 56
REMARK SMILES IDX 57 57 42 58 56 59 43 60 46 61 55 62 69 63 44 64 45 65 54 67
REMARK SMILES IDX 70 68 47 69 36 70 37 71 41 72 38 73 40 74 39 75 58 76 59 77
REMARK SMILES IDX 63 78 60 79 62 80 61 81 48 82 49 83 53 84 50 85 52 86 51 87
REMARK H PARENT 17 6 9 20 24 36 68 55 46 66
REMARK Flexibility Score: inf
ROOT
ATOM      1  C   UNL A   1      34.296  31.126  27.802  1.00  0.00     0.021 C 
ENDROOT
BRANCH   1   2
ATOM      2  C   UNL A   1      33.411  30.015  27.234  1.00  0.00     0.116 C 
BRANCH   2   3
ATOM      3  N   UNL A   1      33.501  29.991  25.787  1.00  0.00    -0.352 N 
ATOM      4  C   UNL A   1      33.231  29.012  24.865  1.00  0.00     0.251 C 
ATOM      5  O   UNL A   1      33.372  29.283  23.674  1.00  0.00    -0.269 OA
ATOM      6  H   UNL A   1      33.814  30.837  25.392  1.00  0.00     0.163 HD
BRANCH   4   7
ATOM      7  C   UNL A   1      32.701  27.677  25.248  1.00  0.00     0.039 A 
ATOM      8  C   UNL A   1      31.878  25.033  25.782  1.00  0.00     0.006 A 
ATOM      9  C   UNL A   1      33.232  25.385  25.850  1.00  0.00     0.010 A 
ATOM     10  C   UNL A   1      30.935  26.044  25.551  1.00  0.00     0.010 A 
ATOM     11  C   UNL A   1      33.639  26.694  25.587  1.00  0.00     0.014 A 
ATOM     12  C   UNL A   1      31.342  27.359  25.301  1.00  0.00     0.014 A 
BRANCH   8  13
ATOM     13  C   UNL A   1      31.463  23.587  25.949  1.00  0.00     0.299 C 
BRANCH  13  14
ATOM     14  N   UNL A   1      31.985  22.629  24.955  1.00  0.00    -0.331 N 
ATOM     15  C   UNL A   1      32.672  20.279  24.486  1.00  0.00     0.113 C 
ATOM     16  C   UNL A   1      32.263  20.444  23.022  1.00  0.00     0.023 C 
ATOM     17  C   UNL A   1      31.943  21.244  25.416  1.00  0.00     0.274 C 
ATOM     18  C   UNL A   1      32.089  21.889  22.568  1.00  0.00     0.062 C 
ATOM     19  C   UNL A   1      31.416  22.790  23.613  1.00  0.00     0.262 C 
ATOM     20  H   UNL A   1      32.971  22.871  24.859  1.00  0.00     0.348 HD
BRANCH  15  21
ATOM     21  C   UNL A   1      34.169  20.129  24.763  1.00  0.00     0.142 A 
ATOM     22  N   UNL A   1      34.929  19.017  24.659  1.00  0.00    -0.279 N 
ATOM     23  C   UNL A   1      36.219  19.425  24.940  1.00  0.00     0.345 A 
ATOM     24  N   UNL A   1      34.832  21.197  25.126  1.00  0.00    -0.155 NA
ATOM     25  N   UNL A   1      36.120  20.774  25.251  1.00  0.00    -0.216 N 
ATOM     26  O   UNL A   1      37.249  18.773  24.893  1.00  0.00    -0.246 OA
ATOM     27  C   UNL A   1      37.210  21.664  25.532  1.00  0.00     0.179 C 
BRANCH  22  28
ATOM     28  C   UNL A   1      34.602  17.695  24.146  1.00  0.00     0.125 C 
ATOM     29  C   UNL A   1      34.601  16.546  25.144  1.00  0.00     0.028 C 
ENDBRANCH  22  28
ENDBRANCH  15  21
ENDBRANCH  13  14
ENDBRANCH   8  13
ENDBRANCH   4   7
ENDBRANCH   2   3
ENDBRANCH   1   2
BRANCH   1  30
ATOM     30  C   UNL A   1      33.558  32.455  28.013  1.00  0.00     0.002 C 
BRANCH  30  31
ATOM     31  C   UNL A   1      34.439  33.715  28.001  1.00  0.00     0.002 C 
BRANCH  31  32
ATOM     32  C   UNL A   1      35.957  33.483  27.985  1.00  0.00     0.021 C 
BRANCH  32  33
ATOM     33  C   UNL A   1      36.670  34.026  29.213  1.00  0.00     0.116 C 
BRANCH  33  34
ATOM     34  N   UNL A   1      36.020  33.621  30.459  1.00  0.00    -0.352 N 
ATOM     35  C   UNL A   1      36.101  32.407  31.117  1.00  0.00     0.251 C 
ATOM     36  H   UNL A   1      35.450  34.301  30.884  1.00  0.00     0.163 HD
ATOM     37  O   UNL A   1      35.243  32.064  31.912  1.00  0.00    -0.269 OA
BRANCH  35  38
ATOM     38  C   UNL A   1      37.256  31.534  30.841  1.00  0.00     0.039 A 
ATOM     39  C   UNL A   1      38.567  31.976  31.037  1.00  0.00     0.014 A 
ATOM     40  C   UNL A   1      37.001  30.241  30.394  1.00  0.00     0.014 A 
ATOM     41  C   UNL A   1      39.610  31.071  30.855  1.00  0.00     0.010 A 
ATOM     42  C   UNL A   1      38.006  29.310  30.387  1.00  0.00     0.010 A 
ATOM     43  C   UNL A   1      39.319  29.729  30.553  1.00  0.00    -0.014 A 
BRANCH  43  44
ATOM     44  C   UNL A   1      40.372  28.723  30.505  1.00  0.00     0.031 A 
ATOM     45  C   UNL A   1      41.009  28.440  31.816  1.00  0.00     0.074 A 
ATOM     46  C   UNL A   1      40.651  27.974  29.416  1.00  0.00     0.049 A 
ATOM     47  N   UNL A   1      42.196  28.784  32.185  1.00  0.00    -0.248 NA
ATOM     48  C   UNL A   1      40.201  27.834  32.886  1.00  0.00     0.031 C 
ATOM     49  C   UNL A   1      39.938  27.913  28.134  1.00  0.00     0.029 A 
ATOM     50  N   UNL A   1      41.606  27.018  29.268  1.00  0.00    -0.354 N 
ATOM     51  C   UNL A   1      42.366  28.278  33.468  1.00  0.00     0.074 A 
ATOM     52  C   UNL A   1      41.063  27.844  33.906  1.00  0.00     0.031 C 
ATOM     53  C   UNL A   1      40.337  26.820  27.442  1.00  0.00     0.029 A 
ATOM     54  C   UNL A   1      41.457  26.219  28.140  1.00  0.00     0.049 A 
ATOM     55  H   UNL A   1      42.345  26.901  29.907  1.00  0.00     0.167 HD
ATOM     56  C   UNL A   1      43.609  28.049  33.970  1.00  0.00     0.031 A 
ATOM     57  C   UNL A   1      42.206  25.140  27.806  1.00  0.00     0.031 A 
ATOM     58  C   UNL A   1      44.630  28.648  33.146  1.00  0.00     0.049 A 
ATOM     59  C   UNL A   1      43.488  25.260  28.534  1.00  0.00     0.074 A 
ATOM     60  C   UNL A   1      44.961  29.935  32.779  1.00  0.00     0.029 A 
ATOM     61  N   UNL A   1      45.237  27.817  32.234  1.00  0.00    -0.354 N 
ATOM     62  N   UNL A   1      44.367  26.184  28.279  1.00  0.00    -0.248 NA
ATOM     63  C   UNL A   1      43.606  24.624  29.836  1.00  0.00     0.031 C 
ATOM     64  C   UNL A   1      45.363  29.834  31.414  1.00  0.00     0.029 A 
ATOM     65  C   UNL A   1      45.329  28.488  31.043  1.00  0.00     0.049 A 
ATOM     66  H   UNL A   1      45.551  26.900  32.407  1.00  0.00     0.167 HD
ATOM     67  C   UNL A   1      44.838  26.568  29.525  1.00  0.00     0.074 A 
ATOM     68  C   UNL A   1      44.430  25.493  30.429  1.00  0.00     0.031 C 
ATOM     69  C   UNL A   1      45.259  27.848  29.747  1.00  0.00     0.031 A 
BRANCH  56  70
ATOM     70  C   UNL A   1      43.939  26.947  34.941  1.00  0.00    -0.014 A 
ATOM     71  C   UNL A   1      43.963  25.621  34.471  1.00  0.00     0.009 A 
ATOM     72  C   UNL A   1      43.932  27.126  36.337  1.00  0.00     0.009 A 
ATOM     73  C   UNL A   1      43.909  24.534  35.351  1.00  0.00     0.001 A 
ATOM     74  C   UNL A   1      43.917  26.043  37.220  1.00  0.00     0.001 A 
ATOM     75  C   UNL A   1      43.877  24.746  36.725  1.00  0.00     0.000 A 
ENDBRANCH  56  70
BRANCH  57  76
ATOM     76  C   UNL A   1      41.832  23.903  27.093  1.00  0.00    -0.014 A 
ATOM     77  C   UNL A   1      42.697  23.334  26.144  1.00  0.00     0.009 A 
ATOM     78  C   UNL A   1      40.770  23.114  27.571  1.00  0.00     0.009 A 
ATOM     79  C   UNL A   1      42.540  22.004  25.732  1.00  0.00     0.001 A 
ATOM     80  C   UNL A   1      40.614  21.785  27.158  1.00  0.00     0.001 A 
ATOM     81  C   UNL A   1      41.510  21.224  26.253  1.00  0.00     0.000 A 
ENDBRANCH  57  76
BRANCH  69  82
ATOM     82  C   UNL A   1      45.446  28.741  28.542  1.00  0.00    -0.014 A 
ATOM     83  C   UNL A   1      44.393  29.436  27.918  1.00  0.00     0.009 A 
ATOM     84  C   UNL A   1      46.755  28.987  28.105  1.00  0.00     0.009 A 
ATOM     85  C   UNL A   1      44.646  30.325  26.866  1.00  0.00     0.001 A 
ATOM     86  C   UNL A   1      47.009  29.891  27.070  1.00  0.00     0.001 A 
ATOM     87  C   UNL A   1      45.955  30.554  26.446  1.00  0.00     0.000 A 
ENDBRANCH  69  82
ENDBRANCH  43  44
ENDBRANCH  35  38
ENDBRANCH  33  34
ENDBRANCH  32  33
ENDBRANCH  31  32
ENDBRANCH  30  31
ENDBRANCH   1  30
TORSDOF 17
ENDMDL
MODEL 3
REMARK VINA RESULT:     -11.2      3.111      9.484
REMARK SMILES CCn1c([C@@H]2CCC[N@@H+](Cc3ccc(C(=O)NCCCCCCNC(=O)c4ccc(-c5c6nc(c(-c7ccccc7)c7ccc([nH]7)c(-c7ccccc7)c7nc(c(-c8ccccc8)c8ccc5[nH]8)C=C7)C=C6)cc4)cc3)C2)nn(C)c1=O
REMARK SMILES IDX 19 1 18 2 17 3 15 4 16 5 14 7 11 8 12 9 76 10 13 11 75 12
REMARK SMILES IDX 10 13 9 14 5 15 6 16 77 17 7 18 8 19 4 21 3 22 81 23 78 24
REMARK SMILES IDX 79 25 82 26 80 27 2 28 1 29 20 30 21 31 22 32 23 33 24 34
REMARK SMILES IDX 25 35 26 37 27 38 28 39 74 40 29 41 73 42 30 43 31 44 32 45
REMARK SMILES IDX 67 46 33 47 72 48 66 49 68 50 34 51 71 52 65 53 64 54 35 56
REMARK SMILES IDX 57 57 42 58 56 59 43 60 46 61 55 62 69 63 44 64 45 65 54 67
REMARK SMILES IDX 70 68 47 69 36 70 37 71 41 72 38 73 40 74 39 75 58 76 59 77
REMARK SMILES IDX 63 78 60 79 62 80 61 81 48 82 49 83 53 84 50 85 52 86 51 87
REMARK H PARENT 17 6 9 20 24 36 68 55 46 66
REMARK Flexibility Score: inf
ROOT
ATOM      1  C   UNL A   1      35.820  30.576  28.325  1.00  0.00     0.021 C 
ENDROOT
BRANCH   1   2
ATOM      2  C   UNL A   1      34.640  29.854  27.669  1.00  0.00     0.116 C 
BRANCH   2   3
ATOM      3  N   UNL A   1      33.554  30.784  27.427  1.00  0.00    -0.352 N 
ATOM      4  C   UNL A   1      32.323  30.627  26.845  1.00  0.00     0.251 C 
ATOM      5  O   UNL A   1      31.575  31.602  26.796  1.00  0.00    -0.269 OA
ATOM      6  H   UNL A   1      33.734  31.700  27.740  1.00  0.00     0.163 HD
BRANCH   4   7
ATOM      7  C   UNL A   1      31.834  29.313  26.350  1.00  0.00     0.039 A 
ATOM      8  C   UNL A   1      31.141  26.704  25.531  1.00  0.00     0.006 A 
ATOM      9  C   UNL A   1      31.428  26.976  26.874  1.00  0.00     0.010 A 
ATOM     10  C   UNL A   1      31.098  27.775  24.627  1.00  0.00     0.010 A 
ATOM     11  C   UNL A   1      31.770  28.267  27.280  1.00  0.00     0.014 A 
ATOM     12  C   UNL A   1      31.428  29.071  25.036  1.00  0.00     0.014 A 
BRANCH   8  13
ATOM     13  C   UNL A   1      30.892  25.280  25.082  1.00  0.00     0.299 C 
BRANCH  13  14
ATOM     14  N   UNL A   1      32.068  24.515  24.624  1.00  0.00    -0.331 N 
ATOM     15  C   UNL A   1      32.971  22.859  22.994  1.00  0.00     0.113 C 
ATOM     16  C   UNL A   1      34.351  23.510  23.086  1.00  0.00     0.023 C 
ATOM     17  C   UNL A   1      31.840  23.816  23.362  1.00  0.00     0.274 C 
ATOM     18  C   UNL A   1      34.545  24.424  24.291  1.00  0.00     0.062 C 
ATOM     19  C   UNL A   1      33.317  25.284  24.620  1.00  0.00     0.262 C 
ATOM     20  H   UNL A   1      32.198  23.795  25.334  1.00  0.00     0.348 HD
BRANCH  15  21
ATOM     21  C   UNL A   1      32.838  21.453  23.581  1.00  0.00     0.142 A 
ATOM     22  N   UNL A   1      32.903  21.081  24.878  1.00  0.00    -0.279 N 
ATOM     23  C   UNL A   1      32.644  19.724  24.886  1.00  0.00     0.345 A 
ATOM     24  N   UNL A   1      32.611  20.466  22.753  1.00  0.00    -0.155 NA
ATOM     25  N   UNL A   1      32.495  19.369  23.552  1.00  0.00    -0.216 N 
ATOM     26  O   UNL A   1      32.526  18.979  25.844  1.00  0.00    -0.246 OA
ATOM     27  C   UNL A   1      32.131  18.074  23.052  1.00  0.00     0.179 C 
BRANCH  22  28
ATOM     28  C   UNL A   1      32.984  21.887  26.087  1.00  0.00     0.125 C 
ATOM     29  C   UNL A   1      34.229  21.722  26.946  1.00  0.00     0.028 C 
ENDBRANCH  22  28
ENDBRANCH  15  21
ENDBRANCH  13  14
ENDBRANCH   8  13
ENDBRANCH   4   7
ENDBRANCH   2   3
ENDBRANCH   1   2
BRANCH   1  30
ATOM     30  C   UNL A   1      35.405  31.762  29.206  1.00  0.00     0.002 C 
BRANCH  30  31
ATOM     31  C   UNL A   1      36.550  32.479  29.939  1.00  0.00     0.002 C 
BRANCH  31  32
ATOM     32  C   UNL A   1      36.886  33.897  29.454  1.00  0.00     0.021 C 
BRANCH  32  33
ATOM     33  C   UNL A   1      38.359  34.098  29.130  1.00  0.00     0.116 C 
BRANCH  33  34
ATOM     34  N   UNL A   1      39.128  34.539  30.292  1.00  0.00    -0.352 N 
ATOM     35  C   UNL A   1      39.859  33.773  31.182  1.00  0.00     0.251 C 
ATOM     36  H   UNL A   1      39.127  35.508  30.462  1.00  0.00     0.163 HD
ATOM     37  O   UNL A   1      40.132  34.191  32.295  1.00  0.00    -0.269 OA
BRANCH  35  38
ATOM     38  C   UNL A   1      40.309  32.437  30.754  1.00  0.00     0.039 A 
ATOM     39  C   UNL A   1      41.597  32.227  30.256  1.00  0.00     0.014 A 
ATOM     40  C   UNL A   1      39.414  31.378  30.879  1.00  0.00     0.014 A 
ATOM     41  C   UNL A   1      41.995  30.923  29.964  1.00  0.00     0.010 A 
ATOM     42  C   UNL A   1      39.860  30.088  30.761  1.00  0.00     0.010 A 
ATOM     43  C   UNL A   1      41.126  29.854  30.244  1.00  0.00    -0.014 A 
BRANCH  43  44
ATOM     44  C   UNL A   1      41.562  28.472  30.095  1.00  0.00     0.031 A 
ATOM     45  C   UNL A   1      42.280  27.925  31.274  1.00  0.00     0.074 A 
ATOM     46  C   UNL A   1      41.212  27.678  29.059  1.00  0.00     0.049 A 
ATOM     47  N   UNL A   1      43.543  27.674  31.357  1.00  0.00    -0.248 NA
ATOM     48  C   UNL A   1      41.553  27.771  32.543  1.00  0.00     0.031 C 
ATOM     49  C   UNL A   1      40.277  27.955  27.962  1.00  0.00     0.029 A 
ATOM     50  N   UNL A   1      41.563  26.385  28.827  1.00  0.00    -0.354 N 
ATOM     51  C   UNL A   1      43.750  27.149  32.627  1.00  0.00     0.074 A 
ATOM     52  C   UNL A   1      42.532  27.378  33.362  1.00  0.00     0.031 C 
ATOM     53  C   UNL A   1      39.964  26.802  27.327  1.00  0.00     0.029 A 
ATOM     54  C   UNL A   1      40.813  25.747  27.846  1.00  0.00     0.049 A 
ATOM     55  H   UNL A   1      42.292  25.936  29.314  1.00  0.00     0.167 HD
ATOM     56  C   UNL A   1      44.830  26.364  32.890  1.00  0.00     0.031 A 
ATOM     57  C   UNL A   1      40.889  24.443  27.488  1.00  0.00     0.031 A 
ATOM     58  C   UNL A   1      45.793  26.413  31.818  1.00  0.00     0.049 A 
ATOM     59  C   UNL A   1      42.212  23.949  27.926  1.00  0.00     0.074 A 
ATOM     60  C   UNL A   1      46.581  27.394  31.254  1.00  0.00     0.029 A 
ATOM     61  N   UNL A   1      45.728  25.394  30.899  1.00  0.00    -0.354 N 
ATOM     62  N   UNL A   1      43.331  24.352  27.400  1.00  0.00    -0.248 NA
ATOM     63  C   UNL A   1      42.321  23.334  29.238  1.00  0.00     0.031 C 
ATOM     64  C   UNL A   1      46.569  27.115  29.855  1.00  0.00     0.029 A 
ATOM     65  C   UNL A   1      45.841  25.941  29.647  1.00  0.00     0.049 A 
ATOM     66  H   UNL A   1      45.619  24.437  31.103  1.00  0.00     0.167 HD
ATOM     67  C   UNL A   1      44.196  24.472  28.477  1.00  0.00     0.074 A 
ATOM     68  C   UNL A   1      43.562  23.716  29.556  1.00  0.00     0.031 C 
ATOM     69  C   UNL A   1      45.193  25.406  28.469  1.00  0.00     0.031 A 
BRANCH  56  70
ATOM     70  C   UNL A   1      44.833  25.238  33.889  1.00  0.00    -0.014 A 
ATOM     71  C   UNL A   1      44.142  24.055  33.570  1.00  0.00     0.009 A 
ATOM     72  C   UNL A   1      45.227  25.403  35.230  1.00  0.00     0.009 A 
ATOM     73  C   UNL A   1      43.801  23.122  34.556  1.00  0.00     0.001 A 
ATOM     74  C   UNL A   1      44.923  24.454  36.210  1.00  0.00     0.001 A 
ATOM     75  C   UNL A   1      44.184  23.327  35.878  1.00  0.00     0.000 A 
ENDBRANCH  56  70
BRANCH  57  76
ATOM     76  C   UNL A   1      39.839  23.524  27.003  1.00  0.00    -0.014 A 
ATOM     77  C   UNL A   1      38.609  24.022  26.544  1.00  0.00     0.009 A 
ATOM     78  C   UNL A   1      40.162  22.189  26.700  1.00  0.00     0.009 A 
ATOM     79  C   UNL A   1      37.759  23.232  25.760  1.00  0.00     0.001 A 
ATOM     80  C   UNL A   1      39.312  21.400  25.916  1.00  0.00     0.001 A 
ATOM     81  C   UNL A   1      38.119  21.927  25.430  1.00  0.00     0.000 A 
ENDBRANCH  57  76
BRANCH  69  82
ATOM     82  C   UNL A   1      45.486  26.104  27.161  1.00  0.00    -0.014 A 
ATOM     83  C   UNL A   1      46.451  25.657  26.239  1.00  0.00     0.009 A 
ATOM     84  C   UNL A   1      44.664  27.178  26.792  1.00  0.00     0.009 A 
ATOM     85  C   UNL A   1      46.606  26.291  25.000  1.00  0.00     0.001 A 
ATOM     86  C   UNL A   1      44.804  27.796  25.547  1.00  0.00     0.001 A 
ATOM     87  C   UNL A   1      45.779  27.358  24.655  1.00  0.00     0.000 A 
ENDBRANCH  69  82
ENDBRANCH  43  44
ENDBRANCH  35  38
ENDBRANCH  33  34
ENDBRANCH  32  33
ENDBRANCH  31  32
ENDBRANCH  30  31
ENDBRANCH   1  30
TORSDOF 17
ENDMDL
