MODEL 1
REMARK VINA RESULT:     -11.3      0.000      0.000
REMARK SMILES NC(=O)c1c(-c2ccc(Cl)cc2)csc1NC(=O)[C@H]1[C@@H](C(=O)NCCCCCCNC(=O)c2ccc(-c3c4nc(c(-c5ccccc5)c5ccc([nH]5)c(-c5ccccc5)c5nc(c(-c6ccccc6)c6ccc3[nH]6)C=C5)C=C4)cc2)[C@@H]2CC[C@H]1O2
REMARK SMILES IDX 26 1 25 2 24 3 23 4 21 5 22 6 20 8 19 9 84 10 81 11 83 12
REMARK SMILES IDX 85 13 82 14 17 15 16 16 18 18 15 19 4 20 5 21 13 22 14 23
REMARK SMILES IDX 2 24 1 25 3 28 6 29 7 30 12 31 8 32 11 33 9 34 10 35 27 36
REMARK SMILES IDX 28 37 29 38 30 39 31 40 32 42 33 43 34 44 80 45 35 46 79 47
REMARK SMILES IDX 36 48 37 49 38 50 73 51 39 52 78 53 72 54 74 55 40 56 77 57
REMARK SMILES IDX 71 58 70 59 41 61 63 62 48 63 62 64 49 65 52 66 61 67 75 68
REMARK SMILES IDX 50 69 51 70 60 72 76 73 53 74 42 75 43 76 47 77 44 78 46 79
REMARK SMILES IDX 45 80 64 81 65 82 69 83 66 84 68 85 67 86 54 87 55 88 59 89
REMARK SMILES IDX 56 90 58 91 57 92
REMARK H PARENT 23 7 16 17 1 26 1 27 30 41 74 60 52 71
REMARK Flexibility Score: inf
ROOT
ATOM      1  C   UNL A   1      37.521  23.127  25.519  1.00  0.00     0.002 C 
ENDROOT
BRANCH   1   2
ATOM      2  C   UNL A   1      36.282  23.980  25.831  1.00  0.00     0.021 C 
BRANCH   2   3
ATOM      3  C   UNL A   1      35.003  23.523  25.126  1.00  0.00     0.116 C 
BRANCH   3   4
ATOM      4  N   UNL A   1      34.803  24.218  23.872  1.00  0.00    -0.356 N 
ATOM      5  C   UNL A   1      34.132  25.378  23.620  1.00  0.00     0.226 C 
ATOM      6  O   UNL A   1      34.202  25.841  22.483  1.00  0.00    -0.275 OA
ATOM      7  H   UNL A   1      35.211  23.789  23.086  1.00  0.00     0.163 HD
BRANCH   5   8
ATOM      8  C   UNL A   1      33.416  26.076  24.765  1.00  0.00     0.122 C 
ATOM      9  C   UNL A   1      31.885  26.291  24.682  1.00  0.00     0.123 C 
ATOM     10  C   UNL A   1      31.788  27.831  24.622  1.00  0.00     0.132 C 
ATOM     11  C   UNL A   1      33.918  27.522  24.883  1.00  0.00     0.132 C 
ATOM     12  C   UNL A   1      32.031  28.454  25.996  1.00  0.00     0.035 C 
ATOM     13  O   UNL A   1      33.025  28.214  23.985  1.00  0.00    -0.373 OA
ATOM     14  C   UNL A   1      33.505  28.123  26.232  1.00  0.00     0.035 C 
BRANCH   9  15
ATOM     15  C   UNL A   1      31.079  25.674  23.545  1.00  0.00     0.231 C 
ATOM     16  N   UNL A   1      30.812  24.333  23.453  1.00  0.00    -0.317 N 
ATOM     17  H   UNL A   1      30.224  24.124  22.692  1.00  0.00     0.170 HD
ATOM     18  O   UNL A   1      30.645  26.365  22.619  1.00  0.00    -0.274 OA
BRANCH  16  19
ATOM     19  C   UNL A   1      31.163  23.193  24.169  1.00  0.00     0.108 A 
ATOM     20  C   UNL A   1      31.828  22.072  23.659  1.00  0.00     0.082 A 
ATOM     21  C   UNL A   1      32.113  21.113  24.716  1.00  0.00     0.007 A 
ATOM     22  C   UNL A   1      31.595  21.524  25.927  1.00  0.00     0.076 A 
ATOM     23  S   UNL A   1      30.817  23.018  25.813  1.00  0.00    -0.125 S 
BRANCH  20  24
ATOM     24  C   UNL A   1      32.184  21.974  22.243  1.00  0.00     0.252 C 
ATOM     25  N   UNL A   1      31.651  20.942  21.533  1.00  0.00    -0.365 N 
ATOM     26  H   UNL A   1      31.866  20.840  20.577  1.00  0.00     0.159 HD
ATOM     27  H   UNL A   1      31.051  20.298  21.973  1.00  0.00     0.159 HD
ATOM     28  O   UNL A   1      32.897  22.805  21.678  1.00  0.00    -0.269 OA
ENDBRANCH  20  24
BRANCH  21  29
ATOM     29  C   UNL A   1      32.901  19.885  24.689  1.00  0.00    -0.017 A 
ATOM     30  C   UNL A   1      32.263  18.637  24.655  1.00  0.00     0.010 A 
ATOM     31  C   UNL A   1      34.299  19.944  24.758  1.00  0.00     0.010 A 
ATOM     32  C   UNL A   1      33.015  17.460  24.698  1.00  0.00     0.021 A 
ATOM     33  C   UNL A   1      35.049  18.765  24.796  1.00  0.00     0.021 A 
ATOM     34  C   UNL A   1      34.405  17.530  24.771  1.00  0.00     0.041 A 
ATOM     35  Cl  UNL A   1      35.328  16.080  24.838  1.00  0.00    -0.084 Cl
ENDBRANCH  21  29
ENDBRANCH  16  19
ENDBRANCH   9  15
ENDBRANCH   5   8
ENDBRANCH   3   4
ENDBRANCH   2   3
ENDBRANCH   1   2
BRANCH   1  36
ATOM     36  C   UNL A   1      37.242  21.752  24.903  1.00  0.00     0.002 C 
BRANCH  36  37
ATOM     37  C   UNL A   1      38.458  20.834  24.755  1.00  0.00     0.021 C 
BRANCH  37  38
ATOM     38  C   UNL A   1      38.682  19.851  25.901  1.00  0.00     0.116 C 
BRANCH  38  39
ATOM     39  N   UNL A   1      39.929  19.111  25.782  1.00  0.00    -0.352 N 
ATOM     40  C   UNL A   1      41.215  19.540  26.012  1.00  0.00     0.251 C 
ATOM     41  H   UNL A   1      39.841  18.173  25.497  1.00  0.00     0.163 HD
ATOM     42  O   UNL A   1      42.169  18.818  25.742  1.00  0.00    -0.269 OA
BRANCH  40  43
ATOM     43  C   UNL A   1      41.451  20.893  26.560  1.00  0.00     0.039 A 
ATOM     44  C   UNL A   1      41.284  21.105  27.933  1.00  0.00     0.014 A 
ATOM     45  C   UNL A   1      41.844  21.945  25.729  1.00  0.00     0.014 A 
ATOM     46  C   UNL A   1      41.579  22.356  28.481  1.00  0.00     0.010 A 
ATOM     47  C   UNL A   1      42.198  23.171  26.286  1.00  0.00     0.010 A 
ATOM     48  C   UNL A   1      42.074  23.388  27.668  1.00  0.00    -0.014 A 
BRANCH  48  49
ATOM     49  C   UNL A   1      42.476  24.697  28.238  1.00  0.00     0.031 A 
ATOM     50  C   UNL A   1      41.456  25.784  28.432  1.00  0.00     0.074 A 
ATOM     51  C   UNL A   1      43.775  24.936  28.511  1.00  0.00     0.049 A 
ATOM     52  N   UNL A   1      41.631  27.020  28.829  1.00  0.00    -0.248 NA
ATOM     53  C   UNL A   1      40.060  25.444  28.114  1.00  0.00     0.031 C 
ATOM     54  C   UNL A   1      44.870  23.980  28.336  1.00  0.00     0.029 A 
ATOM     55  N   UNL A   1      44.394  26.068  28.981  1.00  0.00    -0.354 N 
ATOM     56  C   UNL A   1      40.374  27.609  28.787  1.00  0.00     0.074 A 
ATOM     57  C   UNL A   1      39.454  26.610  28.288  1.00  0.00     0.031 C 
ATOM     58  C   UNL A   1      46.021  24.558  28.713  1.00  0.00     0.029 A 
ATOM     59  C   UNL A   1      45.754  25.935  29.117  1.00  0.00     0.049 A 
ATOM     60  H   UNL A   1      43.908  26.896  29.201  1.00  0.00     0.167 HD
ATOM     61  C   UNL A   1      40.013  28.864  29.145  1.00  0.00     0.031 A 
ATOM     62  C   UNL A   1      46.684  26.825  29.512  1.00  0.00     0.031 A 
ATOM     63  C   UNL A   1      40.923  29.855  29.655  1.00  0.00     0.049 A 
ATOM     64  C   UNL A   1      46.260  28.213  29.897  1.00  0.00     0.074 A 
ATOM     65  C   UNL A   1      40.642  31.136  30.097  1.00  0.00     0.029 A 
ATOM     66  N   UNL A   1      42.290  29.675  29.792  1.00  0.00    -0.354 N 
ATOM     67  N   UNL A   1      45.059  28.737  29.906  1.00  0.00    -0.248 NA
ATOM     68  C   UNL A   1      47.322  29.131  30.338  1.00  0.00     0.031 C 
ATOM     69  C   UNL A   1      41.846  31.747  30.462  1.00  0.00     0.029 A 
ATOM     70  C   UNL A   1      42.869  30.827  30.294  1.00  0.00     0.049 A 
ATOM     71  H   UNL A   1      42.776  28.849  29.567  1.00  0.00     0.167 HD
ATOM     72  C   UNL A   1      45.215  30.034  30.378  1.00  0.00     0.074 A 
ATOM     73  C   UNL A   1      46.625  30.213  30.657  1.00  0.00     0.031 C 
ATOM     74  C   UNL A   1      44.273  30.990  30.568  1.00  0.00     0.031 A 
BRANCH  61  75
ATOM     75  C   UNL A   1      38.566  29.238  28.989  1.00  0.00    -0.014 A 
ATOM     76  C   UNL A   1      37.672  29.154  30.068  1.00  0.00     0.009 A 
ATOM     77  C   UNL A   1      38.096  29.711  27.753  1.00  0.00     0.009 A 
ATOM     78  C   UNL A   1      36.330  29.499  29.904  1.00  0.00     0.001 A 
ATOM     79  C   UNL A   1      36.759  30.082  27.600  1.00  0.00     0.001 A 
ATOM     80  C   UNL A   1      35.875  29.967  28.672  1.00  0.00     0.000 A 
ENDBRANCH  61  75
BRANCH  62  81
ATOM     81  C   UNL A   1      48.114  26.425  29.580  1.00  0.00    -0.014 A 
ATOM     82  C   UNL A   1      48.955  26.608  28.472  1.00  0.00     0.009 A 
ATOM     83  C   UNL A   1      48.642  25.855  30.748  1.00  0.00     0.009 A 
ATOM     84  C   UNL A   1      50.291  26.205  28.523  1.00  0.00     0.001 A 
ATOM     85  C   UNL A   1      49.986  25.476  30.806  1.00  0.00     0.001 A 
ATOM     86  C   UNL A   1      50.807  25.644  29.691  1.00  0.00     0.000 A 
ENDBRANCH  62  81
BRANCH  74  87
ATOM     87  C   UNL A   1      44.730  32.301  31.138  1.00  0.00    -0.014 A 
ATOM     88  C   UNL A   1      44.797  32.510  32.525  1.00  0.00     0.009 A 
ATOM     89  C   UNL A   1      45.140  33.328  30.273  1.00  0.00     0.009 A 
ATOM     90  C   UNL A   1      45.239  33.734  33.032  1.00  0.00     0.001 A 
ATOM     91  C   UNL A   1      45.605  34.540  30.784  1.00  0.00     0.001 A 
ATOM     92  C   UNL A   1      45.647  34.745  32.162  1.00  0.00     0.000 A 
ENDBRANCH  74  87
ENDBRANCH  48  49
ENDBRANCH  40  43
ENDBRANCH  38  39
ENDBRANCH  37  38
ENDBRANCH  36  37
ENDBRANCH   1  36
TORSDOF 17
ENDMDL
MODEL 2
REMARK VINA RESULT:     -11.1      0.400      5.573
REMARK SMILES NC(=O)c1c(-c2ccc(Cl)cc2)csc1NC(=O)[C@H]1[C@@H](C(=O)NCCCCCCNC(=O)c2ccc(-c3c4nc(c(-c5ccccc5)c5ccc([nH]5)c(-c5ccccc5)c5nc(c(-c6ccccc6)c6ccc3[nH]6)C=C5)C=C4)cc2)[C@@H]2CC[C@H]1O2
REMARK SMILES IDX 26 1 25 2 24 3 23 4 21 5 22 6 20 8 19 9 84 10 81 11 83 12
REMARK SMILES IDX 85 13 82 14 17 15 16 16 18 18 15 19 4 20 5 21 13 22 14 23
REMARK SMILES IDX 2 24 1 25 3 28 6 29 7 30 12 31 8 32 11 33 9 34 10 35 27 36
REMARK SMILES IDX 28 37 29 38 30 39 31 40 32 42 33 43 34 44 80 45 35 46 79 47
REMARK SMILES IDX 36 48 37 49 38 50 73 51 39 52 78 53 72 54 74 55 40 56 77 57
REMARK SMILES IDX 71 58 70 59 41 61 63 62 48 63 62 64 49 65 52 66 61 67 75 68
REMARK SMILES IDX 50 69 51 70 60 72 76 73 53 74 42 75 43 76 47 77 44 78 46 79
REMARK SMILES IDX 45 80 64 81 65 82 69 83 66 84 68 85 67 86 54 87 55 88 59 89
REMARK SMILES IDX 56 90 58 91 57 92
REMARK H PARENT 23 7 16 17 1 26 1 27 30 41 74 60 52 71
REMARK Flexibility Score: inf
ROOT
ATOM      1  C   UNL A   1      37.568  23.241  25.743  1.00  0.00     0.002 C 
ENDROOT
BRANCH   1   2
ATOM      2  C   UNL A   1      36.292  24.096  25.697  1.00  0.00     0.021 C 
BRANCH   2   3
ATOM      3  C   UNL A   1      35.137  23.471  24.911  1.00  0.00     0.116 C 
BRANCH   3   4
ATOM      4  N   UNL A   1      34.903  24.163  23.661  1.00  0.00    -0.356 N 
ATOM      5  C   UNL A   1      34.248  25.338  23.429  1.00  0.00     0.226 C 
ATOM      6  O   UNL A   1      34.282  25.792  22.287  1.00  0.00    -0.275 OA
ATOM      7  H   UNL A   1      35.269  23.721  22.862  1.00  0.00     0.163 HD
BRANCH   5   8
ATOM      8  C   UNL A   1      33.595  26.058  24.598  1.00  0.00     0.122 C 
ATOM      9  C   UNL A   1      32.063  26.283  24.588  1.00  0.00     0.123 C 
ATOM     10  C   UNL A   1      31.973  27.822  24.509  1.00  0.00     0.132 C 
ATOM     11  C   UNL A   1      34.112  27.502  24.667  1.00  0.00     0.132 C 
ATOM     12  C   UNL A   1      32.290  28.465  25.859  1.00  0.00     0.035 C 
ATOM     13  O   UNL A   1      33.180  28.187  23.804  1.00  0.00    -0.373 OA
ATOM     14  C   UNL A   1      33.771  28.127  26.026  1.00  0.00     0.035 C 
BRANCH   9  15
ATOM     15  C   UNL A   1      31.198  25.655  23.502  1.00  0.00     0.231 C 
ATOM     16  N   UNL A   1      30.874  24.322  23.474  1.00  0.00    -0.317 N 
ATOM     17  H   UNL A   1      30.255  24.107  22.740  1.00  0.00     0.170 HD
ATOM     18  O   UNL A   1      30.761  26.325  22.563  1.00  0.00    -0.274 OA
BRANCH  16  19
ATOM     19  C   UNL A   1      31.204  23.199  24.225  1.00  0.00     0.108 A 
ATOM     20  C   UNL A   1      31.865  22.058  23.755  1.00  0.00     0.082 A 
ATOM     21  C   UNL A   1      32.124  21.125  24.841  1.00  0.00     0.007 A 
ATOM     22  C   UNL A   1      31.592  21.573  26.033  1.00  0.00     0.076 A 
ATOM     23  S   UNL A   1      30.831  23.070  25.868  1.00  0.00    -0.125 S 
BRANCH  20  24
ATOM     24  C   UNL A   1      32.242  21.919  22.348  1.00  0.00     0.252 C 
ATOM     25  N   UNL A   1      31.670  20.905  21.643  1.00  0.00    -0.365 N 
ATOM     26  H   UNL A   1      31.897  20.776  20.693  1.00  0.00     0.159 HD
ATOM     27  H   UNL A   1      31.030  20.299  22.082  1.00  0.00     0.159 HD
ATOM     28  O   UNL A   1      33.006  22.705  21.784  1.00  0.00    -0.269 OA
ENDBRANCH  20  24
BRANCH  21  29
ATOM     29  C   UNL A   1      32.901  19.890  24.858  1.00  0.00    -0.017 A 
ATOM     30  C   UNL A   1      34.296  19.931  24.727  1.00  0.00     0.010 A 
ATOM     31  C   UNL A   1      32.252  18.651  24.944  1.00  0.00     0.010 A 
ATOM     32  C   UNL A   1      35.034  18.745  24.674  1.00  0.00     0.021 A 
ATOM     33  C   UNL A   1      32.992  17.466  24.896  1.00  0.00     0.021 A 
ATOM     34  C   UNL A   1      34.378  17.518  24.757  1.00  0.00     0.041 A 
ATOM     35  Cl  UNL A   1      35.286  16.060  24.678  1.00  0.00    -0.084 Cl
ENDBRANCH  21  29
ENDBRANCH  16  19
ENDBRANCH   9  15
ENDBRANCH   5   8
ENDBRANCH   3   4
ENDBRANCH   2   3
ENDBRANCH   1   2
BRANCH   1  36
ATOM     36  C   UNL A   1      37.391  21.765  25.375  1.00  0.00     0.002 C 
BRANCH  36  37
ATOM     37  C   UNL A   1      38.685  20.975  25.166  1.00  0.00     0.021 C 
BRANCH  37  38
ATOM     38  C   UNL A   1      38.828  19.712  26.012  1.00  0.00     0.116 C 
BRANCH  38  39
ATOM     39  N   UNL A   1      40.118  19.060  25.849  1.00  0.00    -0.352 N 
ATOM     40  C   UNL A   1      41.379  19.583  26.007  1.00  0.00     0.251 C 
ATOM     41  H   UNL A   1      40.084  18.111  25.590  1.00  0.00     0.163 HD
ATOM     42  O   UNL A   1      42.369  18.924  25.706  1.00  0.00    -0.269 OA
BRANCH  40  43
ATOM     43  C   UNL A   1      41.544  20.963  26.513  1.00  0.00     0.039 A 
ATOM     44  C   UNL A   1      41.285  21.224  27.862  1.00  0.00     0.014 A 
ATOM     45  C   UNL A   1      41.959  21.993  25.665  1.00  0.00     0.014 A 
ATOM     46  C   UNL A   1      41.511  22.503  28.377  1.00  0.00     0.010 A 
ATOM     47  C   UNL A   1      42.244  23.251  26.192  1.00  0.00     0.010 A 
ATOM     48  C   UNL A   1      42.027  23.517  27.554  1.00  0.00    -0.014 A 
BRANCH  48  49
ATOM     49  C   UNL A   1      42.357  24.859  28.094  1.00  0.00     0.031 A 
ATOM     50  C   UNL A   1      43.752  25.163  28.565  1.00  0.00     0.074 A 
ATOM     51  C   UNL A   1      41.383  25.781  28.234  1.00  0.00     0.049 A 
ATOM     52  N   UNL A   1      44.209  26.242  29.149  1.00  0.00    -0.248 NA
ATOM     53  C   UNL A   1      44.758  24.107  28.376  1.00  0.00     0.031 C 
ATOM     54  C   UNL A   1      39.982  25.602  27.849  1.00  0.00     0.029 A 
ATOM     55  N   UNL A   1      41.425  27.051  28.753  1.00  0.00    -0.354 N 
ATOM     56  C   UNL A   1      45.548  25.986  29.417  1.00  0.00     0.074 A 
ATOM     57  C   UNL A   1      45.818  24.637  28.970  1.00  0.00     0.031 C 
ATOM     58  C   UNL A   1      39.303  26.726  28.126  1.00  0.00     0.029 A 
ATOM     59  C   UNL A   1      40.209  27.689  28.744  1.00  0.00     0.049 A 
ATOM     60  H   UNL A   1      42.249  27.465  29.098  1.00  0.00     0.167 HD
ATOM     61  C   UNL A   1      46.473  26.804  29.972  1.00  0.00     0.031 A 
ATOM     62  C   UNL A   1      39.859  28.910  29.192  1.00  0.00     0.031 A 
ATOM     63  C   UNL A   1      46.212  28.151  30.404  1.00  0.00     0.049 A 
ATOM     64  C   UNL A   1      40.903  29.796  29.810  1.00  0.00     0.074 A 
ATOM     65  C   UNL A   1      47.098  29.075  30.928  1.00  0.00     0.029 A 
ATOM     66  N   UNL A   1      44.970  28.764  30.363  1.00  0.00    -0.354 N 
ATOM     67  N   UNL A   1      42.177  29.559  30.005  1.00  0.00    -0.248 NA
ATOM     68  C   UNL A   1      40.460  31.124  30.263  1.00  0.00     0.031 C 
ATOM     69  C   UNL A   1      46.384  30.236  31.243  1.00  0.00     0.029 A 
ATOM     70  C   UNL A   1      45.063  30.049  30.868  1.00  0.00     0.049 A 
ATOM     71  H   UNL A   1      44.145  28.348  30.024  1.00  0.00     0.167 HD
ATOM     72  C   UNL A   1      42.694  30.716  30.574  1.00  0.00     0.074 A 
ATOM     73  C   UNL A   1      41.599  31.657  30.683  1.00  0.00     0.031 C 
ATOM     74  C   UNL A   1      43.965  30.976  30.968  1.00  0.00     0.031 A 
BRANCH  61  75
ATOM     75  C   UNL A   1      47.862  26.256  30.149  1.00  0.00    -0.014 A 
ATOM     76  C   UNL A   1      48.306  25.789  31.397  1.00  0.00     0.009 A 
ATOM     77  C   UNL A   1      48.728  26.177  29.047  1.00  0.00     0.009 A 
ATOM     78  C   UNL A   1      49.601  25.290  31.546  1.00  0.00     0.001 A 
ATOM     79  C   UNL A   1      50.013  25.651  29.194  1.00  0.00     0.001 A 
ATOM     80  C   UNL A   1      50.452  25.217  30.444  1.00  0.00     0.000 A 
ENDBRANCH  61  75
BRANCH  62  81
ATOM     81  C   UNL A   1      38.455  29.377  29.058  1.00  0.00    -0.014 A 
ATOM     82  C   UNL A   1      38.000  29.919  27.847  1.00  0.00     0.009 A 
ATOM     83  C   UNL A   1      37.565  29.286  30.139  1.00  0.00     0.009 A 
ATOM     84  C   UNL A   1      36.689  30.386  27.728  1.00  0.00     0.001 A 
ATOM     85  C   UNL A   1      36.246  29.730  30.009  1.00  0.00     0.001 A 
ATOM     86  C   UNL A   1      35.812  30.287  28.807  1.00  0.00     0.000 A 
ENDBRANCH  62  81
BRANCH  74  87
ATOM     87  C   UNL A   1      44.247  32.343  31.517  1.00  0.00    -0.014 A 
ATOM     88  C   UNL A   1      44.594  33.411  30.674  1.00  0.00     0.009 A 
ATOM     89  C   UNL A   1      44.123  32.576  32.896  1.00  0.00     0.009 A 
ATOM     90  C   UNL A   1      44.839  34.679  31.207  1.00  0.00     0.001 A 
ATOM     91  C   UNL A   1      44.343  33.850  33.422  1.00  0.00     0.001 A 
ATOM     92  C   UNL A   1      44.708  34.898  32.578  1.00  0.00     0.000 A 
ENDBRANCH  74  87
ENDBRANCH  48  49
ENDBRANCH  40  43
ENDBRANCH  38  39
ENDBRANCH  37  38
ENDBRANCH  36  37
ENDBRANCH   1  36
TORSDOF 17
ENDMDL
MODEL 3
REMARK VINA RESULT:     -10.6      3.143      6.669
REMARK SMILES NC(=O)c1c(-c2ccc(Cl)cc2)csc1NC(=O)[C@H]1[C@@H](C(=O)NCCCCCCNC(=O)c2ccc(-c3c4nc(c(-c5ccccc5)c5ccc([nH]5)c(-c5ccccc5)c5nc(c(-c6ccccc6)c6ccc3[nH]6)C=C5)C=C4)cc2)[C@@H]2CC[C@H]1O2
REMARK SMILES IDX 26 1 25 2 24 3 23 4 21 5 22 6 20 8 19 9 84 10 81 11 83 12
REMARK SMILES IDX 85 13 82 14 17 15 16 16 18 18 15 19 4 20 5 21 13 22 14 23
REMARK SMILES IDX 2 24 1 25 3 28 6 29 7 30 12 31 8 32 11 33 9 34 10 35 27 36
REMARK SMILES IDX 28 37 29 38 30 39 31 40 32 42 33 43 34 44 80 45 35 46 79 47
REMARK SMILES IDX 36 48 37 49 38 50 73 51 39 52 78 53 72 54 74 55 40 56 77 57
REMARK SMILES IDX 71 58 70 59 41 61 63 62 48 63 62 64 49 65 52 66 61 67 75 68
REMARK SMILES IDX 50 69 51 70 60 72 76 73 53 74 42 75 43 76 47 77 44 78 46 79
REMARK SMILES IDX 45 80 64 81 65 82 69 83 66 84 68 85 67 86 54 87 55 88 59 89
REMARK SMILES IDX 56 90 58 91 57 92
REMARK H PARENT 23 7 16 17 1 26 1 27 30 41 74 60 52 71
REMARK Flexibility Score: inf
ROOT
ATOM      1  C   UNL A   1      37.329  23.177  25.619  1.00  0.00     0.002 C 
ENDROOT
BRANCH   1   2
ATOM      2  C   UNL A   1      36.281  23.539  24.555  1.00  0.00     0.021 C 
BRANCH   2   3
ATOM      3  C   UNL A   1      35.149  24.438  25.059  1.00  0.00     0.116 C 
BRANCH   3   4
ATOM      4  N   UNL A   1      34.667  25.326  24.023  1.00  0.00    -0.356 N 
ATOM      5  C   UNL A   1      33.921  26.463  24.131  1.00  0.00     0.226 C 
ATOM      6  O   UNL A   1      33.734  27.122  23.109  1.00  0.00    -0.275 OA
ATOM      7  H   UNL A   1      34.914  25.071  23.104  1.00  0.00     0.163 HD
BRANCH   5   8
ATOM      8  C   UNL A   1      33.440  26.897  25.506  1.00  0.00     0.122 C 
ATOM      9  C   UNL A   1      31.920  27.034  25.769  1.00  0.00     0.123 C 
ATOM     10  C   UNL A   1      31.781  28.550  26.023  1.00  0.00     0.132 C 
ATOM     11  C   UNL A   1      33.926  28.325  25.795  1.00  0.00     0.132 C 
ATOM     12  C   UNL A   1      32.289  28.926  27.415  1.00  0.00     0.035 C 
ATOM     13  O   UNL A   1      32.854  29.115  25.239  1.00  0.00    -0.373 OA
ATOM     14  C   UNL A   1      33.786  28.646  27.288  1.00  0.00     0.035 C 
BRANCH   9  15
ATOM     15  C   UNL A   1      30.912  26.588  24.717  1.00  0.00     0.231 C 
ATOM     16  N   UNL A   1      30.561  25.277  24.519  1.00  0.00    -0.317 N 
ATOM     17  H   UNL A   1      29.850  25.183  23.846  1.00  0.00     0.170 HD
ATOM     18  O   UNL A   1      30.373  27.400  23.960  1.00  0.00    -0.274 OA
BRANCH  16  19
ATOM     19  C   UNL A   1      30.960  24.047  25.033  1.00  0.00     0.108 A 
ATOM     20  C   UNL A   1      31.614  23.032  24.326  1.00  0.00     0.082 A 
ATOM     21  C   UNL A   1      31.960  21.927  25.207  1.00  0.00     0.007 A 
ATOM     22  C   UNL A   1      31.494  22.135  26.489  1.00  0.00     0.076 A 
ATOM     23  S   UNL A   1      30.693  23.613  26.643  1.00  0.00    -0.125 S 
BRANCH  20  24
ATOM     24  C   UNL A   1      31.905  23.161  22.898  1.00  0.00     0.252 C 
ATOM     25  N   UNL A   1      31.718  22.062  22.118  1.00  0.00    -0.365 N 
ATOM     26  H   UNL A   1      31.903  22.106  21.151  1.00  0.00     0.159 HD
ATOM     27  H   UNL A   1      31.399  21.221  22.519  1.00  0.00     0.159 HD
ATOM     28  O   UNL A   1      32.260  24.225  22.385  1.00  0.00    -0.269 OA
ENDBRANCH  20  24
BRANCH  21  29
ATOM     29  C   UNL A   1      32.762  20.734  24.955  1.00  0.00    -0.017 A 
ATOM     30  C   UNL A   1      32.140  19.529  24.596  1.00  0.00     0.010 A 
ATOM     31  C   UNL A   1      34.151  20.770  25.128  1.00  0.00     0.010 A 
ATOM     32  C   UNL A   1      32.900  18.370  24.421  1.00  0.00     0.021 A 
ATOM     33  C   UNL A   1      34.910  19.609  24.947  1.00  0.00     0.021 A 
ATOM     34  C   UNL A   1      34.282  18.415  24.600  1.00  0.00     0.041 A 
ATOM     35  Cl  UNL A   1      35.214  16.984  24.398  1.00  0.00    -0.084 Cl
ENDBRANCH  21  29
ENDBRANCH  16  19
ENDBRANCH   9  15
ENDBRANCH   5   8
ENDBRANCH   3   4
ENDBRANCH   2   3
ENDBRANCH   1   2
BRANCH   1  36
ATOM     36  C   UNL A   1      37.747  21.704  25.662  1.00  0.00     0.002 C 
BRANCH  36  37
ATOM     37  C   UNL A   1      39.200  21.440  26.065  1.00  0.00     0.021 C 
BRANCH  37  38
ATOM     38  C   UNL A   1      40.007  22.675  26.458  1.00  0.00     0.116 C 
BRANCH  38  39
ATOM     39  N   UNL A   1      41.241  22.815  25.700  1.00  0.00    -0.352 N 
ATOM     40  C   UNL A   1      42.205  23.791  25.788  1.00  0.00     0.251 C 
ATOM     41  H   UNL A   1      41.410  22.112  25.032  1.00  0.00     0.163 HD
ATOM     42  O   UNL A   1      43.129  23.827  24.982  1.00  0.00    -0.269 OA
BRANCH  40  43
ATOM     43  C   UNL A   1      42.110  24.825  26.842  1.00  0.00     0.039 A 
ATOM     44  C   UNL A   1      42.756  26.050  26.646  1.00  0.00     0.014 A 
ATOM     45  C   UNL A   1      41.382  24.593  28.011  1.00  0.00     0.014 A 
ATOM     46  C   UNL A   1      42.613  27.067  27.593  1.00  0.00     0.010 A 
ATOM     47  C   UNL A   1      41.189  25.627  28.923  1.00  0.00     0.010 A 
ATOM     48  C   UNL A   1      41.798  26.876  28.721  1.00  0.00    -0.014 A 
BRANCH  48  49
ATOM     49  C   UNL A   1      41.560  27.968  29.697  1.00  0.00     0.031 A 
ATOM     50  C   UNL A   1      42.425  28.091  30.921  1.00  0.00     0.074 A 
ATOM     51  C   UNL A   1      40.517  28.804  29.523  1.00  0.00     0.049 A 
ATOM     52  N   UNL A   1      42.315  28.918  31.930  1.00  0.00    -0.248 NA
ATOM     53  C   UNL A   1      43.544  27.143  31.037  1.00  0.00     0.031 C 
ATOM     54  C   UNL A   1      39.580  28.772  28.398  1.00  0.00     0.029 A 
ATOM     55  N   UNL A   1      40.062  29.837  30.305  1.00  0.00    -0.354 N 
ATOM     56  C   UNL A   1      43.335  28.576  32.808  1.00  0.00     0.074 A 
ATOM     57  C   UNL A   1      44.026  27.442  32.235  1.00  0.00     0.031 C 
ATOM     58  C   UNL A   1      38.676  29.752  28.551  1.00  0.00     0.029 A 
ATOM     59  C   UNL A   1      38.943  30.455  29.802  1.00  0.00     0.049 A 
ATOM     60  H   UNL A   1      40.497  30.110  31.145  1.00  0.00     0.167 HD
ATOM     61  C   UNL A   1      43.676  29.162  33.981  1.00  0.00     0.031 A 
ATOM     62  C   UNL A   1      38.207  31.468  30.297  1.00  0.00     0.031 A 
ATOM     63  C   UNL A   1      43.000  30.299  34.547  1.00  0.00     0.049 A 
ATOM     64  C   UNL A   1      38.602  32.097  31.604  1.00  0.00     0.074 A 
ATOM     65  C   UNL A   1      43.307  30.997  35.702  1.00  0.00     0.029 A 
ATOM     66  N   UNL A   1      41.881  30.905  33.998  1.00  0.00    -0.354 N 
ATOM     67  N   UNL A   1      39.603  31.798  32.394  1.00  0.00    -0.248 NA
ATOM     68  C   UNL A   1      37.768  33.211  32.081  1.00  0.00     0.031 C 
ATOM     69  C   UNL A   1      42.347  31.999  35.875  1.00  0.00     0.029 A 
ATOM     70  C   UNL A   1      41.473  31.956  34.801  1.00  0.00     0.049 A 
ATOM     71  H   UNL A   1      41.442  30.628  33.162  1.00  0.00     0.167 HD
ATOM     72  C   UNL A   1      39.538  32.703  33.446  1.00  0.00     0.074 A 
ATOM     73  C   UNL A   1      38.406  33.568  33.186  1.00  0.00     0.031 C 
ATOM     74  C   UNL A   1      40.346  32.810  34.528  1.00  0.00     0.031 A 
BRANCH  61  75
ATOM     75  C   UNL A   1      44.835  28.574  34.736  1.00  0.00    -0.014 A 
ATOM     76  C   UNL A   1      46.145  29.039  34.536  1.00  0.00     0.009 A 
ATOM     77  C   UNL A   1      44.611  27.561  35.681  1.00  0.00     0.009 A 
ATOM     78  C   UNL A   1      47.210  28.477  35.241  1.00  0.00     0.001 A 
ATOM     79  C   UNL A   1      45.675  27.019  36.404  1.00  0.00     0.001 A 
ATOM     80  C   UNL A   1      46.975  27.470  36.177  1.00  0.00     0.000 A 
ENDBRANCH  61  75
BRANCH  62  81
ATOM     81  C   UNL A   1      37.026  31.966  29.545  1.00  0.00    -0.014 A 
ATOM     82  C   UNL A   1      35.763  31.387  29.744  1.00  0.00     0.009 A 
ATOM     83  C   UNL A   1      37.155  33.017  28.625  1.00  0.00     0.009 A 
ATOM     84  C   UNL A   1      34.658  31.833  29.016  1.00  0.00     0.001 A 
ATOM     85  C   UNL A   1      36.042  33.478  27.917  1.00  0.00     0.001 A 
ATOM     86  C   UNL A   1      34.797  32.881  28.107  1.00  0.00     0.000 A 
ENDBRANCH  62  81
BRANCH  74  87
ATOM     87  C   UNL A   1      40.060  33.924  35.492  1.00  0.00    -0.014 A 
ATOM     88  C   UNL A   1      39.321  33.702  36.665  1.00  0.00     0.009 A 
ATOM     89  C   UNL A   1      40.575  35.206  35.243  1.00  0.00     0.009 A 
ATOM     90  C   UNL A   1      39.079  34.752  37.555  1.00  0.00     0.001 A 
ATOM     91  C   UNL A   1      40.354  36.246  36.147  1.00  0.00     0.001 A 
ATOM     92  C   UNL A   1      39.600  36.019  37.297  1.00  0.00     0.000 A 
ENDBRANCH  74  87
ENDBRANCH  48  49
ENDBRANCH  40  43
ENDBRANCH  38  39
ENDBRANCH  37  38
ENDBRANCH  36  37
ENDBRANCH   1  36
TORSDOF 17
ENDMDL
