MODEL 1
REMARK VINA RESULT:     -12.6      0.000      0.000
REMARK SMILES Cc1cc(C(=O)NCCCCCCNC(=O)c2ccc(-c3c4nc(c(-c5ccccc5)c5ccc([nH]5)c(-c5ccccc5)c5nc(c(-c6ccccc6)c6ccc3[nH]6)C=C5)C=C4)cc2)ccc1NS(=O)(=O)c1c(F)cccc1F
REMARK SMILES IDX 10 1 9 2 8 3 7 4 5 5 6 6 4 8 1 9 2 10 3 11 67 12 66 13 65 14
REMARK SMILES IDX 68 15 69 17 70 18 71 19 72 20 73 21 78 22 74 23 75 24 77 25
REMARK SMILES IDX 79 26 76 27 11 28 12 29 13 30 14 31 15 32 16 34 17 35 18 36
REMARK SMILES IDX 64 37 19 38 63 39 20 40 21 41 22 42 57 43 23 44 62 45 56 46
REMARK SMILES IDX 58 47 24 48 61 49 55 50 54 51 25 53 47 54 32 55 46 56 33 57
REMARK SMILES IDX 36 58 45 59 59 60 34 61 35 62 44 64 60 65 37 66 26 67 27 68
REMARK SMILES IDX 31 69 28 70 30 71 29 72 48 73 49 74 53 75 50 76 52 77 51 78
REMARK SMILES IDX 38 79 39 80 43 81 40 82 42 83 41 84
REMARK H PARENT 7 7 68 16 14 33 58 52 36 63
REMARK Flexibility Score: inf
ROOT
ATOM      1  C   UNL A   1      32.045  29.598  25.245  1.00  0.00     0.002 C 
ENDROOT
BRANCH   1   2
ATOM      2  C   UNL A   1      33.050  28.765  24.439  1.00  0.00     0.021 C 
BRANCH   2   3
ATOM      3  C   UNL A   1      33.175  29.060  22.943  1.00  0.00     0.116 C 
BRANCH   3   4
ATOM      4  N   UNL A   1      31.940  29.489  22.314  1.00  0.00    -0.352 N 
ATOM      5  C   UNL A   1      30.709  28.876  22.224  1.00  0.00     0.251 C 
ATOM      6  O   UNL A   1      29.815  29.447  21.600  1.00  0.00    -0.269 OA
ATOM      7  H   UNL A   1      31.990  30.369  21.876  1.00  0.00     0.163 HD
BRANCH   5   8
ATOM      8  C   UNL A   1      30.448  27.519  22.779  1.00  0.00     0.040 A 
ATOM      9  C   UNL A   1      32.110  24.116  22.485  1.00  0.00     0.046 C 
ATOM     10  C   UNL A   1      31.255  25.228  23.034  1.00  0.00    -0.026 A 
ATOM     11  C   UNL A   1      31.313  26.483  22.403  1.00  0.00     0.019 A 
ATOM     12  C   UNL A   1      30.377  25.058  24.114  1.00  0.00     0.052 A 
ATOM     13  C   UNL A   1      29.340  25.977  24.283  1.00  0.00     0.028 A 
ATOM     14  C   UNL A   1      29.378  27.211  23.620  1.00  0.00     0.016 A 
BRANCH  12  15
ATOM     15  N   UNL A   1      30.702  24.057  25.077  1.00  0.00    -0.279 N 
ATOM     16  H   UNL A   1      30.471  23.131  24.833  1.00  0.00     0.180 HD
BRANCH  15  17
ATOM     17  S   UNL A   1      31.426  24.264  26.567  1.00  0.00     0.267 S 
ATOM     18  O   UNL A   1      31.341  25.675  26.865  1.00  0.00    -0.201 OA
ATOM     19  O   UNL A   1      30.813  23.270  27.431  1.00  0.00    -0.201 OA
BRANCH  17  20
ATOM     20  C   UNL A   1      33.125  23.844  26.464  1.00  0.00     0.158 A 
ATOM     21  C   UNL A   1      33.934  24.646  25.665  1.00  0.00     0.146 A 
ATOM     22  C   UNL A   1      33.659  22.691  27.019  1.00  0.00     0.146 A 
ATOM     23  F   UNL A   1      33.493  25.816  25.187  1.00  0.00    -0.205 F 
ATOM     24  C   UNL A   1      35.232  24.256  25.341  1.00  0.00     0.041 A 
ATOM     25  C   UNL A   1      34.949  22.274  26.677  1.00  0.00     0.041 A 
ATOM     26  F   UNL A   1      32.958  21.922  27.861  1.00  0.00    -0.205 F 
ATOM     27  C   UNL A   1      35.732  23.047  25.820  1.00  0.00     0.006 A 
ENDBRANCH  17  20
ENDBRANCH  15  17
ENDBRANCH  12  15
ENDBRANCH   5   8
ENDBRANCH   3   4
ENDBRANCH   2   3
ENDBRANCH   1   2
BRANCH   1  28
ATOM     28  C   UNL A   1      31.908  29.300  26.747  1.00  0.00     0.002 C 
BRANCH  28  29
ATOM     29  C   UNL A   1      33.131  29.571  27.624  1.00  0.00     0.021 C 
BRANCH  29  30
ATOM     30  C   UNL A   1      33.923  30.819  27.259  1.00  0.00     0.116 C 
BRANCH  30  31
ATOM     31  N   UNL A   1      34.400  31.590  28.402  1.00  0.00    -0.352 N 
ATOM     32  C   UNL A   1      35.447  31.324  29.267  1.00  0.00     0.251 C 
ATOM     33  H   UNL A   1      33.903  32.421  28.585  1.00  0.00     0.163 HD
ATOM     34  O   UNL A   1      35.672  32.077  30.209  1.00  0.00    -0.269 OA
BRANCH  32  35
ATOM     35  C   UNL A   1      36.385  30.215  28.968  1.00  0.00     0.039 A 
ATOM     36  C   UNL A   1      36.616  29.271  29.977  1.00  0.00     0.014 A 
ATOM     37  C   UNL A   1      37.190  30.237  27.834  1.00  0.00     0.014 A 
ATOM     38  C   UNL A   1      37.811  28.558  29.978  1.00  0.00     0.010 A 
ATOM     39  C   UNL A   1      38.419  29.616  27.884  1.00  0.00     0.010 A 
ATOM     40  C   UNL A   1      38.755  28.839  28.995  1.00  0.00    -0.014 A 
BRANCH  40  41
ATOM     41  C   UNL A   1      40.148  28.434  29.082  1.00  0.00     0.031 A 
ATOM     42  C   UNL A   1      40.571  27.143  28.523  1.00  0.00     0.074 A 
ATOM     43  C   UNL A   1      41.054  29.281  29.615  1.00  0.00     0.049 A 
ATOM     44  N   UNL A   1      41.649  26.527  28.866  1.00  0.00    -0.248 NA
ATOM     45  C   UNL A   1      39.765  26.410  27.553  1.00  0.00     0.031 C 
ATOM     46  C   UNL A   1      42.511  29.192  29.566  1.00  0.00     0.029 A 
ATOM     47  N   UNL A   1      40.802  30.298  30.533  1.00  0.00    -0.354 N 
ATOM     48  C   UNL A   1      41.823  25.483  27.991  1.00  0.00     0.074 A 
ATOM     49  C   UNL A   1      40.587  25.404  27.244  1.00  0.00     0.031 C 
ATOM     50  C   UNL A   1      43.020  29.909  30.581  1.00  0.00     0.029 A 
ATOM     51  C   UNL A   1      41.906  30.343  31.406  1.00  0.00     0.049 A 
ATOM     52  H   UNL A   1      40.004  30.875  30.565  1.00  0.00     0.167 HD
ATOM     53  C   UNL A   1      43.040  24.881  27.914  1.00  0.00     0.031 A 
ATOM     54  C   UNL A   1      41.741  30.037  32.729  1.00  0.00     0.031 A 
ATOM     55  C   UNL A   1      43.970  25.397  28.919  1.00  0.00     0.049 A 
ATOM     56  C   UNL A   1      42.498  28.802  33.183  1.00  0.00     0.074 A 
ATOM     57  C   UNL A   1      45.024  26.295  28.896  1.00  0.00     0.029 A 
ATOM     58  N   UNL A   1      43.660  25.206  30.256  1.00  0.00    -0.354 N 
ATOM     59  N   UNL A   1      43.168  28.010  32.391  1.00  0.00    -0.248 NA
ATOM     60  C   UNL A   1      42.468  28.308  34.562  1.00  0.00     0.031 C 
ATOM     61  C   UNL A   1      45.331  26.651  30.242  1.00  0.00     0.029 A 
ATOM     62  C   UNL A   1      44.481  25.951  31.077  1.00  0.00     0.049 A 
ATOM     63  H   UNL A   1      42.944  24.613  30.579  1.00  0.00     0.167 HD
ATOM     64  C   UNL A   1      43.605  26.921  33.095  1.00  0.00     0.074 A 
ATOM     65  C   UNL A   1      43.142  27.150  34.452  1.00  0.00     0.031 C 
ATOM     66  C   UNL A   1      44.274  25.884  32.513  1.00  0.00     0.031 A 
BRANCH  53  67
ATOM     67  C   UNL A   1      43.452  23.982  26.778  1.00  0.00    -0.014 A 
ATOM     68  C   UNL A   1      43.159  22.608  26.844  1.00  0.00     0.009 A 
ATOM     69  C   UNL A   1      44.165  24.405  25.644  1.00  0.00     0.009 A 
ATOM     70  C   UNL A   1      43.628  21.701  25.884  1.00  0.00     0.001 A 
ATOM     71  C   UNL A   1      44.672  23.502  24.700  1.00  0.00     0.001 A 
ATOM     72  C   UNL A   1      44.410  22.145  24.827  1.00  0.00     0.000 A 
ENDBRANCH  53  67
BRANCH  54  73
ATOM     73  C   UNL A   1      40.405  30.451  33.253  1.00  0.00    -0.014 A 
ATOM     74  C   UNL A   1      40.111  31.830  33.313  1.00  0.00     0.009 A 
ATOM     75  C   UNL A   1      39.343  29.539  33.314  1.00  0.00     0.009 A 
ATOM     76  C   UNL A   1      38.788  32.283  33.283  1.00  0.00     0.001 A 
ATOM     77  C   UNL A   1      38.020  29.998  33.313  1.00  0.00     0.001 A 
ATOM     78  C   UNL A   1      37.744  31.363  33.252  1.00  0.00     0.000 A 
ENDBRANCH  54  73
BRANCH  66  79
ATOM     79  C   UNL A   1      44.764  24.683  33.271  1.00  0.00    -0.014 A 
ATOM     80  C   UNL A   1      46.098  24.541  33.675  1.00  0.00     0.009 A 
ATOM     81  C   UNL A   1      43.905  23.586  33.494  1.00  0.00     0.009 A 
ATOM     82  C   UNL A   1      46.536  23.383  34.330  1.00  0.00     0.001 A 
ATOM     83  C   UNL A   1      44.344  22.421  34.124  1.00  0.00     0.001 A 
ATOM     84  C   UNL A   1      45.659  22.325  34.555  1.00  0.00     0.000 A 
ENDBRANCH  66  79
ENDBRANCH  40  41
ENDBRANCH  32  35
ENDBRANCH  30  31
ENDBRANCH  29  30
ENDBRANCH  28  29
ENDBRANCH   1  28
TORSDOF 16
ENDMDL
MODEL 2
REMARK VINA RESULT:     -12.3      1.706      2.717
REMARK SMILES Cc1cc(C(=O)NCCCCCCNC(=O)c2ccc(-c3c4nc(c(-c5ccccc5)c5ccc([nH]5)c(-c5ccccc5)c5nc(c(-c6ccccc6)c6ccc3[nH]6)C=C5)C=C4)cc2)ccc1NS(=O)(=O)c1c(F)cccc1F
REMARK SMILES IDX 10 1 9 2 8 3 7 4 5 5 6 6 4 8 1 9 2 10 3 11 67 12 66 13 65 14
REMARK SMILES IDX 68 15 69 17 70 18 71 19 72 20 73 21 78 22 74 23 75 24 77 25
REMARK SMILES IDX 79 26 76 27 11 28 12 29 13 30 14 31 15 32 16 34 17 35 18 36
REMARK SMILES IDX 64 37 19 38 63 39 20 40 21 41 22 42 57 43 23 44 62 45 56 46
REMARK SMILES IDX 58 47 24 48 61 49 55 50 54 51 25 53 47 54 32 55 46 56 33 57
REMARK SMILES IDX 36 58 45 59 59 60 34 61 35 62 44 64 60 65 37 66 26 67 27 68
REMARK SMILES IDX 31 69 28 70 30 71 29 72 48 73 49 74 53 75 50 76 52 77 51 78
REMARK SMILES IDX 38 79 39 80 43 81 40 82 42 83 41 84
REMARK H PARENT 7 7 68 16 14 33 58 52 36 63
REMARK Flexibility Score: inf
ROOT
ATOM      1  C   UNL A   1      32.291  29.827  25.270  1.00  0.00     0.002 C 
ENDROOT
BRANCH   1   2
ATOM      2  C   UNL A   1      33.113  28.798  24.484  1.00  0.00     0.021 C 
BRANCH   2   3
ATOM      3  C   UNL A   1      33.252  29.007  22.974  1.00  0.00     0.116 C 
BRANCH   3   4
ATOM      4  N   UNL A   1      32.061  29.528  22.331  1.00  0.00    -0.352 N 
ATOM      5  C   UNL A   1      30.788  29.009  22.225  1.00  0.00     0.251 C 
ATOM      6  O   UNL A   1      29.947  29.645  21.592  1.00  0.00    -0.269 OA
ATOM      7  H   UNL A   1      32.181  30.402  21.896  1.00  0.00     0.163 HD
BRANCH   5   8
ATOM      8  C   UNL A   1      30.420  27.674  22.774  1.00  0.00     0.040 A 
ATOM      9  C   UNL A   1      31.920  24.188  22.632  1.00  0.00     0.046 C 
ATOM     10  C   UNL A   1      31.088  25.349  23.109  1.00  0.00    -0.026 A 
ATOM     11  C   UNL A   1      31.254  26.591  22.471  1.00  0.00     0.019 A 
ATOM     12  C   UNL A   1      30.130  25.239  24.126  1.00  0.00     0.052 A 
ATOM     13  C   UNL A   1      29.133  26.212  24.214  1.00  0.00     0.028 A 
ATOM     14  C   UNL A   1      29.280  27.433  23.542  1.00  0.00     0.016 A 
BRANCH  12  15
ATOM     15  N   UNL A   1      30.335  24.235  25.120  1.00  0.00    -0.279 N 
ATOM     16  H   UNL A   1      29.834  23.396  24.998  1.00  0.00     0.180 HD
BRANCH  15  17
ATOM     17  S   UNL A   1      31.323  24.311  26.465  1.00  0.00     0.267 S 
ATOM     18  O   UNL A   1      31.381  25.703  26.845  1.00  0.00    -0.201 OA
ATOM     19  O   UNL A   1      30.810  23.300  27.372  1.00  0.00    -0.201 OA
BRANCH  17  20
ATOM     20  C   UNL A   1      32.946  23.808  26.037  1.00  0.00     0.158 A 
ATOM     21  C   UNL A   1      33.906  24.805  25.889  1.00  0.00     0.146 A 
ATOM     22  C   UNL A   1      33.278  22.503  25.707  1.00  0.00     0.146 A 
ATOM     23  F   UNL A   1      33.666  26.062  26.284  1.00  0.00    -0.205 F 
ATOM     24  C   UNL A   1      35.150  24.524  25.329  1.00  0.00     0.041 A 
ATOM     25  C   UNL A   1      34.512  22.214  25.116  1.00  0.00     0.041 A 
ATOM     26  F   UNL A   1      32.427  21.488  25.904  1.00  0.00    -0.205 F 
ATOM     27  C   UNL A   1      35.444  23.229  24.908  1.00  0.00     0.006 A 
ENDBRANCH  17  20
ENDBRANCH  15  17
ENDBRANCH  12  15
ENDBRANCH   5   8
ENDBRANCH   3   4
ENDBRANCH   2   3
ENDBRANCH   1   2
BRANCH   1  28
ATOM     28  C   UNL A   1      32.446  29.851  26.799  1.00  0.00     0.002 C 
BRANCH  28  29
ATOM     29  C   UNL A   1      33.851  29.628  27.359  1.00  0.00     0.021 C 
BRANCH  29  30
ATOM     30  C   UNL A   1      34.698  30.885  27.496  1.00  0.00     0.116 C 
BRANCH  30  31
ATOM     31  N   UNL A   1      33.943  32.094  27.806  1.00  0.00    -0.352 N 
ATOM     32  C   UNL A   1      34.211  33.084  28.736  1.00  0.00     0.251 C 
ATOM     33  H   UNL A   1      33.122  32.224  27.277  1.00  0.00     0.163 HD
ATOM     34  O   UNL A   1      33.425  34.015  28.886  1.00  0.00    -0.269 OA
BRANCH  32  35
ATOM     35  C   UNL A   1      35.514  33.097  29.442  1.00  0.00     0.039 A 
ATOM     36  C   UNL A   1      36.585  33.747  28.816  1.00  0.00     0.014 A 
ATOM     37  C   UNL A   1      35.739  32.296  30.558  1.00  0.00     0.014 A 
ATOM     38  C   UNL A   1      37.886  33.366  29.127  1.00  0.00     0.010 A 
ATOM     39  C   UNL A   1      37.016  31.838  30.795  1.00  0.00     0.010 A 
ATOM     40  C   UNL A   1      38.076  32.319  30.024  1.00  0.00    -0.014 A 
BRANCH  40  41
ATOM     41  C   UNL A   1      39.333  31.603  30.168  1.00  0.00     0.031 A 
ATOM     42  C   UNL A   1      39.513  30.301  29.510  1.00  0.00     0.074 A 
ATOM     43  C   UNL A   1      40.349  32.173  30.849  1.00  0.00     0.049 A 
ATOM     44  N   UNL A   1      40.394  29.430  29.864  1.00  0.00    -0.248 NA
ATOM     45  C   UNL A   1      38.660  29.855  28.415  1.00  0.00     0.031 C 
ATOM     46  C   UNL A   1      41.749  31.761  30.896  1.00  0.00     0.029 A 
ATOM     47  N   UNL A   1      40.242  33.139  31.847  1.00  0.00    -0.354 N 
ATOM     48  C   UNL A   1      40.415  28.452  28.900  1.00  0.00     0.074 A 
ATOM     49  C   UNL A   1      39.267  28.718  28.063  1.00  0.00     0.031 C 
ATOM     50  C   UNL A   1      42.307  32.255  32.013  1.00  0.00     0.029 A 
ATOM     51  C   UNL A   1      41.242  32.859  32.797  1.00  0.00     0.049 A 
ATOM     52  H   UNL A   1      39.590  33.877  31.881  1.00  0.00     0.167 HD
ATOM     53  C   UNL A   1      41.473  27.598  28.849  1.00  0.00     0.031 A 
ATOM     54  C   UNL A   1      40.892  32.488  34.066  1.00  0.00     0.031 A 
ATOM     55  C   UNL A   1      42.396  27.803  29.966  1.00  0.00     0.049 A 
ATOM     56  C   UNL A   1      41.315  31.078  34.443  1.00  0.00     0.074 A 
ATOM     57  C   UNL A   1      43.618  28.437  30.111  1.00  0.00     0.029 A 
ATOM     58  N   UNL A   1      41.929  27.575  31.250  1.00  0.00    -0.354 N 
ATOM     59  N   UNL A   1      41.866  30.225  33.623  1.00  0.00    -0.248 NA
ATOM     60  C   UNL A   1      41.050  30.489  35.757  1.00  0.00     0.031 C 
ATOM     61  C   UNL A   1      43.870  28.599  31.506  1.00  0.00     0.029 A 
ATOM     62  C   UNL A   1      42.813  28.042  32.201  1.00  0.00     0.049 A 
ATOM     63  H   UNL A   1      41.073  27.134  31.458  1.00  0.00     0.167 HD
ATOM     64  C   UNL A   1      41.986  29.010  34.240  1.00  0.00     0.074 A 
ATOM     65  C   UNL A   1      41.461  29.223  35.577  1.00  0.00     0.031 C 
ATOM     66  C   UNL A   1      42.464  27.902  33.604  1.00  0.00     0.031 A 
BRANCH  53  67
ATOM     67  C   UNL A   1      41.782  26.729  27.659  1.00  0.00    -0.014 A 
ATOM     68  C   UNL A   1      42.154  25.388  27.861  1.00  0.00     0.009 A 
ATOM     69  C   UNL A   1      41.772  27.170  26.325  1.00  0.00     0.009 A 
ATOM     70  C   UNL A   1      42.578  24.567  26.807  1.00  0.00     0.001 A 
ATOM     71  C   UNL A   1      42.232  26.369  25.270  1.00  0.00     0.001 A 
ATOM     72  C   UNL A   1      42.644  25.068  25.514  1.00  0.00     0.000 A 
ENDBRANCH  53  67
BRANCH  54  73
ATOM     73  C   UNL A   1      39.636  33.147  34.533  1.00  0.00    -0.014 A 
ATOM     74  C   UNL A   1      38.402  32.572  34.159  1.00  0.00     0.009 A 
ATOM     75  C   UNL A   1      39.654  34.049  35.604  1.00  0.00     0.009 A 
ATOM     76  C   UNL A   1      37.254  32.778  34.929  1.00  0.00     0.001 A 
ATOM     77  C   UNL A   1      38.494  34.274  36.355  1.00  0.00     0.001 A 
ATOM     78  C   UNL A   1      37.309  33.606  36.046  1.00  0.00     0.000 A 
ENDBRANCH  54  73
BRANCH  66  79
ATOM     79  C   UNL A   1      42.607  26.561  34.266  1.00  0.00    -0.014 A 
ATOM     80  C   UNL A   1      43.702  25.719  34.032  1.00  0.00     0.009 A 
ATOM     81  C   UNL A   1      41.562  26.049  35.064  1.00  0.00     0.009 A 
ATOM     82  C   UNL A   1      43.777  24.450  34.621  1.00  0.00     0.001 A 
ATOM     83  C   UNL A   1      41.623  24.776  35.633  1.00  0.00     0.001 A 
ATOM     84  C   UNL A   1      42.739  23.981  35.421  1.00  0.00     0.000 A 
ENDBRANCH  66  79
ENDBRANCH  40  41
ENDBRANCH  32  35
ENDBRANCH  30  31
ENDBRANCH  29  30
ENDBRANCH  28  29
ENDBRANCH   1  28
TORSDOF 16
ENDMDL
MODEL 3
REMARK VINA RESULT:     -12.1      1.832      2.256
REMARK SMILES Cc1cc(C(=O)NCCCCCCNC(=O)c2ccc(-c3c4nc(c(-c5ccccc5)c5ccc([nH]5)c(-c5ccccc5)c5nc(c(-c6ccccc6)c6ccc3[nH]6)C=C5)C=C4)cc2)ccc1NS(=O)(=O)c1c(F)cccc1F
REMARK SMILES IDX 10 1 9 2 8 3 7 4 5 5 6 6 4 8 1 9 2 10 3 11 67 12 66 13 65 14
REMARK SMILES IDX 68 15 69 17 70 18 71 19 72 20 73 21 78 22 74 23 75 24 77 25
REMARK SMILES IDX 79 26 76 27 11 28 12 29 13 30 14 31 15 32 16 34 17 35 18 36
REMARK SMILES IDX 64 37 19 38 63 39 20 40 21 41 22 42 57 43 23 44 62 45 56 46
REMARK SMILES IDX 58 47 24 48 61 49 55 50 54 51 25 53 47 54 32 55 46 56 33 57
REMARK SMILES IDX 36 58 45 59 59 60 34 61 35 62 44 64 60 65 37 66 26 67 27 68
REMARK SMILES IDX 31 69 28 70 30 71 29 72 48 73 49 74 53 75 50 76 52 77 51 78
REMARK SMILES IDX 38 79 39 80 43 81 40 82 42 83 41 84
REMARK H PARENT 7 7 68 16 14 33 58 52 36 63
REMARK Flexibility Score: inf
ROOT
ATOM      1  C   UNL A   1      31.814  29.779  25.280  1.00  0.00     0.002 C 
ENDROOT
BRANCH   1   2
ATOM      2  C   UNL A   1      32.726  29.046  24.287  1.00  0.00     0.021 C 
BRANCH   2   3
ATOM      3  C   UNL A   1      32.063  28.362  23.089  1.00  0.00     0.116 C 
BRANCH   3   4
ATOM      4  N   UNL A   1      30.645  28.106  23.258  1.00  0.00    -0.352 N 
ATOM      5  C   UNL A   1      29.978  27.033  23.808  1.00  0.00     0.251 C 
ATOM      6  O   UNL A   1      28.747  27.046  23.806  1.00  0.00    -0.269 OA
ATOM      7  H   UNL A   1      30.059  28.821  22.921  1.00  0.00     0.163 HD
BRANCH   5   8
ATOM      8  C   UNL A   1      30.686  25.830  24.326  1.00  0.00     0.040 A 
ATOM      9  C   UNL A   1      31.638  22.438  22.907  1.00  0.00     0.046 C 
ATOM     10  C   UNL A   1      31.647  23.646  23.806  1.00  0.00    -0.026 A 
ATOM     11  C   UNL A   1      30.825  24.734  23.465  1.00  0.00     0.019 A 
ATOM     12  C   UNL A   1      32.403  23.718  24.985  1.00  0.00     0.052 A 
ATOM     13  C   UNL A   1      32.043  24.656  25.954  1.00  0.00     0.028 A 
ATOM     14  C   UNL A   1      31.188  25.717  25.622  1.00  0.00     0.016 A 
BRANCH  12  15
ATOM     15  N   UNL A   1      33.603  22.948  25.048  1.00  0.00    -0.279 N 
ATOM     16  H   UNL A   1      33.531  22.069  25.486  1.00  0.00     0.180 HD
BRANCH  15  17
ATOM     17  S   UNL A   1      35.115  23.356  24.468  1.00  0.00     0.267 S 
ATOM     18  O   UNL A   1      35.021  23.307  23.027  1.00  0.00    -0.201 OA
ATOM     19  O   UNL A   1      35.472  24.582  25.161  1.00  0.00    -0.201 OA
BRANCH  17  20
ATOM     20  C   UNL A   1      36.286  22.152  24.966  1.00  0.00     0.158 A 
ATOM     21  C   UNL A   1      37.533  22.607  25.382  1.00  0.00     0.146 A 
ATOM     22  C   UNL A   1      36.079  20.787  24.834  1.00  0.00     0.146 A 
ATOM     23  F   UNL A   1      37.753  23.906  25.618  1.00  0.00    -0.205 F 
ATOM     24  C   UNL A   1      38.593  21.721  25.571  1.00  0.00     0.041 A 
ATOM     25  C   UNL A   1      37.141  19.891  24.991  1.00  0.00     0.041 A 
ATOM     26  F   UNL A   1      34.879  20.283  24.517  1.00  0.00    -0.205 F 
ATOM     27  C   UNL A   1      38.407  20.360  25.341  1.00  0.00     0.006 A 
ENDBRANCH  17  20
ENDBRANCH  15  17
ENDBRANCH  12  15
ENDBRANCH   5   8
ENDBRANCH   3   4
ENDBRANCH   2   3
ENDBRANCH   1   2
BRANCH   1  28
ATOM     28  C   UNL A   1      32.148  29.668  26.776  1.00  0.00     0.002 C 
BRANCH  28  29
ATOM     29  C   UNL A   1      32.932  30.823  27.401  1.00  0.00     0.021 C 
BRANCH  29  30
ATOM     30  C   UNL A   1      34.447  30.698  27.310  1.00  0.00     0.116 C 
BRANCH  30  31
ATOM     31  N   UNL A   1      35.183  31.549  28.239  1.00  0.00    -0.352 N 
ATOM     32  C   UNL A   1      36.301  31.257  29.001  1.00  0.00     0.251 C 
ATOM     33  H   UNL A   1      34.831  32.464  28.340  1.00  0.00     0.163 HD
ATOM     34  O   UNL A   1      36.758  32.099  29.769  1.00  0.00    -0.269 OA
BRANCH  32  35
ATOM     35  C   UNL A   1      37.031  29.986  28.781  1.00  0.00     0.039 A 
ATOM     36  C   UNL A   1      37.191  29.130  29.878  1.00  0.00     0.014 A 
ATOM     37  C   UNL A   1      37.740  29.755  27.606  1.00  0.00     0.014 A 
ATOM     38  C   UNL A   1      38.258  28.238  29.893  1.00  0.00     0.010 A 
ATOM     39  C   UNL A   1      38.858  28.952  27.657  1.00  0.00     0.010 A 
ATOM     40  C   UNL A   1      39.155  28.255  28.830  1.00  0.00    -0.014 A 
BRANCH  40  41
ATOM     41  C   UNL A   1      40.472  27.642  28.880  1.00  0.00     0.031 A 
ATOM     42  C   UNL A   1      40.628  26.216  28.561  1.00  0.00     0.074 A 
ATOM     43  C   UNL A   1      41.551  28.406  29.154  1.00  0.00     0.049 A 
ATOM     44  N   UNL A   1      41.632  25.501  28.932  1.00  0.00    -0.248 NA
ATOM     45  C   UNL A   1      39.615  25.464  27.830  1.00  0.00     0.031 C 
ATOM     46  C   UNL A   1      42.961  28.062  29.005  1.00  0.00     0.029 A 
ATOM     47  N   UNL A   1      41.562  29.604  29.865  1.00  0.00    -0.354 N 
ATOM     48  C   UNL A   1      41.545  24.298  28.274  1.00  0.00     0.074 A 
ATOM     49  C   UNL A   1      40.235  24.293  27.664  1.00  0.00     0.031 C 
ATOM     50  C   UNL A   1      43.687  28.858  29.807  1.00  0.00     0.029 A 
ATOM     51  C   UNL A   1      42.752  29.622  30.618  1.00  0.00     0.049 A 
ATOM     52  H   UNL A   1      40.869  30.304  29.847  1.00  0.00     0.167 HD
ATOM     53  C   UNL A   1      42.641  23.493  28.220  1.00  0.00     0.031 A 
ATOM     54  C   UNL A   1      42.695  29.600  31.984  1.00  0.00     0.031 A 
ATOM     55  C   UNL A   1      43.747  24.020  29.020  1.00  0.00     0.049 A 
ATOM     56  C   UNL A   1      43.304  28.359  32.614  1.00  0.00     0.074 A 
ATOM     57  C   UNL A   1      44.915  24.706  28.728  1.00  0.00     0.029 A 
ATOM     58  N   UNL A   1      43.567  24.137  30.388  1.00  0.00    -0.354 N 
ATOM     59  N   UNL A   1      43.752  27.331  31.946  1.00  0.00    -0.248 NA
ATOM     60  C   UNL A   1      43.359  28.143  34.062  1.00  0.00     0.031 C 
ATOM     61  C   UNL A   1      45.425  25.248  29.945  1.00  0.00     0.029 A 
ATOM     62  C   UNL A   1      44.580  24.871  30.972  1.00  0.00     0.049 A 
ATOM     63  H   UNL A   1      42.811  23.746  30.883  1.00  0.00     0.167 HD
ATOM     64  C   UNL A   1      44.097  26.334  32.817  1.00  0.00     0.074 A 
ATOM     65  C   UNL A   1      43.833  26.888  34.133  1.00  0.00     0.031 C 
ATOM     66  C   UNL A   1      44.531  25.109  32.404  1.00  0.00     0.031 A 
BRANCH  53  67
ATOM     67  C   UNL A   1      42.779  22.341  27.260  1.00  0.00    -0.014 A 
ATOM     68  C   UNL A   1      42.030  21.170  27.473  1.00  0.00     0.009 A 
ATOM     69  C   UNL A   1      43.654  22.321  26.160  1.00  0.00     0.009 A 
ATOM     70  C   UNL A   1      42.210  20.020  26.692  1.00  0.00     0.001 A 
ATOM     71  C   UNL A   1      43.870  21.164  25.399  1.00  0.00     0.001 A 
ATOM     72  C   UNL A   1      43.152  20.008  25.673  1.00  0.00     0.000 A 
ENDBRANCH  53  67
BRANCH  54  73
ATOM     73  C   UNL A   1      41.506  30.325  32.522  1.00  0.00    -0.014 A 
ATOM     74  C   UNL A   1      41.454  31.728  32.366  1.00  0.00     0.009 A 
ATOM     75  C   UNL A   1      40.319  29.642  32.813  1.00  0.00     0.009 A 
ATOM     76  C   UNL A   1      40.230  32.401  32.352  1.00  0.00     0.001 A 
ATOM     77  C   UNL A   1      39.097  30.327  32.827  1.00  0.00     0.001 A 
ATOM     78  C   UNL A   1      39.049  31.693  32.552  1.00  0.00     0.000 A 
ENDBRANCH  54  73
BRANCH  66  79
ATOM     79  C   UNL A   1      44.918  24.004  33.345  1.00  0.00    -0.014 A 
ATOM     80  C   UNL A   1      44.000  23.048  33.800  1.00  0.00     0.009 A 
ATOM     81  C   UNL A   1      46.212  23.969  33.904  1.00  0.00     0.009 A 
ATOM     82  C   UNL A   1      44.379  22.063  34.722  1.00  0.00     0.001 A 
ATOM     83  C   UNL A   1      46.586  23.005  34.841  1.00  0.00     0.001 A 
ATOM     84  C   UNL A   1      45.671  22.042  35.241  1.00  0.00     0.000 A 
ENDBRANCH  66  79
ENDBRANCH  40  41
ENDBRANCH  32  35
ENDBRANCH  30  31
ENDBRANCH  29  30
ENDBRANCH  28  29
ENDBRANCH   1  28
TORSDOF 16
ENDMDL
