MODEL 1
REMARK VINA RESULT:     -12.9      0.000      0.000
REMARK SMILES Cc1ccccc1C(=O)Nc1ccc(OCC(=O)NCCCCCCNC(=O)c2ccc(-c3c4nc(c(-c5ccccc5)c5ccc([nH]5)c(-c5ccccc5)c5nc(c(-c6ccccc6)c6ccc3[nH]6)C=C5)C=C4)cc2)c(-c2nc3ccccc3s2)c1
REMARK SMILES IDX 21 1 20 2 19 3 17 4 18 5 16 7 15 8 14 9 11 10 12 11 87 12
REMARK SMILES IDX 13 13 77 14 10 15 8 16 9 17 7 19 1 20 2 21 3 22 4 23 6 24
REMARK SMILES IDX 5 25 78 26 79 27 86 28 80 29 85 30 81 31 84 32 82 33 83 34
REMARK SMILES IDX 22 35 23 36 24 37 25 38 26 39 27 40 28 42 29 43 30 44 76 45
REMARK SMILES IDX 31 46 75 47 32 48 33 49 34 50 69 51 35 52 74 53 68 54 70 55
REMARK SMILES IDX 36 56 73 57 67 58 66 59 37 61 59 62 44 63 58 64 45 65 48 66
REMARK SMILES IDX 57 67 71 68 46 69 47 70 56 72 72 73 49 74 38 75 39 76 43 77
REMARK SMILES IDX 40 78 42 79 41 80 60 81 61 82 65 83 62 84 64 85 63 86 50 87
REMARK SMILES IDX 51 88 55 89 52 90 54 91 53 92
REMARK H PARENT 19 6 10 18 26 41 70 60 48 71
REMARK Flexibility Score: inf
ROOT
ATOM      1  C   UNL A   1      33.940  33.285  27.904  1.00  0.00     0.021 C 
ENDROOT
BRANCH   1   2
ATOM      2  C   UNL A   1      33.306  31.926  27.614  1.00  0.00     0.116 C 
BRANCH   2   3
ATOM      3  N   UNL A   1      34.307  30.895  27.506  1.00  0.00    -0.353 N 
ATOM      4  C   UNL A   1      34.224  29.617  27.054  1.00  0.00     0.257 C 
ATOM      5  O   UNL A   1      35.250  28.945  27.164  1.00  0.00    -0.271 OA
ATOM      6  H   UNL A   1      35.204  31.163  27.812  1.00  0.00     0.163 HD
BRANCH   4   7
ATOM      7  C   UNL A   1      32.926  29.093  26.383  1.00  0.00     0.329 C 
BRANCH   7   8
ATOM      8  O   UNL A   1      32.879  28.391  25.144  1.00  0.00    -0.483 OA
BRANCH   8   9
ATOM      9  C   UNL A   1      32.536  27.073  25.252  1.00  0.00     0.130 A 
ATOM     10  C   UNL A   1      32.030  24.340  25.507  1.00  0.00     0.042 A 
ATOM     11  C   UNL A   1      32.997  24.941  26.311  1.00  0.00     0.030 A 
ATOM     12  C   UNL A   1      31.224  25.135  24.689  1.00  0.00     0.041 A 
ATOM     13  C   UNL A   1      33.278  26.297  26.152  1.00  0.00     0.049 A 
ATOM     14  C   UNL A   1      31.423  26.531  24.580  1.00  0.00     0.055 A 
BRANCH  10  15
ATOM     15  N   UNL A   1      31.948  22.942  25.536  1.00  0.00    -0.322 N 
ATOM     16  C   UNL A   1      32.812  21.979  25.056  1.00  0.00     0.255 C 
ATOM     17  O   UNL A   1      32.421  20.811  25.014  1.00  0.00    -0.269 OA
ATOM     18  H   UNL A   1      31.139  22.587  25.971  1.00  0.00     0.170 HD
BRANCH  16  19
ATOM     19  C   UNL A   1      34.226  22.268  24.671  1.00  0.00     0.043 A 
ATOM     20  C   UNL A   1      33.723  23.364  22.387  1.00  0.00     0.045 C 
ATOM     21  C   UNL A   1      34.644  22.861  23.461  1.00  0.00    -0.038 A 
ATOM     22  C   UNL A   1      36.023  23.042  23.234  1.00  0.00     0.004 A 
ATOM     23  C   UNL A   1      36.961  22.766  24.226  1.00  0.00     0.000 A 
ATOM     24  C   UNL A   1      35.184  22.030  25.676  1.00  0.00     0.014 A 
ATOM     25  C   UNL A   1      36.539  22.290  25.460  1.00  0.00     0.001 A 
ENDBRANCH  16  19
ENDBRANCH  10  15
BRANCH  14  26
ATOM     26  C   UNL A   1      30.482  27.281  23.712  1.00  0.00     0.128 A 
ATOM     27  N   UNL A   1      30.873  28.174  22.819  1.00  0.00    -0.236 NA
ATOM     28  S   UNL A   1      28.767  27.092  23.756  1.00  0.00    -0.114 S 
ATOM     29  C   UNL A   1      29.808  28.983  22.465  1.00  0.00     0.082 A 
ATOM     30  C   UNL A   1      28.584  28.626  23.022  1.00  0.00     0.055 A 
ATOM     31  C   UNL A   1      29.872  30.133  21.659  1.00  0.00     0.030 A 
ATOM     32  C   UNL A   1      27.447  29.439  22.922  1.00  0.00     0.021 A 
ATOM     33  C   UNL A   1      28.740  30.945  21.528  1.00  0.00     0.002 A 
ATOM     34  C   UNL A   1      27.555  30.618  22.183  1.00  0.00     0.002 A 
ENDBRANCH  14  26
ENDBRANCH   8   9
ENDBRANCH   7   8
ENDBRANCH   4   7
ENDBRANCH   2   3
ENDBRANCH   1   2
BRANCH   1  35
ATOM     35  C   UNL A   1      33.320  34.093  29.054  1.00  0.00     0.002 C 
BRANCH  35  36
ATOM     36  C   UNL A   1      33.196  35.613  28.870  1.00  0.00     0.002 C 
BRANCH  36  37
ATOM     37  C   UNL A   1      32.959  36.448  30.128  1.00  0.00     0.021 C 
BRANCH  37  38
ATOM     38  C   UNL A   1      32.584  35.648  31.365  1.00  0.00     0.116 C 
BRANCH  38  39
ATOM     39  N   UNL A   1      33.359  35.957  32.555  1.00  0.00    -0.352 N 
ATOM     40  C   UNL A   1      34.450  35.284  33.088  1.00  0.00     0.251 C 
ATOM     41  H   UNL A   1      33.071  36.757  33.052  1.00  0.00     0.163 HD
ATOM     42  O   UNL A   1      34.946  35.653  34.135  1.00  0.00    -0.269 OA
BRANCH  40  43
ATOM     43  C   UNL A   1      35.104  34.209  32.290  1.00  0.00     0.039 A 
ATOM     44  C   UNL A   1      35.126  32.924  32.844  1.00  0.00     0.014 A 
ATOM     45  C   UNL A   1      35.880  34.496  31.172  1.00  0.00     0.014 A 
ATOM     46  C   UNL A   1      36.130  32.037  32.464  1.00  0.00     0.010 A 
ATOM     47  C   UNL A   1      36.942  33.670  30.872  1.00  0.00     0.010 A 
ATOM     48  C   UNL A   1      37.109  32.478  31.576  1.00  0.00    -0.014 A 
BRANCH  48  49
ATOM     49  C   UNL A   1      38.374  31.787  31.377  1.00  0.00     0.031 A 
ATOM     50  C   UNL A   1      38.387  30.500  30.651  1.00  0.00     0.074 A 
ATOM     51  C   UNL A   1      39.530  32.335  31.822  1.00  0.00     0.049 A 
ATOM     52  N   UNL A   1      39.232  29.551  30.878  1.00  0.00    -0.248 NA
ATOM     53  C   UNL A   1      37.409  30.169  29.616  1.00  0.00     0.031 C 
ATOM     54  C   UNL A   1      40.882  31.846  31.554  1.00  0.00     0.029 A 
ATOM     55  N   UNL A   1      39.738  33.344  32.767  1.00  0.00    -0.354 N 
ATOM     56  C   UNL A   1      39.117  28.653  29.842  1.00  0.00     0.074 A 
ATOM     57  C   UNL A   1      37.912  29.026  29.138  1.00  0.00     0.031 C 
ATOM     58  C   UNL A   1      41.698  32.292  32.525  1.00  0.00     0.029 A 
ATOM     59  C   UNL A   1      40.858  32.946  33.514  1.00  0.00     0.049 A 
ATOM     60  H   UNL A   1      39.209  34.165  32.883  1.00  0.00     0.167 HD
ATOM     61  C   UNL A   1      40.135  27.789  29.577  1.00  0.00     0.031 A 
ATOM     62  C   UNL A   1      40.828  32.626  34.843  1.00  0.00     0.031 A 
ATOM     63  C   UNL A   1      41.243  27.947  30.513  1.00  0.00     0.049 A 
ATOM     64  C   UNL A   1      41.335  31.222  35.134  1.00  0.00     0.074 A 
ATOM     65  C   UNL A   1      42.453  28.616  30.427  1.00  0.00     0.029 A 
ATOM     66  N   UNL A   1      41.050  27.650  31.856  1.00  0.00    -0.354 N 
ATOM     67  N   UNL A   1      41.428  30.286  34.230  1.00  0.00    -0.248 NA
ATOM     68  C   UNL A   1      41.732  30.746  36.459  1.00  0.00     0.031 C 
ATOM     69  C   UNL A   1      42.960  28.777  31.742  1.00  0.00     0.029 A 
ATOM     70  C   UNL A   1      42.073  28.181  32.619  1.00  0.00     0.049 A 
ATOM     71  H   UNL A   1      40.292  27.134  32.214  1.00  0.00     0.167 HD
ATOM     72  C   UNL A   1      41.895  29.130  34.801  1.00  0.00     0.074 A 
ATOM     73  C   UNL A   1      42.070  29.469  36.200  1.00  0.00     0.031 C 
ATOM     74  C   UNL A   1      42.089  27.994  34.064  1.00  0.00     0.031 A 
BRANCH  61  75
ATOM     75  C   UNL A   1      40.237  27.049  28.268  1.00  0.00    -0.014 A 
ATOM     76  C   UNL A   1      39.663  25.770  28.141  1.00  0.00     0.009 A 
ATOM     77  C   UNL A   1      40.926  27.537  27.146  1.00  0.00     0.009 A 
ATOM     78  C   UNL A   1      39.859  24.980  27.002  1.00  0.00     0.001 A 
ATOM     79  C   UNL A   1      41.162  26.736  26.019  1.00  0.00     0.001 A 
ATOM     80  C   UNL A   1      40.637  25.451  25.953  1.00  0.00     0.000 A 
ENDBRANCH  61  75
BRANCH  62  81
ATOM     81  C   UNL A   1      39.761  33.310  35.619  1.00  0.00    -0.014 A 
ATOM     82  C   UNL A   1      38.555  32.619  35.845  1.00  0.00     0.009 A 
ATOM     83  C   UNL A   1      40.061  34.415  36.427  1.00  0.00     0.009 A 
ATOM     84  C   UNL A   1      37.741  32.940  36.934  1.00  0.00     0.001 A 
ATOM     85  C   UNL A   1      39.237  34.739  37.513  1.00  0.00     0.001 A 
ATOM     86  C   UNL A   1      38.103  33.976  37.790  1.00  0.00     0.000 A 
ENDBRANCH  62  81
BRANCH  74  87
ATOM     87  C   UNL A   1      42.384  26.607  34.590  1.00  0.00    -0.014 A 
ATOM     88  C   UNL A   1      41.518  25.858  35.394  1.00  0.00     0.009 A 
ATOM     89  C   UNL A   1      43.556  25.948  34.146  1.00  0.00     0.009 A 
ATOM     90  C   UNL A   1      41.823  24.538  35.764  1.00  0.00     0.001 A 
ATOM     91  C   UNL A   1      43.842  24.620  34.471  1.00  0.00     0.001 A 
ATOM     92  C   UNL A   1      42.976  23.916  35.293  1.00  0.00     0.000 A 
ENDBRANCH  74  87
ENDBRANCH  48  49
ENDBRANCH  40  43
ENDBRANCH  38  39
ENDBRANCH  37  38
ENDBRANCH  36  37
ENDBRANCH  35  36
ENDBRANCH   1  35
TORSDOF 18
ENDMDL
MODEL 2
REMARK VINA RESULT:     -12.1      5.250     10.874
REMARK SMILES Cc1ccccc1C(=O)Nc1ccc(OCC(=O)NCCCCCCNC(=O)c2ccc(-c3c4nc(c(-c5ccccc5)c5ccc([nH]5)c(-c5ccccc5)c5nc(c(-c6ccccc6)c6ccc3[nH]6)C=C5)C=C4)cc2)c(-c2nc3ccccc3s2)c1
REMARK SMILES IDX 21 1 20 2 19 3 17 4 18 5 16 7 15 8 14 9 11 10 12 11 87 12
REMARK SMILES IDX 13 13 77 14 10 15 8 16 9 17 7 19 1 20 2 21 3 22 4 23 6 24
REMARK SMILES IDX 5 25 78 26 79 27 86 28 80 29 85 30 81 31 84 32 82 33 83 34
REMARK SMILES IDX 22 35 23 36 24 37 25 38 26 39 27 40 28 42 29 43 30 44 76 45
REMARK SMILES IDX 31 46 75 47 32 48 33 49 34 50 69 51 35 52 74 53 68 54 70 55
REMARK SMILES IDX 36 56 73 57 67 58 66 59 37 61 59 62 44 63 58 64 45 65 48 66
REMARK SMILES IDX 57 67 71 68 46 69 47 70 56 72 72 73 49 74 38 75 39 76 43 77
REMARK SMILES IDX 40 78 42 79 41 80 60 81 61 82 65 83 62 84 64 85 63 86 50 87
REMARK SMILES IDX 51 88 55 89 52 90 54 91 53 92
REMARK H PARENT 19 6 10 18 26 41 70 60 48 71
REMARK Flexibility Score: inf
ROOT
ATOM      1  C   UNL A   1      39.065  23.555  26.183  1.00  0.00     0.021 C 
ENDROOT
BRANCH   1   2
ATOM      2  C   UNL A   1      37.618  24.012  26.358  1.00  0.00     0.116 C 
BRANCH   2   3
ATOM      3  N   UNL A   1      36.728  22.887  26.492  1.00  0.00    -0.353 N 
ATOM      4  C   UNL A   1      35.747  22.425  25.674  1.00  0.00     0.257 C 
ATOM      5  O   UNL A   1      35.095  21.476  26.107  1.00  0.00    -0.271 OA
ATOM      6  H   UNL A   1      36.852  22.364  27.317  1.00  0.00     0.163 HD
BRANCH   4   7
ATOM      7  C   UNL A   1      35.536  23.034  24.261  1.00  0.00     0.329 C 
BRANCH   7   8
ATOM      8  O   UNL A   1      34.684  22.485  23.260  1.00  0.00    -0.483 OA
BRANCH   8   9
ATOM      9  C   UNL A   1      33.435  23.037  23.214  1.00  0.00     0.130 A 
ATOM     10  C   UNL A   1      30.966  24.339  23.185  1.00  0.00     0.042 A 
ATOM     11  C   UNL A   1      32.118  25.034  22.817  1.00  0.00     0.030 A 
ATOM     12  C   UNL A   1      31.038  22.965  23.422  1.00  0.00     0.041 A 
ATOM     13  C   UNL A   1      33.355  24.394  22.873  1.00  0.00     0.049 A 
ATOM     14  C   UNL A   1      32.269  22.268  23.391  1.00  0.00     0.055 A 
BRANCH  10  15
ATOM     15  N   UNL A   1      29.788  25.082  23.338  1.00  0.00    -0.322 N 
ATOM     16  C   UNL A   1      29.501  26.154  24.157  1.00  0.00     0.255 C 
ATOM     17  O   UNL A   1      28.325  26.508  24.266  1.00  0.00    -0.269 OA
ATOM     18  H   UNL A   1      29.042  24.791  22.766  1.00  0.00     0.170 HD
BRANCH  16  19
ATOM     19  C   UNL A   1      30.551  26.962  24.847  1.00  0.00     0.043 A 
ATOM     20  C   UNL A   1      30.641  28.899  23.140  1.00  0.00     0.045 C 
ATOM     21  C   UNL A   1      31.089  28.179  24.379  1.00  0.00    -0.038 A 
ATOM     22  C   UNL A   1      32.099  28.810  25.134  1.00  0.00     0.004 A 
ATOM     23  C   UNL A   1      32.478  28.323  26.383  1.00  0.00     0.000 A 
ATOM     24  C   UNL A   1      30.918  26.505  26.127  1.00  0.00     0.014 A 
ATOM     25  C   UNL A   1      31.864  27.187  26.896  1.00  0.00     0.001 A 
ENDBRANCH  16  19
ENDBRANCH  10  15
BRANCH  14  26
ATOM     26  C   UNL A   1      32.221  20.803  23.619  1.00  0.00     0.128 A 
ATOM     27  N   UNL A   1      32.155  20.257  24.821  1.00  0.00    -0.236 NA
ATOM     28  S   UNL A   1      32.247  19.627  22.355  1.00  0.00    -0.114 S 
ATOM     29  C   UNL A   1      32.529  18.927  24.754  1.00  0.00     0.082 A 
ATOM     30  C   UNL A   1      32.778  18.445  23.472  1.00  0.00     0.055 A 
ATOM     31  C   UNL A   1      32.727  18.064  25.847  1.00  0.00     0.030 A 
ATOM     32  C   UNL A   1      33.344  17.185  23.239  1.00  0.00     0.021 A 
ATOM     33  C   UNL A   1      33.269  16.793  25.631  1.00  0.00     0.002 A 
ATOM     34  C   UNL A   1      33.607  16.376  24.346  1.00  0.00     0.002 A 
ENDBRANCH  14  26
ENDBRANCH   8   9
ENDBRANCH   7   8
ENDBRANCH   4   7
ENDBRANCH   2   3
ENDBRANCH   1   2
BRANCH   1  35
ATOM     35  C   UNL A   1      39.570  22.501  27.179  1.00  0.00     0.002 C 
BRANCH  35  36
ATOM     36  C   UNL A   1      41.084  22.242  27.236  1.00  0.00     0.002 C 
BRANCH  36  37
ATOM     37  C   UNL A   1      41.736  21.662  25.981  1.00  0.00     0.021 C 
BRANCH  37  38
ATOM     38  C   UNL A   1      42.701  20.516  26.234  1.00  0.00     0.116 C 
BRANCH  38  39
ATOM     39  N   UNL A   1      43.436  20.063  25.065  1.00  0.00    -0.352 N 
ATOM     40  C   UNL A   1      44.387  20.739  24.312  1.00  0.00     0.251 C 
ATOM     41  H   UNL A   1      43.231  19.147  24.765  1.00  0.00     0.163 HD
ATOM     42  O   UNL A   1      44.862  20.222  23.319  1.00  0.00    -0.269 OA
BRANCH  40  43
ATOM     43  C   UNL A   1      44.934  22.029  24.817  1.00  0.00     0.039 A 
ATOM     44  C   UNL A   1      45.606  22.001  26.044  1.00  0.00     0.014 A 
ATOM     45  C   UNL A   1      44.586  23.247  24.243  1.00  0.00     0.014 A 
ATOM     46  C   UNL A   1      45.659  23.159  26.816  1.00  0.00     0.010 A 
ATOM     47  C   UNL A   1      44.534  24.367  25.045  1.00  0.00     0.010 A 
ATOM     48  C   UNL A   1      44.999  24.298  26.358  1.00  0.00    -0.014 A 
BRANCH  48  49
ATOM     49  C   UNL A   1      44.688  25.435  27.209  1.00  0.00     0.031 A 
ATOM     50  C   UNL A   1      43.379  26.108  27.065  1.00  0.00     0.074 A 
ATOM     51  C   UNL A   1      45.572  25.850  28.148  1.00  0.00     0.049 A 
ATOM     52  N   UNL A   1      43.185  27.364  27.287  1.00  0.00    -0.248 NA
ATOM     53  C   UNL A   1      42.177  25.406  26.621  1.00  0.00     0.031 C 
ATOM     54  C   UNL A   1      45.336  26.863  29.177  1.00  0.00     0.029 A 
ATOM     55  N   UNL A   1      46.941  25.590  28.266  1.00  0.00    -0.354 N 
ATOM     56  C   UNL A   1      41.824  27.560  27.327  1.00  0.00     0.074 A 
ATOM     57  C   UNL A   1      41.241  26.342  26.814  1.00  0.00     0.031 C 
ATOM     58  C   UNL A   1      46.521  27.365  29.562  1.00  0.00     0.029 A 
ATOM     59  C   UNL A   1      47.527  26.796  28.681  1.00  0.00     0.049 A 
ATOM     60  H   UNL A   1      47.398  24.736  28.095  1.00  0.00     0.167 HD
ATOM     61  C   UNL A   1      41.314  28.662  27.945  1.00  0.00     0.031 A 
ATOM     62  C   UNL A   1      48.408  27.527  27.934  1.00  0.00     0.031 A 
ATOM     63  C   UNL A   1      42.364  29.526  28.474  1.00  0.00     0.049 A 
ATOM     64  C   UNL A   1      47.944  28.953  27.683  1.00  0.00     0.074 A 
ATOM     65  C   UNL A   1      42.901  29.677  29.741  1.00  0.00     0.029 A 
ATOM     66  N   UNL A   1      43.239  30.154  27.596  1.00  0.00    -0.354 N 
ATOM     67  N   UNL A   1      46.707  29.344  27.815  1.00  0.00    -0.248 NA
ATOM     68  C   UNL A   1      48.815  30.035  27.222  1.00  0.00     0.031 C 
ATOM     69  C   UNL A   1      44.144  30.349  29.614  1.00  0.00     0.029 A 
ATOM     70  C   UNL A   1      44.344  30.629  28.275  1.00  0.00     0.049 A 
ATOM     71  H   UNL A   1      43.093  30.247  26.627  1.00  0.00     0.167 HD
ATOM     72  C   UNL A   1      46.600  30.674  27.498  1.00  0.00     0.074 A 
ATOM     73  C   UNL A   1      47.949  31.062  27.132  1.00  0.00     0.031 C 
ATOM     74  C   UNL A   1      45.403  31.332  27.562  1.00  0.00     0.031 A 
BRANCH  61  75
ATOM     75  C   UNL A   1      39.864  28.758  28.342  1.00  0.00    -0.014 A 
ATOM     76  C   UNL A   1      38.946  29.397  27.490  1.00  0.00     0.009 A 
ATOM     77  C   UNL A   1      39.356  28.284  29.563  1.00  0.00     0.009 A 
ATOM     78  C   UNL A   1      37.624  29.647  27.878  1.00  0.00     0.001 A 
ATOM     79  C   UNL A   1      38.045  28.566  29.976  1.00  0.00     0.001 A 
ATOM     80  C   UNL A   1      37.182  29.260  29.136  1.00  0.00     0.000 A 
ENDBRANCH  61  75
BRANCH  62  81
ATOM     81  C   UNL A   1      49.217  26.727  26.976  1.00  0.00    -0.014 A 
ATOM     82  C   UNL A   1      49.078  26.995  25.601  1.00  0.00     0.009 A 
ATOM     83  C   UNL A   1      50.348  26.022  27.411  1.00  0.00     0.009 A 
ATOM     84  C   UNL A   1      50.106  26.687  24.706  1.00  0.00     0.001 A 
ATOM     85  C   UNL A   1      51.372  25.708  26.508  1.00  0.00     0.001 A 
ATOM     86  C   UNL A   1      51.269  26.078  25.167  1.00  0.00     0.000 A 
ENDBRANCH  62  81
BRANCH  74  87
ATOM     87  C   UNL A   1      45.098  32.718  27.039  1.00  0.00    -0.014 A 
ATOM     88  C   UNL A   1      44.522  32.992  25.793  1.00  0.00     0.009 A 
ATOM     89  C   UNL A   1      45.277  33.825  27.905  1.00  0.00     0.009 A 
ATOM     90  C   UNL A   1      44.181  34.302  25.419  1.00  0.00     0.001 A 
ATOM     91  C   UNL A   1      44.896  35.122  27.556  1.00  0.00     0.001 A 
ATOM     92  C   UNL A   1      44.356  35.363  26.303  1.00  0.00     0.000 A 
ENDBRANCH  74  87
ENDBRANCH  48  49
ENDBRANCH  40  43
ENDBRANCH  38  39
ENDBRANCH  37  38
ENDBRANCH  36  37
ENDBRANCH  35  36
ENDBRANCH   1  35
TORSDOF 18
ENDMDL
MODEL 3
REMARK VINA RESULT:     -11.7      2.654      8.628
REMARK SMILES Cc1ccccc1C(=O)Nc1ccc(OCC(=O)NCCCCCCNC(=O)c2ccc(-c3c4nc(c(-c5ccccc5)c5ccc([nH]5)c(-c5ccccc5)c5nc(c(-c6ccccc6)c6ccc3[nH]6)C=C5)C=C4)cc2)c(-c2nc3ccccc3s2)c1
REMARK SMILES IDX 21 1 20 2 19 3 17 4 18 5 16 7 15 8 14 9 11 10 12 11 87 12
REMARK SMILES IDX 13 13 77 14 10 15 8 16 9 17 7 19 1 20 2 21 3 22 4 23 6 24
REMARK SMILES IDX 5 25 78 26 79 27 86 28 80 29 85 30 81 31 84 32 82 33 83 34
REMARK SMILES IDX 22 35 23 36 24 37 25 38 26 39 27 40 28 42 29 43 30 44 76 45
REMARK SMILES IDX 31 46 75 47 32 48 33 49 34 50 69 51 35 52 74 53 68 54 70 55
REMARK SMILES IDX 36 56 73 57 67 58 66 59 37 61 59 62 44 63 58 64 45 65 48 66
REMARK SMILES IDX 57 67 71 68 46 69 47 70 56 72 72 73 49 74 38 75 39 76 43 77
REMARK SMILES IDX 40 78 42 79 41 80 60 81 61 82 65 83 62 84 64 85 63 86 50 87
REMARK SMILES IDX 51 88 55 89 52 90 54 91 53 92
REMARK H PARENT 19 6 10 18 26 41 70 60 48 71
REMARK Flexibility Score: inf
ROOT
ATOM      1  C   UNL A   1      39.884  25.070  27.186  1.00  0.00     0.021 C 
ENDROOT
BRANCH   1   2
ATOM      2  C   UNL A   1      38.599  24.456  26.634  1.00  0.00     0.116 C 
BRANCH   2   3
ATOM      3  N   UNL A   1      38.792  23.073  26.278  1.00  0.00    -0.353 N 
ATOM      4  C   UNL A   1      38.109  22.271  25.421  1.00  0.00     0.257 C 
ATOM      5  O   UNL A   1      38.470  21.094  25.391  1.00  0.00    -0.271 OA
ATOM      6  H   UNL A   1      39.548  22.636  26.733  1.00  0.00     0.163 HD
BRANCH   4   7
ATOM      7  C   UNL A   1      36.999  22.848  24.503  1.00  0.00     0.329 C 
BRANCH   7   8
ATOM      8  O   UNL A   1      35.691  22.299  24.366  1.00  0.00    -0.483 OA
BRANCH   8   9
ATOM      9  C   UNL A   1      34.696  23.066  24.902  1.00  0.00     0.130 A 
ATOM     10  C   UNL A   1      32.806  24.744  26.087  1.00  0.00     0.042 A 
ATOM     11  C   UNL A   1      34.015  25.273  25.639  1.00  0.00     0.030 A 
ATOM     12  C   UNL A   1      32.492  23.412  25.807  1.00  0.00     0.041 A 
ATOM     13  C   UNL A   1      34.975  24.427  25.087  1.00  0.00     0.049 A 
ATOM     14  C   UNL A   1      33.410  22.552  25.160  1.00  0.00     0.055 A 
BRANCH  10  15
ATOM     15  N   UNL A   1      31.976  25.583  26.842  1.00  0.00    -0.322 N 
ATOM     16  C   UNL A   1      31.483  26.842  26.570  1.00  0.00     0.255 C 
ATOM     17  O   UNL A   1      30.941  27.469  27.483  1.00  0.00    -0.269 OA
ATOM     18  H   UNL A   1      31.700  25.213  27.712  1.00  0.00     0.170 HD
BRANCH  16  19
ATOM     19  C   UNL A   1      31.491  27.447  25.204  1.00  0.00     0.043 A 
ATOM     20  C   UNL A   1      33.596  28.912  25.509  1.00  0.00     0.045 C 
ATOM     21  C   UNL A   1      32.418  28.400  24.732  1.00  0.00    -0.038 A 
ATOM     22  C   UNL A   1      32.274  28.896  23.421  1.00  0.00     0.004 A 
ATOM     23  C   UNL A   1      31.320  28.373  22.551  1.00  0.00     0.000 A 
ATOM     24  C   UNL A   1      30.558  26.903  24.300  1.00  0.00     0.014 A 
ATOM     25  C   UNL A   1      30.482  27.352  22.980  1.00  0.00     0.001 A 
ENDBRANCH  16  19
ENDBRANCH  10  15
BRANCH  14  26
ATOM     26  C   UNL A   1      32.955  21.169  24.878  1.00  0.00     0.128 A 
ATOM     27  N   UNL A   1      32.871  20.229  25.804  1.00  0.00    -0.236 NA
ATOM     28  S   UNL A   1      32.481  20.607  23.315  1.00  0.00    -0.114 S 
ATOM     29  C   UNL A   1      32.821  18.983  25.206  1.00  0.00     0.082 A 
ATOM     30  C   UNL A   1      32.764  18.995  23.815  1.00  0.00     0.055 A 
ATOM     31  C   UNL A   1      32.880  17.742  25.866  1.00  0.00     0.030 A 
ATOM     32  C   UNL A   1      32.897  17.831  23.046  1.00  0.00     0.021 A 
ATOM     33  C   UNL A   1      32.991  16.568  25.114  1.00  0.00     0.002 A 
ATOM     34  C   UNL A   1      33.035  16.618  23.723  1.00  0.00     0.002 A 
ENDBRANCH  14  26
ENDBRANCH   8   9
ENDBRANCH   7   8
ENDBRANCH   4   7
ENDBRANCH   2   3
ENDBRANCH   1   2
BRANCH   1  35
ATOM     35  C   UNL A   1      41.035  24.095  27.472  1.00  0.00     0.002 C 
BRANCH  35  36
ATOM     36  C   UNL A   1      42.161  24.575  28.401  1.00  0.00     0.002 C 
BRANCH  36  37
ATOM     37  C   UNL A   1      42.208  26.069  28.719  1.00  0.00     0.021 C 
BRANCH  37  38
ATOM     38  C   UNL A   1      43.322  26.836  28.027  1.00  0.00     0.116 C 
BRANCH  38  39
ATOM     39  N   UNL A   1      43.193  26.937  26.583  1.00  0.00    -0.352 N 
ATOM     40  C   UNL A   1      42.307  27.700  25.834  1.00  0.00     0.251 C 
ATOM     41  H   UNL A   1      43.823  26.387  26.062  1.00  0.00     0.163 HD
ATOM     42  O   UNL A   1      42.301  27.616  24.621  1.00  0.00    -0.269 OA
BRANCH  40  43
ATOM     43  C   UNL A   1      41.480  28.734  26.515  1.00  0.00     0.039 A 
ATOM     44  C   UNL A   1      42.148  29.649  27.337  1.00  0.00     0.014 A 
ATOM     45  C   UNL A   1      40.091  28.655  26.550  1.00  0.00     0.014 A 
ATOM     46  C   UNL A   1      41.456  30.256  28.381  1.00  0.00     0.010 A 
ATOM     47  C   UNL A   1      39.426  29.162  27.646  1.00  0.00     0.010 A 
ATOM     48  C   UNL A   1      40.128  29.895  28.602  1.00  0.00    -0.014 A 
BRANCH  48  49
ATOM     49  C   UNL A   1      39.419  30.182  29.838  1.00  0.00     0.031 A 
ATOM     50  C   UNL A   1      38.662  31.446  29.960  1.00  0.00     0.074 A 
ATOM     51  C   UNL A   1      39.423  29.286  30.854  1.00  0.00     0.049 A 
ATOM     52  N   UNL A   1      38.489  32.081  31.070  1.00  0.00    -0.248 NA
ATOM     53  C   UNL A   1      38.059  32.117  28.810  1.00  0.00     0.031 C 
ATOM     54  C   UNL A   1      38.630  29.360  32.081  1.00  0.00     0.029 A 
ATOM     55  N   UNL A   1      40.280  28.208  31.094  1.00  0.00    -0.354 N 
ATOM     56  C   UNL A   1      37.520  33.031  30.843  1.00  0.00     0.074 A 
ATOM     57  C   UNL A   1      37.353  33.081  29.410  1.00  0.00     0.031 C 
ATOM     58  C   UNL A   1      39.243  28.633  33.030  1.00  0.00     0.029 A 
ATOM     59  C   UNL A   1      40.517  28.206  32.478  1.00  0.00     0.049 A 
ATOM     60  H   UNL A   1      40.642  27.579  30.429  1.00  0.00     0.167 HD
ATOM     61  C   UNL A   1      36.832  33.562  31.892  1.00  0.00     0.031 A 
ATOM     62  C   UNL A   1      41.733  28.441  33.056  1.00  0.00     0.031 A 
ATOM     63  C   UNL A   1      37.283  33.023  33.171  1.00  0.00     0.049 A 
ATOM     64  C   UNL A   1      41.719  29.606  34.032  1.00  0.00     0.074 A 
ATOM     65  C   UNL A   1      36.786  32.025  33.993  1.00  0.00     0.029 A 
ATOM     66  N   UNL A   1      38.576  33.285  33.604  1.00  0.00    -0.354 N 
ATOM     67  N   UNL A   1      40.790  30.523  34.049  1.00  0.00    -0.248 NA
ATOM     68  C   UNL A   1      42.760  29.862  35.028  1.00  0.00     0.031 C 
ATOM     69  C   UNL A   1      37.815  31.643  34.891  1.00  0.00     0.029 A 
ATOM     70  C   UNL A   1      38.924  32.426  34.630  1.00  0.00     0.049 A 
ATOM     71  H   UNL A   1      39.163  33.983  33.233  1.00  0.00     0.167 HD
ATOM     72  C   UNL A   1      41.065  31.449  35.023  1.00  0.00     0.074 A 
ATOM     73  C   UNL A   1      42.310  30.991  35.609  1.00  0.00     0.031 C 
ATOM     74  C   UNL A   1      40.239  32.514  35.252  1.00  0.00     0.031 A 
BRANCH  61  75
ATOM     75  C   UNL A   1      35.539  34.313  31.703  1.00  0.00    -0.014 A 
ATOM     76  C   UNL A   1      34.754  34.078  30.560  1.00  0.00     0.009 A 
ATOM     77  C   UNL A   1      35.071  35.297  32.589  1.00  0.00     0.009 A 
ATOM     78  C   UNL A   1      33.627  34.854  30.262  1.00  0.00     0.001 A 
ATOM     79  C   UNL A   1      33.968  36.106  32.277  1.00  0.00     0.001 A 
ATOM     80  C   UNL A   1      33.254  35.891  31.105  1.00  0.00     0.000 A 
ENDBRANCH  61  75
BRANCH  62  81
ATOM     81  C   UNL A   1      42.900  28.066  32.214  1.00  0.00    -0.014 A 
ATOM     82  C   UNL A   1      43.475  29.056  31.394  1.00  0.00     0.009 A 
ATOM     83  C   UNL A   1      43.648  26.916  32.500  1.00  0.00     0.009 A 
ATOM     84  C   UNL A   1      44.808  28.961  30.986  1.00  0.00     0.001 A 
ATOM     85  C   UNL A   1      44.982  26.821  32.081  1.00  0.00     0.001 A 
ATOM     86  C   UNL A   1      45.572  27.861  31.363  1.00  0.00     0.000 A 
ENDBRANCH  62  81
BRANCH  74  87
ATOM     87  C   UNL A   1      40.523  33.714  36.127  1.00  0.00    -0.014 A 
ATOM     88  C   UNL A   1      41.801  34.154  36.489  1.00  0.00     0.009 A 
ATOM     89  C   UNL A   1      39.442  34.543  36.515  1.00  0.00     0.009 A 
ATOM     90  C   UNL A   1      41.986  35.334  37.227  1.00  0.00     0.001 A 
ATOM     91  C   UNL A   1      39.623  35.742  37.208  1.00  0.00     0.001 A 
ATOM     92  C   UNL A   1      40.901  36.132  37.575  1.00  0.00     0.000 A 
ENDBRANCH  74  87
ENDBRANCH  48  49
ENDBRANCH  40  43
ENDBRANCH  38  39
ENDBRANCH  37  38
ENDBRANCH  36  37
ENDBRANCH  35  36
ENDBRANCH   1  35
TORSDOF 18
ENDMDL
