MODEL 1
REMARK VINA RESULT:     -11.9      0.000      0.000
REMARK SMILES Cc1cccc(O[C@H](C)C(=O)N2CCC[C@@H](C(=O)NCCCCCCNC(=O)c3ccc(-c4c5nc(c(-c6ccccc6)c6ccc([nH]6)c(-c6ccccc6)c6nc(c(-c7ccccc7)c7ccc4[nH]7)C=C6)C=C5)cc3)C2)c1
REMARK SMILES IDX 21 1 20 2 19 3 17 4 18 5 16 7 12 8 13 9 77 10 14 11 15 12
REMARK SMILES IDX 10 13 11 14 8 15 9 16 7 17 6 18 1 19 2 20 3 21 78 22 4 23
REMARK SMILES IDX 5 24 22 25 23 26 24 27 25 28 26 29 27 30 28 32 29 33 30 34
REMARK SMILES IDX 76 35 31 36 75 37 32 38 33 39 34 40 69 41 35 42 74 43 68 44
REMARK SMILES IDX 70 45 36 46 73 47 67 48 66 49 37 51 59 52 44 53 58 54 45 55
REMARK SMILES IDX 48 56 57 57 71 58 46 59 47 60 56 62 72 63 49 64 38 65 39 66
REMARK SMILES IDX 43 67 40 68 42 69 41 70 60 71 61 72 65 73 62 74 64 75 63 76
REMARK SMILES IDX 50 77 51 78 55 79 52 80 54 81 53 82
REMARK H PARENT 19 6 26 31 70 50 48 61
REMARK Flexibility Score: inf
ROOT
ATOM      1  C   UNL A   1      34.753  21.853  26.985  1.00  0.00     0.021 C 
ENDROOT
BRANCH   1   2
ATOM      2  C   UNL A   1      33.353  21.279  26.787  1.00  0.00     0.116 C 
BRANCH   2   3
ATOM      3  N   UNL A   1      32.344  22.227  27.210  1.00  0.00    -0.356 N 
ATOM      4  C   UNL A   1      31.779  23.284  26.574  1.00  0.00     0.224 C 
ATOM      5  O   UNL A   1      31.038  24.005  27.251  1.00  0.00    -0.275 OA
ATOM      6  H   UNL A   1      32.007  22.077  28.123  1.00  0.00     0.163 HD
BRANCH   4   7
ATOM      7  C   UNL A   1      31.964  23.570  25.091  1.00  0.00     0.098 C 
ATOM      8  N   UNL A   1      33.050  24.863  23.288  1.00  0.00    -0.339 N 
ATOM      9  C   UNL A   1      33.154  23.663  22.448  1.00  0.00     0.119 C 
ATOM     10  C   UNL A   1      33.040  24.603  24.731  1.00  0.00     0.133 C 
ATOM     11  C   UNL A   1      32.098  22.615  22.783  1.00  0.00     0.022 C 
ATOM     12  C   UNL A   1      32.108  22.283  24.272  1.00  0.00     0.017 C 
BRANCH   8  13
ATOM     13  C   UNL A   1      33.049  26.092  22.646  1.00  0.00     0.263 C 
ATOM     14  O   UNL A   1      33.815  26.279  21.688  1.00  0.00    -0.271 OA
BRANCH  13  15
ATOM     15  C   UNL A   1      32.183  27.300  23.111  1.00  0.00     0.259 C 
ATOM     16  C   UNL A   1      32.768  28.285  24.115  1.00  0.00     0.064 C 
BRANCH  15  17
ATOM     17  O   UNL A   1      31.248  27.822  22.167  1.00  0.00    -0.481 OA
BRANCH  17  18
ATOM     18  C   UNL A   1      30.068  28.386  22.530  1.00  0.00     0.120 A 
ATOM     19  C   UNL A   1      28.263  31.601  21.523  1.00  0.00     0.044 C 
ATOM     20  C   UNL A   1      28.555  30.265  22.141  1.00  0.00    -0.047 A 
ATOM     21  C   UNL A   1      27.565  29.595  22.861  1.00  0.00     0.003 A 
ATOM     22  C   UNL A   1      29.811  29.657  21.996  1.00  0.00     0.049 A 
ATOM     23  C   UNL A   1      27.799  28.312  23.350  1.00  0.00     0.004 A 
ATOM     24  C   UNL A   1      29.046  27.706  23.178  1.00  0.00     0.046 A 
ENDBRANCH  17  18
ENDBRANCH  15  17
ENDBRANCH  13  15
ENDBRANCH   8  13
ENDBRANCH   4   7
ENDBRANCH   2   3
ENDBRANCH   1   2
BRANCH   1  25
ATOM     25  C   UNL A   1      35.536  22.160  25.700  1.00  0.00     0.002 C 
BRANCH  25  26
ATOM     26  C   UNL A   1      36.324  20.995  25.087  1.00  0.00     0.002 C 
BRANCH  26  27
ATOM     27  C   UNL A   1      37.842  21.173  25.040  1.00  0.00     0.021 C 
BRANCH  27  28
ATOM     28  C   UNL A   1      38.368  22.399  25.780  1.00  0.00     0.116 C 
BRANCH  28  29
ATOM     29  N   UNL A   1      39.800  22.349  26.047  1.00  0.00    -0.352 N 
ATOM     30  C   UNL A   1      40.667  23.323  26.518  1.00  0.00     0.251 C 
ATOM     31  H   UNL A   1      40.221  21.479  25.862  1.00  0.00     0.163 HD
ATOM     32  O   UNL A   1      41.847  23.063  26.656  1.00  0.00    -0.269 OA
BRANCH  30  33
ATOM     33  C   UNL A   1      40.141  24.636  26.975  1.00  0.00     0.039 A 
ATOM     34  C   UNL A   1      40.512  25.779  26.252  1.00  0.00     0.014 A 
ATOM     35  C   UNL A   1      39.429  24.775  28.160  1.00  0.00     0.014 A 
ATOM     36  C   UNL A   1      40.396  27.037  26.841  1.00  0.00     0.010 A 
ATOM     37  C   UNL A   1      39.387  26.006  28.779  1.00  0.00     0.010 A 
ATOM     38  C   UNL A   1      39.944  27.122  28.155  1.00  0.00    -0.014 A 
BRANCH  38  39
ATOM     39  C   UNL A   1      40.143  28.283  29.010  1.00  0.00     0.031 A 
ATOM     40  C   UNL A   1      39.087  29.296  29.186  1.00  0.00     0.074 A 
ATOM     41  C   UNL A   1      41.283  28.393  29.726  1.00  0.00     0.049 A 
ATOM     42  N   UNL A   1      39.322  30.528  29.493  1.00  0.00    -0.248 NA
ATOM     43  C   UNL A   1      37.668  29.006  28.998  1.00  0.00     0.031 C 
ATOM     44  C   UNL A   1      41.551  29.287  30.849  1.00  0.00     0.029 A 
ATOM     45  N   UNL A   1      42.518  27.827  29.469  1.00  0.00    -0.354 N 
ATOM     46  C   UNL A   1      38.122  31.090  29.848  1.00  0.00     0.074 A 
ATOM     47  C   UNL A   1      37.113  30.141  29.435  1.00  0.00     0.031 C 
ATOM     48  C   UNL A   1      42.880  29.392  31.017  1.00  0.00     0.029 A 
ATOM     49  C   UNL A   1      43.516  28.692  29.913  1.00  0.00     0.049 A 
ATOM     50  H   UNL A   1      42.668  26.953  29.040  1.00  0.00     0.167 HD
ATOM     51  C   UNL A   1      38.094  32.221  30.605  1.00  0.00     0.031 A 
ATOM     52  C   UNL A   1      44.412  29.258  29.051  1.00  0.00     0.031 A 
ATOM     53  C   UNL A   1      39.430  32.689  30.954  1.00  0.00     0.049 A 
ATOM     54  C   UNL A   1      44.346  30.772  29.008  1.00  0.00     0.074 A 
ATOM     55  C   UNL A   1      40.192  32.569  32.106  1.00  0.00     0.029 A 
ATOM     56  N   UNL A   1      40.289  33.126  29.957  1.00  0.00    -0.354 N 
ATOM     57  N   UNL A   1      43.334  31.471  29.439  1.00  0.00    -0.248 NA
ATOM     58  C   UNL A   1      45.395  31.616  28.441  1.00  0.00     0.031 C 
ATOM     59  C   UNL A   1      41.530  32.915  31.787  1.00  0.00     0.029 A 
ATOM     60  C   UNL A   1      41.572  33.263  30.449  1.00  0.00     0.049 A 
ATOM     61  H   UNL A   1      40.022  33.312  29.027  1.00  0.00     0.167 HD
ATOM     62  C   UNL A   1      43.566  32.808  29.232  1.00  0.00     0.074 A 
ATOM     63  C   UNL A   1      44.876  32.845  28.608  1.00  0.00     0.031 C 
ATOM     64  C   UNL A   1      42.645  33.752  29.591  1.00  0.00     0.031 A 
BRANCH  51  65
ATOM     65  C   UNL A   1      36.835  32.696  31.278  1.00  0.00    -0.014 A 
ATOM     66  C   UNL A   1      35.986  33.604  30.619  1.00  0.00     0.009 A 
ATOM     67  C   UNL A   1      36.457  32.313  32.575  1.00  0.00     0.009 A 
ATOM     68  C   UNL A   1      34.881  34.178  31.257  1.00  0.00     0.001 A 
ATOM     69  C   UNL A   1      35.375  32.914  33.234  1.00  0.00     0.001 A 
ATOM     70  C   UNL A   1      34.594  33.857  32.577  1.00  0.00     0.000 A 
ENDBRANCH  51  65
BRANCH  52  71
ATOM     71  C   UNL A   1      44.734  28.399  27.877  1.00  0.00    -0.014 A 
ATOM     72  C   UNL A   1      45.536  27.260  28.087  1.00  0.00     0.009 A 
ATOM     73  C   UNL A   1      43.966  28.472  26.706  1.00  0.00     0.009 A 
ATOM     74  C   UNL A   1      45.474  26.171  27.213  1.00  0.00     0.001 A 
ATOM     75  C   UNL A   1      43.917  27.383  25.826  1.00  0.00     0.001 A 
ATOM     76  C   UNL A   1      44.638  26.221  26.100  1.00  0.00     0.000 A 
ENDBRANCH  52  71
BRANCH  64  77
ATOM     77  C   UNL A   1      42.652  35.231  29.262  1.00  0.00    -0.014 A 
ATOM     78  C   UNL A   1      43.434  36.198  29.901  1.00  0.00     0.009 A 
ATOM     79  C   UNL A   1      41.891  35.681  28.153  1.00  0.00     0.009 A 
ATOM     80  C   UNL A   1      43.435  37.538  29.477  1.00  0.00     0.001 A 
ATOM     81  C   UNL A   1      41.923  37.001  27.699  1.00  0.00     0.001 A 
ATOM     82  C   UNL A   1      42.692  37.936  28.371  1.00  0.00     0.000 A 
ENDBRANCH  64  77
ENDBRANCH  38  39
ENDBRANCH  30  33
ENDBRANCH  28  29
ENDBRANCH  27  28
ENDBRANCH  26  27
ENDBRANCH  25  26
ENDBRANCH   1  25
TORSDOF 17
ENDMDL
MODEL 2
REMARK VINA RESULT:     -11.9      3.341      8.354
REMARK SMILES Cc1cccc(O[C@H](C)C(=O)N2CCC[C@@H](C(=O)NCCCCCCNC(=O)c3ccc(-c4c5nc(c(-c6ccccc6)c6ccc([nH]6)c(-c6ccccc6)c6nc(c(-c7ccccc7)c7ccc4[nH]7)C=C6)C=C5)cc3)C2)c1
REMARK SMILES IDX 21 1 20 2 19 3 17 4 18 5 16 7 12 8 13 9 77 10 14 11 15 12
REMARK SMILES IDX 10 13 11 14 8 15 9 16 7 17 6 18 1 19 2 20 3 21 78 22 4 23
REMARK SMILES IDX 5 24 22 25 23 26 24 27 25 28 26 29 27 30 28 32 29 33 30 34
REMARK SMILES IDX 76 35 31 36 75 37 32 38 33 39 34 40 69 41 35 42 74 43 68 44
REMARK SMILES IDX 70 45 36 46 73 47 67 48 66 49 37 51 59 52 44 53 58 54 45 55
REMARK SMILES IDX 48 56 57 57 71 58 46 59 47 60 56 62 72 63 49 64 38 65 39 66
REMARK SMILES IDX 43 67 40 68 42 69 41 70 60 71 61 72 65 73 62 74 64 75 63 76
REMARK SMILES IDX 50 77 51 78 55 79 52 80 54 81 53 82
REMARK H PARENT 19 6 26 31 70 50 48 61
REMARK Flexibility Score: inf
ROOT
ATOM      1  C   UNL A   1      31.089  27.074  26.825  1.00  0.00     0.021 C 
ENDROOT
BRANCH   1   2
ATOM      2  C   UNL A   1      31.199  25.746  26.079  1.00  0.00     0.116 C 
BRANCH   2   3
ATOM      3  N   UNL A   1      30.655  24.664  26.873  1.00  0.00    -0.356 N 
ATOM      4  C   UNL A   1      30.843  23.322  26.812  1.00  0.00     0.224 C 
ATOM      5  O   UNL A   1      30.123  22.629  27.538  1.00  0.00    -0.275 OA
ATOM      6  H   UNL A   1      30.039  24.954  27.584  1.00  0.00     0.163 HD
BRANCH   4   7
ATOM      7  C   UNL A   1      31.916  22.659  25.960  1.00  0.00     0.098 C 
ATOM      8  N   UNL A   1      34.217  21.790  25.723  1.00  0.00    -0.339 N 
ATOM      9  C   UNL A   1      33.739  20.656  24.922  1.00  0.00     0.119 C 
ATOM     10  C   UNL A   1      33.236  22.328  26.671  1.00  0.00     0.133 C 
ATOM     11  C   UNL A   1      32.427  20.953  24.204  1.00  0.00     0.022 C 
ATOM     12  C   UNL A   1      31.369  21.459  25.180  1.00  0.00     0.017 C 
BRANCH   8  13
ATOM     13  C   UNL A   1      35.539  22.175  25.559  1.00  0.00     0.263 C 
ATOM     14  O   UNL A   1      36.438  21.500  26.083  1.00  0.00    -0.271 OA
BRANCH  13  15
ATOM     15  C   UNL A   1      35.966  23.469  24.806  1.00  0.00     0.259 C 
ATOM     16  C   UNL A   1      36.715  23.341  23.484  1.00  0.00     0.064 C 
BRANCH  15  17
ATOM     17  O   UNL A   1      35.125  24.611  24.960  1.00  0.00    -0.481 OA
BRANCH  17  18
ATOM     18  C   UNL A   1      34.212  24.989  24.030  1.00  0.00     0.120 A 
ATOM     19  C   UNL A   1      33.023  28.380  22.729  1.00  0.00     0.044 C 
ATOM     20  C   UNL A   1      33.216  26.899  22.877  1.00  0.00    -0.047 A 
ATOM     21  C   UNL A   1      32.635  26.022  21.960  1.00  0.00     0.003 A 
ATOM     22  C   UNL A   1      33.989  26.369  23.921  1.00  0.00     0.049 A 
ATOM     23  C   UNL A   1      32.895  24.656  22.035  1.00  0.00     0.004 A 
ATOM     24  C   UNL A   1      33.688  24.141  23.063  1.00  0.00     0.046 A 
ENDBRANCH  17  18
ENDBRANCH  15  17
ENDBRANCH  13  15
ENDBRANCH   8  13
ENDBRANCH   4   7
ENDBRANCH   2   3
ENDBRANCH   1   2
BRANCH   1  25
ATOM     25  C   UNL A   1      32.203  28.092  26.542  1.00  0.00     0.002 C 
BRANCH  25  26
ATOM     26  C   UNL A   1      31.753  29.483  26.077  1.00  0.00     0.002 C 
BRANCH  26  27
ATOM     27  C   UNL A   1      32.399  30.665  26.800  1.00  0.00     0.021 C 
BRANCH  27  28
ATOM     28  C   UNL A   1      33.901  30.535  27.030  1.00  0.00     0.116 C 
BRANCH  28  29
ATOM     29  N   UNL A   1      34.425  31.475  28.012  1.00  0.00    -0.352 N 
ATOM     30  C   UNL A   1      35.544  31.402  28.827  1.00  0.00     0.251 C 
ATOM     31  H   UNL A   1      33.896  32.299  28.113  1.00  0.00     0.163 HD
ATOM     32  O   UNL A   1      35.790  32.312  29.596  1.00  0.00    -0.269 OA
BRANCH  30  33
ATOM     33  C   UNL A   1      36.511  30.284  28.673  1.00  0.00     0.039 A 
ATOM     34  C   UNL A   1      36.650  29.386  29.741  1.00  0.00     0.014 A 
ATOM     35  C   UNL A   1      37.369  30.193  27.584  1.00  0.00     0.014 A 
ATOM     36  C   UNL A   1      37.789  28.585  29.827  1.00  0.00     0.010 A 
ATOM     37  C   UNL A   1      38.534  29.465  27.704  1.00  0.00     0.010 A 
ATOM     38  C   UNL A   1      38.781  28.726  28.861  1.00  0.00    -0.014 A 
BRANCH  38  39
ATOM     39  C   UNL A   1      40.152  28.270  29.031  1.00  0.00     0.031 A 
ATOM     40  C   UNL A   1      40.607  26.985  28.471  1.00  0.00     0.074 A 
ATOM     41  C   UNL A   1      41.050  29.077  29.637  1.00  0.00     0.049 A 
ATOM     42  N   UNL A   1      41.588  26.300  28.959  1.00  0.00    -0.248 NA
ATOM     43  C   UNL A   1      39.969  26.347  27.324  1.00  0.00     0.031 C 
ATOM     44  C   UNL A   1      42.506  28.954  29.637  1.00  0.00     0.029 A 
ATOM     45  N   UNL A   1      40.818  30.097  30.541  1.00  0.00    -0.354 N 
ATOM     46  C   UNL A   1      41.905  25.337  28.035  1.00  0.00     0.074 A 
ATOM     47  C   UNL A   1      40.817  25.342  27.083  1.00  0.00     0.031 C 
ATOM     48  C   UNL A   1      43.006  29.675  30.654  1.00  0.00     0.029 A 
ATOM     49  C   UNL A   1      41.882  30.160  31.439  1.00  0.00     0.049 A 
ATOM     50  H   UNL A   1      40.027  30.684  30.550  1.00  0.00     0.167 HD
ATOM     51  C   UNL A   1      43.128  24.742  28.060  1.00  0.00     0.031 A 
ATOM     52  C   UNL A   1      41.710  29.926  32.773  1.00  0.00     0.031 A 
ATOM     53  C   UNL A   1      43.976  25.258  29.128  1.00  0.00     0.049 A 
ATOM     54  C   UNL A   1      42.495  28.737  33.292  1.00  0.00     0.074 A 
ATOM     55  C   UNL A   1      45.009  26.182  29.140  1.00  0.00     0.029 A 
ATOM     56  N   UNL A   1      43.616  25.052  30.453  1.00  0.00    -0.354 N 
ATOM     57  N   UNL A   1      42.992  27.803  32.530  1.00  0.00    -0.248 NA
ATOM     58  C   UNL A   1      42.749  28.485  34.708  1.00  0.00     0.031 C 
ATOM     59  C   UNL A   1      45.253  26.552  30.487  1.00  0.00     0.029 A 
ATOM     60  C   UNL A   1      44.382  25.838  31.290  1.00  0.00     0.049 A 
ATOM     61  H   UNL A   1      42.912  24.432  30.753  1.00  0.00     0.167 HD
ATOM     62  C   UNL A   1      43.617  26.855  33.301  1.00  0.00     0.074 A 
ATOM     63  C   UNL A   1      43.441  27.333  34.660  1.00  0.00     0.031 C 
ATOM     64  C   UNL A   1      44.213  25.762  32.736  1.00  0.00     0.031 A 
BRANCH  51  65
ATOM     65  C   UNL A   1      43.639  23.925  26.904  1.00  0.00    -0.014 A 
ATOM     66  C   UNL A   1      44.269  24.561  25.819  1.00  0.00     0.009 A 
ATOM     67  C   UNL A   1      43.491  22.531  26.813  1.00  0.00     0.009 A 
ATOM     68  C   UNL A   1      44.634  23.862  24.663  1.00  0.00     0.001 A 
ATOM     69  C   UNL A   1      43.818  21.832  25.644  1.00  0.00     0.001 A 
ATOM     70  C   UNL A   1      44.380  22.500  24.563  1.00  0.00     0.000 A 
ENDBRANCH  51  65
BRANCH  52  71
ATOM     71  C   UNL A   1      40.370  30.332  33.282  1.00  0.00    -0.014 A 
ATOM     72  C   UNL A   1      40.097  31.709  33.412  1.00  0.00     0.009 A 
ATOM     73  C   UNL A   1      39.293  29.434  33.255  1.00  0.00     0.009 A 
ATOM     74  C   UNL A   1      38.782  32.181  33.387  1.00  0.00     0.001 A 
ATOM     75  C   UNL A   1      37.976  29.913  33.243  1.00  0.00     0.001 A 
ATOM     76  C   UNL A   1      37.724  31.284  33.269  1.00  0.00     0.000 A 
ENDBRANCH  52  71
BRANCH  64  77
ATOM     77  C   UNL A   1      44.766  24.538  33.437  1.00  0.00    -0.014 A 
ATOM     78  C   UNL A   1      44.052  23.365  33.702  1.00  0.00     0.009 A 
ATOM     79  C   UNL A   1      46.144  24.513  33.768  1.00  0.00     0.009 A 
ATOM     80  C   UNL A   1      44.668  22.247  34.288  1.00  0.00     0.001 A 
ATOM     81  C   UNL A   1      46.773  23.389  34.309  1.00  0.00     0.001 A 
ATOM     82  C   UNL A   1      46.028  22.253  34.579  1.00  0.00     0.000 A 
ENDBRANCH  64  77
ENDBRANCH  38  39
ENDBRANCH  30  33
ENDBRANCH  28  29
ENDBRANCH  27  28
ENDBRANCH  26  27
ENDBRANCH  25  26
ENDBRANCH   1  25
TORSDOF 17
ENDMDL
MODEL 3
REMARK VINA RESULT:     -11.8      2.773      4.524
REMARK SMILES Cc1cccc(O[C@H](C)C(=O)N2CCC[C@@H](C(=O)NCCCCCCNC(=O)c3ccc(-c4c5nc(c(-c6ccccc6)c6ccc([nH]6)c(-c6ccccc6)c6nc(c(-c7ccccc7)c7ccc4[nH]7)C=C6)C=C5)cc3)C2)c1
REMARK SMILES IDX 21 1 20 2 19 3 17 4 18 5 16 7 12 8 13 9 77 10 14 11 15 12
REMARK SMILES IDX 10 13 11 14 8 15 9 16 7 17 6 18 1 19 2 20 3 21 78 22 4 23
REMARK SMILES IDX 5 24 22 25 23 26 24 27 25 28 26 29 27 30 28 32 29 33 30 34
REMARK SMILES IDX 76 35 31 36 75 37 32 38 33 39 34 40 69 41 35 42 74 43 68 44
REMARK SMILES IDX 70 45 36 46 73 47 67 48 66 49 37 51 59 52 44 53 58 54 45 55
REMARK SMILES IDX 48 56 57 57 71 58 46 59 47 60 56 62 72 63 49 64 38 65 39 66
REMARK SMILES IDX 43 67 40 68 42 69 41 70 60 71 61 72 65 73 62 74 64 75 63 76
REMARK SMILES IDX 50 77 51 78 55 79 52 80 54 81 53 82
REMARK H PARENT 19 6 26 31 70 50 48 61
REMARK Flexibility Score: inf
ROOT
ATOM      1  C   UNL A   1      38.511  23.617  26.514  1.00  0.00     0.021 C 
ENDROOT
BRANCH   1   2
ATOM      2  C   UNL A   1      37.116  23.514  25.905  1.00  0.00     0.116 C 
BRANCH   2   3
ATOM      3  N   UNL A   1      37.191  23.412  24.462  1.00  0.00    -0.356 N 
ATOM      4  C   UNL A   1      36.252  23.104  23.532  1.00  0.00     0.224 C 
ATOM      5  O   UNL A   1      36.651  22.953  22.373  1.00  0.00    -0.275 OA
ATOM      6  H   UNL A   1      38.082  23.601  24.090  1.00  0.00     0.163 HD
BRANCH   4   7
ATOM      7  C   UNL A   1      34.765  23.004  23.839  1.00  0.00     0.098 C 
ATOM      8  N   UNL A   1      32.424  23.507  23.231  1.00  0.00    -0.339 N 
ATOM      9  C   UNL A   1      31.988  22.181  23.688  1.00  0.00     0.119 C 
ATOM     10  C   UNL A   1      33.816  23.571  22.774  1.00  0.00     0.133 C 
ATOM     11  C   UNL A   1      32.913  21.588  24.745  1.00  0.00     0.022 C 
ATOM     12  C   UNL A   1      34.362  21.589  24.269  1.00  0.00     0.017 C 
BRANCH   8  13
ATOM     13  C   UNL A   1      31.474  24.517  23.207  1.00  0.00     0.263 C 
ATOM     14  O   UNL A   1      30.272  24.219  23.126  1.00  0.00    -0.271 OA
BRANCH  13  15
ATOM     15  C   UNL A   1      31.835  26.031  23.200  1.00  0.00     0.259 C 
ATOM     16  C   UNL A   1      32.434  26.642  21.939  1.00  0.00     0.064 C 
BRANCH  15  17
ATOM     17  O   UNL A   1      31.032  26.888  24.011  1.00  0.00    -0.481 OA
BRANCH  17  18
ATOM     18  C   UNL A   1      31.529  27.592  25.059  1.00  0.00     0.120 A 
ATOM     19  C   UNL A   1      31.404  31.281  26.051  1.00  0.00     0.044 C 
ATOM     20  C   UNL A   1      31.647  29.801  26.098  1.00  0.00    -0.047 A 
ATOM     21  C   UNL A   1      32.162  29.212  27.253  1.00  0.00     0.003 A 
ATOM     22  C   UNL A   1      31.350  28.982  24.998  1.00  0.00     0.049 A 
ATOM     23  C   UNL A   1      32.294  27.828  27.336  1.00  0.00     0.004 A 
ATOM     24  C   UNL A   1      31.971  27.020  26.244  1.00  0.00     0.046 A 
ENDBRANCH  17  18
ENDBRANCH  15  17
ENDBRANCH  13  15
ENDBRANCH   8  13
ENDBRANCH   4   7
ENDBRANCH   2   3
ENDBRANCH   1   2
BRANCH   1  25
ATOM     25  C   UNL A   1      39.491  22.499  26.131  1.00  0.00     0.002 C 
BRANCH  25  26
ATOM     26  C   UNL A   1      40.422  21.998  27.243  1.00  0.00     0.002 C 
BRANCH  26  27
ATOM     27  C   UNL A   1      40.778  20.512  27.191  1.00  0.00     0.021 C 
BRANCH  27  28
ATOM     28  C   UNL A   1      42.257  20.199  27.389  1.00  0.00     0.116 C 
BRANCH  28  29
ATOM     29  N   UNL A   1      42.923  19.735  26.179  1.00  0.00    -0.352 N 
ATOM     30  C   UNL A   1      43.704  20.417  25.258  1.00  0.00     0.251 C 
ATOM     31  H   UNL A   1      42.797  18.779  25.982  1.00  0.00     0.163 HD
ATOM     32  O   UNL A   1      44.156  19.826  24.296  1.00  0.00    -0.269 OA
BRANCH  30  33
ATOM     33  C   UNL A   1      44.096  21.829  25.508  1.00  0.00     0.039 A 
ATOM     34  C   UNL A   1      45.054  22.077  26.501  1.00  0.00     0.014 A 
ATOM     35  C   UNL A   1      43.446  22.896  24.900  1.00  0.00     0.014 A 
ATOM     36  C   UNL A   1      45.164  23.354  27.052  1.00  0.00     0.010 A 
ATOM     37  C   UNL A   1      43.492  24.139  25.495  1.00  0.00     0.010 A 
ATOM     38  C   UNL A   1      44.289  24.346  26.620  1.00  0.00    -0.014 A 
BRANCH  38  39
ATOM     39  C   UNL A   1      44.022  25.572  27.358  1.00  0.00     0.031 A 
ATOM     40  C   UNL A   1      42.693  26.208  27.331  1.00  0.00     0.074 A 
ATOM     41  C   UNL A   1      44.983  26.093  28.151  1.00  0.00     0.049 A 
ATOM     42  N   UNL A   1      42.501  27.472  27.521  1.00  0.00    -0.248 NA
ATOM     43  C   UNL A   1      41.464  25.471  27.056  1.00  0.00     0.031 C 
ATOM     44  C   UNL A   1      44.832  27.110  29.189  1.00  0.00     0.029 A 
ATOM     45  N   UNL A   1      46.353  25.930  28.064  1.00  0.00    -0.354 N 
ATOM     46  C   UNL A   1      41.153  27.650  27.708  1.00  0.00     0.074 A 
ATOM     47  C   UNL A   1      40.540  26.400  27.317  1.00  0.00     0.031 C 
ATOM     48  C   UNL A   1      46.035  27.643  29.457  1.00  0.00     0.029 A 
ATOM     49  C   UNL A   1      46.979  27.099  28.494  1.00  0.00     0.049 A 
ATOM     50  H   UNL A   1      46.813  25.119  27.747  1.00  0.00     0.167 HD
ATOM     51  C   UNL A   1      40.692  28.768  28.332  1.00  0.00     0.031 A 
ATOM     52  C   UNL A   1      47.750  27.851  27.655  1.00  0.00     0.031 A 
ATOM     53  C   UNL A   1      41.770  29.661  28.741  1.00  0.00     0.049 A 
ATOM     54  C   UNL A   1      47.227  29.258  27.441  1.00  0.00     0.074 A 
ATOM     55  C   UNL A   1      42.395  29.878  29.959  1.00  0.00     0.029 A 
ATOM     56  N   UNL A   1      42.563  30.270  27.778  1.00  0.00    -0.354 N 
ATOM     57  N   UNL A   1      46.006  29.631  27.705  1.00  0.00    -0.248 NA
ATOM     58  C   UNL A   1      48.024  30.345  26.877  1.00  0.00     0.031 C 
ATOM     59  C   UNL A   1      43.588  30.605  29.719  1.00  0.00     0.029 A 
ATOM     60  C   UNL A   1      43.676  30.844  28.359  1.00  0.00     0.049 A 
ATOM     61  H   UNL A   1      42.360  30.289  26.814  1.00  0.00     0.167 HD
ATOM     62  C   UNL A   1      45.839  30.952  27.374  1.00  0.00     0.074 A 
ATOM     63  C   UNL A   1      47.136  31.355  26.864  1.00  0.00     0.031 C 
ATOM     64  C   UNL A   1      44.637  31.580  27.548  1.00  0.00     0.031 A 
BRANCH  51  65
ATOM     65  C   UNL A   1      39.279  28.870  28.839  1.00  0.00    -0.014 A 
ATOM     66  C   UNL A   1      38.268  29.374  28.003  1.00  0.00     0.009 A 
ATOM     67  C   UNL A   1      38.897  28.522  30.145  1.00  0.00     0.009 A 
ATOM     68  C   UNL A   1      36.972  29.616  28.473  1.00  0.00     0.001 A 
ATOM     69  C   UNL A   1      37.613  28.798  30.634  1.00  0.00     0.001 A 
ATOM     70  C   UNL A   1      36.653  29.357  29.800  1.00  0.00     0.000 A 
ENDBRANCH  51  65
BRANCH  52  71
ATOM     71  C   UNL A   1      48.453  27.051  26.614  1.00  0.00    -0.014 A 
ATOM     72  C   UNL A   1      47.976  27.116  25.289  1.00  0.00     0.009 A 
ATOM     73  C   UNL A   1      49.754  26.575  26.836  1.00  0.00     0.009 A 
ATOM     74  C   UNL A   1      48.820  26.834  24.211  1.00  0.00     0.001 A 
ATOM     75  C   UNL A   1      50.591  26.282  25.751  1.00  0.00     0.001 A 
ATOM     76  C   UNL A   1      50.138  26.449  24.443  1.00  0.00     0.000 A 
ENDBRANCH  52  71
BRANCH  64  77
ATOM     77  C   UNL A   1      44.227  32.955  27.061  1.00  0.00    -0.014 A 
ATOM     78  C   UNL A   1      43.985  33.302  25.727  1.00  0.00     0.009 A 
ATOM     79  C   UNL A   1      43.959  33.962  28.022  1.00  0.00     0.009 A 
ATOM     80  C   UNL A   1      43.531  34.584  25.374  1.00  0.00     0.001 A 
ATOM     81  C   UNL A   1      43.464  35.223  27.681  1.00  0.00     0.001 A 
ATOM     82  C   UNL A   1      43.258  35.538  26.349  1.00  0.00     0.000 A 
ENDBRANCH  64  77
ENDBRANCH  38  39
ENDBRANCH  30  33
ENDBRANCH  28  29
ENDBRANCH  27  28
ENDBRANCH  26  27
ENDBRANCH  25  26
ENDBRANCH   1  25
TORSDOF 17
ENDMDL
