MODEL 1
REMARK VINA RESULT:     -11.6      0.000      0.000
REMARK SMILES CCCCOC(=O)[C@@H]1[C@H]2c3ccccc3[C@H](c3ccccc32)[C@@H]1C(=O)NCCCCCCNC(=O)c1ccc(-c2c3nc(c(-c4ccccc4)c4ccc([nH]4)c(-c4ccccc4)c4nc(c(-c5ccccc5)c5ccc2[nH]5)C=C4)C=C3)cc1
REMARK SMILES IDX 28 1 27 2 26 3 24 4 25 5 23 7 8 8 9 9 22 10 10 11 16 12
REMARK SMILES IDX 21 13 17 14 15 15 11 16 20 17 18 18 14 19 12 20 19 21 13 22
REMARK SMILES IDX 6 23 7 24 5 25 4 26 3 27 2 28 1 29 29 30 30 31 31 32 32 33
REMARK SMILES IDX 33 34 34 35 35 37 36 38 37 39 83 40 38 41 82 42 39 43 40 44
REMARK SMILES IDX 41 45 76 46 42 47 81 48 75 49 77 50 43 51 80 52 74 53 73 54
REMARK SMILES IDX 44 56 66 57 51 58 65 59 52 60 55 61 64 62 78 63 53 64 54 65
REMARK SMILES IDX 63 67 79 68 56 69 45 70 46 71 50 72 47 73 49 74 48 75 67 76
REMARK SMILES IDX 68 77 72 78 69 79 71 80 70 81 57 82 58 83 62 84 59 85 61 86
REMARK SMILES IDX 60 87
REMARK H PARENT 26 6 33 36 77 55 55 66
REMARK Flexibility Score: inf
ROOT
ATOM      1  C   UNL A   1      36.100  23.323  23.823  1.00  0.00     0.021 C 
ENDROOT
BRANCH   1   2
ATOM      2  C   UNL A   1      34.727  22.778  23.436  1.00  0.00     0.116 C 
BRANCH   2   3
ATOM      3  N   UNL A   1      34.043  23.661  22.515  1.00  0.00    -0.356 N 
ATOM      4  C   UNL A   1      33.413  24.850  22.662  1.00  0.00     0.224 C 
ATOM      5  O   UNL A   1      33.123  25.431  21.606  1.00  0.00    -0.275 OA
ATOM      6  H   UNL A   1      34.035  23.329  21.588  1.00  0.00     0.163 HD
BRANCH   4   7
ATOM      7  C   UNL A   1      32.952  25.470  23.982  1.00  0.00     0.105 C 
ATOM      8  C   UNL A   1      31.654  25.010  24.727  1.00  0.00     0.124 C 
ATOM      9  C   UNL A   1      30.810  26.263  25.130  1.00  0.00     0.065 C 
ATOM     10  C   UNL A   1      30.597  27.172  23.916  1.00  0.00    -0.036 A 
ATOM     11  C   UNL A   1      31.738  27.086  26.054  1.00  0.00    -0.036 A 
ATOM     12  C   UNL A   1      33.061  27.020  23.966  1.00  0.00     0.063 C 
ATOM     13  C   UNL A   1      29.384  27.717  23.515  1.00  0.00     0.004 A 
ATOM     14  C   UNL A   1      31.813  27.609  23.319  1.00  0.00    -0.036 A 
ATOM     15  C   UNL A   1      32.964  27.464  25.431  1.00  0.00    -0.036 A 
ATOM     16  C   UNL A   1      31.414  27.577  27.310  1.00  0.00     0.004 A 
ATOM     17  C   UNL A   1      29.388  28.716  22.536  1.00  0.00     0.000 A 
ATOM     18  C   UNL A   1      31.814  28.624  22.369  1.00  0.00     0.004 A 
ATOM     19  C   UNL A   1      33.874  28.289  26.077  1.00  0.00     0.004 A 
ATOM     20  C   UNL A   1      32.325  28.425  27.949  1.00  0.00     0.000 A 
ATOM     21  C   UNL A   1      30.593  29.176  21.980  1.00  0.00     0.000 A 
ATOM     22  C   UNL A   1      33.545  28.769  27.344  1.00  0.00     0.000 A 
BRANCH   8  23
ATOM     23  C   UNL A   1      30.914  23.837  24.120  1.00  0.00     0.310 C 
ATOM     24  O   UNL A   1      30.217  23.908  23.113  1.00  0.00    -0.252 OA
BRANCH  23  25
ATOM     25  O   UNL A   1      31.250  22.656  24.710  1.00  0.00    -0.465 OA
BRANCH  25  26
ATOM     26  C   UNL A   1      31.951  22.764  25.969  1.00  0.00     0.233 C 
BRANCH  26  27
ATOM     27  C   UNL A   1      32.848  21.549  26.205  1.00  0.00     0.041 C 
BRANCH  27  28
ATOM     28  C   UNL A   1      33.859  21.722  27.340  1.00  0.00     0.000 C 
ATOM     29  C   UNL A   1      34.670  23.004  27.211  1.00  0.00     0.004 C 
ENDBRANCH  27  28
ENDBRANCH  26  27
ENDBRANCH  25  26
ENDBRANCH  23  25
ENDBRANCH   8  23
ENDBRANCH   4   7
ENDBRANCH   2   3
ENDBRANCH   1   2
BRANCH   1  30
ATOM     30  C   UNL A   1      37.162  22.240  24.023  1.00  0.00     0.002 C 
BRANCH  30  31
ATOM     31  C   UNL A   1      36.673  20.988  24.761  1.00  0.00     0.002 C 
BRANCH  31  32
ATOM     32  C   UNL A   1      37.712  19.891  24.987  1.00  0.00     0.021 C 
BRANCH  32  33
ATOM     33  C   UNL A   1      38.983  20.365  25.678  1.00  0.00     0.116 C 
BRANCH  33  34
ATOM     34  N   UNL A   1      39.978  19.305  25.778  1.00  0.00    -0.352 N 
ATOM     35  C   UNL A   1      41.323  19.383  26.038  1.00  0.00     0.251 C 
ATOM     36  H   UNL A   1      39.633  18.393  25.637  1.00  0.00     0.163 HD
ATOM     37  O   UNL A   1      42.052  18.413  25.865  1.00  0.00    -0.269 OA
BRANCH  35  38
ATOM     38  C   UNL A   1      41.892  20.663  26.504  1.00  0.00     0.039 A 
ATOM     39  C   UNL A   1      41.947  20.950  27.868  1.00  0.00     0.014 A 
ATOM     40  C   UNL A   1      42.339  21.596  25.565  1.00  0.00     0.014 A 
ATOM     41  C   UNL A   1      42.268  22.233  28.286  1.00  0.00     0.010 A 
ATOM     42  C   UNL A   1      42.761  22.854  25.997  1.00  0.00     0.010 A 
ATOM     43  C   UNL A   1      42.682  23.198  27.356  1.00  0.00    -0.014 A 
BRANCH  43  44
ATOM     44  C   UNL A   1      43.045  24.560  27.818  1.00  0.00     0.031 A 
ATOM     45  C   UNL A   1      41.977  25.564  28.157  1.00  0.00     0.074 A 
ATOM     46  C   UNL A   1      44.346  24.883  27.945  1.00  0.00     0.049 A 
ATOM     47  N   UNL A   1      42.113  26.817  28.511  1.00  0.00    -0.248 NA
ATOM     48  C   UNL A   1      40.578  25.109  28.092  1.00  0.00     0.031 C 
ATOM     49  C   UNL A   1      45.467  23.978  27.683  1.00  0.00     0.029 A 
ATOM     50  N   UNL A   1      44.949  26.053  28.335  1.00  0.00    -0.354 N 
ATOM     51  C   UNL A   1      40.823  27.304  28.684  1.00  0.00     0.074 A 
ATOM     52  C   UNL A   1      39.915  26.222  28.378  1.00  0.00     0.031 C 
ATOM     53  C   UNL A   1      46.616  24.612  27.951  1.00  0.00     0.029 A 
ATOM     54  C   UNL A   1      46.322  25.992  28.317  1.00  0.00     0.049 A 
ATOM     55  H   UNL A   1      44.447  26.856  28.603  1.00  0.00     0.167 HD
ATOM     56  C   UNL A   1      40.441  28.543  29.070  1.00  0.00     0.031 A 
ATOM     57  C   UNL A   1      47.247  26.946  28.531  1.00  0.00     0.031 A 
ATOM     58  C   UNL A   1      41.359  29.607  29.386  1.00  0.00     0.049 A 
ATOM     59  C   UNL A   1      46.792  28.333  28.889  1.00  0.00     0.074 A 
ATOM     60  C   UNL A   1      41.064  30.890  29.813  1.00  0.00     0.029 A 
ATOM     61  N   UNL A   1      42.740  29.516  29.307  1.00  0.00    -0.354 N 
ATOM     62  N   UNL A   1      45.571  28.775  29.062  1.00  0.00    -0.248 NA
ATOM     63  C   UNL A   1      47.835  29.349  29.083  1.00  0.00     0.031 C 
ATOM     64  C   UNL A   1      42.259  31.599  29.913  1.00  0.00     0.029 A 
ATOM     65  C   UNL A   1      43.308  30.733  29.643  1.00  0.00     0.049 A 
ATOM     66  H   UNL A   1      43.241  28.709  29.052  1.00  0.00     0.167 HD
ATOM     67  C   UNL A   1      45.697  30.113  29.410  1.00  0.00     0.074 A 
ATOM     68  C   UNL A   1      47.115  30.407  29.437  1.00  0.00     0.031 C 
ATOM     69  C   UNL A   1      44.721  31.013  29.680  1.00  0.00     0.031 A 
BRANCH  56  70
ATOM     70  C   UNL A   1      38.970  28.850  29.168  1.00  0.00    -0.014 A 
ATOM     71  C   UNL A   1      38.297  29.369  28.049  1.00  0.00     0.009 A 
ATOM     72  C   UNL A   1      38.286  28.765  30.390  1.00  0.00     0.009 A 
ATOM     73  C   UNL A   1      36.982  29.827  28.158  1.00  0.00     0.001 A 
ATOM     74  C   UNL A   1      36.960  29.194  30.488  1.00  0.00     0.001 A 
ATOM     75  C   UNL A   1      36.315  29.738  29.377  1.00  0.00     0.000 A 
ENDBRANCH  56  70
BRANCH  57  76
ATOM     76  C   UNL A   1      48.688  26.602  28.395  1.00  0.00    -0.014 A 
ATOM     77  C   UNL A   1      49.300  26.594  27.130  1.00  0.00     0.009 A 
ATOM     78  C   UNL A   1      49.439  26.206  29.511  1.00  0.00     0.009 A 
ATOM     79  C   UNL A   1      50.618  26.157  26.977  1.00  0.00     0.001 A 
ATOM     80  C   UNL A   1      50.771  25.806  29.361  1.00  0.00     0.001 A 
ATOM     81  C   UNL A   1      51.353  25.768  28.095  1.00  0.00     0.000 A 
ENDBRANCH  57  76
BRANCH  69  82
ATOM     82  C   UNL A   1      45.125  32.410  30.064  1.00  0.00    -0.014 A 
ATOM     83  C   UNL A   1      45.337  33.369  29.058  1.00  0.00     0.009 A 
ATOM     84  C   UNL A   1      45.443  32.735  31.390  1.00  0.00     0.009 A 
ATOM     85  C   UNL A   1      45.892  34.611  29.366  1.00  0.00     0.001 A 
ATOM     86  C   UNL A   1      45.966  33.993  31.701  1.00  0.00     0.001 A 
ATOM     87  C   UNL A   1      46.205  34.922  30.688  1.00  0.00     0.000 A 
ENDBRANCH  69  82
ENDBRANCH  43  44
ENDBRANCH  35  38
ENDBRANCH  33  34
ENDBRANCH  32  33
ENDBRANCH  31  32
ENDBRANCH  30  31
ENDBRANCH   1  30
TORSDOF 18
ENDMDL
MODEL 2
REMARK VINA RESULT:     -11.6      0.635      5.671
REMARK SMILES CCCCOC(=O)[C@@H]1[C@H]2c3ccccc3[C@H](c3ccccc32)[C@@H]1C(=O)NCCCCCCNC(=O)c1ccc(-c2c3nc(c(-c4ccccc4)c4ccc([nH]4)c(-c4ccccc4)c4nc(c(-c5ccccc5)c5ccc2[nH]5)C=C4)C=C3)cc1
REMARK SMILES IDX 28 1 27 2 26 3 24 4 25 5 23 7 8 8 9 9 22 10 10 11 16 12
REMARK SMILES IDX 21 13 17 14 15 15 11 16 20 17 18 18 14 19 12 20 19 21 13 22
REMARK SMILES IDX 6 23 7 24 5 25 4 26 3 27 2 28 1 29 29 30 30 31 31 32 32 33
REMARK SMILES IDX 33 34 34 35 35 37 36 38 37 39 83 40 38 41 82 42 39 43 40 44
REMARK SMILES IDX 41 45 76 46 42 47 81 48 75 49 77 50 43 51 80 52 74 53 73 54
REMARK SMILES IDX 44 56 66 57 51 58 65 59 52 60 55 61 64 62 78 63 53 64 54 65
REMARK SMILES IDX 63 67 79 68 56 69 45 70 46 71 50 72 47 73 49 74 48 75 67 76
REMARK SMILES IDX 68 77 72 78 69 79 71 80 70 81 57 82 58 83 62 84 59 85 61 86
REMARK SMILES IDX 60 87
REMARK H PARENT 26 6 33 36 77 55 55 66
REMARK Flexibility Score: inf
ROOT
ATOM      1  C   UNL A   1      35.624  23.324  23.866  1.00  0.00     0.021 C 
ENDROOT
BRANCH   1   2
ATOM      2  C   UNL A   1      34.322  22.863  23.215  1.00  0.00     0.116 C 
BRANCH   2   3
ATOM      3  N   UNL A   1      33.783  23.871  22.327  1.00  0.00    -0.356 N 
ATOM      4  C   UNL A   1      33.303  25.121  22.524  1.00  0.00     0.224 C 
ATOM      5  O   UNL A   1      33.120  25.787  21.495  1.00  0.00    -0.275 OA
ATOM      6  H   UNL A   1      33.762  23.590  21.384  1.00  0.00     0.163 HD
BRANCH   4   7
ATOM      7  C   UNL A   1      32.883  25.726  23.864  1.00  0.00     0.105 C 
ATOM      8  C   UNL A   1      31.636  25.225  24.667  1.00  0.00     0.124 C 
ATOM      9  C   UNL A   1      30.771  26.451  25.109  1.00  0.00     0.065 C 
ATOM     10  C   UNL A   1      30.474  27.353  23.907  1.00  0.00    -0.036 A 
ATOM     11  C   UNL A   1      31.713  27.303  25.991  1.00  0.00    -0.036 A 
ATOM     12  C   UNL A   1      32.942  27.279  23.845  1.00  0.00     0.063 C 
ATOM     13  C   UNL A   1      29.228  27.859  23.563  1.00  0.00     0.004 A 
ATOM     14  C   UNL A   1      31.647  27.828  23.256  1.00  0.00    -0.036 A 
ATOM     15  C   UNL A   1      32.897  27.720  25.314  1.00  0.00    -0.036 A 
ATOM     16  C   UNL A   1      31.431  27.784  27.262  1.00  0.00     0.004 A 
ATOM     17  C   UNL A   1      29.156  28.858  22.586  1.00  0.00     0.000 A 
ATOM     18  C   UNL A   1      31.573  28.842  22.309  1.00  0.00     0.004 A 
ATOM     19  C   UNL A   1      33.809  28.573  25.918  1.00  0.00     0.004 A 
ATOM     20  C   UNL A   1      32.343  28.660  27.859  1.00  0.00     0.000 A 
ATOM     21  C   UNL A   1      30.318  29.355  21.977  1.00  0.00     0.000 A 
ATOM     22  C   UNL A   1      33.523  29.043  27.200  1.00  0.00     0.000 A 
BRANCH   8  23
ATOM     23  C   UNL A   1      30.906  24.029  24.093  1.00  0.00     0.310 C 
ATOM     24  O   UNL A   1      30.281  24.045  23.038  1.00  0.00    -0.252 OA
BRANCH  23  25
ATOM     25  O   UNL A   1      31.169  22.885  24.785  1.00  0.00    -0.465 OA
BRANCH  25  26
ATOM     26  C   UNL A   1      30.639  22.832  26.128  1.00  0.00     0.233 C 
BRANCH  26  27
ATOM     27  C   UNL A   1      31.764  22.804  27.162  1.00  0.00     0.041 C 
BRANCH  27  28
ATOM     28  C   UNL A   1      33.070  22.186  26.657  1.00  0.00     0.000 C 
ATOM     29  C   UNL A   1      34.302  22.867  27.238  1.00  0.00     0.004 C 
ENDBRANCH  27  28
ENDBRANCH  26  27
ENDBRANCH  25  26
ENDBRANCH  23  25
ENDBRANCH   8  23
ENDBRANCH   4   7
ENDBRANCH   2   3
ENDBRANCH   1   2
BRANCH   1  30
ATOM     30  C   UNL A   1      36.738  22.276  23.833  1.00  0.00     0.002 C 
BRANCH  30  31
ATOM     31  C   UNL A   1      36.574  21.131  24.838  1.00  0.00     0.002 C 
BRANCH  31  32
ATOM     32  C   UNL A   1      37.708  20.108  24.883  1.00  0.00     0.021 C 
BRANCH  32  33
ATOM     33  C   UNL A   1      38.887  20.517  25.756  1.00  0.00     0.116 C 
BRANCH  33  34
ATOM     34  N   UNL A   1      39.902  19.474  25.827  1.00  0.00    -0.352 N 
ATOM     35  C   UNL A   1      41.246  19.572  26.088  1.00  0.00     0.251 C 
ATOM     36  H   UNL A   1      39.575  18.560  25.662  1.00  0.00     0.163 HD
ATOM     37  O   UNL A   1      41.994  18.621  25.889  1.00  0.00    -0.269 OA
BRANCH  35  38
ATOM     38  C   UNL A   1      41.790  20.850  26.586  1.00  0.00     0.039 A 
ATOM     39  C   UNL A   1      41.786  21.127  27.954  1.00  0.00     0.014 A 
ATOM     40  C   UNL A   1      42.275  21.790  25.675  1.00  0.00     0.014 A 
ATOM     41  C   UNL A   1      42.085  22.408  28.394  1.00  0.00     0.010 A 
ATOM     42  C   UNL A   1      42.675  23.046  26.132  1.00  0.00     0.010 A 
ATOM     43  C   UNL A   1      42.536  23.381  27.489  1.00  0.00    -0.014 A 
BRANCH  43  44
ATOM     44  C   UNL A   1      42.876  24.740  27.976  1.00  0.00     0.031 A 
ATOM     45  C   UNL A   1      44.303  25.114  28.270  1.00  0.00     0.074 A 
ATOM     46  C   UNL A   1      41.890  25.644  28.135  1.00  0.00     0.049 A 
ATOM     47  N   UNL A   1      44.772  26.231  28.764  1.00  0.00    -0.248 NA
ATOM     48  C   UNL A   1      45.338  24.109  27.975  1.00  0.00     0.031 C 
ATOM     49  C   UNL A   1      40.475  25.406  27.843  1.00  0.00     0.029 A 
ATOM     50  N   UNL A   1      41.924  26.945  28.572  1.00  0.00    -0.354 N 
ATOM     51  C   UNL A   1      46.147  26.055  28.862  1.00  0.00     0.074 A 
ATOM     52  C   UNL A   1      46.439  24.717  28.398  1.00  0.00     0.031 C 
ATOM     53  C   UNL A   1      39.783  26.530  28.075  1.00  0.00     0.029 A 
ATOM     54  C   UNL A   1      40.686  27.539  28.616  1.00  0.00     0.049 A 
ATOM     55  H   UNL A   1      42.754  27.407  28.828  1.00  0.00     0.167 HD
ATOM     56  C   UNL A   1      47.075  26.937  29.298  1.00  0.00     0.031 A 
ATOM     57  C   UNL A   1      40.305  28.745  29.075  1.00  0.00     0.031 A 
ATOM     58  C   UNL A   1      46.771  28.272  29.744  1.00  0.00     0.049 A 
ATOM     59  C   UNL A   1      41.349  29.679  29.620  1.00  0.00     0.074 A 
ATOM     60  C   UNL A   1      47.650  29.249  30.177  1.00  0.00     0.029 A 
ATOM     61  N   UNL A   1      45.498  28.815  29.817  1.00  0.00    -0.354 N 
ATOM     62  N   UNL A   1      42.645  29.504  29.694  1.00  0.00    -0.248 NA
ATOM     63  C   UNL A   1      40.884  30.972  30.139  1.00  0.00     0.031 C 
ATOM     64  C   UNL A   1      46.905  30.351  30.589  1.00  0.00     0.029 A 
ATOM     65  C   UNL A   1      45.567  30.102  30.324  1.00  0.00     0.049 A 
ATOM     66  H   UNL A   1      44.670  28.357  29.548  1.00  0.00     0.167 HD
ATOM     67  C   UNL A   1      43.156  30.671  30.245  1.00  0.00     0.074 A 
ATOM     68  C   UNL A   1      42.030  31.554  30.472  1.00  0.00     0.031 C 
ATOM     69  C   UNL A   1      44.443  30.978  30.534  1.00  0.00     0.031 A 
BRANCH  56  70
ATOM     70  C   UNL A   1      48.519  26.510  29.336  1.00  0.00    -0.014 A 
ATOM     71  C   UNL A   1      49.028  25.901  30.497  1.00  0.00     0.009 A 
ATOM     72  C   UNL A   1      49.405  26.834  28.298  1.00  0.00     0.009 A 
ATOM     73  C   UNL A   1      50.396  25.655  30.630  1.00  0.00     0.001 A 
ATOM     74  C   UNL A   1      50.769  26.556  28.421  1.00  0.00     0.001 A 
ATOM     75  C   UNL A   1      51.265  25.981  29.591  1.00  0.00     0.000 A 
ENDBRANCH  56  70
BRANCH  57  76
ATOM     76  C   UNL A   1      38.863  29.111  29.042  1.00  0.00    -0.014 A 
ATOM     77  C   UNL A   1      38.312  29.727  27.906  1.00  0.00     0.009 A 
ATOM     78  C   UNL A   1      38.049  28.919  30.168  1.00  0.00     0.009 A 
ATOM     79  C   UNL A   1      36.991  30.182  27.910  1.00  0.00     0.001 A 
ATOM     80  C   UNL A   1      36.715  29.339  30.156  1.00  0.00     0.001 A 
ATOM     81  C   UNL A   1      36.193  29.982  29.034  1.00  0.00     0.000 A 
ENDBRANCH  57  76
BRANCH  69  82
ATOM     82  C   UNL A   1      44.741  32.337  31.106  1.00  0.00    -0.014 A 
ATOM     83  C   UNL A   1      44.667  32.534  32.496  1.00  0.00     0.009 A 
ATOM     84  C   UNL A   1      44.941  33.447  30.273  1.00  0.00     0.009 A 
ATOM     85  C   UNL A   1      44.751  33.816  33.037  1.00  0.00     0.001 A 
ATOM     86  C   UNL A   1      45.060  34.727  30.820  1.00  0.00     0.001 A 
ATOM     87  C   UNL A   1      44.949  34.911  32.198  1.00  0.00     0.000 A 
ENDBRANCH  69  82
ENDBRANCH  43  44
ENDBRANCH  35  38
ENDBRANCH  33  34
ENDBRANCH  32  33
ENDBRANCH  31  32
ENDBRANCH  30  31
ENDBRANCH   1  30
TORSDOF 18
ENDMDL
MODEL 3
REMARK VINA RESULT:     -11.5      5.441      9.828
REMARK SMILES CCCCOC(=O)[C@@H]1[C@H]2c3ccccc3[C@H](c3ccccc32)[C@@H]1C(=O)NCCCCCCNC(=O)c1ccc(-c2c3nc(c(-c4ccccc4)c4ccc([nH]4)c(-c4ccccc4)c4nc(c(-c5ccccc5)c5ccc2[nH]5)C=C4)C=C3)cc1
REMARK SMILES IDX 28 1 27 2 26 3 24 4 25 5 23 7 8 8 9 9 22 10 10 11 16 12
REMARK SMILES IDX 21 13 17 14 15 15 11 16 20 17 18 18 14 19 12 20 19 21 13 22
REMARK SMILES IDX 6 23 7 24 5 25 4 26 3 27 2 28 1 29 29 30 30 31 31 32 32 33
REMARK SMILES IDX 33 34 34 35 35 37 36 38 37 39 83 40 38 41 82 42 39 43 40 44
REMARK SMILES IDX 41 45 76 46 42 47 81 48 75 49 77 50 43 51 80 52 74 53 73 54
REMARK SMILES IDX 44 56 66 57 51 58 65 59 52 60 55 61 64 62 78 63 53 64 54 65
REMARK SMILES IDX 63 67 79 68 56 69 45 70 46 71 50 72 47 73 49 74 48 75 67 76
REMARK SMILES IDX 68 77 72 78 69 79 71 80 70 81 57 82 58 83 62 84 59 85 61 86
REMARK SMILES IDX 60 87
REMARK H PARENT 26 6 33 36 77 55 55 66
REMARK Flexibility Score: inf
ROOT
ATOM      1  C   UNL A   1      34.227  31.228  28.191  1.00  0.00     0.021 C 
ENDROOT
BRANCH   1   2
ATOM      2  C   UNL A   1      33.242  30.751  27.126  1.00  0.00     0.116 C 
BRANCH   2   3
ATOM      3  N   UNL A   1      33.833  29.751  26.262  1.00  0.00    -0.356 N 
ATOM      4  C   UNL A   1      33.385  29.079  25.178  1.00  0.00     0.224 C 
ATOM      5  O   UNL A   1      34.247  28.444  24.553  1.00  0.00    -0.275 OA
ATOM      6  H   UNL A   1      34.753  29.510  26.517  1.00  0.00     0.163 HD
BRANCH   4   7
ATOM      7  C   UNL A   1      31.928  28.957  24.729  1.00  0.00     0.105 C 
ATOM      8  C   UNL A   1      30.904  27.998  25.424  1.00  0.00     0.124 C 
ATOM      9  C   UNL A   1      30.142  27.170  24.337  1.00  0.00     0.065 C 
ATOM     10  C   UNL A   1      31.138  26.506  23.381  1.00  0.00    -0.036 A 
ATOM     11  C   UNL A   1      29.430  28.226  23.460  1.00  0.00    -0.036 A 
ATOM     12  C   UNL A   1      31.800  28.876  23.182  1.00  0.00     0.063 C 
ATOM     13  C   UNL A   1      31.117  25.174  22.988  1.00  0.00     0.004 A 
ATOM     14  C   UNL A   1      32.000  27.433  22.731  1.00  0.00    -0.036 A 
ATOM     15  C   UNL A   1      30.327  29.163  22.865  1.00  0.00    -0.036 A 
ATOM     16  C   UNL A   1      28.087  28.231  23.114  1.00  0.00     0.004 A 
ATOM     17  C   UNL A   1      31.939  24.775  21.929  1.00  0.00     0.000 A 
ATOM     18  C   UNL A   1      32.792  27.038  21.660  1.00  0.00     0.004 A 
ATOM     19  C   UNL A   1      29.875  30.120  21.969  1.00  0.00     0.004 A 
ATOM     20  C   UNL A   1      27.640  29.185  22.194  1.00  0.00     0.000 A 
ATOM     21  C   UNL A   1      32.757  25.701  21.261  1.00  0.00     0.000 A 
ATOM     22  C   UNL A   1      28.521  30.125  21.635  1.00  0.00     0.000 A 
BRANCH   8  23
ATOM     23  C   UNL A   1      31.405  27.253  26.643  1.00  0.00     0.310 C 
ATOM     24  O   UNL A   1      31.295  27.662  27.794  1.00  0.00    -0.252 OA
BRANCH  23  25
ATOM     25  O   UNL A   1      31.830  25.995  26.338  1.00  0.00    -0.465 OA
BRANCH  25  26
ATOM     26  C   UNL A   1      33.261  25.796  26.362  1.00  0.00     0.233 C 
BRANCH  26  27
ATOM     27  C   UNL A   1      33.653  24.531  25.599  1.00  0.00     0.041 C 
BRANCH  27  28
ATOM     28  C   UNL A   1      34.599  24.773  24.421  1.00  0.00     0.000 C 
ATOM     29  C   UNL A   1      34.835  23.516  23.593  1.00  0.00     0.004 C 
ENDBRANCH  27  28
ENDBRANCH  26  27
ENDBRANCH  25  26
ENDBRANCH  23  25
ENDBRANCH   8  23
ENDBRANCH   4   7
ENDBRANCH   2   3
ENDBRANCH   1   2
BRANCH   1  30
ATOM     30  C   UNL A   1      34.703  32.668  27.994  1.00  0.00     0.002 C 
BRANCH  30  31
ATOM     31  C   UNL A   1      34.401  33.612  29.164  1.00  0.00     0.002 C 
BRANCH  31  32
ATOM     32  C   UNL A   1      33.276  34.621  28.941  1.00  0.00     0.021 C 
BRANCH  32  33
ATOM     33  C   UNL A   1      33.499  35.968  29.616  1.00  0.00     0.116 C 
BRANCH  33  34
ATOM     34  N   UNL A   1      32.551  36.201  30.698  1.00  0.00    -0.352 N 
ATOM     35  C   UNL A   1      32.547  35.718  31.982  1.00  0.00     0.251 C 
ATOM     36  H   UNL A   1      31.799  36.796  30.473  1.00  0.00     0.163 HD
ATOM     37  O   UNL A   1      31.555  35.837  32.693  1.00  0.00    -0.269 OA
BRANCH  35  38
ATOM     38  C   UNL A   1      33.745  35.025  32.494  1.00  0.00     0.039 A 
ATOM     39  C   UNL A   1      34.982  35.669  32.489  1.00  0.00     0.014 A 
ATOM     40  C   UNL A   1      33.633  33.709  32.948  1.00  0.00     0.014 A 
ATOM     41  C   UNL A   1      36.134  34.943  32.754  1.00  0.00     0.010 A 
ATOM     42  C   UNL A   1      34.784  33.011  33.315  1.00  0.00     0.010 A 
ATOM     43  C   UNL A   1      36.048  33.607  33.174  1.00  0.00    -0.014 A 
BRANCH  43  44
ATOM     44  C   UNL A   1      37.285  32.848  33.478  1.00  0.00     0.031 A 
ATOM     45  C   UNL A   1      38.022  33.072  34.770  1.00  0.00     0.074 A 
ATOM     46  C   UNL A   1      37.733  31.941  32.589  1.00  0.00     0.049 A 
ATOM     47  N   UNL A   1      39.152  32.547  35.170  1.00  0.00    -0.248 NA
ATOM     48  C   UNL A   1      37.419  34.003  35.739  1.00  0.00     0.031 C 
ATOM     49  C   UNL A   1      37.077  31.611  31.321  1.00  0.00     0.029 A 
ATOM     50  N   UNL A   1      38.835  31.124  32.614  1.00  0.00    -0.354 N 
ATOM     51  C   UNL A   1      39.407  33.100  36.419  1.00  0.00     0.074 A 
ATOM     52  C   UNL A   1      38.328  34.018  36.706  1.00  0.00     0.031 C 
ATOM     53  C   UNL A   1      37.769  30.641  30.709  1.00  0.00     0.029 A 
ATOM     54  C   UNL A   1      38.961  30.342  31.492  1.00  0.00     0.049 A 
ATOM     55  H   UNL A   1      39.472  31.100  33.364  1.00  0.00     0.167 HD
ATOM     56  C   UNL A   1      40.448  32.855  37.247  1.00  0.00     0.031 A 
ATOM     57  C   UNL A   1      39.943  29.504  31.110  1.00  0.00     0.031 A 
ATOM     58  C   UNL A   1      41.509  31.926  36.954  1.00  0.00     0.049 A 
ATOM     59  C   UNL A   1      41.123  29.304  32.017  1.00  0.00     0.074 A 
ATOM     60  C   UNL A   1      42.593  31.590  37.746  1.00  0.00     0.029 A 
ATOM     61  N   UNL A   1      41.623  31.191  35.784  1.00  0.00    -0.354 N 
ATOM     62  N   UNL A   1      41.344  29.824  33.200  1.00  0.00    -0.248 NA
ATOM     63  C   UNL A   1      42.186  28.405  31.546  1.00  0.00     0.031 C 
ATOM     64  C   UNL A   1      43.404  30.718  37.024  1.00  0.00     0.029 A 
ATOM     65  C   UNL A   1      42.779  30.432  35.820  1.00  0.00     0.049 A 
ATOM     66  H   UNL A   1      40.978  31.206  35.041  1.00  0.00     0.167 HD
ATOM     67  C   UNL A   1      42.556  29.299  33.626  1.00  0.00     0.074 A 
ATOM     68  C   UNL A   1      43.017  28.407  32.581  1.00  0.00     0.031 C 
ATOM     69  C   UNL A   1      43.223  29.537  34.781  1.00  0.00     0.031 A 
BRANCH  56  70
ATOM     70  C   UNL A   1      40.525  33.598  38.554  1.00  0.00    -0.014 A 
ATOM     71  C   UNL A   1      39.835  33.100  39.674  1.00  0.00     0.009 A 
ATOM     72  C   UNL A   1      41.149  34.851  38.647  1.00  0.00     0.009 A 
ATOM     73  C   UNL A   1      39.741  33.854  40.846  1.00  0.00     0.001 A 
ATOM     74  C   UNL A   1      41.082  35.588  39.833  1.00  0.00     0.001 A 
ATOM     75  C   UNL A   1      40.366  35.096  40.924  1.00  0.00     0.000 A 
ENDBRANCH  56  70
BRANCH  57  76
ATOM     76  C   UNL A   1      39.836  28.813  29.796  1.00  0.00    -0.014 A 
ATOM     77  C   UNL A   1      39.350  27.496  29.722  1.00  0.00     0.009 A 
ATOM     78  C   UNL A   1      40.287  29.432  28.622  1.00  0.00     0.009 A 
ATOM     79  C   UNL A   1      39.357  26.799  28.512  1.00  0.00     0.001 A 
ATOM     80  C   UNL A   1      40.257  28.746  27.404  1.00  0.00     0.001 A 
ATOM     81  C   UNL A   1      39.806  27.428  27.353  1.00  0.00     0.000 A 
ENDBRANCH  57  76
BRANCH  69  82
ATOM     82  C   UNL A   1      44.519  28.812  35.019  1.00  0.00    -0.014 A 
ATOM     83  C   UNL A   1      45.718  29.358  34.528  1.00  0.00     0.009 A 
ATOM     84  C   UNL A   1      44.540  27.530  35.586  1.00  0.00     0.009 A 
ATOM     85  C   UNL A   1      46.901  28.623  34.566  1.00  0.00     0.001 A 
ATOM     86  C   UNL A   1      45.734  26.809  35.656  1.00  0.00     0.001 A 
ATOM     87  C   UNL A   1      46.909  27.349  35.131  1.00  0.00     0.000 A 
ENDBRANCH  69  82
ENDBRANCH  43  44
ENDBRANCH  35  38
ENDBRANCH  33  34
ENDBRANCH  32  33
ENDBRANCH  31  32
ENDBRANCH  30  31
ENDBRANCH   1  30
TORSDOF 18
ENDMDL
