MODEL 1
REMARK VINA RESULT:      -9.8      0.000      0.000
REMARK SMILES C[C@H]([NH2+]CC1(O)CCCC1)[C@H](C)C(=O)NCCCCCCNC(=O)c1ccc(-c2c3nc(c(-c4ccccc4)c4ccc([nH]4)c(-c4ccccc4)c4nc(c(-c5ccccc5)c5ccc2[nH]5)C=C4)C=C3)cc1
REMARK SMILES IDX 17 1 16 2 15 3 13 4 14 5 11 7 12 8 2 9 1 10 3 11 4 14 5 15
REMARK SMILES IDX 7 16 10 17 8 18 9 19 6 20 18 22 19 23 20 24 21 25 22 26
REMARK SMILES IDX 23 27 24 29 25 30 26 31 72 32 27 33 71 34 28 35 29 36 30 37
REMARK SMILES IDX 65 38 31 39 70 40 64 41 66 42 32 43 69 44 63 45 62 46 33 48
REMARK SMILES IDX 55 49 40 50 54 51 41 52 44 53 53 54 67 55 42 56 43 57 52 59
REMARK SMILES IDX 68 60 45 61 34 62 35 63 39 64 36 65 38 66 37 67 56 68 57 69
REMARK SMILES IDX 61 70 58 71 60 72 59 73 46 74 47 75 51 76 48 77 50 78 49 79
REMARK H PARENT 15 6 3 12 3 13 6 21 22 28 66 47 44 58
REMARK Flexibility Score: inf
ROOT
ATOM      1  C   UNL A   1      36.637  22.816  25.767  1.00  0.00     0.021 C 
ENDROOT
BRANCH   1   2
ATOM      2  C   UNL A   1      35.708  23.904  25.242  1.00  0.00     0.116 C 
BRANCH   2   3
ATOM      3  N   UNL A   1      35.056  23.498  24.014  1.00  0.00    -0.356 N 
ATOM      4  C   UNL A   1      33.824  22.958  23.813  1.00  0.00     0.228 C 
ATOM      5  O   UNL A   1      33.503  22.663  22.659  1.00  0.00    -0.275 OA
ATOM      6  H   UNL A   1      35.588  23.634  23.197  1.00  0.00     0.163 HD
BRANCH   4   7
ATOM      7  C   UNL A   1      32.871  22.707  24.977  1.00  0.00     0.133 C 
ATOM      8  C   UNL A   1      31.469  23.236  24.637  1.00  0.00     0.024 C 
BRANCH   7   9
ATOM      9  C   UNL A   1      32.971  21.235  25.488  1.00  0.00     0.191 C 
ATOM     10  C   UNL A   1      33.686  21.148  26.847  1.00  0.00     0.076 C 
BRANCH   9  11
ATOM     11  N   UNL A   1      33.478  20.363  24.411  1.00  0.00    -0.341 N 
ATOM     12  H   UNL A   1      34.234  19.800  24.803  1.00  0.00     0.346 HD
ATOM     13  H   UNL A   1      33.755  21.002  23.666  1.00  0.00     0.346 HD
BRANCH  11  14
ATOM     14  C   UNL A   1      32.529  19.447  23.785  1.00  0.00     0.296 C 
BRANCH  14  15
ATOM     15  C   UNL A   1      32.927  17.964  23.956  1.00  0.00     0.113 C 
ATOM     16  C   UNL A   1      32.398  17.325  25.243  1.00  0.00     0.041 C 
ATOM     17  C   UNL A   1      34.445  17.823  24.099  1.00  0.00     0.041 C 
ATOM     18  C   UNL A   1      33.350  16.163  25.524  1.00  0.00     0.003 C 
ATOM     19  C   UNL A   1      34.657  16.489  24.808  1.00  0.00     0.003 C 
BRANCH  15  20
ATOM     20  O   UNL A   1      32.483  17.228  22.811  1.00  0.00    -0.384 OA
ATOM     21  H   UNL A   1      31.993  16.443  23.102  1.00  0.00     0.211 HD
ENDBRANCH  15  20
ENDBRANCH  14  15
ENDBRANCH  11  14
ENDBRANCH   9  11
ENDBRANCH   7   9
ENDBRANCH   4   7
ENDBRANCH   2   3
ENDBRANCH   1   2
BRANCH   1  22
ATOM     22  C   UNL A   1      37.268  21.950  24.672  1.00  0.00     0.002 C 
BRANCH  22  23
ATOM     23  C   UNL A   1      36.929  20.458  24.751  1.00  0.00     0.002 C 
BRANCH  23  24
ATOM     24  C   UNL A   1      38.136  19.521  24.834  1.00  0.00     0.021 C 
BRANCH  24  25
ATOM     25  C   UNL A   1      39.063  19.784  26.014  1.00  0.00     0.116 C 
BRANCH  25  26
ATOM     26  N   UNL A   1      40.346  19.117  25.866  1.00  0.00    -0.352 N 
ATOM     27  C   UNL A   1      41.609  19.633  25.988  1.00  0.00     0.251 C 
ATOM     28  H   UNL A   1      40.300  18.158  25.645  1.00  0.00     0.163 HD
ATOM     29  O   UNL A   1      42.587  18.970  25.644  1.00  0.00    -0.269 OA
BRANCH  27  30
ATOM     30  C   UNL A   1      41.797  20.999  26.518  1.00  0.00     0.039 A 
ATOM     31  C   UNL A   1      41.736  21.203  27.898  1.00  0.00     0.014 A 
ATOM     32  C   UNL A   1      42.032  22.074  25.655  1.00  0.00     0.014 A 
ATOM     33  C   UNL A   1      41.968  22.477  28.418  1.00  0.00     0.010 A 
ATOM     34  C   UNL A   1      42.340  23.326  26.179  1.00  0.00     0.010 A 
ATOM     35  C   UNL A   1      42.305  23.542  27.566  1.00  0.00    -0.014 A 
BRANCH  35  36
ATOM     36  C   UNL A   1      42.622  24.887  28.106  1.00  0.00     0.031 A 
ATOM     37  C   UNL A   1      44.028  25.223  28.524  1.00  0.00     0.074 A 
ATOM     38  C   UNL A   1      41.635  25.789  28.274  1.00  0.00     0.049 A 
ATOM     39  N   UNL A   1      44.488  26.324  29.063  1.00  0.00    -0.248 NA
ATOM     40  C   UNL A   1      45.046  24.178  28.335  1.00  0.00     0.031 C 
ATOM     41  C   UNL A   1      40.226  25.574  27.941  1.00  0.00     0.029 A 
ATOM     42  N   UNL A   1      41.668  27.067  28.773  1.00  0.00    -0.354 N 
ATOM     43  C   UNL A   1      45.839  26.098  29.289  1.00  0.00     0.074 A 
ATOM     44  C   UNL A   1      46.115  24.739  28.879  1.00  0.00     0.031 C 
ATOM     45  C   UNL A   1      39.535  26.692  28.217  1.00  0.00     0.029 A 
ATOM     46  C   UNL A   1      40.440  27.684  28.787  1.00  0.00     0.049 A 
ATOM     47  H   UNL A   1      42.493  27.500  29.091  1.00  0.00     0.167 HD
ATOM     48  C   UNL A   1      46.774  26.951  29.775  1.00  0.00     0.031 A 
ATOM     49  C   UNL A   1      40.082  28.908  29.219  1.00  0.00     0.031 A 
ATOM     50  C   UNL A   1      46.500  28.304  30.178  1.00  0.00     0.049 A 
ATOM     51  C   UNL A   1      41.132  29.824  29.781  1.00  0.00     0.074 A 
ATOM     52  C   UNL A   1      47.388  29.262  30.634  1.00  0.00     0.029 A 
ATOM     53  N   UNL A   1      45.243  28.888  30.180  1.00  0.00    -0.354 N 
ATOM     54  N   UNL A   1      42.419  29.618  29.923  1.00  0.00    -0.248 NA
ATOM     55  C   UNL A   1      40.680  31.148  30.233  1.00  0.00     0.031 C 
ATOM     56  C   UNL A   1      46.659  30.408  30.971  1.00  0.00     0.029 A 
ATOM     57  C   UNL A   1      45.328  30.185  30.658  1.00  0.00     0.049 A 
ATOM     58  H   UNL A   1      44.414  28.447  29.885  1.00  0.00     0.167 HD
ATOM     59  C   UNL A   1      42.934  30.795  30.450  1.00  0.00     0.074 A 
ATOM     60  C   UNL A   1      41.824  31.716  30.586  1.00  0.00     0.031 C 
ATOM     61  C   UNL A   1      44.214  31.090  30.790  1.00  0.00     0.031 A 
BRANCH  48  62
ATOM     62  C   UNL A   1      48.180  26.435  29.907  1.00  0.00    -0.014 A 
ATOM     63  C   UNL A   1      49.105  26.554  28.855  1.00  0.00     0.009 A 
ATOM     64  C   UNL A   1      48.600  25.852  31.114  1.00  0.00     0.009 A 
ATOM     65  C   UNL A   1      50.405  26.066  28.997  1.00  0.00     0.001 A 
ATOM     66  C   UNL A   1      49.911  25.395  31.263  1.00  0.00     0.001 A 
ATOM     67  C   UNL A   1      50.809  25.493  30.203  1.00  0.00     0.000 A 
ENDBRANCH  48  62
BRANCH  49  68
ATOM     68  C   UNL A   1      38.663  29.344  29.130  1.00  0.00    -0.014 A 
ATOM     69  C   UNL A   1      37.790  29.159  30.213  1.00  0.00     0.009 A 
ATOM     70  C   UNL A   1      38.169  29.936  27.956  1.00  0.00     0.009 A 
ATOM     71  C   UNL A   1      36.446  29.530  30.112  1.00  0.00     0.001 A 
ATOM     72  C   UNL A   1      36.834  30.336  27.870  1.00  0.00     0.001 A 
ATOM     73  C   UNL A   1      35.972  30.122  28.944  1.00  0.00     0.000 A 
ENDBRANCH  49  68
BRANCH  61  74
ATOM     74  C   UNL A   1      44.490  32.476  31.303  1.00  0.00    -0.014 A 
ATOM     75  C   UNL A   1      44.795  33.533  30.431  1.00  0.00     0.009 A 
ATOM     76  C   UNL A   1      44.403  32.734  32.680  1.00  0.00     0.009 A 
ATOM     77  C   UNL A   1      45.042  34.812  30.933  1.00  0.00     0.001 A 
ATOM     78  C   UNL A   1      44.618  34.021  33.176  1.00  0.00     0.001 A 
ATOM     79  C   UNL A   1      44.947  35.056  32.303  1.00  0.00     0.000 A 
ENDBRANCH  61  74
ENDBRANCH  35  36
ENDBRANCH  27  30
ENDBRANCH  25  26
ENDBRANCH  24  25
ENDBRANCH  23  24
ENDBRANCH  22  23
ENDBRANCH   1  22
TORSDOF 18
ENDMDL
MODEL 2
REMARK VINA RESULT:      -9.7      4.495      9.614
REMARK SMILES C[C@H]([NH2+]CC1(O)CCCC1)[C@H](C)C(=O)NCCCCCCNC(=O)c1ccc(-c2c3nc(c(-c4ccccc4)c4ccc([nH]4)c(-c4ccccc4)c4nc(c(-c5ccccc5)c5ccc2[nH]5)C=C4)C=C3)cc1
REMARK SMILES IDX 17 1 16 2 15 3 13 4 14 5 11 7 12 8 2 9 1 10 3 11 4 14 5 15
REMARK SMILES IDX 7 16 10 17 8 18 9 19 6 20 18 22 19 23 20 24 21 25 22 26
REMARK SMILES IDX 23 27 24 29 25 30 26 31 72 32 27 33 71 34 28 35 29 36 30 37
REMARK SMILES IDX 65 38 31 39 70 40 64 41 66 42 32 43 69 44 63 45 62 46 33 48
REMARK SMILES IDX 55 49 40 50 54 51 41 52 44 53 53 54 67 55 42 56 43 57 52 59
REMARK SMILES IDX 68 60 45 61 34 62 35 63 39 64 36 65 38 66 37 67 56 68 57 69
REMARK SMILES IDX 61 70 58 71 60 72 59 73 46 74 47 75 51 76 48 77 50 78 49 79
REMARK H PARENT 15 6 3 12 3 13 6 21 22 28 66 47 44 58
REMARK Flexibility Score: inf
ROOT
ATOM      1  C   UNL A   1      33.308  28.601  26.929  1.00  0.00     0.021 C 
ENDROOT
BRANCH   1   2
ATOM      2  C   UNL A   1      33.393  27.242  26.245  1.00  0.00     0.116 C 
BRANCH   2   3
ATOM      3  N   UNL A   1      32.101  26.816  25.748  1.00  0.00    -0.356 N 
ATOM      4  C   UNL A   1      31.738  26.378  24.512  1.00  0.00     0.228 C 
ATOM      5  O   UNL A   1      30.551  26.099  24.323  1.00  0.00    -0.275 OA
ATOM      6  H   UNL A   1      31.372  26.848  26.407  1.00  0.00     0.163 HD
BRANCH   4   7
ATOM      7  C   UNL A   1      32.760  26.250  23.387  1.00  0.00     0.133 C 
ATOM      8  C   UNL A   1      32.634  24.874  22.713  1.00  0.00     0.024 C 
BRANCH   7   9
ATOM      9  C   UNL A   1      32.741  27.502  22.456  1.00  0.00     0.191 C 
ATOM     10  C   UNL A   1      33.813  28.530  22.857  1.00  0.00     0.076 C 
BRANCH   9  11
ATOM     11  N   UNL A   1      31.360  28.002  22.312  1.00  0.00    -0.341 N 
ATOM     12  H   UNL A   1      30.760  27.417  22.894  1.00  0.00     0.346 HD
ATOM     13  H   UNL A   1      31.170  27.958  21.311  1.00  0.00     0.346 HD
BRANCH  11  14
ATOM     14  C   UNL A   1      31.107  29.392  22.680  1.00  0.00     0.296 C 
BRANCH  14  15
ATOM     15  C   UNL A   1      29.644  29.820  22.429  1.00  0.00     0.113 C 
ATOM     16  C   UNL A   1      29.160  30.943  23.351  1.00  0.00     0.041 C 
ATOM     17  C   UNL A   1      28.681  28.672  22.749  1.00  0.00     0.041 C 
ATOM     18  C   UNL A   1      27.640  30.792  23.389  1.00  0.00     0.003 C 
ATOM     19  C   UNL A   1      27.338  29.342  23.021  1.00  0.00     0.003 C 
BRANCH  15  20
ATOM     20  O   UNL A   1      29.497  30.199  21.056  1.00  0.00    -0.384 OA
ATOM     21  H   UNL A   1      29.581  31.162  20.976  1.00  0.00     0.211 HD
ENDBRANCH  15  20
ENDBRANCH  14  15
ENDBRANCH  11  14
ENDBRANCH   9  11
ENDBRANCH   7   9
ENDBRANCH   4   7
ENDBRANCH   2   3
ENDBRANCH   1   2
BRANCH   1  22
ATOM     22  C   UNL A   1      31.889  29.173  27.009  1.00  0.00     0.002 C 
BRANCH  22  23
ATOM     23  C   UNL A   1      31.603  30.334  26.051  1.00  0.00     0.002 C 
BRANCH  23  24
ATOM     24  C   UNL A   1      31.429  31.700  26.719  1.00  0.00     0.021 C 
BRANCH  24  25
ATOM     25  C   UNL A   1      32.731  32.386  27.109  1.00  0.00     0.116 C 
BRANCH  25  26
ATOM     26  N   UNL A   1      32.514  33.729  27.623  1.00  0.00    -0.352 N 
ATOM     27  C   UNL A   1      33.230  34.423  28.561  1.00  0.00     0.251 C 
ATOM     28  H   UNL A   1      31.741  34.206  27.242  1.00  0.00     0.163 HD
ATOM     29  O   UNL A   1      32.796  35.480  29.017  1.00  0.00    -0.269 OA
BRANCH  27  30
ATOM     30  C   UNL A   1      34.520  33.890  29.044  1.00  0.00     0.039 A 
ATOM     31  C   UNL A   1      34.530  33.057  30.165  1.00  0.00     0.014 A 
ATOM     32  C   UNL A   1      35.716  34.209  28.392  1.00  0.00     0.014 A 
ATOM     33  C   UNL A   1      35.734  32.498  30.599  1.00  0.00     0.010 A 
ATOM     34  C   UNL A   1      36.900  33.591  28.778  1.00  0.00     0.010 A 
ATOM     35  C   UNL A   1      36.923  32.733  29.889  1.00  0.00    -0.014 A 
BRANCH  35  36
ATOM     36  C   UNL A   1      38.198  32.093  30.296  1.00  0.00     0.031 A 
ATOM     37  C   UNL A   1      39.126  32.792  31.252  1.00  0.00     0.074 A 
ATOM     38  C   UNL A   1      38.550  30.907  29.761  1.00  0.00     0.049 A 
ATOM     39  N   UNL A   1      40.303  32.416  31.684  1.00  0.00    -0.248 NA
ATOM     40  C   UNL A   1      38.684  34.096  31.773  1.00  0.00     0.031 C 
ATOM     41  C   UNL A   1      37.757  30.143  28.797  1.00  0.00     0.029 A 
ATOM     42  N   UNL A   1      39.672  30.139  29.952  1.00  0.00    -0.354 N 
ATOM     43  C   UNL A   1      40.746  33.440  32.512  1.00  0.00     0.074 A 
ATOM     44  C   UNL A   1      39.737  34.476  32.480  1.00  0.00     0.031 C 
ATOM     45  C   UNL A   1      38.401  29.003  28.504  1.00  0.00     0.029 A 
ATOM     46  C   UNL A   1      39.672  28.975  29.221  1.00  0.00     0.049 A 
ATOM     47  H   UNL A   1      40.406  30.398  30.554  1.00  0.00     0.167 HD
ATOM     48  C   UNL A   1      41.881  33.504  33.250  1.00  0.00     0.031 A 
ATOM     49  C   UNL A   1      40.595  28.000  29.131  1.00  0.00     0.031 A 
ATOM     50  C   UNL A   1      42.881  32.472  33.285  1.00  0.00     0.049 A 
ATOM     51  C   UNL A   1      41.859  28.110  29.937  1.00  0.00     0.074 A 
ATOM     52  C   UNL A   1      44.040  32.421  34.039  1.00  0.00     0.029 A 
ATOM     53  N   UNL A   1      42.845  31.312  32.527  1.00  0.00    -0.354 N 
ATOM     54  N   UNL A   1      42.231  29.052  30.768  1.00  0.00    -0.248 NA
ATOM     55  C   UNL A   1      42.828  27.012  29.799  1.00  0.00     0.031 C 
ATOM     56  C   UNL A   1      44.736  31.259  33.693  1.00  0.00     0.029 A 
ATOM     57  C   UNL A   1      43.977  30.552  32.774  1.00  0.00     0.049 A 
ATOM     58  H   UNL A   1      42.122  31.064  31.906  1.00  0.00     0.167 HD
ATOM     59  C   UNL A   1      43.459  28.648  31.275  1.00  0.00     0.074 A 
ATOM     60  C   UNL A   1      43.760  27.366  30.672  1.00  0.00     0.031 C 
ATOM     61  C   UNL A   1      44.265  29.279  32.164  1.00  0.00     0.031 A 
BRANCH  48  62
ATOM     62  C   UNL A   1      42.103  34.745  34.072  1.00  0.00    -0.014 A 
ATOM     63  C   UNL A   1      41.566  34.872  35.363  1.00  0.00     0.009 A 
ATOM     64  C   UNL A   1      42.892  35.788  33.561  1.00  0.00     0.009 A 
ATOM     65  C   UNL A   1      41.781  36.033  36.109  1.00  0.00     0.001 A 
ATOM     66  C   UNL A   1      43.133  36.934  34.322  1.00  0.00     0.001 A 
ATOM     67  C   UNL A   1      42.569  37.060  35.590  1.00  0.00     0.000 A 
ENDBRANCH  48  62
BRANCH  49  68
ATOM     68  C   UNL A   1      40.357  26.826  28.249  1.00  0.00    -0.014 A 
ATOM     69  C   UNL A   1      40.834  26.817  26.929  1.00  0.00     0.009 A 
ATOM     70  C   UNL A   1      39.640  25.714  28.717  1.00  0.00     0.009 A 
ATOM     71  C   UNL A   1      40.572  25.732  26.088  1.00  0.00     0.001 A 
ATOM     72  C   UNL A   1      39.408  24.617  27.885  1.00  0.00     0.001 A 
ATOM     73  C   UNL A   1      39.864  24.632  26.568  1.00  0.00     0.000 A 
ENDBRANCH  49  68
BRANCH  61  74
ATOM     74  C   UNL A   1      45.531  28.576  32.568  1.00  0.00    -0.014 A 
ATOM     75  C   UNL A   1      46.741  28.797  31.890  1.00  0.00     0.009 A 
ATOM     76  C   UNL A   1      45.519  27.710  33.672  1.00  0.00     0.009 A 
ATOM     77  C   UNL A   1      47.904  28.135  32.290  1.00  0.00     0.001 A 
ATOM     78  C   UNL A   1      46.690  27.075  34.090  1.00  0.00     0.001 A 
ATOM     79  C   UNL A   1      47.879  27.281  33.392  1.00  0.00     0.000 A 
ENDBRANCH  61  74
ENDBRANCH  35  36
ENDBRANCH  27  30
ENDBRANCH  25  26
ENDBRANCH  24  25
ENDBRANCH  23  24
ENDBRANCH  22  23
ENDBRANCH   1  22
TORSDOF 18
ENDMDL
MODEL 3
REMARK VINA RESULT:      -9.7      4.562      9.674
REMARK SMILES C[C@H]([NH2+]CC1(O)CCCC1)[C@H](C)C(=O)NCCCCCCNC(=O)c1ccc(-c2c3nc(c(-c4ccccc4)c4ccc([nH]4)c(-c4ccccc4)c4nc(c(-c5ccccc5)c5ccc2[nH]5)C=C4)C=C3)cc1
REMARK SMILES IDX 17 1 16 2 15 3 13 4 14 5 11 7 12 8 2 9 1 10 3 11 4 14 5 15
REMARK SMILES IDX 7 16 10 17 8 18 9 19 6 20 18 22 19 23 20 24 21 25 22 26
REMARK SMILES IDX 23 27 24 29 25 30 26 31 72 32 27 33 71 34 28 35 29 36 30 37
REMARK SMILES IDX 65 38 31 39 70 40 64 41 66 42 32 43 69 44 63 45 62 46 33 48
REMARK SMILES IDX 55 49 40 50 54 51 41 52 44 53 53 54 67 55 42 56 43 57 52 59
REMARK SMILES IDX 68 60 45 61 34 62 35 63 39 64 36 65 38 66 37 67 56 68 57 69
REMARK SMILES IDX 61 70 58 71 60 72 59 73 46 74 47 75 51 76 48 77 50 78 49 79
REMARK H PARENT 15 6 3 12 3 13 6 21 22 28 66 47 44 58
REMARK Flexibility Score: inf
ROOT
ATOM      1  C   UNL A   1      33.928  29.384  27.216  1.00  0.00     0.021 C 
ENDROOT
BRANCH   1   2
ATOM      2  C   UNL A   1      34.277  28.248  26.261  1.00  0.00     0.116 C 
BRANCH   2   3
ATOM      3  N   UNL A   1      33.245  27.233  26.243  1.00  0.00    -0.356 N 
ATOM      4  C   UNL A   1      32.773  26.481  25.212  1.00  0.00     0.228 C 
ATOM      5  O   UNL A   1      31.852  25.694  25.445  1.00  0.00    -0.275 OA
ATOM      6  H   UNL A   1      32.817  27.060  27.112  1.00  0.00     0.163 HD
BRANCH   4   7
ATOM      7  C   UNL A   1      33.349  26.617  23.807  1.00  0.00     0.133 C 
ATOM      8  C   UNL A   1      33.451  25.234  23.142  1.00  0.00     0.024 C 
BRANCH   7   9
ATOM      9  C   UNL A   1      32.626  27.741  23.000  1.00  0.00     0.191 C 
ATOM     10  C   UNL A   1      33.532  28.966  22.788  1.00  0.00     0.076 C 
BRANCH   9  11
ATOM     11  N   UNL A   1      31.291  27.993  23.575  1.00  0.00    -0.341 N 
ATOM     12  H   UNL A   1      31.336  28.878  24.079  1.00  0.00     0.346 HD
ATOM     13  H   UNL A   1      31.096  27.174  24.151  1.00  0.00     0.346 HD
BRANCH  11  14
ATOM     14  C   UNL A   1      30.165  28.074  22.648  1.00  0.00     0.296 C 
BRANCH  14  15
ATOM     15  C   UNL A   1      29.699  29.526  22.399  1.00  0.00     0.113 C 
ATOM     16  C   UNL A   1      29.663  30.390  23.662  1.00  0.00     0.041 C 
ATOM     17  C   UNL A   1      28.245  29.553  21.920  1.00  0.00     0.041 C 
ATOM     18  C   UNL A   1      28.652  31.493  23.353  1.00  0.00     0.003 C 
ATOM     19  C   UNL A   1      27.740  30.953  22.255  1.00  0.00     0.003 C 
BRANCH  15  20
ATOM     20  O   UNL A   1      30.541  30.122  21.406  1.00  0.00    -0.384 OA
ATOM     21  H   UNL A   1      31.435  30.234  21.765  1.00  0.00     0.211 HD
ENDBRANCH  15  20
ENDBRANCH  14  15
ENDBRANCH  11  14
ENDBRANCH   9  11
ENDBRANCH   7   9
ENDBRANCH   4   7
ENDBRANCH   2   3
ENDBRANCH   1   2
BRANCH   1  22
ATOM     22  C   UNL A   1      32.423  29.613  27.391  1.00  0.00     0.002 C 
BRANCH  22  23
ATOM     23  C   UNL A   1      31.781  30.531  26.347  1.00  0.00     0.002 C 
BRANCH  23  24
ATOM     24  C   UNL A   1      31.482  31.953  26.827  1.00  0.00     0.021 C 
BRANCH  24  25
ATOM     25  C   UNL A   1      32.696  32.871  26.887  1.00  0.00     0.116 C 
BRANCH  25  26
ATOM     26  N   UNL A   1      32.465  34.035  27.726  1.00  0.00    -0.352 N 
ATOM     27  C   UNL A   1      33.158  34.458  28.829  1.00  0.00     0.251 C 
ATOM     28  H   UNL A   1      31.701  34.600  27.464  1.00  0.00     0.163 HD
ATOM     29  O   UNL A   1      32.712  35.363  29.533  1.00  0.00    -0.269 OA
BRANCH  27  30
ATOM     30  C   UNL A   1      34.437  33.811  29.186  1.00  0.00     0.039 A 
ATOM     31  C   UNL A   1      35.609  34.236  28.556  1.00  0.00     0.014 A 
ATOM     32  C   UNL A   1      34.479  32.788  30.139  1.00  0.00     0.014 A 
ATOM     33  C   UNL A   1      36.832  33.674  28.924  1.00  0.00     0.010 A 
ATOM     34  C   UNL A   1      35.707  32.286  30.559  1.00  0.00     0.010 A 
ATOM     35  C   UNL A   1      36.896  32.719  29.951  1.00  0.00    -0.014 A 
BRANCH  35  36
ATOM     36  C   UNL A   1      38.195  32.162  30.402  1.00  0.00     0.031 A 
ATOM     37  C   UNL A   1      38.696  30.859  29.841  1.00  0.00     0.074 A 
ATOM     38  C   UNL A   1      38.899  32.798  31.358  1.00  0.00     0.049 A 
ATOM     39  N   UNL A   1      39.779  30.190  30.146  1.00  0.00    -0.248 NA
ATOM     40  C   UNL A   1      37.859  30.209  28.819  1.00  0.00     0.031 C 
ATOM     41  C   UNL A   1      38.506  34.050  32.009  1.00  0.00     0.029 A 
ATOM     42  N   UNL A   1      40.093  32.475  31.953  1.00  0.00    -0.354 N 
ATOM     43  C   UNL A   1      39.745  29.040  29.368  1.00  0.00     0.074 A 
ATOM     44  C   UNL A   1      38.510  29.074  28.617  1.00  0.00     0.031 C 
ATOM     45  C   UNL A   1      39.456  34.403  32.890  1.00  0.00     0.029 A 
ATOM     46  C   UNL A   1      40.499  33.384  32.901  1.00  0.00     0.049 A 
ATOM     47  H   UNL A   1      40.609  31.669  31.724  1.00  0.00     0.167 HD
ATOM     48  C   UNL A   1      40.668  28.052  29.272  1.00  0.00     0.031 A 
ATOM     49  C   UNL A   1      41.586  33.391  33.696  1.00  0.00     0.031 A 
ATOM     50  C   UNL A   1      41.898  28.020  30.016  1.00  0.00     0.049 A 
ATOM     51  C   UNL A   1      42.580  32.268  33.590  1.00  0.00     0.074 A 
ATOM     52  C   UNL A   1      42.921  27.091  29.950  1.00  0.00     0.029 A 
ATOM     53  N   UNL A   1      42.269  28.958  30.967  1.00  0.00    -0.354 N 
ATOM     54  N   UNL A   1      42.566  31.223  32.800  1.00  0.00    -0.248 NA
ATOM     55  C   UNL A   1      43.747  32.334  34.483  1.00  0.00     0.031 C 
ATOM     56  C   UNL A   1      43.883  27.431  30.906  1.00  0.00     0.029 A 
ATOM     57  C   UNL A   1      43.492  28.612  31.517  1.00  0.00     0.049 A 
ATOM     58  H   UNL A   1      41.742  29.752  31.215  1.00  0.00     0.167 HD
ATOM     59  C   UNL A   1      43.734  30.524  33.075  1.00  0.00     0.074 A 
ATOM     60  C   UNL A   1      44.441  31.274  34.093  1.00  0.00     0.031 C 
ATOM     61  C   UNL A   1      44.183  29.366  32.532  1.00  0.00     0.031 A 
BRANCH  48  62
ATOM     62  C   UNL A   1      40.371  26.916  28.332  1.00  0.00    -0.014 A 
ATOM     63  C   UNL A   1      39.606  25.811  28.739  1.00  0.00     0.009 A 
ATOM     64  C   UNL A   1      40.833  26.967  27.007  1.00  0.00     0.009 A 
ATOM     65  C   UNL A   1      39.343  24.765  27.852  1.00  0.00     0.001 A 
ATOM     66  C   UNL A   1      40.542  25.935  26.113  1.00  0.00     0.001 A 
ATOM     67  C   UNL A   1      39.807  24.831  26.538  1.00  0.00     0.000 A 
ENDBRANCH  48  62
BRANCH  49  68
ATOM     68  C   UNL A   1      41.797  34.504  34.660  1.00  0.00    -0.014 A 
ATOM     69  C   UNL A   1      42.515  35.650  34.280  1.00  0.00     0.009 A 
ATOM     70  C   UNL A   1      41.295  34.423  35.968  1.00  0.00     0.009 A 
ATOM     71  C   UNL A   1      42.749  36.675  35.199  1.00  0.00     0.001 A 
ATOM     72  C   UNL A   1      41.504  35.464  36.875  1.00  0.00     0.001 A 
ATOM     73  C   UNL A   1      42.240  36.584  36.492  1.00  0.00     0.000 A 
ENDBRANCH  49  68
BRANCH  61  74
ATOM     74  C   UNL A   1      45.519  28.858  32.999  1.00  0.00    -0.014 A 
ATOM     75  C   UNL A   1      45.627  27.941  34.057  1.00  0.00     0.009 A 
ATOM     76  C   UNL A   1      46.686  29.274  32.339  1.00  0.00     0.009 A 
ATOM     77  C   UNL A   1      46.880  27.481  34.467  1.00  0.00     0.001 A 
ATOM     78  C   UNL A   1      47.935  28.786  32.729  1.00  0.00     0.001 A 
ATOM     79  C   UNL A   1      48.031  27.899  33.799  1.00  0.00     0.000 A 
ENDBRANCH  61  74
ENDBRANCH  35  36
ENDBRANCH  27  30
ENDBRANCH  25  26
ENDBRANCH  24  25
ENDBRANCH  23  24
ENDBRANCH  22  23
ENDBRANCH   1  22
TORSDOF 18
ENDMDL
