MODEL 1
REMARK VINA RESULT:     -12.7      0.000      0.000
REMARK SMILES COc1ccc(C2=NN(C(=O)CCC(=O)NCCCCCCNC(=O)c3ccc(-c4c5nc(c(-c6ccccc6)c6ccc([nH]6)c(-c6ccccc6)c6nc(c(-c7ccccc7)c7ccc4[nH]7)C=C6)C=C5)cc3)[C@H](c3ccc(Cl)cc3Cl)C2)cc1
REMARK SMILES IDX 18 1 17 2 16 3 14 4 15 5 13 7 12 8 10 9 11 10 9 11 7 12 8 13
REMARK SMILES IDX 83 14 74 15 6 16 3 17 4 18 85 19 5 20 84 21 2 22 1 23 75 24
REMARK SMILES IDX 76 25 81 26 77 27 80 28 82 29 78 30 79 31 19 32 20 33 21 34
REMARK SMILES IDX 22 35 23 36 24 37 25 39 26 40 27 41 73 42 28 43 72 44 29 45
REMARK SMILES IDX 30 46 31 47 66 48 32 49 71 50 65 51 67 52 33 53 70 54 64 55
REMARK SMILES IDX 63 56 34 58 56 59 41 60 55 61 42 62 45 63 54 64 68 65 43 66
REMARK SMILES IDX 44 67 53 69 69 70 46 71 35 72 36 73 40 74 37 75 39 76 38 77
REMARK SMILES IDX 57 78 58 79 62 80 59 81 61 82 60 83 47 84 48 85 52 86 49 87
REMARK SMILES IDX 51 88 50 89
REMARK H PARENT 16 6 23 38 67 57 45 68
REMARK Flexibility Score: inf
ROOT
ATOM      1  C   UNL A   1      33.932  23.711  22.268  1.00  0.00     0.021 C 
ENDROOT
BRANCH   1   2
ATOM      2  C   UNL A   1      33.271  25.790  21.825  1.00  0.00     0.116 C 
BRANCH   2   3
ATOM      3  N   UNL A   1      33.670  27.214  22.256  1.00  0.00    -0.356 N 
ATOM      4  C   UNL A   1      33.043  28.253  22.879  1.00  0.00     0.220 C 
ATOM      5  O   UNL A   1      33.791  29.190  23.186  1.00  0.00    -0.275 OA
ATOM      6  H   UNL A   1      34.603  27.426  22.024  1.00  0.00     0.163 HD
BRANCH   4   7
ATOM      7  C   UNL A   1      31.564  28.329  23.276  1.00  0.00     0.110 C 
BRANCH   7   8
ATOM      8  C   UNL A   1      30.447  27.641  22.500  1.00  0.00     0.112 C 
BRANCH   8   9
ATOM      9  C   UNL A   1      29.531  26.998  23.472  1.00  0.00     0.243 C 
ATOM     10  O   UNL A   1      28.356  27.321  23.593  1.00  0.00    -0.273 OA
BRANCH   9  11
ATOM     11  N   UNL A   1      30.210  26.094  24.254  1.00  0.00    -0.225 N 
ATOM     12  C   UNL A   1      31.011  23.282  24.671  1.00  0.00     0.071 C 
ATOM     13  N   UNL A   1      30.278  24.273  23.624  1.00  0.00    -0.174 NA
ATOM     14  C   UNL A   1      31.348  24.182  26.384  1.00  0.00     0.091 C 
ATOM     15  C   UNL A   1      30.935  26.088  26.079  1.00  0.00     0.149 C 
BRANCH  12  16
ATOM     16  C   UNL A   1      31.830  22.023  24.420  1.00  0.00    -0.002 A 
ATOM     17  C   UNL A   1      32.809  19.410  23.945  1.00  0.00     0.118 A 
ATOM     18  C   UNL A   1      32.349  20.169  22.877  1.00  0.00     0.047 A 
ATOM     19  C   UNL A   1      32.889  19.991  25.213  1.00  0.00     0.047 A 
ATOM     20  C   UNL A   1      31.873  21.471  23.109  1.00  0.00     0.014 A 
ATOM     21  C   UNL A   1      32.386  21.287  25.458  1.00  0.00     0.014 A 
BRANCH  17  22
ATOM     22  O   UNL A   1      33.169  18.115  23.689  1.00  0.00    -0.497 OA
ATOM     23  C   UNL A   1      34.434  17.748  24.252  1.00  0.00     0.278 C 
ENDBRANCH  17  22
ENDBRANCH  12  16
BRANCH  15  24
ATOM     24  C   UNL A   1      31.932  27.081  26.769  1.00  0.00    -0.004 A 
ATOM     25  C   UNL A   1      31.402  28.288  27.279  1.00  0.00     0.009 A 
ATOM     26  C   UNL A   1      33.323  27.128  26.446  1.00  0.00     0.047 A 
ATOM     27  C   UNL A   1      32.169  29.462  27.382  1.00  0.00     0.021 A 
ATOM     28  C   UNL A   1      34.116  28.266  26.684  1.00  0.00     0.041 A 
ATOM     29  Cl  UNL A   1      34.152  25.993  25.435  1.00  0.00    -0.084 Cl
ATOM     30  C   UNL A   1      33.525  29.443  27.099  1.00  0.00     0.042 A 
ATOM     31  Cl  UNL A   1      34.448  30.891  27.152  1.00  0.00    -0.084 Cl
ENDBRANCH  15  24
ENDBRANCH   9  11
ENDBRANCH   8   9
ENDBRANCH   7   8
ENDBRANCH   4   7
ENDBRANCH   2   3
ENDBRANCH   1   2
BRANCH   1  32
ATOM     32  C   UNL A   1      35.597  23.332  23.126  1.00  0.00     0.002 C 
BRANCH  32  33
ATOM     33  C   UNL A   1      35.737  22.239  24.354  1.00  0.00     0.002 C 
BRANCH  33  34
ATOM     34  C   UNL A   1      36.086  22.666  25.744  1.00  0.00     0.021 C 
BRANCH  34  35
ATOM     35  C   UNL A   1      37.213  23.640  25.746  1.00  0.00     0.116 C 
BRANCH  35  36
ATOM     36  N   UNL A   1      38.561  23.051  25.739  1.00  0.00    -0.352 N 
ATOM     37  C   UNL A   1      39.635  23.445  26.493  1.00  0.00     0.251 C 
ATOM     38  H   UNL A   1      38.706  22.293  25.129  1.00  0.00     0.163 HD
ATOM     39  O   UNL A   1      40.662  22.805  26.644  1.00  0.00    -0.269 OA
BRANCH  37  40
ATOM     40  C   UNL A   1      39.492  24.757  27.083  1.00  0.00     0.039 A 
ATOM     41  C   UNL A   1      38.981  24.814  28.381  1.00  0.00     0.014 A 
ATOM     42  C   UNL A   1      40.274  25.752  26.499  1.00  0.00     0.014 A 
ATOM     43  C   UNL A   1      39.278  25.927  29.131  1.00  0.00     0.010 A 
ATOM     44  C   UNL A   1      40.744  26.735  27.327  1.00  0.00     0.010 A 
ATOM     45  C   UNL A   1      40.183  26.858  28.607  1.00  0.00    -0.014 A 
BRANCH  45  46
ATOM     46  C   UNL A   1      40.452  28.102  29.309  1.00  0.00     0.031 A 
ATOM     47  C   UNL A   1      41.768  28.186  30.010  1.00  0.00     0.074 A 
ATOM     48  C   UNL A   1      39.508  29.052  29.327  1.00  0.00     0.049 A 
ATOM     49  N   UNL A   1      42.208  29.109  30.810  1.00  0.00    -0.248 NA
ATOM     50  C   UNL A   1      42.694  27.041  29.843  1.00  0.00     0.031 C 
ATOM     51  C   UNL A   1      38.202  28.974  28.662  1.00  0.00     0.029 A 
ATOM     52  N   UNL A   1      39.510  30.275  29.921  1.00  0.00    -0.354 N 
ATOM     53  C   UNL A   1      43.430  28.635  31.263  1.00  0.00     0.074 A 
ATOM     54  C   UNL A   1      43.621  27.309  30.741  1.00  0.00     0.031 C 
ATOM     55  C   UNL A   1      37.551  30.134  28.844  1.00  0.00     0.029 A 
ATOM     56  C   UNL A   1      38.366  30.992  29.691  1.00  0.00     0.049 A 
ATOM     57  H   UNL A   1      40.261  30.612  30.462  1.00  0.00     0.167 HD
ATOM     58  C   UNL A   1      44.328  29.288  32.024  1.00  0.00     0.031 A 
ATOM     59  C   UNL A   1      38.033  32.208  30.148  1.00  0.00     0.031 A 
ATOM     60  C   UNL A   1      44.086  30.616  32.500  1.00  0.00     0.049 A 
ATOM     61  C   UNL A   1      39.040  32.900  31.022  1.00  0.00     0.074 A 
ATOM     62  C   UNL A   1      44.907  31.427  33.252  1.00  0.00     0.029 A 
ATOM     63  N   UNL A   1      42.914  31.324  32.255  1.00  0.00    -0.354 N 
ATOM     64  N   UNL A   1      40.224  32.480  31.412  1.00  0.00    -0.248 NA
ATOM     65  C   UNL A   1      38.677  34.232  31.510  1.00  0.00     0.031 C 
ATOM     66  C   UNL A   1      44.196  32.598  33.530  1.00  0.00     0.029 A 
ATOM     67  C   UNL A   1      42.973  32.555  32.874  1.00  0.00     0.049 A 
ATOM     68  H   UNL A   1      42.155  30.995  31.721  1.00  0.00     0.167 HD
ATOM     69  C   UNL A   1      40.762  33.507  32.170  1.00  0.00     0.074 A 
ATOM     70  C   UNL A   1      39.780  34.578  32.158  1.00  0.00     0.031 C 
ATOM     71  C   UNL A   1      41.950  33.572  32.822  1.00  0.00     0.031 A 
BRANCH  58  72
ATOM     72  C   UNL A   1      45.588  28.559  32.385  1.00  0.00    -0.014 A 
ATOM     73  C   UNL A   1      46.706  28.541  31.530  1.00  0.00     0.009 A 
ATOM     74  C   UNL A   1      45.649  27.847  33.591  1.00  0.00     0.009 A 
ATOM     75  C   UNL A   1      47.840  27.797  31.860  1.00  0.00     0.001 A 
ATOM     76  C   UNL A   1      46.800  27.138  33.937  1.00  0.00     0.001 A 
ATOM     77  C   UNL A   1      47.889  27.104  33.068  1.00  0.00     0.000 A 
ENDBRANCH  58  72
BRANCH  59  78
ATOM     78  C   UNL A   1      36.729  32.817  29.788  1.00  0.00    -0.014 A 
ATOM     79  C   UNL A   1      36.590  33.571  28.614  1.00  0.00     0.009 A 
ATOM     80  C   UNL A   1      35.604  32.628  30.608  1.00  0.00     0.009 A 
ATOM     81  C   UNL A   1      35.363  34.157  28.291  1.00  0.00     0.001 A 
ATOM     82  C   UNL A   1      34.371  33.184  30.263  1.00  0.00     0.001 A 
ATOM     83  C   UNL A   1      34.255  33.961  29.113  1.00  0.00     0.000 A 
ENDBRANCH  59  78
BRANCH  71  84
ATOM     84  C   UNL A   1      42.252  34.860  33.528  1.00  0.00    -0.014 A 
ATOM     85  C   UNL A   1      43.023  35.863  32.923  1.00  0.00     0.009 A 
ATOM     86  C   UNL A   1      41.709  35.083  34.803  1.00  0.00     0.009 A 
ATOM     87  C   UNL A   1      43.284  37.049  33.605  1.00  0.00     0.001 A 
ATOM     88  C   UNL A   1      41.930  36.290  35.460  1.00  0.00     0.001 A 
ATOM     89  C   UNL A   1      42.731  37.264  34.868  1.00  0.00     0.000 A 
ENDBRANCH  71  84
ENDBRANCH  45  46
ENDBRANCH  37  40
ENDBRANCH  35  36
ENDBRANCH  34  35
ENDBRANCH  33  34
ENDBRANCH  32  33
ENDBRANCH   1  32
TORSDOF 19
ENDMDL
MODEL 2
REMARK VINA RESULT:     -12.2      2.826      6.754
REMARK SMILES COc1ccc(C2=NN(C(=O)CCC(=O)NCCCCCCNC(=O)c3ccc(-c4c5nc(c(-c6ccccc6)c6ccc([nH]6)c(-c6ccccc6)c6nc(c(-c7ccccc7)c7ccc4[nH]7)C=C6)C=C5)cc3)[C@H](c3ccc(Cl)cc3Cl)C2)cc1
REMARK SMILES IDX 18 1 17 2 16 3 14 4 15 5 13 7 12 8 10 9 11 10 9 11 7 12 8 13
REMARK SMILES IDX 83 14 74 15 6 16 3 17 4 18 85 19 5 20 84 21 2 22 1 23 75 24
REMARK SMILES IDX 76 25 81 26 77 27 80 28 82 29 78 30 79 31 19 32 20 33 21 34
REMARK SMILES IDX 22 35 23 36 24 37 25 39 26 40 27 41 73 42 28 43 72 44 29 45
REMARK SMILES IDX 30 46 31 47 66 48 32 49 71 50 65 51 67 52 33 53 70 54 64 55
REMARK SMILES IDX 63 56 34 58 56 59 41 60 55 61 42 62 45 63 54 64 68 65 43 66
REMARK SMILES IDX 44 67 53 69 69 70 46 71 35 72 36 73 40 74 37 75 39 76 38 77
REMARK SMILES IDX 57 78 58 79 62 80 59 81 61 82 60 83 47 84 48 85 52 86 49 87
REMARK SMILES IDX 51 88 50 89
REMARK H PARENT 16 6 23 38 67 57 45 68
REMARK Flexibility Score: inf
ROOT
ATOM      1  C   UNL A   1      34.833  23.081  22.960  1.00  0.00     0.021 C 
ENDROOT
BRANCH   1   2
ATOM      2  C   UNL A   1      33.644  24.900  22.478  1.00  0.00     0.116 C 
BRANCH   2   3
ATOM      3  N   UNL A   1      33.926  26.389  22.201  1.00  0.00    -0.356 N 
ATOM      4  C   UNL A   1      33.292  27.565  22.475  1.00  0.00     0.220 C 
ATOM      5  O   UNL A   1      33.955  28.576  22.209  1.00  0.00    -0.275 OA
ATOM      6  H   UNL A   1      34.767  26.524  21.707  1.00  0.00     0.163 HD
BRANCH   4   7
ATOM      7  C   UNL A   1      31.911  27.738  23.119  1.00  0.00     0.110 C 
BRANCH   7   8
ATOM      8  C   UNL A   1      30.605  27.382  22.419  1.00  0.00     0.112 C 
BRANCH   8   9
ATOM      9  C   UNL A   1      29.665  26.844  23.431  1.00  0.00     0.243 C 
ATOM     10  O   UNL A   1      28.496  27.201  23.509  1.00  0.00    -0.273 OA
BRANCH   9  11
ATOM     11  N   UNL A   1      30.315  25.996  24.296  1.00  0.00    -0.225 N 
ATOM     12  C   UNL A   1      31.143  23.227  24.903  1.00  0.00     0.071 C 
ATOM     13  N   UNL A   1      30.453  24.147  23.766  1.00  0.00    -0.174 NA
ATOM     14  C   UNL A   1      31.366  24.220  26.583  1.00  0.00     0.091 C 
ATOM     15  C   UNL A   1      30.935  26.099  26.156  1.00  0.00     0.149 C 
BRANCH  12  16
ATOM     16  C   UNL A   1      31.998  21.975  24.765  1.00  0.00    -0.002 A 
ATOM     17  C   UNL A   1      33.058  19.357  24.578  1.00  0.00     0.118 A 
ATOM     18  C   UNL A   1      32.488  19.942  23.455  1.00  0.00     0.047 A 
ATOM     19  C   UNL A   1      33.204  20.113  25.744  1.00  0.00     0.047 A 
ATOM     20  C   UNL A   1      31.971  21.246  23.543  1.00  0.00     0.014 A 
ATOM     21  C   UNL A   1      32.661  21.412  25.847  1.00  0.00     0.014 A 
BRANCH  17  22
ATOM     22  O   UNL A   1      33.458  18.052  24.475  1.00  0.00    -0.497 OA
ATOM     23  C   UNL A   1      33.006  17.225  25.554  1.00  0.00     0.278 C 
ENDBRANCH  17  22
ENDBRANCH  12  16
BRANCH  15  24
ATOM     24  C   UNL A   1      31.872  27.147  26.847  1.00  0.00    -0.004 A 
ATOM     25  C   UNL A   1      31.282  28.346  27.309  1.00  0.00     0.009 A 
ATOM     26  C   UNL A   1      33.270  27.240  26.565  1.00  0.00     0.047 A 
ATOM     27  C   UNL A   1      32.000  29.551  27.402  1.00  0.00     0.021 A 
ATOM     28  C   UNL A   1      34.011  28.413  26.795  1.00  0.00     0.041 A 
ATOM     29  Cl  UNL A   1      34.171  26.111  25.609  1.00  0.00    -0.084 Cl
ATOM     30  C   UNL A   1      33.364  29.577  27.161  1.00  0.00     0.042 A 
ATOM     31  Cl  UNL A   1      34.230  31.060  27.201  1.00  0.00    -0.084 Cl
ENDBRANCH  15  24
ENDBRANCH   9  11
ENDBRANCH   8   9
ENDBRANCH   7   8
ENDBRANCH   4   7
ENDBRANCH   2   3
ENDBRANCH   1   2
BRANCH   1  32
ATOM     32  C   UNL A   1      36.604  23.179  23.670  1.00  0.00     0.002 C 
BRANCH  32  33
ATOM     33  C   UNL A   1      37.369  21.879  24.337  1.00  0.00     0.002 C 
BRANCH  33  34
ATOM     34  C   UNL A   1      37.667  21.814  25.801  1.00  0.00     0.021 C 
BRANCH  34  35
ATOM     35  C   UNL A   1      39.129  21.696  26.053  1.00  0.00     0.116 C 
BRANCH  35  36
ATOM     36  N   UNL A   1      39.715  20.373  25.789  1.00  0.00    -0.352 N 
ATOM     37  C   UNL A   1      40.977  19.951  26.115  1.00  0.00     0.251 C 
ATOM     38  H   UNL A   1      39.139  19.721  25.329  1.00  0.00     0.163 HD
ATOM     39  O   UNL A   1      41.358  18.793  26.099  1.00  0.00    -0.269 OA
BRANCH  37  40
ATOM     40  C   UNL A   1      41.890  21.022  26.443  1.00  0.00     0.039 A 
ATOM     41  C   UNL A   1      42.234  21.899  25.413  1.00  0.00     0.014 A 
ATOM     42  C   UNL A   1      41.969  21.332  27.801  1.00  0.00     0.014 A 
ATOM     43  C   UNL A   1      42.673  23.153  25.766  1.00  0.00     0.010 A 
ATOM     44  C   UNL A   1      42.187  22.643  28.124  1.00  0.00     0.010 A 
ATOM     45  C   UNL A   1      42.613  23.520  27.116  1.00  0.00    -0.014 A 
BRANCH  45  46
ATOM     46  C   UNL A   1      43.161  24.791  27.560  1.00  0.00     0.031 A 
ATOM     47  C   UNL A   1      42.168  25.805  28.024  1.00  0.00     0.074 A 
ATOM     48  C   UNL A   1      44.483  24.989  27.480  1.00  0.00     0.049 A 
ATOM     49  N   UNL A   1      42.361  27.049  28.344  1.00  0.00    -0.248 NA
ATOM     50  C   UNL A   1      40.748  25.384  28.071  1.00  0.00     0.031 C 
ATOM     51  C   UNL A   1      45.469  24.010  27.005  1.00  0.00     0.029 A 
ATOM     52  N   UNL A   1      45.225  26.080  27.809  1.00  0.00    -0.354 N 
ATOM     53  C   UNL A   1      41.093  27.555  28.588  1.00  0.00     0.074 A 
ATOM     54  C   UNL A   1      40.132  26.530  28.283  1.00  0.00     0.031 C 
ATOM     55  C   UNL A   1      46.698  24.535  27.128  1.00  0.00     0.029 A 
ATOM     56  C   UNL A   1      46.570  25.899  27.619  1.00  0.00     0.049 A 
ATOM     57  H   UNL A   1      44.835  26.916  28.151  1.00  0.00     0.167 HD
ATOM     58  C   UNL A   1      40.778  28.773  29.067  1.00  0.00     0.031 A 
ATOM     59  C   UNL A   1      47.569  26.773  27.814  1.00  0.00     0.031 A 
ATOM     60  C   UNL A   1      41.785  29.745  29.368  1.00  0.00     0.049 A 
ATOM     61  C   UNL A   1      47.185  28.135  28.319  1.00  0.00     0.074 A 
ATOM     62  C   UNL A   1      41.634  31.010  29.892  1.00  0.00     0.029 A 
ATOM     63  N   UNL A   1      43.145  29.539  29.165  1.00  0.00    -0.354 N 
ATOM     64  N   UNL A   1      45.991  28.606  28.603  1.00  0.00    -0.248 NA
ATOM     65  C   UNL A   1      48.280  29.082  28.540  1.00  0.00     0.031 C 
ATOM     66  C   UNL A   1      42.900  31.601  29.929  1.00  0.00     0.029 A 
ATOM     67  C   UNL A   1      43.848  30.671  29.519  1.00  0.00     0.049 A 
ATOM     68  H   UNL A   1      43.547  28.710  28.819  1.00  0.00     0.167 HD
ATOM     69  C   UNL A   1      46.189  29.897  29.064  1.00  0.00     0.074 A 
ATOM     70  C   UNL A   1      47.625  30.118  29.043  1.00  0.00     0.031 C 
ATOM     71  C   UNL A   1      45.282  30.822  29.467  1.00  0.00     0.031 A 
BRANCH  58  72
ATOM     72  C   UNL A   1      39.324  29.089  29.248  1.00  0.00    -0.014 A 
ATOM     73  C   UNL A   1      38.642  28.789  30.442  1.00  0.00     0.009 A 
ATOM     74  C   UNL A   1      38.610  29.671  28.191  1.00  0.00     0.009 A 
ATOM     75  C   UNL A   1      37.272  29.031  30.557  1.00  0.00     0.001 A 
ATOM     76  C   UNL A   1      37.249  29.949  28.324  1.00  0.00     0.001 A 
ATOM     77  C   UNL A   1      36.579  29.620  29.501  1.00  0.00     0.000 A 
ENDBRANCH  58  72
BRANCH  59  78
ATOM     78  C   UNL A   1      48.973  26.384  27.540  1.00  0.00    -0.014 A 
ATOM     79  C   UNL A   1      49.551  26.619  26.285  1.00  0.00     0.009 A 
ATOM     80  C   UNL A   1      49.757  25.791  28.545  1.00  0.00     0.009 A 
ATOM     81  C   UNL A   1      50.870  26.232  26.028  1.00  0.00     0.001 A 
ATOM     82  C   UNL A   1      51.085  25.439  28.297  1.00  0.00     0.001 A 
ATOM     83  C   UNL A   1      51.635  25.646  27.034  1.00  0.00     0.000 A 
ENDBRANCH  59  78
BRANCH  71  84
ATOM     84  C   UNL A   1      45.835  32.128  29.953  1.00  0.00    -0.014 A 
ATOM     85  C   UNL A   1      46.010  33.216  29.087  1.00  0.00     0.009 A 
ATOM     86  C   UNL A   1      46.138  32.276  31.316  1.00  0.00     0.009 A 
ATOM     87  C   UNL A   1      46.525  34.417  29.570  1.00  0.00     0.001 A 
ATOM     88  C   UNL A   1      46.604  33.494  31.804  1.00  0.00     0.001 A 
ATOM     89  C   UNL A   1      46.813  34.557  30.927  1.00  0.00     0.000 A 
ENDBRANCH  71  84
ENDBRANCH  45  46
ENDBRANCH  37  40
ENDBRANCH  35  36
ENDBRANCH  34  35
ENDBRANCH  33  34
ENDBRANCH  32  33
ENDBRANCH   1  32
TORSDOF 19
ENDMDL
MODEL 3
REMARK VINA RESULT:     -12.0      2.646      3.946
REMARK SMILES COc1ccc(C2=NN(C(=O)CCC(=O)NCCCCCCNC(=O)c3ccc(-c4c5nc(c(-c6ccccc6)c6ccc([nH]6)c(-c6ccccc6)c6nc(c(-c7ccccc7)c7ccc4[nH]7)C=C6)C=C5)cc3)[C@H](c3ccc(Cl)cc3Cl)C2)cc1
REMARK SMILES IDX 18 1 17 2 16 3 14 4 15 5 13 7 12 8 10 9 11 10 9 11 7 12 8 13
REMARK SMILES IDX 83 14 74 15 6 16 3 17 4 18 85 19 5 20 84 21 2 22 1 23 75 24
REMARK SMILES IDX 76 25 81 26 77 27 80 28 82 29 78 30 79 31 19 32 20 33 21 34
REMARK SMILES IDX 22 35 23 36 24 37 25 39 26 40 27 41 73 42 28 43 72 44 29 45
REMARK SMILES IDX 30 46 31 47 66 48 32 49 71 50 65 51 67 52 33 53 70 54 64 55
REMARK SMILES IDX 63 56 34 58 56 59 41 60 55 61 42 62 45 63 54 64 68 65 43 66
REMARK SMILES IDX 44 67 53 69 69 70 46 71 35 72 36 73 40 74 37 75 39 76 38 77
REMARK SMILES IDX 57 78 58 79 62 80 59 81 61 82 60 83 47 84 48 85 52 86 49 87
REMARK SMILES IDX 51 88 50 89
REMARK H PARENT 16 6 23 38 67 57 45 68
REMARK Flexibility Score: inf
ROOT
ATOM      1  C   UNL A   1      35.157  23.265  23.043  1.00  0.00     0.021 C 
ENDROOT
BRANCH   1   2
ATOM      2  C   UNL A   1      33.815  25.010  22.720  1.00  0.00     0.116 C 
BRANCH   2   3
ATOM      3  N   UNL A   1      33.969  26.495  22.339  1.00  0.00    -0.356 N 
ATOM      4  C   UNL A   1      33.238  27.630  22.533  1.00  0.00     0.220 C 
ATOM      5  O   UNL A   1      33.813  28.672  22.194  1.00  0.00    -0.275 OA
ATOM      6  H   UNL A   1      34.796  26.666  21.832  1.00  0.00     0.163 HD
BRANCH   4   7
ATOM      7  C   UNL A   1      31.847  27.730  23.171  1.00  0.00     0.110 C 
BRANCH   7   8
ATOM      8  C   UNL A   1      30.569  27.274  22.478  1.00  0.00     0.112 C 
BRANCH   8   9
ATOM      9  C   UNL A   1      29.678  26.666  23.495  1.00  0.00     0.243 C 
ATOM     10  O   UNL A   1      28.489  26.946  23.591  1.00  0.00    -0.273 OA
BRANCH   9  11
ATOM     11  N   UNL A   1      30.393  25.853  24.343  1.00  0.00    -0.225 N 
ATOM     12  C   UNL A   1      31.393  23.134  24.918  1.00  0.00     0.071 C 
ATOM     13  N   UNL A   1      30.629  24.018  23.799  1.00  0.00    -0.174 NA
ATOM     14  C   UNL A   1      31.587  24.130  26.600  1.00  0.00     0.091 C 
ATOM     15  C   UNL A   1      31.039  25.982  26.192  1.00  0.00     0.149 C 
BRANCH  12  16
ATOM     16  C   UNL A   1      32.317  21.936  24.756  1.00  0.00    -0.002 A 
ATOM     17  C   UNL A   1      33.558  19.393  24.664  1.00  0.00     0.118 A 
ATOM     18  C   UNL A   1      32.734  19.787  23.617  1.00  0.00     0.047 A 
ATOM     19  C   UNL A   1      33.852  20.303  25.682  1.00  0.00     0.047 A 
ATOM     20  C   UNL A   1      32.126  21.053  23.656  1.00  0.00     0.014 A 
ATOM     21  C   UNL A   1      33.222  21.564  25.742  1.00  0.00     0.014 A 
BRANCH  17  22
ATOM     22  O   UNL A   1      34.049  18.116  24.633  1.00  0.00    -0.497 OA
ATOM     23  C   UNL A   1      33.305  17.235  23.782  1.00  0.00     0.278 C 
ENDBRANCH  17  22
ENDBRANCH  12  16
BRANCH  15  24
ATOM     24  C   UNL A   1      31.926  27.081  26.873  1.00  0.00    -0.004 A 
ATOM     25  C   UNL A   1      31.280  28.257  27.317  1.00  0.00     0.009 A 
ATOM     26  C   UNL A   1      33.319  27.233  26.594  1.00  0.00     0.047 A 
ATOM     27  C   UNL A   1      31.943  29.494  27.398  1.00  0.00     0.021 A 
ATOM     28  C   UNL A   1      34.006  28.441  26.812  1.00  0.00     0.041 A 
ATOM     29  Cl  UNL A   1      34.274  26.134  25.655  1.00  0.00    -0.084 Cl
ATOM     30  C   UNL A   1      33.306  29.579  27.160  1.00  0.00     0.042 A 
ATOM     31  Cl  UNL A   1      34.104  31.100  27.185  1.00  0.00    -0.084 Cl
ENDBRANCH  15  24
ENDBRANCH   9  11
ENDBRANCH   8   9
ENDBRANCH   7   8
ENDBRANCH   4   7
ENDBRANCH   2   3
ENDBRANCH   1   2
BRANCH   1  32
ATOM     32  C   UNL A   1      36.848  23.427  23.918  1.00  0.00     0.002 C 
BRANCH  32  33
ATOM     33  C   UNL A   1      37.204  22.635  25.320  1.00  0.00     0.002 C 
BRANCH  33  34
ATOM     34  C   UNL A   1      37.790  21.260  25.314  1.00  0.00     0.021 C 
BRANCH  34  35
ATOM     35  C   UNL A   1      39.150  21.246  25.921  1.00  0.00     0.116 C 
BRANCH  35  36
ATOM     36  N   UNL A   1      39.917  20.005  25.733  1.00  0.00    -0.352 N 
ATOM     37  C   UNL A   1      41.209  19.769  26.120  1.00  0.00     0.251 C 
ATOM     38  H   UNL A   1      39.451  19.265  25.281  1.00  0.00     0.163 HD
ATOM     39  O   UNL A   1      41.742  18.673  26.167  1.00  0.00    -0.269 OA
BRANCH  37  40
ATOM     40  C   UNL A   1      41.958  20.965  26.435  1.00  0.00     0.039 A 
ATOM     41  C   UNL A   1      42.076  21.922  25.425  1.00  0.00     0.014 A 
ATOM     42  C   UNL A   1      42.087  21.237  27.796  1.00  0.00     0.014 A 
ATOM     43  C   UNL A   1      42.330  23.218  25.805  1.00  0.00     0.010 A 
ATOM     44  C   UNL A   1      42.112  22.554  28.165  1.00  0.00     0.010 A 
ATOM     45  C   UNL A   1      42.312  23.523  27.171  1.00  0.00    -0.014 A 
BRANCH  45  46
ATOM     46  C   UNL A   1      42.678  24.852  27.635  1.00  0.00     0.031 A 
ATOM     47  C   UNL A   1      44.136  25.174  27.608  1.00  0.00     0.074 A 
ATOM     48  C   UNL A   1      41.717  25.665  28.091  1.00  0.00     0.049 A 
ATOM     49  N   UNL A   1      44.749  26.218  28.080  1.00  0.00    -0.248 NA
ATOM     50  C   UNL A   1      45.042  24.152  27.034  1.00  0.00     0.031 C 
ATOM     51  C   UNL A   1      40.284  25.354  28.144  1.00  0.00     0.029 A 
ATOM     52  N   UNL A   1      41.805  26.928  28.590  1.00  0.00    -0.354 N 
ATOM     53  C   UNL A   1      46.097  25.954  27.892  1.00  0.00     0.074 A 
ATOM     54  C   UNL A   1      46.228  24.623  27.365  1.00  0.00     0.031 C 
ATOM     55  C   UNL A   1      39.621  26.428  28.599  1.00  0.00     0.029 A 
ATOM     56  C   UNL A   1      40.590  27.462  28.931  1.00  0.00     0.049 A 
ATOM     57  H   UNL A   1      42.657  27.410  28.693  1.00  0.00     0.167 HD
ATOM     58  C   UNL A   1      47.131  26.788  28.112  1.00  0.00     0.031 A 
ATOM     59  C   UNL A   1      40.324  28.660  29.472  1.00  0.00     0.031 A 
ATOM     60  C   UNL A   1      46.933  28.111  28.624  1.00  0.00     0.049 A 
ATOM     61  C   UNL A   1      41.499  29.558  29.736  1.00  0.00     0.074 A 
ATOM     62  C   UNL A   1      47.870  29.090  28.870  1.00  0.00     0.029 A 
ATOM     63  N   UNL A   1      45.690  28.631  28.965  1.00  0.00    -0.354 N 
ATOM     64  N   UNL A   1      42.776  29.337  29.511  1.00  0.00    -0.248 NA
ATOM     65  C   UNL A   1      41.203  30.869  30.316  1.00  0.00     0.031 C 
ATOM     66  C   UNL A   1      47.200  30.176  29.438  1.00  0.00     0.029 A 
ATOM     67  C   UNL A   1      45.837  29.910  29.457  1.00  0.00     0.049 A 
ATOM     68  H   UNL A   1      44.832  28.157  28.871  1.00  0.00     0.167 HD
ATOM     69  C   UNL A   1      43.437  30.491  29.896  1.00  0.00     0.074 A 
ATOM     70  C   UNL A   1      42.409  31.416  30.344  1.00  0.00     0.031 C 
ATOM     71  C   UNL A   1      44.764  30.774  29.890  1.00  0.00     0.031 A 
BRANCH  58  72
ATOM     72  C   UNL A   1      48.510  26.270  27.830  1.00  0.00    -0.014 A 
ATOM     73  C   UNL A   1      49.285  25.645  28.824  1.00  0.00     0.009 A 
ATOM     74  C   UNL A   1      49.059  26.440  26.551  1.00  0.00     0.009 A 
ATOM     75  C   UNL A   1      50.591  25.235  28.551  1.00  0.00     0.001 A 
ATOM     76  C   UNL A   1      50.350  25.993  26.271  1.00  0.00     0.001 A 
ATOM     77  C   UNL A   1      51.119  25.401  27.272  1.00  0.00     0.000 A 
ENDBRANCH  58  72
BRANCH  59  78
ATOM     78  C   UNL A   1      38.928  29.054  29.777  1.00  0.00    -0.014 A 
ATOM     79  C   UNL A   1      38.029  29.368  28.748  1.00  0.00     0.009 A 
ATOM     80  C   UNL A   1      38.474  29.097  31.106  1.00  0.00     0.009 A 
ATOM     81  C   UNL A   1      36.720  29.758  29.044  1.00  0.00     0.001 A 
ATOM     82  C   UNL A   1      37.155  29.450  31.398  1.00  0.00     0.001 A 
ATOM     83  C   UNL A   1      36.284  29.795  30.367  1.00  0.00     0.000 A 
ENDBRANCH  59  78
BRANCH  71  84
ATOM     84  C   UNL A   1      45.154  32.150  30.340  1.00  0.00    -0.014 A 
ATOM     85  C   UNL A   1      45.204  33.226  29.442  1.00  0.00     0.009 A 
ATOM     86  C   UNL A   1      45.426  32.372  31.699  1.00  0.00     0.009 A 
ATOM     87  C   UNL A   1      45.568  34.493  29.892  1.00  0.00     0.001 A 
ATOM     88  C   UNL A   1      45.740  33.650  32.153  1.00  0.00     0.001 A 
ATOM     89  C   UNL A   1      45.827  34.705  31.247  1.00  0.00     0.000 A 
ENDBRANCH  71  84
ENDBRANCH  45  46
ENDBRANCH  37  40
ENDBRANCH  35  36
ENDBRANCH  34  35
ENDBRANCH  33  34
ENDBRANCH  32  33
ENDBRANCH   1  32
TORSDOF 19
ENDMDL
