MODEL 1
REMARK VINA RESULT:     -10.8      0.000      0.000
REMARK SMILES C[C@@H](C(=O)NCCCCCCNC(=O)c1ccc(-c2c3nc(c(-c4ccccc4)c4ccc([nH]4)c(-c4ccccc4)c4nc(c(-c5ccccc5)c5ccc2[nH]5)C=C4)C=C3)cc1)c1ccc(C[C@H]2CCCC2=O)cc1
REMARK SMILES IDX 8 1 7 2 6 3 5 4 3 5 4 6 2 8 1 9 63 10 64 11 75 12 65 13
REMARK SMILES IDX 74 14 66 15 67 16 68 17 69 18 72 19 70 20 71 21 73 22 9 23
REMARK SMILES IDX 10 24 11 25 12 26 13 27 14 29 15 30 16 31 62 32 17 33 61 34
REMARK SMILES IDX 18 35 19 36 20 37 55 38 21 39 60 40 54 41 56 42 22 43 59 44
REMARK SMILES IDX 53 45 52 46 23 48 45 49 30 50 44 51 31 52 34 53 43 54 57 55
REMARK SMILES IDX 32 56 33 57 42 59 58 60 35 61 24 62 25 63 29 64 26 65 28 66
REMARK SMILES IDX 27 67 46 68 47 69 51 70 48 71 50 72 49 73 36 74 37 75 41 76
REMARK SMILES IDX 38 77 40 78 39 79
REMARK H PARENT 5 7 12 28 56 47 34 58
REMARK Flexibility Score: inf
ROOT
ATOM      1  C   UNL A   1      33.678  25.871  25.871  1.00  0.00     0.002 C 
ENDROOT
BRANCH   1   2
ATOM      2  C   UNL A   1      34.808  24.861  25.638  1.00  0.00     0.021 C 
BRANCH   2   3
ATOM      3  C   UNL A   1      34.494  23.800  24.578  1.00  0.00     0.116 C 
BRANCH   3   4
ATOM      4  N   UNL A   1      33.583  22.811  25.116  1.00  0.00    -0.356 N 
ATOM      5  C   UNL A   1      32.300  22.515  24.756  1.00  0.00     0.227 C 
ATOM      6  O   UNL A   1      31.650  21.827  25.546  1.00  0.00    -0.274 OA
ATOM      7  H   UNL A   1      33.945  22.269  25.853  1.00  0.00     0.163 HD
BRANCH   5   8
ATOM      8  C   UNL A   1      31.748  22.994  23.399  1.00  0.00     0.105 C 
ATOM      9  C   UNL A   1      32.772  22.743  22.286  1.00  0.00     0.023 C 
BRANCH   8  10
ATOM     10  C   UNL A   1      31.251  24.442  23.467  1.00  0.00    -0.036 A 
ATOM     11  C   UNL A   1      31.655  25.350  22.474  1.00  0.00     0.005 A 
ATOM     12  C   UNL A   1      30.403  24.915  24.480  1.00  0.00     0.005 A 
ATOM     13  C   UNL A   1      31.212  26.675  22.483  1.00  0.00     0.004 A 
ATOM     14  C   UNL A   1      29.986  26.248  24.507  1.00  0.00     0.004 A 
ATOM     15  C   UNL A   1      30.393  27.143  23.515  1.00  0.00    -0.047 A 
BRANCH  15  16
ATOM     16  C   UNL A   1      29.958  28.587  23.567  1.00  0.00     0.047 C 
BRANCH  16  17
ATOM     17  C   UNL A   1      28.757  28.961  22.691  1.00  0.00     0.060 C 
ATOM     18  C   UNL A   1      27.455  29.308  23.421  1.00  0.00     0.012 C 
ATOM     19  C   UNL A   1      29.006  30.212  21.879  1.00  0.00     0.136 C 
ATOM     20  C   UNL A   1      27.408  30.830  23.508  1.00  0.00     0.009 C 
ATOM     21  C   UNL A   1      28.056  31.327  22.224  1.00  0.00     0.076 C 
ATOM     22  O   UNL A   1      29.871  30.304  21.015  1.00  0.00    -0.299 OA
ENDBRANCH  16  17
ENDBRANCH  15  16
ENDBRANCH   8  10
ENDBRANCH   5   8
ENDBRANCH   3   4
ENDBRANCH   2   3
ENDBRANCH   1   2
BRANCH   1  23
ATOM     23  C   UNL A   1      33.755  27.141  25.021  1.00  0.00     0.002 C 
BRANCH  23  24
ATOM     24  C   UNL A   1      33.252  28.413  25.708  1.00  0.00     0.021 C 
BRANCH  24  25
ATOM     25  C   UNL A   1      33.720  28.595  27.148  1.00  0.00     0.116 C 
BRANCH  25  26
ATOM     26  N   UNL A   1      33.648  29.981  27.581  1.00  0.00    -0.352 N 
ATOM     27  C   UNL A   1      34.571  30.729  28.261  1.00  0.00     0.251 C 
ATOM     28  H   UNL A   1      32.813  30.449  27.351  1.00  0.00     0.163 HD
ATOM     29  O   UNL A   1      34.263  31.840  28.695  1.00  0.00    -0.269 OA
BRANCH  27  30
ATOM     30  C   UNL A   1      35.934  30.207  28.496  1.00  0.00     0.039 A 
ATOM     31  C   UNL A   1      36.862  30.265  27.452  1.00  0.00     0.014 A 
ATOM     32  C   UNL A   1      36.293  29.636  29.721  1.00  0.00     0.014 A 
ATOM     33  C   UNL A   1      38.161  29.793  27.650  1.00  0.00     0.010 A 
ATOM     34  C   UNL A   1      37.606  29.219  29.936  1.00  0.00     0.010 A 
ATOM     35  C   UNL A   1      38.551  29.288  28.901  1.00  0.00    -0.014 A 
BRANCH  35  36
ATOM     36  C   UNL A   1      39.942  28.829  29.132  1.00  0.00     0.031 A 
ATOM     37  C   UNL A   1      40.950  29.742  29.774  1.00  0.00     0.074 A 
ATOM     38  C   UNL A   1      40.311  27.595  28.734  1.00  0.00     0.049 A 
ATOM     39  N   UNL A   1      42.211  29.517  30.046  1.00  0.00    -0.248 NA
ATOM     40  C   UNL A   1      40.486  31.089  30.142  1.00  0.00     0.031 C 
ATOM     41  C   UNL A   1      39.442  26.627  28.061  1.00  0.00     0.029 A 
ATOM     42  N   UNL A   1      41.515  26.947  28.839  1.00  0.00    -0.354 N 
ATOM     43  C   UNL A   1      42.690  30.692  30.611  1.00  0.00     0.074 A 
ATOM     44  C   UNL A   1      41.601  31.644  30.597  1.00  0.00     0.031 C 
ATOM     45  C   UNL A   1      40.136  25.500  27.834  1.00  0.00     0.029 A 
ATOM     46  C   UNL A   1      41.501  25.675  28.320  1.00  0.00     0.049 A 
ATOM     47  H   UNL A   1      42.313  27.354  29.246  1.00  0.00     0.167 HD
ATOM     48  C   UNL A   1      43.920  30.952  31.118  1.00  0.00     0.031 A 
ATOM     49  C   UNL A   1      42.476  24.751  28.247  1.00  0.00     0.031 A 
ATOM     50  C   UNL A   1      45.006  30.009  31.138  1.00  0.00     0.049 A 
ATOM     51  C   UNL A   1      43.830  25.061  28.821  1.00  0.00     0.074 A 
ATOM     52  C   UNL A   1      46.280  30.171  31.656  1.00  0.00     0.029 A 
ATOM     53  N   UNL A   1      44.945  28.725  30.621  1.00  0.00    -0.354 N 
ATOM     54  N   UNL A   1      44.250  26.159  29.400  1.00  0.00    -0.248 NA
ATOM     55  C   UNL A   1      44.840  23.995  28.746  1.00  0.00     0.031 C 
ATOM     56  C   UNL A   1      47.000  28.993  31.422  1.00  0.00     0.029 A 
ATOM     57  C   UNL A   1      46.159  28.085  30.799  1.00  0.00     0.049 A 
ATOM     58  H   UNL A   1      44.153  28.326  30.191  1.00  0.00     0.167 HD
ATOM     59  C   UNL A   1      45.563  25.910  29.777  1.00  0.00     0.074 A 
ATOM     60  C   UNL A   1      45.862  24.549  29.379  1.00  0.00     0.031 C 
ATOM     61  C   UNL A   1      46.442  26.734  30.396  1.00  0.00     0.031 A 
BRANCH  48  62
ATOM     62  C   UNL A   1      44.150  32.317  31.700  1.00  0.00    -0.014 A 
ATOM     63  C   UNL A   1      43.908  32.570  33.061  1.00  0.00     0.009 A 
ATOM     64  C   UNL A   1      44.647  33.353  30.895  1.00  0.00     0.009 A 
ATOM     65  C   UNL A   1      44.128  33.841  33.594  1.00  0.00     0.001 A 
ATOM     66  C   UNL A   1      44.891  34.616  31.437  1.00  0.00     0.001 A 
ATOM     67  C   UNL A   1      44.623  34.860  32.783  1.00  0.00     0.000 A 
ENDBRANCH  48  62
BRANCH  49  68
ATOM     68  C   UNL A   1      42.206  23.431  27.621  1.00  0.00    -0.014 A 
ATOM     69  C   UNL A   1      42.560  23.189  26.286  1.00  0.00     0.009 A 
ATOM     70  C   UNL A   1      41.578  22.413  28.355  1.00  0.00     0.009 A 
ATOM     71  C   UNL A   1      42.265  21.962  25.688  1.00  0.00     0.001 A 
ATOM     72  C   UNL A   1      41.309  21.177  27.762  1.00  0.00     0.001 A 
ATOM     73  C   UNL A   1      41.642  20.957  26.427  1.00  0.00     0.000 A 
ENDBRANCH  49  68
BRANCH  61  74
ATOM     74  C   UNL A   1      47.801  26.173  30.703  1.00  0.00    -0.014 A 
ATOM     75  C   UNL A   1      48.802  26.117  29.721  1.00  0.00     0.009 A 
ATOM     76  C   UNL A   1      48.089  25.716  31.998  1.00  0.00     0.009 A 
ATOM     77  C   UNL A   1      50.055  25.581  30.023  1.00  0.00     0.001 A 
ATOM     78  C   UNL A   1      49.351  25.204  32.303  1.00  0.00     0.001 A 
ATOM     79  C   UNL A   1      50.329  25.128  31.313  1.00  0.00     0.000 A 
ENDBRANCH  61  74
ENDBRANCH  35  36
ENDBRANCH  27  30
ENDBRANCH  25  26
ENDBRANCH  24  25
ENDBRANCH  23  24
ENDBRANCH   1  23
TORSDOF 16
ENDMDL
MODEL 2
REMARK VINA RESULT:     -10.7      2.819      8.255
REMARK SMILES C[C@@H](C(=O)NCCCCCCNC(=O)c1ccc(-c2c3nc(c(-c4ccccc4)c4ccc([nH]4)c(-c4ccccc4)c4nc(c(-c5ccccc5)c5ccc2[nH]5)C=C4)C=C3)cc1)c1ccc(C[C@H]2CCCC2=O)cc1
REMARK SMILES IDX 8 1 7 2 6 3 5 4 3 5 4 6 2 8 1 9 63 10 64 11 75 12 65 13
REMARK SMILES IDX 74 14 66 15 67 16 68 17 69 18 72 19 70 20 71 21 73 22 9 23
REMARK SMILES IDX 10 24 11 25 12 26 13 27 14 29 15 30 16 31 62 32 17 33 61 34
REMARK SMILES IDX 18 35 19 36 20 37 55 38 21 39 60 40 54 41 56 42 22 43 59 44
REMARK SMILES IDX 53 45 52 46 23 48 45 49 30 50 44 51 31 52 34 53 43 54 57 55
REMARK SMILES IDX 32 56 33 57 42 59 58 60 35 61 24 62 25 63 29 64 26 65 28 66
REMARK SMILES IDX 27 67 46 68 47 69 51 70 48 71 50 72 49 73 36 74 37 75 41 76
REMARK SMILES IDX 38 77 40 78 39 79
REMARK H PARENT 5 7 12 28 56 47 34 58
REMARK Flexibility Score: inf
ROOT
ATOM      1  C   UNL A   1      34.349  25.211  24.074  1.00  0.00     0.002 C 
ENDROOT
BRANCH   1   2
ATOM      2  C   UNL A   1      33.654  26.097  23.032  1.00  0.00     0.021 C 
BRANCH   2   3
ATOM      3  C   UNL A   1      32.343  26.724  23.516  1.00  0.00     0.116 C 
BRANCH   3   4
ATOM      4  N   UNL A   1      32.301  26.741  24.963  1.00  0.00    -0.356 N 
ATOM      5  C   UNL A   1      31.390  26.193  25.819  1.00  0.00     0.227 C 
ATOM      6  O   UNL A   1      31.428  26.583  26.988  1.00  0.00    -0.274 OA
ATOM      7  H   UNL A   1      33.044  27.220  25.396  1.00  0.00     0.163 HD
BRANCH   5   8
ATOM      8  C   UNL A   1      30.414  25.110  25.319  1.00  0.00     0.105 C 
ATOM      9  C   UNL A   1      29.260  24.931  26.312  1.00  0.00     0.023 C 
BRANCH   8  10
ATOM     10  C   UNL A   1      31.140  23.807  24.973  1.00  0.00    -0.036 A 
ATOM     11  C   UNL A   1      31.763  23.078  26.001  1.00  0.00     0.005 A 
ATOM     12  C   UNL A   1      31.217  23.294  23.669  1.00  0.00     0.005 A 
ATOM     13  C   UNL A   1      32.421  21.875  25.737  1.00  0.00     0.004 A 
ATOM     14  C   UNL A   1      31.902  22.106  23.401  1.00  0.00     0.004 A 
ATOM     15  C   UNL A   1      32.518  21.389  24.429  1.00  0.00    -0.047 A 
BRANCH  15  16
ATOM     16  C   UNL A   1      33.277  20.121  24.125  1.00  0.00     0.047 C 
BRANCH  16  17
ATOM     17  C   UNL A   1      32.430  18.857  23.939  1.00  0.00     0.060 C 
ATOM     18  C   UNL A   1      32.690  18.036  22.671  1.00  0.00     0.012 C 
ATOM     19  C   UNL A   1      32.671  17.838  25.029  1.00  0.00     0.136 C 
ATOM     20  C   UNL A   1      33.633  16.909  23.080  1.00  0.00     0.009 C 
ATOM     21  C   UNL A   1      33.234  16.546  24.503  1.00  0.00     0.076 C 
ATOM     22  O   UNL A   1      32.415  18.032  26.213  1.00  0.00    -0.299 OA
ENDBRANCH  16  17
ENDBRANCH  15  16
ENDBRANCH   8  10
ENDBRANCH   5   8
ENDBRANCH   3   4
ENDBRANCH   2   3
ENDBRANCH   1   2
BRANCH   1  23
ATOM     23  C   UNL A   1      34.979  23.930  23.522  1.00  0.00     0.002 C 
BRANCH  23  24
ATOM     24  C   UNL A   1      35.763  23.101  24.542  1.00  0.00     0.021 C 
BRANCH  24  25
ATOM     25  C   UNL A   1      37.050  23.748  25.045  1.00  0.00     0.116 C 
BRANCH  25  26
ATOM     26  N   UNL A   1      38.067  22.765  25.381  1.00  0.00    -0.352 N 
ATOM     27  C   UNL A   1      39.238  22.928  26.070  1.00  0.00     0.251 C 
ATOM     28  H   UNL A   1      37.886  21.850  25.067  1.00  0.00     0.163 HD
ATOM     29  O   UNL A   1      40.062  22.011  26.107  1.00  0.00    -0.269 OA
BRANCH  27  30
ATOM     30  C   UNL A   1      39.535  24.202  26.758  1.00  0.00     0.039 A 
ATOM     31  C   UNL A   1      39.054  24.390  28.057  1.00  0.00     0.014 A 
ATOM     32  C   UNL A   1      40.252  25.221  26.123  1.00  0.00     0.014 A 
ATOM     33  C   UNL A   1      39.332  25.577  28.736  1.00  0.00     0.010 A 
ATOM     34  C   UNL A   1      40.579  26.382  26.823  1.00  0.00     0.010 A 
ATOM     35  C   UNL A   1      40.117  26.574  28.133  1.00  0.00    -0.014 A 
BRANCH  35  36
ATOM     36  C   UNL A   1      40.454  27.818  28.867  1.00  0.00     0.031 A 
ATOM     37  C   UNL A   1      41.792  27.968  29.537  1.00  0.00     0.074 A 
ATOM     38  C   UNL A   1      39.542  28.805  28.958  1.00  0.00     0.049 A 
ATOM     39  N   UNL A   1      42.258  28.977  30.230  1.00  0.00    -0.248 NA
ATOM     40  C   UNL A   1      42.720  26.831  29.432  1.00  0.00     0.031 C 
ATOM     41  C   UNL A   1      38.192  28.768  28.390  1.00  0.00     0.029 A 
ATOM     42  N   UNL A   1      39.614  30.034  29.565  1.00  0.00    -0.354 N 
ATOM     43  C   UNL A   1      43.528  28.596  30.644  1.00  0.00     0.074 A 
ATOM     44  C   UNL A   1      43.740  27.245  30.171  1.00  0.00     0.031 C 
ATOM     45  C   UNL A   1      37.573  29.929  28.655  1.00  0.00     0.029 A 
ATOM     46  C   UNL A   1      38.469  30.780  29.432  1.00  0.00     0.049 A 
ATOM     47  H   UNL A   1      40.410  30.350  30.049  1.00  0.00     0.167 HD
ATOM     48  C   UNL A   1      44.446  29.310  31.338  1.00  0.00     0.031 A 
ATOM     49  C   UNL A   1      38.173  32.013  29.882  1.00  0.00     0.031 A 
ATOM     50  C   UNL A   1      44.244  30.655  31.808  1.00  0.00     0.049 A 
ATOM     51  C   UNL A   1      39.211  32.788  30.645  1.00  0.00     0.074 A 
ATOM     52  C   UNL A   1      45.126  31.471  32.496  1.00  0.00     0.029 A 
ATOM     53  N   UNL A   1      43.077  31.382  31.636  1.00  0.00    -0.354 N 
ATOM     54  N   UNL A   1      40.425  32.431  30.982  1.00  0.00    -0.248 NA
ATOM     55  C   UNL A   1      38.840  34.144  31.074  1.00  0.00     0.031 C 
ATOM     56  C   UNL A   1      44.479  32.683  32.767  1.00  0.00     0.029 A 
ATOM     57  C   UNL A   1      43.212  32.634  32.210  1.00  0.00     0.049 A 
ATOM     58  H   UNL A   1      42.271  31.056  31.174  1.00  0.00     0.167 HD
ATOM     59  C   UNL A   1      40.972  33.524  31.642  1.00  0.00     0.074 A 
ATOM     60  C   UNL A   1      39.962  34.563  31.639  1.00  0.00     0.031 C 
ATOM     61  C   UNL A   1      42.199  33.655  32.202  1.00  0.00     0.031 A 
BRANCH  48  62
ATOM     62  C   UNL A   1      45.763  28.647  31.623  1.00  0.00    -0.014 A 
ATOM     63  C   UNL A   1      45.949  27.885  32.789  1.00  0.00     0.009 A 
ATOM     64  C   UNL A   1      46.819  28.752  30.705  1.00  0.00     0.009 A 
ATOM     65  C   UNL A   1      47.175  27.269  33.043  1.00  0.00     0.001 A 
ATOM     66  C   UNL A   1      48.036  28.114  30.950  1.00  0.00     0.001 A 
ATOM     67  C   UNL A   1      48.216  27.381  32.123  1.00  0.00     0.000 A 
ENDBRANCH  48  62
BRANCH  49  68
ATOM     68  C   UNL A   1      36.839  32.605  29.608  1.00  0.00    -0.014 A 
ATOM     69  C   UNL A   1      36.544  33.145  28.348  1.00  0.00     0.009 A 
ATOM     70  C   UNL A   1      35.860  32.647  30.613  1.00  0.00     0.009 A 
ATOM     71  C   UNL A   1      35.303  33.740  28.106  1.00  0.00     0.001 A 
ATOM     72  C   UNL A   1      34.611  33.218  30.360  1.00  0.00     0.001 A 
ATOM     73  C   UNL A   1      34.338  33.774  29.112  1.00  0.00     0.000 A 
ENDBRANCH  49  68
BRANCH  61  74
ATOM     74  C   UNL A   1      42.521  34.979  32.832  1.00  0.00    -0.014 A 
ATOM     75  C   UNL A   1      43.261  35.952  32.142  1.00  0.00     0.009 A 
ATOM     76  C   UNL A   1      42.059  35.264  34.126  1.00  0.00     0.009 A 
ATOM     77  C   UNL A   1      43.561  37.171  32.751  1.00  0.00     0.001 A 
ATOM     78  C   UNL A   1      42.339  36.494  34.722  1.00  0.00     0.001 A 
ATOM     79  C   UNL A   1      43.098  37.442  34.038  1.00  0.00     0.000 A 
ENDBRANCH  61  74
ENDBRANCH  35  36
ENDBRANCH  27  30
ENDBRANCH  25  26
ENDBRANCH  24  25
ENDBRANCH  23  24
ENDBRANCH   1  23
TORSDOF 16
ENDMDL
MODEL 3
REMARK VINA RESULT:     -10.6      1.963      6.812
REMARK SMILES C[C@@H](C(=O)NCCCCCCNC(=O)c1ccc(-c2c3nc(c(-c4ccccc4)c4ccc([nH]4)c(-c4ccccc4)c4nc(c(-c5ccccc5)c5ccc2[nH]5)C=C4)C=C3)cc1)c1ccc(C[C@H]2CCCC2=O)cc1
REMARK SMILES IDX 8 1 7 2 6 3 5 4 3 5 4 6 2 8 1 9 63 10 64 11 75 12 65 13
REMARK SMILES IDX 74 14 66 15 67 16 68 17 69 18 72 19 70 20 71 21 73 22 9 23
REMARK SMILES IDX 10 24 11 25 12 26 13 27 14 29 15 30 16 31 62 32 17 33 61 34
REMARK SMILES IDX 18 35 19 36 20 37 55 38 21 39 60 40 54 41 56 42 22 43 59 44
REMARK SMILES IDX 53 45 52 46 23 48 45 49 30 50 44 51 31 52 34 53 43 54 57 55
REMARK SMILES IDX 32 56 33 57 42 59 58 60 35 61 24 62 25 63 29 64 26 65 28 66
REMARK SMILES IDX 27 67 46 68 47 69 51 70 48 71 50 72 49 73 36 74 37 75 41 76
REMARK SMILES IDX 38 77 40 78 39 79
REMARK H PARENT 5 7 12 28 56 47 34 58
REMARK Flexibility Score: inf
ROOT
ATOM      1  C   UNL A   1      34.783  20.007  24.635  1.00  0.00     0.002 C 
ENDROOT
BRANCH   1   2
ATOM      2  C   UNL A   1      33.642  20.079  25.657  1.00  0.00     0.021 C 
BRANCH   2   3
ATOM      3  C   UNL A   1      32.343  20.675  25.106  1.00  0.00     0.116 C 
BRANCH   3   4
ATOM      4  N   UNL A   1      31.725  21.530  26.098  1.00  0.00    -0.356 N 
ATOM      5  C   UNL A   1      32.048  22.798  26.485  1.00  0.00     0.227 C 
ATOM      6  O   UNL A   1      31.545  23.199  27.537  1.00  0.00    -0.274 OA
ATOM      7  H   UNL A   1      30.952  21.137  26.564  1.00  0.00     0.163 HD
BRANCH   5   8
ATOM      8  C   UNL A   1      32.960  23.668  25.598  1.00  0.00     0.105 C 
ATOM      9  C   UNL A   1      34.333  23.848  26.257  1.00  0.00     0.023 C 
BRANCH   8  10
ATOM     10  C   UNL A   1      32.284  24.986  25.208  1.00  0.00    -0.036 A 
ATOM     11  C   UNL A   1      31.048  24.948  24.539  1.00  0.00     0.005 A 
ATOM     12  C   UNL A   1      32.836  26.245  25.488  1.00  0.00     0.005 A 
ATOM     13  C   UNL A   1      30.384  26.123  24.181  1.00  0.00     0.004 A 
ATOM     14  C   UNL A   1      32.187  27.420  25.101  1.00  0.00     0.004 A 
ATOM     15  C   UNL A   1      30.959  27.371  24.436  1.00  0.00    -0.047 A 
BRANCH  15  16
ATOM     16  C   UNL A   1      30.278  28.645  24.000  1.00  0.00     0.047 C 
BRANCH  16  17
ATOM     17  C   UNL A   1      29.256  28.508  22.866  1.00  0.00     0.060 C 
ATOM     18  C   UNL A   1      27.784  28.401  23.278  1.00  0.00     0.012 C 
ATOM     19  C   UNL A   1      29.242  29.716  21.957  1.00  0.00     0.136 C 
ATOM     20  C   UNL A   1      27.202  29.805  23.148  1.00  0.00     0.009 C 
ATOM     21  C   UNL A   1      27.917  30.429  21.958  1.00  0.00     0.076 C 
ATOM     22  O   UNL A   1      30.197  30.066  21.272  1.00  0.00    -0.299 OA
ENDBRANCH  16  17
ENDBRANCH  15  16
ENDBRANCH   8  10
ENDBRANCH   5   8
ENDBRANCH   3   4
ENDBRANCH   2   3
ENDBRANCH   1   2
BRANCH   1  23
ATOM     23  C   UNL A   1      36.087  20.683  25.068  1.00  0.00     0.002 C 
BRANCH  23  24
ATOM     24  C   UNL A   1      37.339  19.811  24.951  1.00  0.00     0.021 C 
BRANCH  24  25
ATOM     25  C   UNL A   1      38.592  20.393  25.600  1.00  0.00     0.116 C 
BRANCH  25  26
ATOM     26  N   UNL A   1      39.668  19.421  25.691  1.00  0.00    -0.352 N 
ATOM     27  C   UNL A   1      40.976  19.604  26.053  1.00  0.00     0.251 C 
ATOM     28  H   UNL A   1      39.420  18.497  25.459  1.00  0.00     0.163 HD
ATOM     29  O   UNL A   1      41.789  18.689  25.903  1.00  0.00    -0.269 OA
BRANCH  27  30
ATOM     30  C   UNL A   1      41.429  20.897  26.607  1.00  0.00     0.039 A 
ATOM     31  C   UNL A   1      41.969  21.847  25.734  1.00  0.00     0.014 A 
ATOM     32  C   UNL A   1      41.357  21.166  27.977  1.00  0.00     0.014 A 
ATOM     33  C   UNL A   1      42.391  23.082  26.228  1.00  0.00     0.010 A 
ATOM     34  C   UNL A   1      41.724  22.422  28.460  1.00  0.00     0.010 A 
ATOM     35  C   UNL A   1      42.250  23.389  27.591  1.00  0.00    -0.014 A 
BRANCH  35  36
ATOM     36  C   UNL A   1      42.654  24.718  28.113  1.00  0.00     0.031 A 
ATOM     37  C   UNL A   1      41.629  25.801  28.315  1.00  0.00     0.074 A 
ATOM     38  C   UNL A   1      43.952  24.963  28.378  1.00  0.00     0.049 A 
ATOM     39  N   UNL A   1      41.798  27.023  28.752  1.00  0.00    -0.248 NA
ATOM     40  C   UNL A   1      40.239  25.474  27.963  1.00  0.00     0.031 C 
ATOM     41  C   UNL A   1      45.050  24.013  28.185  1.00  0.00     0.029 A 
ATOM     42  N   UNL A   1      44.566  26.088  28.866  1.00  0.00    -0.354 N 
ATOM     43  C   UNL A   1      40.540  27.611  28.723  1.00  0.00     0.074 A 
ATOM     44  C   UNL A   1      39.627  26.630  28.179  1.00  0.00     0.031 C 
ATOM     45  C   UNL A   1      46.200  24.588  28.573  1.00  0.00     0.029 A 
ATOM     46  C   UNL A   1      45.925  25.951  29.016  1.00  0.00     0.049 A 
ATOM     47  H   UNL A   1      44.080  26.915  29.087  1.00  0.00     0.167 HD
ATOM     48  C   UNL A   1      40.170  28.848  29.133  1.00  0.00     0.031 A 
ATOM     49  C   UNL A   1      46.846  26.824  29.462  1.00  0.00     0.031 A 
ATOM     50  C   UNL A   1      41.072  29.827  29.679  1.00  0.00     0.049 A 
ATOM     51  C   UNL A   1      46.410  28.189  29.916  1.00  0.00     0.074 A 
ATOM     52  C   UNL A   1      40.786  31.098  30.149  1.00  0.00     0.029 A 
ATOM     53  N   UNL A   1      42.437  29.642  29.832  1.00  0.00    -0.354 N 
ATOM     54  N   UNL A   1      45.207  28.708  29.932  1.00  0.00    -0.248 NA
ATOM     55  C   UNL A   1      47.459  29.080  30.431  1.00  0.00     0.031 C 
ATOM     56  C   UNL A   1      41.985  31.694  30.556  1.00  0.00     0.029 A 
ATOM     57  C   UNL A   1      43.008  30.777  30.381  1.00  0.00     0.049 A 
ATOM     58  H   UNL A   1      42.927  28.824  29.587  1.00  0.00     0.167 HD
ATOM     59  C   UNL A   1      45.351  29.978  30.477  1.00  0.00     0.074 A 
ATOM     60  C   UNL A   1      46.754  30.140  30.798  1.00  0.00     0.031 C 
ATOM     61  C   UNL A   1      44.405  30.924  30.692  1.00  0.00     0.031 A 
BRANCH  48  62
ATOM     62  C   UNL A   1      38.717  29.208  29.011  1.00  0.00    -0.014 A 
ATOM     63  C   UNL A   1      37.853  29.102  30.114  1.00  0.00     0.009 A 
ATOM     64  C   UNL A   1      38.210  29.692  27.795  1.00  0.00     0.009 A 
ATOM     65  C   UNL A   1      36.505  29.442  29.992  1.00  0.00     0.001 A 
ATOM     66  C   UNL A   1      36.867  30.055  27.684  1.00  0.00     0.001 A 
ATOM     67  C   UNL A   1      36.014  29.922  28.779  1.00  0.00     0.000 A 
ENDBRANCH  48  62
BRANCH  49  68
ATOM     68  C   UNL A   1      48.277  26.430  29.522  1.00  0.00    -0.014 A 
ATOM     69  C   UNL A   1      48.807  25.846  30.681  1.00  0.00     0.009 A 
ATOM     70  C   UNL A   1      49.121  26.652  28.424  1.00  0.00     0.009 A 
ATOM     71  C   UNL A   1      50.163  25.516  30.750  1.00  0.00     0.001 A 
ATOM     72  C   UNL A   1      50.471  26.297  28.485  1.00  0.00     0.001 A 
ATOM     73  C   UNL A   1      50.992  25.740  29.651  1.00  0.00     0.000 A 
ENDBRANCH  49  68
BRANCH  61  74
ATOM     74  C   UNL A   1      44.858  32.207  31.326  1.00  0.00    -0.014 A 
ATOM     75  C   UNL A   1      45.039  32.307  32.715  1.00  0.00     0.009 A 
ATOM     76  C   UNL A   1      45.128  33.324  30.521  1.00  0.00     0.009 A 
ATOM     77  C   UNL A   1      45.449  33.513  33.286  1.00  0.00     0.001 A 
ATOM     78  C   UNL A   1      45.562  34.521  31.093  1.00  0.00     0.001 A 
ATOM     79  C   UNL A   1      45.712  34.617  32.476  1.00  0.00     0.000 A 
ENDBRANCH  61  74
ENDBRANCH  35  36
ENDBRANCH  27  30
ENDBRANCH  25  26
ENDBRANCH  24  25
ENDBRANCH  23  24
ENDBRANCH   1  23
TORSDOF 16
ENDMDL
