MODEL 1
REMARK VINA RESULT:     -11.4      0.000      0.000
REMARK SMILES NS(=O)(=O)c1ccc(-n2nc(NC(=O)NCCCC(=O)NCCCCCCNC(=O)c3ccc(-c4c5nc(c(-c6ccccc6)c6ccc([nH]6)c(-c6ccccc6)c6nc(c(-c7ccccc7)c7ccc4[nH]7)C=C6)C=C5)cc3)cc2-c2ccccc2)cc1
REMARK SMILES IDX 22 1 21 2 19 3 20 4 18 6 17 7 16 8 15 9 12 10 13 11 14 13
REMARK SMILES IDX 11 15 9 16 10 17 80 18 79 19 8 20 5 21 6 22 88 23 7 24 87 25
REMARK SMILES IDX 2 26 3 27 4 28 1 29 81 32 82 33 86 34 83 35 85 36 84 37
REMARK SMILES IDX 23 38 24 39 25 40 26 41 27 42 28 43 29 44 30 46 31 47 32 48
REMARK SMILES IDX 78 49 33 50 77 51 34 52 35 53 36 54 71 55 37 56 76 57 70 58
REMARK SMILES IDX 72 59 38 60 75 61 69 62 68 63 39 65 61 66 46 67 60 68 47 69
REMARK SMILES IDX 50 70 59 71 73 72 48 73 49 74 58 76 74 77 51 78 40 79 41 80
REMARK SMILES IDX 45 81 42 82 44 83 43 84 62 85 63 86 67 87 64 88 66 89 65 90
REMARK SMILES IDX 52 91 53 92 57 93 54 94 56 95 55 96
REMARK H PARENT 21 5 12 12 15 14 1 30 1 31 28 45 72 64 50 75
REMARK Flexibility Score: inf
ROOT
ATOM      1  C   UNL A   1      31.828  29.135  24.703  1.00  0.00     0.116 C 
ENDROOT
BRANCH   1   2
ATOM      2  N   UNL A   1      32.664  28.131  24.067  1.00  0.00    -0.356 N 
ATOM      3  C   UNL A   1      32.375  27.270  23.052  1.00  0.00     0.220 C 
ATOM      4  O   UNL A   1      33.166  26.357  22.811  1.00  0.00    -0.275 OA
ATOM      5  H   UNL A   1      33.578  28.060  24.426  1.00  0.00     0.163 HD
BRANCH   3   6
ATOM      6  C   UNL A   1      31.121  27.456  22.216  1.00  0.00     0.102 C 
BRANCH   6   7
ATOM      7  C   UNL A   1      29.831  27.048  22.927  1.00  0.00     0.031 C 
BRANCH   7   8
ATOM      8  C   UNL A   1      29.957  25.834  23.840  1.00  0.00     0.118 C 
BRANCH   8   9
ATOM      9  N   UNL A   1      29.297  25.963  25.131  1.00  0.00    -0.338 N 
ATOM     10  N   UNL A   1      30.062  24.058  26.344  1.00  0.00    -0.291 N 
ATOM     11  C   UNL A   1      29.339  25.193  26.241  1.00  0.00     0.320 C 
ATOM     12  H   UNL A   1      29.750  23.431  27.036  1.00  0.00     0.173 HD
ATOM     13  O   UNL A   1      28.572  25.488  27.164  1.00  0.00    -0.248 OA
ATOM     14  H   UNL A   1      28.716  26.753  25.208  1.00  0.00     0.165 HD
BRANCH  10  15
ATOM     15  C   UNL A   1      31.162  23.634  25.641  1.00  0.00     0.157 A 
ATOM     16  N   UNL A   1      32.520  22.279  24.770  1.00  0.00    -0.231 N 
ATOM     17  N   UNL A   1      31.205  22.533  24.895  1.00  0.00    -0.149 NA
ATOM     18  C   UNL A   1      33.280  23.412  25.034  1.00  0.00     0.076 A 
ATOM     19  C   UNL A   1      32.394  24.325  25.576  1.00  0.00     0.078 A 
BRANCH  16  20
ATOM     20  C   UNL A   1      32.977  20.956  24.522  1.00  0.00     0.065 A 
ATOM     21  C   UNL A   1      33.697  18.296  24.170  1.00  0.00     0.082 A 
ATOM     22  C   UNL A   1      32.741  18.860  23.327  1.00  0.00     0.024 A 
ATOM     23  C   UNL A   1      34.330  19.063  25.156  1.00  0.00     0.024 A 
ATOM     24  C   UNL A   1      32.388  20.196  23.500  1.00  0.00     0.030 A 
ATOM     25  C   UNL A   1      33.979  20.404  25.325  1.00  0.00     0.030 A 
BRANCH  21  26
ATOM     26  S   UNL A   1      34.055  16.571  24.033  1.00  0.00     0.238 S 
ATOM     27  O   UNL A   1      35.107  16.222  24.946  1.00  0.00    -0.207 OA
ATOM     28  O   UNL A   1      34.102  16.230  22.622  1.00  0.00    -0.207 OA
BRANCH  26  29
ATOM     29  N   UNL A   1      32.664  15.864  24.640  1.00  0.00    -0.225 NA
ATOM     30  H   UNL A   1      32.044  15.618  23.869  1.00  0.00     0.137 HD
ATOM     31  H   UNL A   1      32.191  16.521  25.261  1.00  0.00     0.137 HD
ENDBRANCH  26  29
ENDBRANCH  21  26
ENDBRANCH  16  20
BRANCH  18  32
ATOM     32  C   UNL A   1      34.723  23.421  24.834  1.00  0.00     0.000 A 
ATOM     33  C   UNL A   1      35.229  23.279  23.533  1.00  0.00     0.010 A 
ATOM     34  C   UNL A   1      35.579  23.281  25.930  1.00  0.00     0.010 A 
ATOM     35  C   UNL A   1      36.554  22.903  23.331  1.00  0.00     0.001 A 
ATOM     36  C   UNL A   1      36.901  22.886  25.724  1.00  0.00     0.001 A 
ATOM     37  C   UNL A   1      37.382  22.682  24.428  1.00  0.00     0.000 A 
ENDBRANCH  18  32
ENDBRANCH  10  15
ENDBRANCH   8   9
ENDBRANCH   7   8
ENDBRANCH   6   7
ENDBRANCH   3   6
ENDBRANCH   1   2
BRANCH   1  38
ATOM     38  C   UNL A   1      31.529  28.740  26.148  1.00  0.00     0.021 C 
BRANCH  38  39
ATOM     39  C   UNL A   1      32.758  28.479  27.018  1.00  0.00     0.002 C 
BRANCH  39  40
ATOM     40  C   UNL A   1      33.714  29.669  27.164  1.00  0.00     0.002 C 
BRANCH  40  41
ATOM     41  C   UNL A   1      35.149  29.332  27.594  1.00  0.00     0.021 C 
BRANCH  41  42
ATOM     42  C   UNL A   1      35.929  30.523  28.136  1.00  0.00     0.116 C 
BRANCH  42  43
ATOM     43  N   UNL A   1      35.797  30.649  29.585  1.00  0.00    -0.352 N 
ATOM     44  C   UNL A   1      36.579  30.092  30.572  1.00  0.00     0.251 C 
ATOM     45  H   UNL A   1      35.050  31.207  29.898  1.00  0.00     0.163 HD
ATOM     46  O   UNL A   1      36.156  29.983  31.718  1.00  0.00    -0.269 OA
BRANCH  44  47
ATOM     47  C   UNL A   1      37.934  29.622  30.237  1.00  0.00     0.039 A 
ATOM     48  C   UNL A   1      38.931  30.534  29.882  1.00  0.00     0.014 A 
ATOM     49  C   UNL A   1      38.205  28.254  30.277  1.00  0.00     0.014 A 
ATOM     50  C   UNL A   1      40.220  30.061  29.648  1.00  0.00     0.010 A 
ATOM     51  C   UNL A   1      39.500  27.802  30.161  1.00  0.00     0.010 A 
ATOM     52  C   UNL A   1      40.506  28.694  29.811  1.00  0.00    -0.014 A 
BRANCH  52  53
ATOM     53  C   UNL A   1      41.885  28.226  29.716  1.00  0.00     0.031 A 
ATOM     54  C   UNL A   1      42.160  27.303  28.581  1.00  0.00     0.074 A 
ATOM     55  C   UNL A   1      42.910  28.679  30.469  1.00  0.00     0.049 A 
ATOM     56  N   UNL A   1      42.412  26.038  28.637  1.00  0.00    -0.248 NA
ATOM     57  C   UNL A   1      42.040  27.831  27.214  1.00  0.00     0.031 C 
ATOM     58  C   UNL A   1      42.946  29.796  31.420  1.00  0.00     0.029 A 
ATOM     59  N   UNL A   1      44.200  28.242  30.474  1.00  0.00    -0.354 N 
ATOM     60  C   UNL A   1      42.653  25.627  27.329  1.00  0.00     0.074 A 
ATOM     61  C   UNL A   1      42.276  26.736  26.487  1.00  0.00     0.031 C 
ATOM     62  C   UNL A   1      44.232  30.071  31.749  1.00  0.00     0.029 A 
ATOM     63  C   UNL A   1      45.083  29.043  31.183  1.00  0.00     0.049 A 
ATOM     64  H   UNL A   1      44.483  27.421  30.010  1.00  0.00     0.167 HD
ATOM     65  C   UNL A   1      43.342  24.483  27.058  1.00  0.00     0.031 A 
ATOM     66  C   UNL A   1      46.419  28.854  31.309  1.00  0.00     0.031 A 
ATOM     67  C   UNL A   1      43.431  23.627  28.215  1.00  0.00     0.049 A 
ATOM     68  C   UNL A   1      46.719  27.452  30.970  1.00  0.00     0.074 A 
ATOM     69  C   UNL A   1      42.518  22.990  29.035  1.00  0.00     0.029 A 
ATOM     70  N   UNL A   1      44.611  23.637  28.918  1.00  0.00    -0.354 N 
ATOM     71  N   UNL A   1      46.378  26.453  31.725  1.00  0.00    -0.248 NA
ATOM     72  C   UNL A   1      47.028  27.127  29.588  1.00  0.00     0.031 C 
ATOM     73  C   UNL A   1      43.058  23.116  30.352  1.00  0.00     0.029 A 
ATOM     74  C   UNL A   1      44.289  23.762  30.244  1.00  0.00     0.049 A 
ATOM     75  H   UNL A   1      45.517  23.567  28.540  1.00  0.00     0.167 HD
ATOM     76  C   UNL A   1      46.001  25.462  30.836  1.00  0.00     0.074 A 
ATOM     77  C   UNL A   1      46.525  25.892  29.540  1.00  0.00     0.031 C 
ATOM     78  C   UNL A   1      45.063  24.534  31.185  1.00  0.00     0.031 A 
BRANCH  65  79
ATOM     79  C   UNL A   1      44.277  24.325  25.880  1.00  0.00    -0.014 A 
ATOM     80  C   UNL A   1      44.026  23.294  24.954  1.00  0.00     0.009 A 
ATOM     81  C   UNL A   1      45.537  24.947  25.799  1.00  0.00     0.009 A 
ATOM     82  C   UNL A   1      45.015  22.849  24.067  1.00  0.00     0.001 A 
ATOM     83  C   UNL A   1      46.512  24.534  24.886  1.00  0.00     0.001 A 
ATOM     84  C   UNL A   1      46.262  23.462  24.042  1.00  0.00     0.000 A 
ENDBRANCH  65  79
BRANCH  66  85
ATOM     85  C   UNL A   1      47.514  29.829  31.372  1.00  0.00    -0.014 A 
ATOM     86  C   UNL A   1      47.605  30.900  30.476  1.00  0.00     0.009 A 
ATOM     87  C   UNL A   1      48.246  29.896  32.567  1.00  0.00     0.009 A 
ATOM     88  C   UNL A   1      48.412  32.009  30.771  1.00  0.00     0.001 A 
ATOM     89  C   UNL A   1      49.017  31.017  32.875  1.00  0.00     0.001 A 
ATOM     90  C   UNL A   1      49.110  32.071  31.975  1.00  0.00     0.000 A 
ENDBRANCH  66  85
BRANCH  78  91
ATOM     91  C   UNL A   1      44.622  24.504  32.628  1.00  0.00    -0.014 A 
ATOM     92  C   UNL A   1      43.881  25.541  33.226  1.00  0.00     0.009 A 
ATOM     93  C   UNL A   1      44.860  23.342  33.373  1.00  0.00     0.009 A 
ATOM     94  C   UNL A   1      43.424  25.428  34.544  1.00  0.00     0.001 A 
ATOM     95  C   UNL A   1      44.387  23.222  34.680  1.00  0.00     0.001 A 
ATOM     96  C   UNL A   1      43.675  24.266  35.268  1.00  0.00     0.000 A 
ENDBRANCH  78  91
ENDBRANCH  52  53
ENDBRANCH  44  47
ENDBRANCH  42  43
ENDBRANCH  41  42
ENDBRANCH  40  41
ENDBRANCH  39  40
ENDBRANCH  38  39
ENDBRANCH   1  38
TORSDOF 21
ENDMDL
MODEL 2
REMARK VINA RESULT:     -10.9      1.889      5.763
REMARK SMILES NS(=O)(=O)c1ccc(-n2nc(NC(=O)NCCCC(=O)NCCCCCCNC(=O)c3ccc(-c4c5nc(c(-c6ccccc6)c6ccc([nH]6)c(-c6ccccc6)c6nc(c(-c7ccccc7)c7ccc4[nH]7)C=C6)C=C5)cc3)cc2-c2ccccc2)cc1
REMARK SMILES IDX 22 1 21 2 19 3 20 4 18 6 17 7 16 8 15 9 12 10 13 11 14 13
REMARK SMILES IDX 11 15 9 16 10 17 80 18 79 19 8 20 5 21 6 22 88 23 7 24 87 25
REMARK SMILES IDX 2 26 3 27 4 28 1 29 81 32 82 33 86 34 83 35 85 36 84 37
REMARK SMILES IDX 23 38 24 39 25 40 26 41 27 42 28 43 29 44 30 46 31 47 32 48
REMARK SMILES IDX 78 49 33 50 77 51 34 52 35 53 36 54 71 55 37 56 76 57 70 58
REMARK SMILES IDX 72 59 38 60 75 61 69 62 68 63 39 65 61 66 46 67 60 68 47 69
REMARK SMILES IDX 50 70 59 71 73 72 48 73 49 74 58 76 74 77 51 78 40 79 41 80
REMARK SMILES IDX 45 81 42 82 44 83 43 84 62 85 63 86 67 87 64 88 66 89 65 90
REMARK SMILES IDX 52 91 53 92 57 93 54 94 56 95 55 96
REMARK H PARENT 21 5 12 12 15 14 1 30 1 31 28 45 72 64 50 75
REMARK Flexibility Score: inf
ROOT
ATOM      1  C   UNL A   1      32.041  29.822  25.451  1.00  0.00     0.116 C 
ENDROOT
BRANCH   1   2
ATOM      2  N   UNL A   1      32.994  28.733  25.312  1.00  0.00    -0.356 N 
ATOM      3  C   UNL A   1      33.126  27.811  24.319  1.00  0.00     0.220 C 
ATOM      4  O   UNL A   1      33.869  26.846  24.507  1.00  0.00    -0.275 OA
ATOM      5  H   UNL A   1      33.641  28.649  26.049  1.00  0.00     0.163 HD
BRANCH   3   6
ATOM      6  C   UNL A   1      32.400  27.989  22.998  1.00  0.00     0.102 C 
BRANCH   6   7
ATOM      7  C   UNL A   1      30.960  27.477  23.004  1.00  0.00     0.031 C 
BRANCH   7   8
ATOM      8  C   UNL A   1      30.730  26.215  23.828  1.00  0.00     0.118 C 
BRANCH   8   9
ATOM      9  N   UNL A   1      29.914  26.397  25.019  1.00  0.00    -0.338 N 
ATOM     10  N   UNL A   1      30.019  24.274  26.100  1.00  0.00    -0.291 N 
ATOM     11  C   UNL A   1      29.597  25.555  26.028  1.00  0.00     0.320 C 
ATOM     12  H   UNL A   1      29.465  23.688  26.665  1.00  0.00     0.173 HD
ATOM     13  O   UNL A   1      28.776  25.952  26.861  1.00  0.00    -0.248 OA
ATOM     14  H   UNL A   1      29.521  27.295  25.104  1.00  0.00     0.165 HD
BRANCH  10  15
ATOM     15  C   UNL A   1      31.095  23.655  25.515  1.00  0.00     0.157 A 
ATOM     16  N   UNL A   1      32.292  22.069  24.814  1.00  0.00    -0.231 N 
ATOM     17  N   UNL A   1      31.028  22.529  24.809  1.00  0.00    -0.149 NA
ATOM     18  C   UNL A   1      33.196  23.080  25.115  1.00  0.00     0.076 A 
ATOM     19  C   UNL A   1      32.422  24.142  25.545  1.00  0.00     0.078 A 
BRANCH  16  20
ATOM     20  C   UNL A   1      32.554  20.682  24.648  1.00  0.00     0.065 A 
ATOM     21  C   UNL A   1      33.289  18.024  24.311  1.00  0.00     0.082 A 
ATOM     22  C   UNL A   1      33.286  18.572  25.593  1.00  0.00     0.024 A 
ATOM     23  C   UNL A   1      32.882  18.778  23.204  1.00  0.00     0.024 A 
ATOM     24  C   UNL A   1      32.909  19.902  25.760  1.00  0.00     0.030 A 
ATOM     25  C   UNL A   1      32.500  20.110  23.374  1.00  0.00     0.030 A 
BRANCH  21  26
ATOM     26  S   UNL A   1      33.885  16.375  24.082  1.00  0.00     0.238 S 
ATOM     27  O   UNL A   1      34.400  16.230  22.750  1.00  0.00    -0.207 OA
ATOM     28  O   UNL A   1      32.908  15.460  24.645  1.00  0.00    -0.207 OA
BRANCH  26  29
ATOM     29  N   UNL A   1      35.214  16.328  25.098  1.00  0.00    -0.225 NA
ATOM     30  H   UNL A   1      34.915  16.064  26.037  1.00  0.00     0.137 HD
ATOM     31  H   UNL A   1      35.655  17.247  25.127  1.00  0.00     0.137 HD
ENDBRANCH  26  29
ENDBRANCH  21  26
ENDBRANCH  16  20
BRANCH  18  32
ATOM     32  C   UNL A   1      34.634  22.857  25.050  1.00  0.00     0.000 A 
ATOM     33  C   UNL A   1      35.226  22.601  23.803  1.00  0.00     0.010 A 
ATOM     34  C   UNL A   1      35.355  22.613  26.222  1.00  0.00     0.010 A 
ATOM     35  C   UNL A   1      36.487  22.017  23.730  1.00  0.00     0.001 A 
ATOM     36  C   UNL A   1      36.611  22.010  26.145  1.00  0.00     0.001 A 
ATOM     37  C   UNL A   1      37.167  21.698  24.902  1.00  0.00     0.000 A 
ENDBRANCH  18  32
ENDBRANCH  10  15
ENDBRANCH   8   9
ENDBRANCH   7   8
ENDBRANCH   6   7
ENDBRANCH   3   6
ENDBRANCH   1   2
BRANCH   1  38
ATOM     38  C   UNL A   1      32.027  30.336  26.890  1.00  0.00     0.021 C 
BRANCH  38  39
ATOM     39  C   UNL A   1      33.400  30.653  27.480  1.00  0.00     0.002 C 
BRANCH  39  40
ATOM     40  C   UNL A   1      33.701  32.146  27.658  1.00  0.00     0.002 C 
BRANCH  40  41
ATOM     41  C   UNL A   1      35.186  32.529  27.741  1.00  0.00     0.021 C 
BRANCH  41  42
ATOM     42  C   UNL A   1      35.462  33.752  28.605  1.00  0.00     0.116 C 
BRANCH  42  43
ATOM     43  N   UNL A   1      35.033  33.553  29.987  1.00  0.00    -0.352 N 
ATOM     44  C   UNL A   1      35.325  32.510  30.837  1.00  0.00     0.251 C 
ATOM     45  H   UNL A   1      34.458  34.258  30.360  1.00  0.00     0.163 HD
ATOM     46  O   UNL A   1      34.626  32.289  31.820  1.00  0.00    -0.269 OA
BRANCH  44  47
ATOM     47  C   UNL A   1      36.489  31.654  30.552  1.00  0.00     0.039 A 
ATOM     48  C   UNL A   1      37.784  32.174  30.621  1.00  0.00     0.014 A 
ATOM     49  C   UNL A   1      36.279  30.318  30.208  1.00  0.00     0.014 A 
ATOM     50  C   UNL A   1      38.863  31.317  30.422  1.00  0.00     0.010 A 
ATOM     51  C   UNL A   1      37.343  29.448  30.128  1.00  0.00     0.010 A 
ATOM     52  C   UNL A   1      38.639  29.947  30.197  1.00  0.00    -0.014 A 
BRANCH  52  53
ATOM     53  C   UNL A   1      39.770  29.026  30.143  1.00  0.00     0.031 A 
ATOM     54  C   UNL A   1      40.373  28.692  31.462  1.00  0.00     0.074 A 
ATOM     55  C   UNL A   1      40.184  28.372  29.036  1.00  0.00     0.049 A 
ATOM     56  N   UNL A   1      41.523  29.063  31.919  1.00  0.00    -0.248 NA
ATOM     57  C   UNL A   1      39.558  27.941  32.427  1.00  0.00     0.031 C 
ATOM     58  C   UNL A   1      39.561  28.297  27.711  1.00  0.00     0.029 A 
ATOM     59  N   UNL A   1      41.264  27.553  28.905  1.00  0.00    -0.354 N 
ATOM     60  C   UNL A   1      41.664  28.458  33.164  1.00  0.00     0.074 A 
ATOM     61  C   UNL A   1      40.373  27.895  33.483  1.00  0.00     0.031 C 
ATOM     62  C   UNL A   1      40.159  27.323  26.982  1.00  0.00     0.029 A 
ATOM     63  C   UNL A   1      41.313  26.841  27.716  1.00  0.00     0.049 A 
ATOM     64  H   UNL A   1      41.956  27.473  29.601  1.00  0.00     0.167 HD
ATOM     65  C   UNL A   1      42.887  28.286  33.738  1.00  0.00     0.031 A 
ATOM     66  C   UNL A   1      42.254  25.935  27.357  1.00  0.00     0.031 A 
ATOM     67  C   UNL A   1      43.892  29.108  33.109  1.00  0.00     0.049 A 
ATOM     68  C   UNL A   1      43.442  26.147  28.203  1.00  0.00     0.074 A 
ATOM     69  C   UNL A   1      44.070  30.466  32.921  1.00  0.00     0.029 A 
ATOM     70  N   UNL A   1      44.729  28.499  32.206  1.00  0.00    -0.354 N 
ATOM     71  N   UNL A   1      44.215  27.184  28.090  1.00  0.00    -0.248 NA
ATOM     72  C   UNL A   1      43.537  25.419  29.456  1.00  0.00     0.031 C 
ATOM     73  C   UNL A   1      44.600  30.587  31.600  1.00  0.00     0.029 A 
ATOM     74  C   UNL A   1      44.771  29.298  31.094  1.00  0.00     0.049 A 
ATOM     75  H   UNL A   1      45.209  27.650  32.334  1.00  0.00     0.167 HD
ATOM     76  C   UNL A   1      44.560  27.501  29.393  1.00  0.00     0.074 A 
ATOM     77  C   UNL A   1      44.206  26.319  30.179  1.00  0.00     0.031 C 
ATOM     78  C   UNL A   1      44.837  28.790  29.745  1.00  0.00     0.031 A 
BRANCH  65  79
ATOM     79  C   UNL A   1      43.258  27.089  34.585  1.00  0.00    -0.014 A 
ATOM     80  C   UNL A   1      43.789  27.311  35.870  1.00  0.00     0.009 A 
ATOM     81  C   UNL A   1      43.379  25.784  34.074  1.00  0.00     0.009 A 
ATOM     82  C   UNL A   1      44.487  26.310  36.559  1.00  0.00     0.001 A 
ATOM     83  C   UNL A   1      44.037  24.769  34.776  1.00  0.00     0.001 A 
ATOM     84  C   UNL A   1      44.621  25.042  36.005  1.00  0.00     0.000 A 
ENDBRANCH  65  79
BRANCH  66  85
ATOM     85  C   UNL A   1      42.131  24.690  26.590  1.00  0.00    -0.014 A 
ATOM     86  C   UNL A   1      43.118  24.274  25.689  1.00  0.00     0.009 A 
ATOM     87  C   UNL A   1      41.206  23.741  27.052  1.00  0.00     0.009 A 
ATOM     88  C   UNL A   1      43.173  22.940  25.261  1.00  0.00     0.001 A 
ATOM     89  C   UNL A   1      41.288  22.406  26.654  1.00  0.00     0.001 A 
ATOM     90  C   UNL A   1      42.264  22.004  25.751  1.00  0.00     0.000 A 
ENDBRANCH  66  85
BRANCH  78  91
ATOM     91  C   UNL A   1      44.960  29.801  28.633  1.00  0.00    -0.014 A 
ATOM     92  C   UNL A   1      46.187  30.123  28.020  1.00  0.00     0.009 A 
ATOM     93  C   UNL A   1      43.789  30.360  28.108  1.00  0.00     0.009 A 
ATOM     94  C   UNL A   1      46.237  31.006  26.936  1.00  0.00     0.001 A 
ATOM     95  C   UNL A   1      43.837  31.225  27.014  1.00  0.00     0.001 A 
ATOM     96  C   UNL A   1      45.060  31.553  26.432  1.00  0.00     0.000 A 
ENDBRANCH  78  91
ENDBRANCH  52  53
ENDBRANCH  44  47
ENDBRANCH  42  43
ENDBRANCH  41  42
ENDBRANCH  40  41
ENDBRANCH  39  40
ENDBRANCH  38  39
ENDBRANCH   1  38
TORSDOF 21
ENDMDL
MODEL 3
REMARK VINA RESULT:     -10.6      5.296     11.571
REMARK SMILES NS(=O)(=O)c1ccc(-n2nc(NC(=O)NCCCC(=O)NCCCCCCNC(=O)c3ccc(-c4c5nc(c(-c6ccccc6)c6ccc([nH]6)c(-c6ccccc6)c6nc(c(-c7ccccc7)c7ccc4[nH]7)C=C6)C=C5)cc3)cc2-c2ccccc2)cc1
REMARK SMILES IDX 22 1 21 2 19 3 20 4 18 6 17 7 16 8 15 9 12 10 13 11 14 13
REMARK SMILES IDX 11 15 9 16 10 17 80 18 79 19 8 20 5 21 6 22 88 23 7 24 87 25
REMARK SMILES IDX 2 26 3 27 4 28 1 29 81 32 82 33 86 34 83 35 85 36 84 37
REMARK SMILES IDX 23 38 24 39 25 40 26 41 27 42 28 43 29 44 30 46 31 47 32 48
REMARK SMILES IDX 78 49 33 50 77 51 34 52 35 53 36 54 71 55 37 56 76 57 70 58
REMARK SMILES IDX 72 59 38 60 75 61 69 62 68 63 39 65 61 66 46 67 60 68 47 69
REMARK SMILES IDX 50 70 59 71 73 72 48 73 49 74 58 76 74 77 51 78 40 79 41 80
REMARK SMILES IDX 45 81 42 82 44 83 43 84 62 85 63 86 67 87 64 88 66 89 65 90
REMARK SMILES IDX 52 91 53 92 57 93 54 94 56 95 55 96
REMARK H PARENT 21 5 12 12 15 14 1 30 1 31 28 45 72 64 50 75
REMARK Flexibility Score: inf
ROOT
ATOM      1  C   UNL A   1      49.790  26.568  31.148  1.00  0.00     0.116 C 
ENDROOT
BRANCH   1   2
ATOM      2  N   UNL A   1      48.763  25.762  30.510  1.00  0.00    -0.356 N 
ATOM      3  C   UNL A   1      47.960  26.052  29.448  1.00  0.00     0.220 C 
ATOM      4  O   UNL A   1      47.012  25.304  29.206  1.00  0.00    -0.275 OA
ATOM      5  H   UNL A   1      48.626  24.871  30.905  1.00  0.00     0.163 HD
BRANCH   3   6
ATOM      6  C   UNL A   1      48.250  27.253  28.566  1.00  0.00     0.102 C 
BRANCH   6   7
ATOM      7  C   UNL A   1      47.246  28.395  28.717  1.00  0.00     0.031 C 
BRANCH   7   8
ATOM      8  C   UNL A   1      46.112  28.393  27.698  1.00  0.00     0.118 C 
BRANCH   8   9
ATOM      9  N   UNL A   1      46.452  28.951  26.398  1.00  0.00    -0.338 N 
ATOM     10  N   UNL A   1      45.361  27.492  24.859  1.00  0.00    -0.291 N 
ATOM     11  C   UNL A   1      46.124  28.569  25.143  1.00  0.00     0.320 C 
ATOM     12  H   UNL A   1      45.480  27.130  23.951  1.00  0.00     0.173 HD
ATOM     13  O   UNL A   1      46.660  29.174  24.208  1.00  0.00    -0.248 OA
ATOM     14  H   UNL A   1      47.023  29.751  26.440  1.00  0.00     0.165 HD
BRANCH  10  15
ATOM     15  C   UNL A   1      44.445  26.819  25.629  1.00  0.00     0.157 A 
ATOM     16  N   UNL A   1      43.417  25.173  26.449  1.00  0.00    -0.231 N 
ATOM     17  N   UNL A   1      44.655  25.629  26.187  1.00  0.00    -0.149 NA
ATOM     18  C   UNL A   1      42.492  26.210  26.477  1.00  0.00     0.076 A 
ATOM     19  C   UNL A   1      43.164  27.308  25.972  1.00  0.00     0.078 A 
BRANCH  16  20
ATOM     20  C   UNL A   1      43.170  23.777  26.542  1.00  0.00     0.065 A 
ATOM     21  C   UNL A   1      42.468  21.091  26.664  1.00  0.00     0.082 A 
ATOM     22  C   UNL A   1      42.855  21.639  25.442  1.00  0.00     0.024 A 
ATOM     23  C   UNL A   1      42.474  21.862  27.833  1.00  0.00     0.024 A 
ATOM     24  C   UNL A   1      43.214  22.983  25.385  1.00  0.00     0.030 A 
ATOM     25  C   UNL A   1      42.840  23.208  27.775  1.00  0.00     0.030 A 
BRANCH  21  26
ATOM     26  S   UNL A   1      41.893  19.421  26.715  1.00  0.00     0.238 S 
ATOM     27  O   UNL A   1      43.013  18.528  26.801  1.00  0.00    -0.207 OA
ATOM     28  O   UNL A   1      40.851  19.271  25.713  1.00  0.00    -0.207 OA
BRANCH  26  29
ATOM     29  N   UNL A   1      41.128  19.347  28.202  1.00  0.00    -0.225 NA
ATOM     30  H   UNL A   1      40.880  20.289  28.504  1.00  0.00     0.137 HD
ATOM     31  H   UNL A   1      41.755  18.925  28.887  1.00  0.00     0.137 HD
ENDBRANCH  26  29
ENDBRANCH  21  26
ENDBRANCH  16  20
BRANCH  18  32
ATOM     32  C   UNL A   1      41.109  25.983  26.872  1.00  0.00     0.000 A 
ATOM     33  C   UNL A   1      40.717  26.293  28.183  1.00  0.00     0.010 A 
ATOM     34  C   UNL A   1      40.272  25.207  26.064  1.00  0.00     0.010 A 
ATOM     35  C   UNL A   1      39.549  25.755  28.715  1.00  0.00     0.001 A 
ATOM     36  C   UNL A   1      39.112  24.654  26.606  1.00  0.00     0.001 A 
ATOM     37  C   UNL A   1      38.761  24.914  27.934  1.00  0.00     0.000 A 
ENDBRANCH  18  32
ENDBRANCH  10  15
ENDBRANCH   8   9
ENDBRANCH   7   8
ENDBRANCH   6   7
ENDBRANCH   3   6
ENDBRANCH   1   2
BRANCH   1  38
ATOM     38  C   UNL A   1      50.272  25.895  32.432  1.00  0.00     0.021 C 
BRANCH  38  39
ATOM     39  C   UNL A   1      49.660  24.524  32.715  1.00  0.00     0.002 C 
BRANCH  39  40
ATOM     40  C   UNL A   1      48.592  24.504  33.815  1.00  0.00     0.002 C 
BRANCH  40  41
ATOM     41  C   UNL A   1      48.004  25.866  34.208  1.00  0.00     0.021 C 
BRANCH  41  42
ATOM     42  C   UNL A   1      46.779  26.270  33.397  1.00  0.00     0.116 C 
BRANCH  42  43
ATOM     43  N   UNL A   1      46.110  25.114  32.807  1.00  0.00    -0.352 N 
ATOM     44  C   UNL A   1      44.841  25.032  32.279  1.00  0.00     0.251 C 
ATOM     45  H   UNL A   1      46.635  24.283  32.783  1.00  0.00     0.163 HD
ATOM     46  O   UNL A   1      44.285  23.945  32.152  1.00  0.00    -0.269 OA
BRANCH  44  47
ATOM     47  C   UNL A   1      44.150  26.266  31.871  1.00  0.00     0.039 A 
ATOM     48  C   UNL A   1      44.018  26.589  30.518  1.00  0.00     0.014 A 
ATOM     49  C   UNL A   1      43.633  27.110  32.855  1.00  0.00     0.014 A 
ATOM     50  C   UNL A   1      43.291  27.723  30.166  1.00  0.00     0.010 A 
ATOM     51  C   UNL A   1      42.818  28.163  32.504  1.00  0.00     0.010 A 
ATOM     52  C   UNL A   1      42.672  28.497  31.163  1.00  0.00    -0.014 A 
BRANCH  52  53
ATOM     53  C   UNL A   1      41.786  29.593  30.785  1.00  0.00     0.031 A 
ATOM     54  C   UNL A   1      42.468  30.784  30.207  1.00  0.00     0.074 A 
ATOM     55  C   UNL A   1      40.437  29.533  30.783  1.00  0.00     0.049 A 
ATOM     56  N   UNL A   1      42.618  31.945  30.751  1.00  0.00    -0.248 NA
ATOM     57  C   UNL A   1      43.153  30.632  28.916  1.00  0.00     0.031 C 
ATOM     58  C   UNL A   1      39.555  28.382  31.004  1.00  0.00     0.029 A 
ATOM     59  N   UNL A   1      39.557  30.534  30.503  1.00  0.00    -0.354 N 
ATOM     60  C   UNL A   1      43.269  32.737  29.809  1.00  0.00     0.074 A 
ATOM     61  C   UNL A   1      43.694  31.843  28.760  1.00  0.00     0.031 C 
ATOM     62  C   UNL A   1      38.288  28.707  30.649  1.00  0.00     0.029 A 
ATOM     63  C   UNL A   1      38.239  30.126  30.358  1.00  0.00     0.049 A 
ATOM     64  H   UNL A   1      39.834  31.474  30.411  1.00  0.00     0.167 HD
ATOM     65  C   UNL A   1      43.221  34.098  29.869  1.00  0.00     0.031 A 
ATOM     66  C   UNL A   1      37.182  30.912  30.040  1.00  0.00     0.031 A 
ATOM     67  C   UNL A   1      42.774  34.560  31.159  1.00  0.00     0.049 A 
ATOM     68  C   UNL A   1      37.552  32.312  30.314  1.00  0.00     0.074 A 
ATOM     69  C   UNL A   1      43.228  34.430  32.458  1.00  0.00     0.029 A 
ATOM     70  N   UNL A   1      41.464  34.958  31.267  1.00  0.00    -0.354 N 
ATOM     71  N   UNL A   1      37.704  32.782  31.514  1.00  0.00    -0.248 NA
ATOM     72  C   UNL A   1      38.164  33.086  29.247  1.00  0.00     0.031 C 
ATOM     73  C   UNL A   1      42.048  34.259  33.244  1.00  0.00     0.029 A 
ATOM     74  C   UNL A   1      40.952  34.359  32.388  1.00  0.00     0.049 A 
ATOM     75  H   UNL A   1      40.983  35.561  30.655  1.00  0.00     0.167 HD
ATOM     76  C   UNL A   1      38.782  33.644  31.413  1.00  0.00     0.074 A 
ATOM     77  C   UNL A   1      38.953  33.875  29.979  1.00  0.00     0.031 C 
ATOM     78  C   UNL A   1      39.601  33.862  32.483  1.00  0.00     0.031 A 
BRANCH  65  79
ATOM     79  C   UNL A   1      43.182  34.991  28.649  1.00  0.00    -0.014 A 
ATOM     80  C   UNL A   1      44.371  35.628  28.242  1.00  0.00     0.009 A 
ATOM     81  C   UNL A   1      41.990  35.456  28.064  1.00  0.00     0.009 A 
ATOM     82  C   UNL A   1      44.353  36.730  27.377  1.00  0.00     0.001 A 
ATOM     83  C   UNL A   1      41.972  36.529  27.167  1.00  0.00     0.001 A 
ATOM     84  C   UNL A   1      43.151  37.188  26.850  1.00  0.00     0.000 A 
ENDBRANCH  65  79
BRANCH  66  85
ATOM     85  C   UNL A   1      36.000  30.628  29.218  1.00  0.00    -0.014 A 
ATOM     86  C   UNL A   1      34.984  31.572  29.032  1.00  0.00     0.009 A 
ATOM     87  C   UNL A   1      36.087  29.555  28.319  1.00  0.00     0.009 A 
ATOM     88  C   UNL A   1      34.075  31.440  27.972  1.00  0.00     0.001 A 
ATOM     89  C   UNL A   1      35.206  29.448  27.242  1.00  0.00     0.001 A 
ATOM     90  C   UNL A   1      34.193  30.383  27.071  1.00  0.00     0.000 A 
ENDBRANCH  66  85
BRANCH  78  91
ATOM     91  C   UNL A   1      39.165  33.303  33.815  1.00  0.00    -0.014 A 
ATOM     92  C   UNL A   1      39.216  31.931  34.125  1.00  0.00     0.009 A 
ATOM     93  C   UNL A   1      38.802  34.201  34.827  1.00  0.00     0.009 A 
ATOM     94  C   UNL A   1      38.879  31.472  35.403  1.00  0.00     0.001 A 
ATOM     95  C   UNL A   1      38.485  33.744  36.108  1.00  0.00     0.001 A 
ATOM     96  C   UNL A   1      38.517  32.381  36.394  1.00  0.00     0.000 A 
ENDBRANCH  78  91
ENDBRANCH  52  53
ENDBRANCH  44  47
ENDBRANCH  42  43
ENDBRANCH  41  42
ENDBRANCH  40  41
ENDBRANCH  39  40
ENDBRANCH  38  39
ENDBRANCH   1  38
TORSDOF 21
ENDMDL
