MODEL 1
REMARK VINA RESULT:     -11.6      0.000      0.000
REMARK SMILES CCc1cc(C)c2c(c1)C=C(C(=O)NCCCCCCNC(=O)c1ccc(-c3c4nc(c(-c5ccccc5)c5ccc([nH]5)c(-c5ccccc5)c5nc(c(-c6ccccc6)c6ccc3[nH]6)C=C5)C=C4)cc1)[C@@H](C(F)(F)F)O2
REMARK SMILES IDX 18 1 17 2 16 3 15 4 14 5 12 6 13 7 11 9 3 10 4 11 9 12 5 13
REMARK SMILES IDX 8 14 6 15 7 16 10 17 77 18 72 19 2 20 1 21 73 22 74 23 75 24
REMARK SMILES IDX 76 25 19 26 20 27 21 28 22 29 23 31 24 32 25 33 71 34 26 35
REMARK SMILES IDX 70 36 27 37 28 38 29 39 64 40 30 41 69 42 63 43 65 44 31 45
REMARK SMILES IDX 68 46 62 47 61 48 32 50 54 51 39 52 53 53 40 54 43 55 52 56
REMARK SMILES IDX 66 57 41 58 42 59 51 61 67 62 44 63 33 64 34 65 38 66 35 67
REMARK SMILES IDX 37 68 36 69 55 70 56 71 60 72 57 73 59 74 58 75 45 76 46 77
REMARK SMILES IDX 50 78 47 79 49 80 48 81
REMARK H PARENT 14 8 21 30 65 49 43 60
REMARK Flexibility Score: inf
ROOT
ATOM      1  C   UNL A   1      31.483  28.632  26.055  1.00  0.00     0.002 C 
ENDROOT
BRANCH   1   2
ATOM      2  C   UNL A   1      31.654  28.236  24.581  1.00  0.00     0.002 C 
BRANCH   2   3
ATOM      3  C   UNL A   1      30.425  27.594  23.931  1.00  0.00     0.021 C 
BRANCH   3   4
ATOM      4  C   UNL A   1      30.660  26.167  23.446  1.00  0.00     0.116 C 
BRANCH   4   5
ATOM      5  N   UNL A   1      31.568  26.124  22.315  1.00  0.00    -0.352 N 
ATOM      6  C   UNL A   1      32.647  25.403  21.935  1.00  0.00     0.251 C 
ATOM      7  O   UNL A   1      33.115  25.704  20.832  1.00  0.00    -0.270 OA
ATOM      8  H   UNL A   1      31.335  26.804  21.641  1.00  0.00     0.163 HD
BRANCH   6   9
ATOM      9  C   UNL A   1      33.284  24.311  22.733  1.00  0.00     0.067 C 
ATOM     10  C   UNL A   1      33.047  19.725  24.282  1.00  0.00    -0.047 A 
ATOM     11  C   UNL A   1      34.311  19.867  24.875  1.00  0.00     0.011 A 
ATOM     12  C   UNL A   1      32.497  20.804  23.575  1.00  0.00     0.015 A 
ATOM     13  C   UNL A   1      35.028  21.063  24.761  1.00  0.00    -0.008 A 
ATOM     14  C   UNL A   1      33.198  22.007  23.461  1.00  0.00     0.018 A 
ATOM     15  C   UNL A   1      36.390  21.197  25.380  1.00  0.00     0.048 C 
ATOM     16  C   UNL A   1      34.456  22.128  24.055  1.00  0.00     0.130 A 
ATOM     17  C   UNL A   1      32.655  23.121  22.693  1.00  0.00     0.025 C 
ATOM     18  O   UNL A   1      35.210  23.258  23.933  1.00  0.00    -0.475 OA
ATOM     19  C   UNL A   1      34.518  24.480  23.571  1.00  0.00     0.314 C 
BRANCH  10  20
ATOM     20  C   UNL A   1      32.316  18.410  24.369  1.00  0.00     0.032 C 
ATOM     21  C   UNL A   1      32.691  17.645  25.628  1.00  0.00     0.009 C 
ENDBRANCH  10  20
BRANCH  19  22
ATOM     22  C   UNL A   1      34.270  25.306  24.845  1.00  0.00     0.429 C 
ATOM     23  F   UNL A   1      34.320  26.634  24.563  1.00  0.00    -0.167 F 
ATOM     24  F   UNL A   1      33.049  25.082  25.384  1.00  0.00    -0.167 F 
ATOM     25  F   UNL A   1      35.180  25.064  25.813  1.00  0.00    -0.167 F 
ENDBRANCH  19  22
ENDBRANCH   6   9
ENDBRANCH   4   5
ENDBRANCH   3   4
ENDBRANCH   2   3
ENDBRANCH   1   2
BRANCH   1  26
ATOM     26  C   UNL A   1      32.416  27.920  27.040  1.00  0.00     0.021 C 
BRANCH  26  27
ATOM     27  C   UNL A   1      33.782  28.577  27.200  1.00  0.00     0.116 C 
BRANCH  27  28
ATOM     28  N   UNL A   1      33.662  29.976  27.572  1.00  0.00    -0.352 N 
ATOM     29  C   UNL A   1      34.553  30.759  28.260  1.00  0.00     0.251 C 
ATOM     30  H   UNL A   1      32.829  30.422  27.294  1.00  0.00     0.163 HD
ATOM     31  O   UNL A   1      34.223  31.859  28.689  1.00  0.00    -0.269 OA
BRANCH  29  32
ATOM     32  C   UNL A   1      35.923  30.260  28.481  1.00  0.00     0.039 A 
ATOM     33  C   UNL A   1      36.261  29.738  29.731  1.00  0.00     0.014 A 
ATOM     34  C   UNL A   1      36.869  30.325  27.453  1.00  0.00     0.014 A 
ATOM     35  C   UNL A   1      37.549  29.244  29.942  1.00  0.00     0.010 A 
ATOM     36  C   UNL A   1      38.139  29.792  27.651  1.00  0.00     0.010 A 
ATOM     37  C   UNL A   1      38.490  29.259  28.901  1.00  0.00    -0.014 A 
BRANCH  37  38
ATOM     38  C   UNL A   1      39.868  28.765  29.117  1.00  0.00     0.031 A 
ATOM     39  C   UNL A   1      40.891  29.672  29.739  1.00  0.00     0.074 A 
ATOM     40  C   UNL A   1      40.206  27.521  28.730  1.00  0.00     0.049 A 
ATOM     41  N   UNL A   1      42.159  29.445  29.969  1.00  0.00    -0.248 NA
ATOM     42  C   UNL A   1      40.436  31.013  30.147  1.00  0.00     0.031 C 
ATOM     43  C   UNL A   1      39.303  26.554  28.101  1.00  0.00     0.029 A 
ATOM     44  N   UNL A   1      41.405  26.858  28.805  1.00  0.00    -0.354 N 
ATOM     45  C   UNL A   1      42.649  30.609  30.543  1.00  0.00     0.074 A 
ATOM     46  C   UNL A   1      41.559  31.556  30.594  1.00  0.00     0.031 C 
ATOM     47  C   UNL A   1      39.978  25.416  27.864  1.00  0.00     0.029 A 
ATOM     48  C   UNL A   1      41.362  25.583  28.297  1.00  0.00     0.049 A 
ATOM     49  H   UNL A   1      42.218  27.258  29.188  1.00  0.00     0.167 HD
ATOM     50  C   UNL A   1      43.894  30.855  31.008  1.00  0.00     0.031 A 
ATOM     51  C   UNL A   1      42.331  24.654  28.190  1.00  0.00     0.031 A 
ATOM     52  C   UNL A   1      44.973  29.909  30.980  1.00  0.00     0.049 A 
ATOM     53  C   UNL A   1      43.712  24.964  28.695  1.00  0.00     0.074 A 
ATOM     54  C   UNL A   1      46.259  30.063  31.463  1.00  0.00     0.029 A 
ATOM     55  N   UNL A   1      44.887  28.632  30.452  1.00  0.00    -0.354 N 
ATOM     56  N   UNL A   1      44.152  26.060  29.263  1.00  0.00    -0.248 NA
ATOM     57  C   UNL A   1      44.729  23.911  28.551  1.00  0.00     0.031 C 
ATOM     58  C   UNL A   1      46.966  28.889  31.197  1.00  0.00     0.029 A 
ATOM     59  C   UNL A   1      46.105  27.992  30.585  1.00  0.00     0.049 A 
ATOM     60  H   UNL A   1      44.082  28.240  30.042  1.00  0.00     0.167 HD
ATOM     61  C   UNL A   1      45.487  25.823  29.561  1.00  0.00     0.074 A 
ATOM     62  C   UNL A   1      45.786  24.477  29.119  1.00  0.00     0.031 C 
ATOM     63  C   UNL A   1      46.383  26.650  30.148  1.00  0.00     0.031 A 
BRANCH  50  64
ATOM     64  C   UNL A   1      44.166  32.198  31.618  1.00  0.00    -0.014 A 
ATOM     65  C   UNL A   1      43.930  32.419  32.984  1.00  0.00     0.009 A 
ATOM     66  C   UNL A   1      44.767  33.208  30.853  1.00  0.00     0.009 A 
ATOM     67  C   UNL A   1      44.294  33.630  33.572  1.00  0.00     0.001 A 
ATOM     68  C   UNL A   1      45.145  34.411  31.449  1.00  0.00     0.001 A 
ATOM     69  C   UNL A   1      44.910  34.621  32.807  1.00  0.00     0.000 A 
ENDBRANCH  50  64
BRANCH  51  70
ATOM     70  C   UNL A   1      42.021  23.332  27.588  1.00  0.00    -0.014 A 
ATOM     71  C   UNL A   1      41.443  22.317  28.364  1.00  0.00     0.009 A 
ATOM     72  C   UNL A   1      42.284  23.088  26.232  1.00  0.00     0.009 A 
ATOM     73  C   UNL A   1      41.147  21.076  27.797  1.00  0.00     0.001 A 
ATOM     74  C   UNL A   1      41.967  21.852  25.662  1.00  0.00     0.001 A 
ATOM     75  C   UNL A   1      41.404  20.846  26.445  1.00  0.00     0.000 A 
ENDBRANCH  51  70
BRANCH  63  76
ATOM     76  C   UNL A   1      47.774  26.138  30.372  1.00  0.00    -0.014 A 
ATOM     77  C   UNL A   1      48.741  26.228  29.361  1.00  0.00     0.009 A 
ATOM     78  C   UNL A   1      48.151  25.686  31.646  1.00  0.00     0.009 A 
ATOM     79  C   UNL A   1      50.065  25.871  29.623  1.00  0.00     0.001 A 
ATOM     80  C   UNL A   1      49.479  25.348  31.910  1.00  0.00     0.001 A 
ATOM     81  C   UNL A   1      50.434  25.441  30.899  1.00  0.00     0.000 A 
ENDBRANCH  63  76
ENDBRANCH  37  38
ENDBRANCH  29  32
ENDBRANCH  27  28
ENDBRANCH  26  27
ENDBRANCH   1  26
TORSDOF 15
ENDMDL
MODEL 2
REMARK VINA RESULT:     -11.5      5.248     10.725
REMARK SMILES CCc1cc(C)c2c(c1)C=C(C(=O)NCCCCCCNC(=O)c1ccc(-c3c4nc(c(-c5ccccc5)c5ccc([nH]5)c(-c5ccccc5)c5nc(c(-c6ccccc6)c6ccc3[nH]6)C=C5)C=C4)cc1)[C@@H](C(F)(F)F)O2
REMARK SMILES IDX 18 1 17 2 16 3 15 4 14 5 12 6 13 7 11 9 3 10 4 11 9 12 5 13
REMARK SMILES IDX 8 14 6 15 7 16 10 17 77 18 72 19 2 20 1 21 73 22 74 23 75 24
REMARK SMILES IDX 76 25 19 26 20 27 21 28 22 29 23 31 24 32 25 33 71 34 26 35
REMARK SMILES IDX 70 36 27 37 28 38 29 39 64 40 30 41 69 42 63 43 65 44 31 45
REMARK SMILES IDX 68 46 62 47 61 48 32 50 54 51 39 52 53 53 40 54 43 55 52 56
REMARK SMILES IDX 66 57 41 58 42 59 51 61 67 62 44 63 33 64 34 65 38 66 35 67
REMARK SMILES IDX 37 68 36 69 55 70 56 71 60 72 57 73 59 74 58 75 45 76 46 77
REMARK SMILES IDX 50 78 47 79 49 80 48 81
REMARK H PARENT 14 8 21 30 65 49 43 60
REMARK Flexibility Score: inf
ROOT
ATOM      1  C   UNL A   1      45.295  20.489  25.260  1.00  0.00     0.002 C 
ENDROOT
BRANCH   1   2
ATOM      2  C   UNL A   1      45.215  21.672  24.283  1.00  0.00     0.002 C 
BRANCH   2   3
ATOM      3  C   UNL A   1      46.376  22.667  24.366  1.00  0.00     0.021 C 
BRANCH   3   4
ATOM      4  C   UNL A   1      46.131  23.819  25.337  1.00  0.00     0.116 C 
BRANCH   4   5
ATOM      5  N   UNL A   1      44.865  24.480  25.080  1.00  0.00    -0.352 N 
ATOM      6  C   UNL A   1      44.351  25.725  25.213  1.00  0.00     0.251 C 
ATOM      7  O   UNL A   1      43.183  25.850  24.831  1.00  0.00    -0.270 OA
ATOM      8  H   UNL A   1      44.201  23.856  24.708  1.00  0.00     0.163 HD
BRANCH   6   9
ATOM      9  C   UNL A   1      45.076  26.906  25.771  1.00  0.00     0.067 C 
ATOM     10  C   UNL A   1      44.781  31.413  27.528  1.00  0.00    -0.047 A 
ATOM     11  C   UNL A   1      46.155  31.388  27.807  1.00  0.00     0.011 A 
ATOM     12  C   UNL A   1      44.172  30.277  26.974  1.00  0.00     0.015 A 
ATOM     13  C   UNL A   1      46.920  30.246  27.546  1.00  0.00    -0.008 A 
ATOM     14  C   UNL A   1      44.926  29.133  26.700  1.00  0.00     0.018 A 
ATOM     15  C   UNL A   1      48.387  30.222  27.869  1.00  0.00     0.048 C 
ATOM     16  C   UNL A   1      46.293  29.126  26.987  1.00  0.00     0.130 A 
ATOM     17  C   UNL A   1      44.298  27.932  26.164  1.00  0.00     0.025 C 
ATOM     18  O   UNL A   1      47.069  28.021  26.793  1.00  0.00    -0.475 OA
ATOM     19  C   UNL A   1      46.570  27.015  25.876  1.00  0.00     0.314 C 
BRANCH  10  20
ATOM     20  C   UNL A   1      43.964  32.633  27.868  1.00  0.00     0.032 C 
ATOM     21  C   UNL A   1      44.631  33.907  27.373  1.00  0.00     0.009 C 
ENDBRANCH  10  20
BRANCH  19  22
ATOM     22  C   UNL A   1      47.256  27.202  24.512  1.00  0.00     0.429 C 
ATOM     23  F   UNL A   1      48.478  27.773  24.672  1.00  0.00    -0.167 F 
ATOM     24  F   UNL A   1      47.470  26.030  23.870  1.00  0.00    -0.167 F 
ATOM     25  F   UNL A   1      46.548  27.988  23.672  1.00  0.00    -0.167 F 
ENDBRANCH  19  22
ENDBRANCH   6   9
ENDBRANCH   4   5
ENDBRANCH   3   4
ENDBRANCH   2   3
ENDBRANCH   1   2
BRANCH   1  26
ATOM     26  C   UNL A   1      44.451  19.267  24.885  1.00  0.00     0.021 C 
BRANCH  26  27
ATOM     27  C   UNL A   1      43.582  18.731  26.016  1.00  0.00     0.116 C 
BRANCH  27  28
ATOM     28  N   UNL A   1      42.178  18.704  25.647  1.00  0.00    -0.352 N 
ATOM     29  C   UNL A   1      41.189  19.595  25.974  1.00  0.00     0.251 C 
ATOM     30  H   UNL A   1      41.899  17.944  25.086  1.00  0.00     0.163 HD
ATOM     31  O   UNL A   1      40.010  19.327  25.773  1.00  0.00    -0.269 OA
BRANCH  29  32
ATOM     32  C   UNL A   1      41.560  20.888  26.577  1.00  0.00     0.039 A 
ATOM     33  C   UNL A   1      41.819  21.977  25.743  1.00  0.00     0.014 A 
ATOM     34  C   UNL A   1      41.663  21.012  27.967  1.00  0.00     0.014 A 
ATOM     35  C   UNL A   1      42.150  23.210  26.307  1.00  0.00     0.010 A 
ATOM     36  C   UNL A   1      41.949  22.251  28.529  1.00  0.00     0.010 A 
ATOM     37  C   UNL A   1      42.206  23.355  27.703  1.00  0.00    -0.014 A 
BRANCH  37  38
ATOM     38  C   UNL A   1      42.582  24.649  28.315  1.00  0.00     0.031 A 
ATOM     39  C   UNL A   1      41.543  25.723  28.475  1.00  0.00     0.074 A 
ATOM     40  C   UNL A   1      43.854  24.868  28.697  1.00  0.00     0.049 A 
ATOM     41  N   UNL A   1      41.682  26.936  28.942  1.00  0.00    -0.248 NA
ATOM     42  C   UNL A   1      40.172  25.396  28.044  1.00  0.00     0.031 C 
ATOM     43  C   UNL A   1      44.952  23.908  28.578  1.00  0.00     0.029 A 
ATOM     44  N   UNL A   1      44.437  25.975  29.260  1.00  0.00    -0.354 N 
ATOM     45  C   UNL A   1      40.424  27.515  28.860  1.00  0.00     0.074 A 
ATOM     46  C   UNL A   1      39.540  26.540  28.263  1.00  0.00     0.031 C 
ATOM     47  C   UNL A   1      46.073  24.463  29.070  1.00  0.00     0.029 A 
ATOM     48  C   UNL A   1      45.779  25.823  29.511  1.00  0.00     0.049 A 
ATOM     49  H   UNL A   1      43.941  26.800  29.466  1.00  0.00     0.167 HD
ATOM     50  C   UNL A   1      40.036  28.744  29.269  1.00  0.00     0.031 A 
ATOM     51  C   UNL A   1      46.671  26.684  30.036  1.00  0.00     0.031 A 
ATOM     52  C   UNL A   1      40.907  29.706  29.882  1.00  0.00     0.049 A 
ATOM     53  C   UNL A   1      46.217  28.052  30.461  1.00  0.00     0.074 A 
ATOM     54  C   UNL A   1      40.590  30.965  30.360  1.00  0.00     0.029 A 
ATOM     55  N   UNL A   1      42.258  29.513  30.112  1.00  0.00    -0.354 N 
ATOM     56  N   UNL A   1      45.016  28.573  30.403  1.00  0.00    -0.248 NA
ATOM     57  C   UNL A   1      47.236  28.949  31.027  1.00  0.00     0.031 C 
ATOM     58  C   UNL A   1      41.759  31.549  30.851  1.00  0.00     0.029 A 
ATOM     59  C   UNL A   1      42.792  30.636  30.714  1.00  0.00     0.049 A 
ATOM     60  H   UNL A   1      42.762  28.699  29.882  1.00  0.00     0.167 HD
ATOM     61  C   UNL A   1      45.130  29.848  30.942  1.00  0.00     0.074 A 
ATOM     62  C   UNL A   1      46.514  30.021  31.328  1.00  0.00     0.031 C 
ATOM     63  C   UNL A   1      44.170  30.789  31.099  1.00  0.00     0.031 A 
BRANCH  50  64
ATOM     64  C   UNL A   1      38.596  29.123  29.095  1.00  0.00    -0.014 A 
ATOM     65  C   UNL A   1      37.712  29.074  30.183  1.00  0.00     0.009 A 
ATOM     66  C   UNL A   1      38.150  29.641  27.869  1.00  0.00     0.009 A 
ATOM     67  C   UNL A   1      36.404  29.540  30.046  1.00  0.00     0.001 A 
ATOM     68  C   UNL A   1      36.847  30.121  27.742  1.00  0.00     0.001 A 
ATOM     69  C   UNL A   1      35.975  30.072  28.829  1.00  0.00     0.000 A 
ENDBRANCH  50  64
BRANCH  51  70
ATOM     70  C   UNL A   1      48.086  26.268  30.202  1.00  0.00    -0.014 A 
ATOM     71  C   UNL A   1      48.522  25.698  31.406  1.00  0.00     0.009 A 
ATOM     72  C   UNL A   1      49.002  26.422  29.149  1.00  0.00     0.009 A 
ATOM     73  C   UNL A   1      49.853  25.302  31.559  1.00  0.00     0.001 A 
ATOM     74  C   UNL A   1      50.327  26.006  29.298  1.00  0.00     0.001 A 
ATOM     75  C   UNL A   1      50.753  25.451  30.504  1.00  0.00     0.000 A 
ENDBRANCH  51  70
BRANCH  63  76
ATOM     76  C   UNL A   1      44.558  32.093  31.729  1.00  0.00    -0.014 A 
ATOM     77  C   UNL A   1      45.014  33.160  30.943  1.00  0.00     0.009 A 
ATOM     78  C   UNL A   1      44.337  32.294  33.101  1.00  0.00     0.009 A 
ATOM     79  C   UNL A   1      45.245  34.409  31.522  1.00  0.00     0.001 A 
ATOM     80  C   UNL A   1      44.552  33.549  33.672  1.00  0.00     0.001 A 
ATOM     81  C   UNL A   1      45.005  34.605  32.883  1.00  0.00     0.000 A 
ENDBRANCH  63  76
ENDBRANCH  37  38
ENDBRANCH  29  32
ENDBRANCH  27  28
ENDBRANCH  26  27
ENDBRANCH   1  26
TORSDOF 15
ENDMDL
MODEL 3
REMARK VINA RESULT:     -11.4      3.256      7.934
REMARK SMILES CCc1cc(C)c2c(c1)C=C(C(=O)NCCCCCCNC(=O)c1ccc(-c3c4nc(c(-c5ccccc5)c5ccc([nH]5)c(-c5ccccc5)c5nc(c(-c6ccccc6)c6ccc3[nH]6)C=C5)C=C4)cc1)[C@@H](C(F)(F)F)O2
REMARK SMILES IDX 18 1 17 2 16 3 15 4 14 5 12 6 13 7 11 9 3 10 4 11 9 12 5 13
REMARK SMILES IDX 8 14 6 15 7 16 10 17 77 18 72 19 2 20 1 21 73 22 74 23 75 24
REMARK SMILES IDX 76 25 19 26 20 27 21 28 22 29 23 31 24 32 25 33 71 34 26 35
REMARK SMILES IDX 70 36 27 37 28 38 29 39 64 40 30 41 69 42 63 43 65 44 31 45
REMARK SMILES IDX 68 46 62 47 61 48 32 50 54 51 39 52 53 53 40 54 43 55 52 56
REMARK SMILES IDX 66 57 41 58 42 59 51 61 67 62 44 63 33 64 34 65 38 66 35 67
REMARK SMILES IDX 37 68 36 69 55 70 56 71 60 72 57 73 59 74 58 75 45 76 46 77
REMARK SMILES IDX 50 78 47 79 49 80 48 81
REMARK H PARENT 14 8 21 30 65 49 43 60
REMARK Flexibility Score: inf
ROOT
ATOM      1  C   UNL A   1      31.742  30.043  25.478  1.00  0.00     0.002 C 
ENDROOT
BRANCH   1   2
ATOM      2  C   UNL A   1      33.069  29.369  25.857  1.00  0.00     0.002 C 
BRANCH   2   3
ATOM      3  C   UNL A   1      33.753  28.594  24.728  1.00  0.00     0.021 C 
BRANCH   3   4
ATOM      4  C   UNL A   1      33.883  27.098  24.998  1.00  0.00     0.116 C 
BRANCH   4   5
ATOM      5  N   UNL A   1      33.599  26.309  23.814  1.00  0.00    -0.352 N 
ATOM      6  C   UNL A   1      32.546  26.098  22.991  1.00  0.00     0.251 C 
ATOM      7  O   UNL A   1      32.766  25.328  22.050  1.00  0.00    -0.270 OA
ATOM      8  H   UNL A   1      34.385  25.787  23.533  1.00  0.00     0.163 HD
BRANCH   6   9
ATOM      9  C   UNL A   1      31.191  26.709  23.144  1.00  0.00     0.067 C 
ATOM     10  C   UNL A   1      28.368  30.587  22.456  1.00  0.00    -0.047 A 
ATOM     11  C   UNL A   1      27.265  29.861  22.930  1.00  0.00     0.011 A 
ATOM     12  C   UNL A   1      29.618  29.958  22.370  1.00  0.00     0.015 A 
ATOM     13  C   UNL A   1      27.396  28.520  23.307  1.00  0.00    -0.008 A 
ATOM     14  C   UNL A   1      29.765  28.622  22.752  1.00  0.00     0.018 A 
ATOM     15  C   UNL A   1      26.205  27.745  23.791  1.00  0.00     0.048 C 
ATOM     16  C   UNL A   1      28.655  27.914  23.217  1.00  0.00     0.130 A 
ATOM     17  C   UNL A   1      31.050  27.944  22.626  1.00  0.00     0.025 C 
ATOM     18  O   UNL A   1      28.725  26.593  23.553  1.00  0.00    -0.475 OA
ATOM     19  C   UNL A   1      30.039  26.056  23.850  1.00  0.00     0.314 C 
BRANCH  10  20
ATOM     20  C   UNL A   1      28.193  32.014  22.003  1.00  0.00     0.032 C 
ATOM     21  C   UNL A   1      27.978  32.100  20.500  1.00  0.00     0.009 C 
ENDBRANCH  10  20
BRANCH  19  22
ATOM     22  C   UNL A   1      30.221  26.006  25.377  1.00  0.00     0.429 C 
ATOM     23  F   UNL A   1      30.590  27.225  25.849  1.00  0.00    -0.167 F 
ATOM     24  F   UNL A   1      29.081  25.679  26.029  1.00  0.00    -0.167 F 
ATOM     25  F   UNL A   1      31.164  25.120  25.764  1.00  0.00    -0.167 F 
ENDBRANCH  19  22
ENDBRANCH   6   9
ENDBRANCH   4   5
ENDBRANCH   3   4
ENDBRANCH   2   3
ENDBRANCH   1   2
BRANCH   1  26
ATOM     26  C   UNL A   1      31.441  31.358  26.204  1.00  0.00     0.021 C 
BRANCH  26  27
ATOM     27  C   UNL A   1      32.582  31.872  27.074  1.00  0.00     0.116 C 
BRANCH  27  28
ATOM     28  N   UNL A   1      32.412  33.276  27.404  1.00  0.00    -0.352 N 
ATOM     29  C   UNL A   1      33.161  34.055  28.247  1.00  0.00     0.251 C 
ATOM     30  H   UNL A   1      31.656  33.730  26.964  1.00  0.00     0.163 HD
ATOM     31  O   UNL A   1      32.769  35.164  28.595  1.00  0.00    -0.269 OA
BRANCH  29  32
ATOM     32  C   UNL A   1      34.453  33.542  28.738  1.00  0.00     0.039 A 
ATOM     33  C   UNL A   1      34.489  32.831  29.938  1.00  0.00     0.014 A 
ATOM     34  C   UNL A   1      35.625  33.780  28.012  1.00  0.00     0.014 A 
ATOM     35  C   UNL A   1      35.705  32.323  30.399  1.00  0.00     0.010 A 
ATOM     36  C   UNL A   1      36.829  33.236  28.449  1.00  0.00     0.010 A 
ATOM     37  C   UNL A   1      36.878  32.514  29.651  1.00  0.00    -0.014 A 
BRANCH  37  38
ATOM     38  C   UNL A   1      38.179  32.006  30.140  1.00  0.00     0.031 A 
ATOM     39  C   UNL A   1      38.698  30.690  29.632  1.00  0.00     0.074 A 
ATOM     40  C   UNL A   1      38.874  32.706  31.055  1.00  0.00     0.049 A 
ATOM     41  N   UNL A   1      39.788  30.053  29.971  1.00  0.00    -0.248 NA
ATOM     42  C   UNL A   1      37.883  29.995  28.621  1.00  0.00     0.031 C 
ATOM     43  C   UNL A   1      38.464  33.987  31.633  1.00  0.00     0.029 A 
ATOM     44  N   UNL A   1      40.074  32.433  31.663  1.00  0.00    -0.354 N 
ATOM     45  C   UNL A   1      39.788  28.886  29.219  1.00  0.00     0.074 A 
ATOM     46  C   UNL A   1      38.574  28.880  28.435  1.00  0.00     0.031 C 
ATOM     47  C   UNL A   1      39.406  34.396  32.501  1.00  0.00     0.029 A 
ATOM     48  C   UNL A   1      40.468  33.396  32.559  1.00  0.00     0.049 A 
ATOM     49  H   UNL A   1      40.601  31.624  31.475  1.00  0.00     0.167 HD
ATOM     50  C   UNL A   1      40.730  27.918  29.171  1.00  0.00     0.031 A 
ATOM     51  C   UNL A   1      41.563  33.464  33.342  1.00  0.00     0.031 A 
ATOM     52  C   UNL A   1      41.948  27.932  29.931  1.00  0.00     0.049 A 
ATOM     53  C   UNL A   1      42.582  32.362  33.284  1.00  0.00     0.074 A 
ATOM     54  C   UNL A   1      42.976  27.008  29.917  1.00  0.00     0.029 A 
ATOM     55  N   UNL A   1      42.304  28.923  30.829  1.00  0.00    -0.354 N 
ATOM     56  N   UNL A   1      42.580  31.280  32.545  1.00  0.00    -0.248 NA
ATOM     57  C   UNL A   1      43.756  32.491  34.161  1.00  0.00     0.031 C 
ATOM     58  C   UNL A   1      43.944  27.422  30.834  1.00  0.00     0.029 A 
ATOM     59  C   UNL A   1      43.533  28.625  31.386  1.00  0.00     0.049 A 
ATOM     60  H   UNL A   1      41.764  29.720  31.040  1.00  0.00     0.167 HD
ATOM     61  C   UNL A   1      43.757  30.609  32.853  1.00  0.00     0.074 A 
ATOM     62  C   UNL A   1      44.453  31.409  33.839  1.00  0.00     0.031 C 
ATOM     63  C   UNL A   1      44.215  29.435  32.360  1.00  0.00     0.031 A 
BRANCH  50  64
ATOM     64  C   UNL A   1      40.505  26.761  28.244  1.00  0.00    -0.014 A 
ATOM     65  C   UNL A   1      39.712  25.675  28.643  1.00  0.00     0.009 A 
ATOM     66  C   UNL A   1      40.992  26.810  26.930  1.00  0.00     0.009 A 
ATOM     67  C   UNL A   1      39.408  24.657  27.738  1.00  0.00     0.001 A 
ATOM     68  C   UNL A   1      40.671  25.799  26.023  1.00  0.00     0.001 A 
ATOM     69  C   UNL A   1      39.879  24.725  26.426  1.00  0.00     0.000 A 
ENDBRANCH  50  64
BRANCH  51  70
ATOM     70  C   UNL A   1      41.754  34.631  34.239  1.00  0.00    -0.014 A 
ATOM     71  C   UNL A   1      41.244  34.614  35.545  1.00  0.00     0.009 A 
ATOM     72  C   UNL A   1      42.463  35.760  33.799  1.00  0.00     0.009 A 
ATOM     73  C   UNL A   1      41.428  35.711  36.390  1.00  0.00     0.001 A 
ATOM     74  C   UNL A   1      42.664  36.846  34.653  1.00  0.00     0.001 A 
ATOM     75  C   UNL A   1      42.143  36.824  35.946  1.00  0.00     0.000 A 
ENDBRANCH  51  70
BRANCH  63  76
ATOM     76  C   UNL A   1      45.539  28.932  32.853  1.00  0.00    -0.014 A 
ATOM     77  C   UNL A   1      45.612  28.081  33.965  1.00  0.00     0.009 A 
ATOM     78  C   UNL A   1      46.704  29.207  32.119  1.00  0.00     0.009 A 
ATOM     79  C   UNL A   1      46.832  27.513  34.334  1.00  0.00     0.001 A 
ATOM     80  C   UNL A   1      47.918  28.623  32.480  1.00  0.00     0.001 A 
ATOM     81  C   UNL A   1      47.981  27.777  33.587  1.00  0.00     0.000 A 
ENDBRANCH  63  76
ENDBRANCH  37  38
ENDBRANCH  29  32
ENDBRANCH  27  28
ENDBRANCH  26  27
ENDBRANCH   1  26
TORSDOF 15
ENDMDL
