MODEL 1
REMARK VINA RESULT:     -10.6      0.000      0.000
REMARK SMILES CC(=O)OCC1=C(C(=O)NCCCCCCNC(=O)c2ccc(-c3c4nc(c(-c5ccccc5)c5ccc([nH]5)c(-c5ccccc5)c5nc(c(-c6ccccc6)c6ccc3[nH]6)C=C5)C=C4)cc2)N2C(=O)[C@@H](NC(=O)Cn3nc(C)cc3C)[C@@H]2SC1
REMARK SMILES IDX 13 1 12 2 11 3 10 4 8 5 9 6 7 8 6 9 85 10 68 11 84 12 69 13
REMARK SMILES IDX 83 14 70 15 71 16 5 17 4 18 2 19 1 20 3 21 72 22 73 23 74 25
REMARK SMILES IDX 75 26 76 27 77 28 81 29 78 30 80 31 82 32 79 33 14 34 15 35
REMARK SMILES IDX 16 36 17 37 18 38 19 40 20 41 21 42 67 43 22 44 66 45 23 46
REMARK SMILES IDX 24 47 25 48 60 49 26 50 65 51 59 52 61 53 27 54 64 55 58 56
REMARK SMILES IDX 57 57 28 59 50 60 35 61 49 62 36 63 39 64 48 65 62 66 37 67
REMARK SMILES IDX 38 68 47 70 63 71 40 72 29 73 30 74 34 75 31 76 33 77 32 78
REMARK SMILES IDX 51 79 52 80 56 81 53 82 55 83 54 84 41 85 42 86 46 87 43 88
REMARK SMILES IDX 45 89 44 90
REMARK H PARENT 10 7 72 24 17 39 61 58 39 69
REMARK Flexibility Score: inf
ROOT
ATOM      1  C   UNL A   1      39.490  23.145  26.190  1.00  0.00     0.002 C 
ENDROOT
BRANCH   1   2
ATOM      2  C   UNL A   1      37.967  23.247  26.278  1.00  0.00     0.021 C 
BRANCH   2   3
ATOM      3  C   UNL A   1      37.198  22.086  25.618  1.00  0.00     0.116 C 
BRANCH   3   4
ATOM      4  N   UNL A   1      36.130  21.656  26.503  1.00  0.00    -0.351 N 
ATOM      5  C   UNL A   1      34.785  21.541  26.460  1.00  0.00     0.268 C 
ATOM      6  O   UNL A   1      34.244  21.419  27.571  1.00  0.00    -0.268 OA
ATOM      7  H   UNL A   1      36.485  21.368  27.375  1.00  0.00     0.163 HD
BRANCH   5   8
ATOM      8  C   UNL A   1      33.853  21.539  25.258  1.00  0.00     0.114 C 
ATOM      9  C   UNL A   1      33.184  20.492  24.703  1.00  0.00     0.007 C 
ATOM     10  C   UNL A   1      32.543  20.544  23.329  1.00  0.00     0.108 C 
ATOM     11  N   UNL A   1      33.818  22.751  24.613  1.00  0.00    -0.290 N 
ATOM     12  S   UNL A   1      31.809  22.133  22.957  1.00  0.00    -0.129 SA
ATOM     13  C   UNL A   1      34.015  24.048  24.958  1.00  0.00     0.253 C 
ATOM     14  C   UNL A   1      33.341  23.014  23.274  1.00  0.00     0.181 C 
ATOM     15  O   UNL A   1      34.455  24.603  25.936  1.00  0.00    -0.272 OA
ATOM     16  C   UNL A   1      33.185  24.499  23.712  1.00  0.00     0.205 C 
BRANCH   9  17
ATOM     17  C   UNL A   1      32.936  19.157  25.328  1.00  0.00     0.267 C 
BRANCH  17  18
ATOM     18  O   UNL A   1      32.477  18.159  24.371  1.00  0.00    -0.461 OA
BRANCH  18  19
ATOM     19  C   UNL A   1      33.098  16.948  24.268  1.00  0.00     0.302 C 
ATOM     20  C   UNL A   1      34.079  16.950  23.136  1.00  0.00     0.139 C 
ATOM     21  O   UNL A   1      32.914  15.973  24.981  1.00  0.00    -0.253 OA
ENDBRANCH  18  19
ENDBRANCH  17  18
ENDBRANCH   9  17
BRANCH  16  22
ATOM     22  N   UNL A   1      33.794  25.480  22.771  1.00  0.00    -0.340 N 
ATOM     23  C   UNL A   1      33.203  26.596  22.235  1.00  0.00     0.242 C 
ATOM     24  H   UNL A   1      34.726  25.308  22.503  1.00  0.00     0.164 HD
ATOM     25  O   UNL A   1      33.791  27.182  21.321  1.00  0.00    -0.273 OA
BRANCH  23  26
ATOM     26  C   UNL A   1      31.902  27.125  22.796  1.00  0.00     0.244 C 
BRANCH  26  27
ATOM     27  N   UNL A   1      32.086  28.001  23.939  1.00  0.00    -0.260 N 
ATOM     28  N   UNL A   1      33.183  27.832  24.701  1.00  0.00    -0.178 NA
ATOM     29  C   UNL A   1      31.373  29.123  24.285  1.00  0.00     0.036 A 
ATOM     30  C   UNL A   1      33.154  28.837  25.578  1.00  0.00     0.060 A 
ATOM     31  C   UNL A   1      32.039  29.670  25.363  1.00  0.00     0.048 A 
ATOM     32  C   UNL A   1      30.156  29.589  23.580  1.00  0.00     0.066 C 
ATOM     33  C   UNL A   1      34.220  28.970  26.600  1.00  0.00     0.069 C 
ENDBRANCH  26  27
ENDBRANCH  23  26
ENDBRANCH  16  22
ENDBRANCH   5   8
ENDBRANCH   3   4
ENDBRANCH   2   3
ENDBRANCH   1   2
BRANCH   1  34
ATOM     34  C   UNL A   1      40.161  22.557  27.435  1.00  0.00     0.002 C 
BRANCH  34  35
ATOM     35  C   UNL A   1      40.662  21.110  27.317  1.00  0.00     0.021 C 
BRANCH  35  36
ATOM     36  C   UNL A   1      40.849  20.571  25.897  1.00  0.00     0.116 C 
BRANCH  36  37
ATOM     37  N   UNL A   1      42.200  20.096  25.656  1.00  0.00    -0.352 N 
ATOM     38  C   UNL A   1      43.393  20.772  25.697  1.00  0.00     0.251 C 
ATOM     39  H   UNL A   1      42.270  19.141  25.426  1.00  0.00     0.163 HD
ATOM     40  O   UNL A   1      44.419  20.225  25.304  1.00  0.00    -0.269 OA
BRANCH  38  41
ATOM     41  C   UNL A   1      43.463  22.163  26.200  1.00  0.00     0.039 A 
ATOM     42  C   UNL A   1      43.251  23.210  25.297  1.00  0.00     0.014 A 
ATOM     43  C   UNL A   1      43.802  22.444  27.528  1.00  0.00     0.014 A 
ATOM     44  C   UNL A   1      43.335  24.537  25.731  1.00  0.00     0.010 A 
ATOM     45  C   UNL A   1      43.851  23.768  27.969  1.00  0.00     0.010 A 
ATOM     46  C   UNL A   1      43.621  24.825  27.073  1.00  0.00    -0.014 A 
BRANCH  46  47
ATOM     47  C   UNL A   1      43.697  26.227  27.552  1.00  0.00     0.031 A 
ATOM     48  C   UNL A   1      45.022  26.933  27.627  1.00  0.00     0.074 A 
ATOM     49  C   UNL A   1      42.582  26.853  27.970  1.00  0.00     0.049 A 
ATOM     50  N   UNL A   1      45.294  28.128  28.085  1.00  0.00    -0.248 NA
ATOM     51  C   UNL A   1      46.194  26.190  27.139  1.00  0.00     0.031 C 
ATOM     52  C   UNL A   1      41.237  26.277  27.977  1.00  0.00     0.029 A 
ATOM     53  N   UNL A   1      42.409  28.113  28.484  1.00  0.00    -0.354 N 
ATOM     54  C   UNL A   1      46.671  28.272  27.970  1.00  0.00     0.074 A 
ATOM     55  C   UNL A   1      47.179  27.036  27.410  1.00  0.00     0.031 C 
ATOM     56  C   UNL A   1      40.374  27.185  28.462  1.00  0.00     0.029 A 
ATOM     57  C   UNL A   1      41.109  28.396  28.820  1.00  0.00     0.049 A 
ATOM     58  H   UNL A   1      43.147  28.754  28.601  1.00  0.00     0.167 HD
ATOM     59  C   UNL A   1      47.443  29.334  28.296  1.00  0.00     0.031 A 
ATOM     60  C   UNL A   1      40.567  29.502  29.359  1.00  0.00     0.031 A 
ATOM     61  C   UNL A   1      46.948  30.576  28.826  1.00  0.00     0.049 A 
ATOM     62  C   UNL A   1      41.438  30.681  29.681  1.00  0.00     0.074 A 
ATOM     63  C   UNL A   1      47.656  31.727  29.135  1.00  0.00     0.029 A 
ATOM     64  N   UNL A   1      45.620  30.832  29.120  1.00  0.00    -0.354 N 
ATOM     65  N   UNL A   1      42.734  30.811  29.534  1.00  0.00    -0.248 NA
ATOM     66  C   UNL A   1      40.769  31.867  30.236  1.00  0.00     0.031 C 
ATOM     67  C   UNL A   1      46.754  32.673  29.635  1.00  0.00     0.029 A 
ATOM     68  C   UNL A   1      45.485  32.116  29.616  1.00  0.00     0.049 A 
ATOM     69  H   UNL A   1      44.881  30.193  28.995  1.00  0.00     0.167 HD
ATOM     70  C   UNL A   1      43.034  32.095  29.965  1.00  0.00     0.074 A 
ATOM     71  C   UNL A   1      41.787  32.708  30.373  1.00  0.00     0.031 C 
ATOM     72  C   UNL A   1      44.239  32.711  30.018  1.00  0.00     0.031 A 
BRANCH  59  73
ATOM     73  C   UNL A   1      48.923  29.185  28.099  1.00  0.00    -0.014 A 
ATOM     74  C   UNL A   1      49.743  28.692  29.125  1.00  0.00     0.009 A 
ATOM     75  C   UNL A   1      49.499  29.527  26.866  1.00  0.00     0.009 A 
ATOM     76  C   UNL A   1      51.121  28.576  28.929  1.00  0.00     0.001 A 
ATOM     77  C   UNL A   1      50.874  29.394  26.668  1.00  0.00     0.001 A 
ATOM     78  C   UNL A   1      51.684  28.926  27.701  1.00  0.00     0.000 A 
ENDBRANCH  59  73
BRANCH  60  79
ATOM     79  C   UNL A   1      39.109  29.551  29.619  1.00  0.00    -0.014 A 
ATOM     80  C   UNL A   1      38.599  29.149  30.863  1.00  0.00     0.009 A 
ATOM     81  C   UNL A   1      38.224  30.010  28.632  1.00  0.00     0.009 A 
ATOM     82  C   UNL A   1      37.226  29.197  31.110  1.00  0.00     0.001 A 
ATOM     83  C   UNL A   1      36.853  30.069  28.888  1.00  0.00     0.001 A 
ATOM     84  C   UNL A   1      36.355  29.659  30.124  1.00  0.00     0.000 A 
ENDBRANCH  60  79
BRANCH  72  85
ATOM     85  C   UNL A   1      44.259  34.124  30.517  1.00  0.00    -0.014 A 
ATOM     86  C   UNL A   1      44.086  35.199  29.633  1.00  0.00     0.009 A 
ATOM     87  C   UNL A   1      44.422  34.380  31.886  1.00  0.00     0.009 A 
ATOM     88  C   UNL A   1      44.096  36.511  30.112  1.00  0.00     0.001 A 
ATOM     89  C   UNL A   1      44.419  35.691  32.363  1.00  0.00     0.001 A 
ATOM     90  C   UNL A   1      44.261  36.755  31.475  1.00  0.00     0.000 A 
ENDBRANCH  72  85
ENDBRANCH  46  47
ENDBRANCH  38  41
ENDBRANCH  36  37
ENDBRANCH  35  36
ENDBRANCH  34  35
ENDBRANCH   1  34
TORSDOF 19
ENDMDL
MODEL 2
REMARK VINA RESULT:     -10.6      1.596      5.921
REMARK SMILES CC(=O)OCC1=C(C(=O)NCCCCCCNC(=O)c2ccc(-c3c4nc(c(-c5ccccc5)c5ccc([nH]5)c(-c5ccccc5)c5nc(c(-c6ccccc6)c6ccc3[nH]6)C=C5)C=C4)cc2)N2C(=O)[C@@H](NC(=O)Cn3nc(C)cc3C)[C@@H]2SC1
REMARK SMILES IDX 13 1 12 2 11 3 10 4 8 5 9 6 7 8 6 9 85 10 68 11 84 12 69 13
REMARK SMILES IDX 83 14 70 15 71 16 5 17 4 18 2 19 1 20 3 21 72 22 73 23 74 25
REMARK SMILES IDX 75 26 76 27 77 28 81 29 78 30 80 31 82 32 79 33 14 34 15 35
REMARK SMILES IDX 16 36 17 37 18 38 19 40 20 41 21 42 67 43 22 44 66 45 23 46
REMARK SMILES IDX 24 47 25 48 60 49 26 50 65 51 59 52 61 53 27 54 64 55 58 56
REMARK SMILES IDX 57 57 28 59 50 60 35 61 49 62 36 63 39 64 48 65 62 66 37 67
REMARK SMILES IDX 38 68 47 70 63 71 40 72 29 73 30 74 34 75 31 76 33 77 32 78
REMARK SMILES IDX 51 79 52 80 56 81 53 82 55 83 54 84 41 85 42 86 46 87 43 88
REMARK SMILES IDX 45 89 44 90
REMARK H PARENT 10 7 72 24 17 39 61 58 39 69
REMARK Flexibility Score: inf
ROOT
ATOM      1  C   UNL A   1      39.694  22.015  26.512  1.00  0.00     0.002 C 
ENDROOT
BRANCH   1   2
ATOM      2  C   UNL A   1      38.729  21.311  25.558  1.00  0.00     0.021 C 
BRANCH   2   3
ATOM      3  C   UNL A   1      37.438  22.091  25.246  1.00  0.00     0.116 C 
BRANCH   3   4
ATOM      4  N   UNL A   1      36.394  21.675  26.166  1.00  0.00    -0.351 N 
ATOM      5  C   UNL A   1      35.048  21.560  26.160  1.00  0.00     0.268 C 
ATOM      6  O   UNL A   1      34.538  21.455  27.288  1.00  0.00    -0.268 OA
ATOM      7  H   UNL A   1      36.772  21.400  27.032  1.00  0.00     0.163 HD
BRANCH   5   8
ATOM      8  C   UNL A   1      34.084  21.541  24.985  1.00  0.00     0.114 C 
ATOM      9  C   UNL A   1      33.460  20.475  24.415  1.00  0.00     0.007 C 
ATOM     10  C   UNL A   1      32.779  20.531  23.060  1.00  0.00     0.108 C 
ATOM     11  N   UNL A   1      33.962  22.768  24.379  1.00  0.00    -0.290 N 
ATOM     12  S   UNL A   1      31.945  22.085  22.758  1.00  0.00    -0.129 SA
ATOM     13  C   UNL A   1      34.095  24.063  24.760  1.00  0.00     0.253 C 
ATOM     14  C   UNL A   1      33.434  23.043  23.063  1.00  0.00     0.181 C 
ATOM     15  O   UNL A   1      34.531  24.612  25.743  1.00  0.00    -0.272 OA
ATOM     16  C   UNL A   1      33.206  24.503  23.551  1.00  0.00     0.205 C 
BRANCH   9  17
ATOM     17  C   UNL A   1      33.306  19.110  25.004  1.00  0.00     0.267 C 
BRANCH  17  18
ATOM     18  O   UNL A   1      34.250  18.144  24.455  1.00  0.00    -0.461 OA
BRANCH  18  19
ATOM     19  C   UNL A   1      33.815  16.981  23.889  1.00  0.00     0.302 C 
ATOM     20  C   UNL A   1      32.999  16.189  24.864  1.00  0.00     0.139 C 
ATOM     21  O   UNL A   1      34.032  16.602  22.748  1.00  0.00    -0.253 OA
ENDBRANCH  18  19
ENDBRANCH  17  18
ENDBRANCH   9  17
BRANCH  16  22
ATOM     22  N   UNL A   1      33.732  25.545  22.626  1.00  0.00    -0.340 N 
ATOM     23  C   UNL A   1      33.187  26.776  22.363  1.00  0.00     0.242 C 
ATOM     24  H   UNL A   1      34.564  25.326  22.148  1.00  0.00     0.164 HD
ATOM     25  O   UNL A   1      33.649  27.428  21.423  1.00  0.00    -0.273 OA
BRANCH  23  26
ATOM     26  C   UNL A   1      32.096  27.341  23.246  1.00  0.00     0.244 C 
BRANCH  26  27
ATOM     27  N   UNL A   1      32.496  27.471  24.636  1.00  0.00    -0.260 N 
ATOM     28  N   UNL A   1      33.594  28.197  24.918  1.00  0.00    -0.178 NA
ATOM     29  C   UNL A   1      31.812  27.090  25.766  1.00  0.00     0.036 A 
ATOM     30  C   UNL A   1      33.642  28.250  26.250  1.00  0.00     0.060 A 
ATOM     31  C   UNL A   1      32.552  27.569  26.828  1.00  0.00     0.048 A 
ATOM     32  C   UNL A   1      30.538  26.336  25.755  1.00  0.00     0.066 C 
ATOM     33  C   UNL A   1      34.742  28.972  26.932  1.00  0.00     0.069 C 
ENDBRANCH  26  27
ENDBRANCH  23  26
ENDBRANCH  16  22
ENDBRANCH   5   8
ENDBRANCH   3   4
ENDBRANCH   2   3
ENDBRANCH   1   2
BRANCH   1  34
ATOM     34  C   UNL A   1      40.850  21.140  27.008  1.00  0.00     0.002 C 
BRANCH  34  35
ATOM     35  C   UNL A   1      41.198  19.920  26.141  1.00  0.00     0.021 C 
BRANCH  35  36
ATOM     36  C   UNL A   1      42.532  19.234  26.443  1.00  0.00     0.116 C 
BRANCH  36  37
ATOM     37  N   UNL A   1      43.310  18.978  25.244  1.00  0.00    -0.352 N 
ATOM     38  C   UNL A   1      44.069  19.832  24.486  1.00  0.00     0.251 C 
ATOM     39  H   UNL A   1      43.288  18.046  24.926  1.00  0.00     0.163 HD
ATOM     40  O   UNL A   1      44.525  19.453  23.411  1.00  0.00    -0.269 OA
BRANCH  38  41
ATOM     41  C   UNL A   1      44.340  21.215  24.940  1.00  0.00     0.039 A 
ATOM     42  C   UNL A   1      45.067  21.399  26.121  1.00  0.00     0.014 A 
ATOM     43  C   UNL A   1      43.829  22.322  24.256  1.00  0.00     0.014 A 
ATOM     44  C   UNL A   1      45.319  22.691  26.594  1.00  0.00     0.010 A 
ATOM     45  C   UNL A   1      44.111  23.613  24.709  1.00  0.00     0.010 A 
ATOM     46  C   UNL A   1      44.856  23.807  25.883  1.00  0.00    -0.014 A 
BRANCH  46  47
ATOM     47  C   UNL A   1      45.130  25.183  26.364  1.00  0.00     0.031 A 
ATOM     48  C   UNL A   1      44.017  26.033  26.910  1.00  0.00     0.074 A 
ATOM     49  C   UNL A   1      46.371  25.693  26.261  1.00  0.00     0.049 A 
ATOM     50  N   UNL A   1      44.051  27.279  27.308  1.00  0.00    -0.248 NA
ATOM     51  C   UNL A   1      42.691  25.403  27.004  1.00  0.00     0.031 C 
ATOM     52  C   UNL A   1      47.537  24.989  25.727  1.00  0.00     0.029 A 
ATOM     53  N   UNL A   1      46.853  26.934  26.595  1.00  0.00    -0.354 N 
ATOM     54  C   UNL A   1      42.748  27.594  27.672  1.00  0.00     0.074 A 
ATOM     55  C   UNL A   1      41.945  26.411  27.435  1.00  0.00     0.031 C 
ATOM     56  C   UNL A   1      48.602  25.805  25.777  1.00  0.00     0.029 A 
ATOM     57  C   UNL A   1      48.189  27.094  26.326  1.00  0.00     0.049 A 
ATOM     58  H   UNL A   1      46.294  27.642  26.990  1.00  0.00     0.167 HD
ATOM     59  C   UNL A   1      42.261  28.758  28.161  1.00  0.00     0.031 A 
ATOM     60  C   UNL A   1      48.993  28.159  26.496  1.00  0.00     0.031 A 
ATOM     61  C   UNL A   1      43.052  29.930  28.427  1.00  0.00     0.049 A 
ATOM     62  C   UNL A   1      48.438  29.429  27.072  1.00  0.00     0.074 A 
ATOM     63  C   UNL A   1      42.649  31.137  28.974  1.00  0.00     0.029 A 
ATOM     64  N   UNL A   1      44.408  30.038  28.171  1.00  0.00    -0.354 N 
ATOM     65  N   UNL A   1      47.210  29.697  27.442  1.00  0.00    -0.248 NA
ATOM     66  C   UNL A   1      49.385  30.538  27.261  1.00  0.00     0.031 C 
ATOM     67  C   UNL A   1      43.763  31.985  29.030  1.00  0.00     0.029 A 
ATOM     68  C   UNL A   1      44.858  31.294  28.538  1.00  0.00     0.049 A 
ATOM     69  H   UNL A   1      44.968  29.327  27.784  1.00  0.00     0.167 HD
ATOM     70  C   UNL A   1      47.238  31.000  27.919  1.00  0.00     0.074 A 
ATOM     71  C   UNL A   1      48.603  31.467  27.799  1.00  0.00     0.031 C 
ATOM     72  C   UNL A   1      46.219  31.743  28.412  1.00  0.00     0.031 A 
BRANCH  59  73
ATOM     73  C   UNL A   1      40.786  28.821  28.426  1.00  0.00    -0.014 A 
ATOM     74  C   UNL A   1      39.891  29.252  27.436  1.00  0.00     0.009 A 
ATOM     75  C   UNL A   1      40.287  28.428  29.678  1.00  0.00     0.009 A 
ATOM     76  C   UNL A   1      38.522  29.320  27.707  1.00  0.00     0.001 A 
ATOM     77  C   UNL A   1      38.917  28.481  29.939  1.00  0.00     0.001 A 
ATOM     78  C   UNL A   1      38.037  28.934  28.956  1.00  0.00     0.000 A 
ENDBRANCH  59  73
BRANCH  60  79
ATOM     79  C   UNL A   1      50.424  28.063  26.124  1.00  0.00    -0.014 A 
ATOM     80  C   UNL A   1      51.379  27.692  27.082  1.00  0.00     0.009 A 
ATOM     81  C   UNL A   1      50.838  28.330  24.811  1.00  0.00     0.009 A 
ATOM     82  C   UNL A   1      52.727  27.599  26.732  1.00  0.00     0.001 A 
ATOM     83  C   UNL A   1      52.185  28.223  24.462  1.00  0.00     0.001 A 
ATOM     84  C   UNL A   1      53.129  27.862  25.422  1.00  0.00     0.000 A 
ENDBRANCH  60  79
BRANCH  72  85
ATOM     85  C   UNL A   1      46.550  33.129  28.875  1.00  0.00    -0.014 A 
ATOM     86  C   UNL A   1      46.528  34.210  27.981  1.00  0.00     0.009 A 
ATOM     87  C   UNL A   1      46.854  33.361  30.225  1.00  0.00     0.009 A 
ATOM     88  C   UNL A   1      46.827  35.498  28.428  1.00  0.00     0.001 A 
ATOM     89  C   UNL A   1      47.141  34.652  30.671  1.00  0.00     0.001 A 
ATOM     90  C   UNL A   1      47.132  35.718  29.771  1.00  0.00     0.000 A 
ENDBRANCH  72  85
ENDBRANCH  46  47
ENDBRANCH  38  41
ENDBRANCH  36  37
ENDBRANCH  35  36
ENDBRANCH  34  35
ENDBRANCH   1  34
TORSDOF 19
ENDMDL
MODEL 3
REMARK VINA RESULT:     -10.2      2.340      3.674
REMARK SMILES CC(=O)OCC1=C(C(=O)NCCCCCCNC(=O)c2ccc(-c3c4nc(c(-c5ccccc5)c5ccc([nH]5)c(-c5ccccc5)c5nc(c(-c6ccccc6)c6ccc3[nH]6)C=C5)C=C4)cc2)N2C(=O)[C@@H](NC(=O)Cn3nc(C)cc3C)[C@@H]2SC1
REMARK SMILES IDX 13 1 12 2 11 3 10 4 8 5 9 6 7 8 6 9 85 10 68 11 84 12 69 13
REMARK SMILES IDX 83 14 70 15 71 16 5 17 4 18 2 19 1 20 3 21 72 22 73 23 74 25
REMARK SMILES IDX 75 26 76 27 77 28 81 29 78 30 80 31 82 32 79 33 14 34 15 35
REMARK SMILES IDX 16 36 17 37 18 38 19 40 20 41 21 42 67 43 22 44 66 45 23 46
REMARK SMILES IDX 24 47 25 48 60 49 26 50 65 51 59 52 61 53 27 54 64 55 58 56
REMARK SMILES IDX 57 57 28 59 50 60 35 61 49 62 36 63 39 64 48 65 62 66 37 67
REMARK SMILES IDX 38 68 47 70 63 71 40 72 29 73 30 74 34 75 31 76 33 77 32 78
REMARK SMILES IDX 51 79 52 80 56 81 53 82 55 83 54 84 41 85 42 86 46 87 43 88
REMARK SMILES IDX 45 89 44 90
REMARK H PARENT 10 7 72 24 17 39 61 58 39 69
REMARK Flexibility Score: inf
ROOT
ATOM      1  C   UNL A   1      34.732  19.454  24.634  1.00  0.00     0.002 C 
ENDROOT
BRANCH   1   2
ATOM      2  C   UNL A   1      33.426  20.141  25.037  1.00  0.00     0.021 C 
BRANCH   2   3
ATOM      3  C   UNL A   1      32.595  20.698  23.866  1.00  0.00     0.116 C 
BRANCH   3   4
ATOM      4  N   UNL A   1      33.362  21.727  23.184  1.00  0.00    -0.351 N 
ATOM      5  C   UNL A   1      33.513  23.067  23.252  1.00  0.00     0.268 C 
ATOM      6  O   UNL A   1      34.051  23.574  22.254  1.00  0.00    -0.268 OA
ATOM      7  H   UNL A   1      33.928  21.339  22.478  1.00  0.00     0.163 HD
BRANCH   5   8
ATOM      8  C   UNL A   1      33.124  24.028  24.363  1.00  0.00     0.114 C 
ATOM      9  C   UNL A   1      33.566  24.065  25.649  1.00  0.00     0.007 C 
ATOM     10  C   UNL A   1      32.880  24.857  26.747  1.00  0.00     0.108 C 
ATOM     11  N   UNL A   1      32.097  24.867  24.003  1.00  0.00    -0.290 N 
ATOM     12  S   UNL A   1      32.222  26.420  26.178  1.00  0.00    -0.129 SA
ATOM     13  C   UNL A   1      31.623  25.389  22.844  1.00  0.00     0.253 C 
ATOM     14  C   UNL A   1      31.252  25.641  24.883  1.00  0.00     0.181 C 
ATOM     15  O   UNL A   1      31.835  25.177  21.674  1.00  0.00    -0.272 OA
ATOM     16  C   UNL A   1      30.932  26.536  23.651  1.00  0.00     0.205 C 
BRANCH   9  17
ATOM     17  C   UNL A   1      34.781  23.387  26.196  1.00  0.00     0.267 C 
BRANCH  17  18
ATOM     18  O   UNL A   1      36.000  24.162  26.002  1.00  0.00    -0.461 OA
BRANCH  18  19
ATOM     19  C   UNL A   1      37.015  23.688  25.221  1.00  0.00     0.302 C 
ATOM     20  C   UNL A   1      38.263  23.504  26.027  1.00  0.00     0.139 C 
ATOM     21  O   UNL A   1      36.955  23.432  24.027  1.00  0.00    -0.253 OA
ENDBRANCH  18  19
ENDBRANCH  17  18
ENDBRANCH   9  17
BRANCH  16  22
ATOM     22  N   UNL A   1      29.479  26.781  23.435  1.00  0.00    -0.340 N 
ATOM     23  C   UNL A   1      28.867  27.979  23.166  1.00  0.00     0.242 C 
ATOM     24  H   UNL A   1      28.890  25.994  23.492  1.00  0.00     0.164 HD
ATOM     25  O   UNL A   1      27.635  28.026  23.213  1.00  0.00    -0.273 OA
BRANCH  23  26
ATOM     26  C   UNL A   1      29.683  29.187  22.761  1.00  0.00     0.244 C 
BRANCH  26  27
ATOM     27  N   UNL A   1      30.050  30.032  23.883  1.00  0.00    -0.260 N 
ATOM     28  N   UNL A   1      31.068  29.639  24.671  1.00  0.00    -0.178 NA
ATOM     29  C   UNL A   1      29.609  31.298  24.186  1.00  0.00     0.036 A 
ATOM     30  C   UNL A   1      31.261  30.650  25.520  1.00  0.00     0.060 A 
ATOM     31  C   UNL A   1      30.370  31.710  25.261  1.00  0.00     0.048 A 
ATOM     32  C   UNL A   1      28.541  32.009  23.446  1.00  0.00     0.066 C 
ATOM     33  C   UNL A   1      32.316  30.566  26.557  1.00  0.00     0.069 C 
ENDBRANCH  26  27
ENDBRANCH  23  26
ENDBRANCH  16  22
ENDBRANCH   5   8
ENDBRANCH   3   4
ENDBRANCH   2   3
ENDBRANCH   1   2
BRANCH   1  34
ATOM     34  C   UNL A   1      35.998  20.250  24.965  1.00  0.00     0.002 C 
BRANCH  34  35
ATOM     35  C   UNL A   1      37.319  19.466  24.940  1.00  0.00     0.021 C 
BRANCH  35  36
ATOM     36  C   UNL A   1      38.546  20.190  25.496  1.00  0.00     0.116 C 
BRANCH  36  37
ATOM     37  N   UNL A   1      39.685  19.305  25.666  1.00  0.00    -0.352 N 
ATOM     38  C   UNL A   1      40.968  19.584  26.060  1.00  0.00     0.251 C 
ATOM     39  H   UNL A   1      39.508  18.356  25.466  1.00  0.00     0.163 HD
ATOM     40  O   UNL A   1      41.833  18.715  25.988  1.00  0.00    -0.269 OA
BRANCH  38  41
ATOM     41  C   UNL A   1      41.334  20.928  26.563  1.00  0.00     0.039 A 
ATOM     42  C   UNL A   1      41.116  21.216  27.915  1.00  0.00     0.014 A 
ATOM     43  C   UNL A   1      41.819  21.922  25.708  1.00  0.00     0.014 A 
ATOM     44  C   UNL A   1      41.425  22.483  28.420  1.00  0.00     0.010 A 
ATOM     45  C   UNL A   1      42.160  23.176  26.219  1.00  0.00     0.010 A 
ATOM     46  C   UNL A   1      41.963  23.467  27.578  1.00  0.00    -0.014 A 
BRANCH  46  47
ATOM     47  C   UNL A   1      42.311  24.811  28.103  1.00  0.00     0.031 A 
ATOM     48  C   UNL A   1      43.719  25.118  28.528  1.00  0.00     0.074 A 
ATOM     49  C   UNL A   1      41.350  25.741  28.250  1.00  0.00     0.049 A 
ATOM     50  N   UNL A   1      44.196  26.207  29.076  1.00  0.00    -0.248 NA
ATOM     51  C   UNL A   1      44.717  24.056  28.325  1.00  0.00     0.031 C 
ATOM     52  C   UNL A   1      39.940  25.567  27.903  1.00  0.00     0.029 A 
ATOM     53  N   UNL A   1      41.419  27.020  28.743  1.00  0.00    -0.354 N 
ATOM     54  C   UNL A   1      45.541  25.953  29.312  1.00  0.00     0.074 A 
ATOM     55  C   UNL A   1      45.801  24.602  28.859  1.00  0.00     0.031 C 
ATOM     56  C   UNL A   1      39.277  26.701  28.185  1.00  0.00     0.029 A 
ATOM     57  C   UNL A   1      40.210  27.670  28.752  1.00  0.00     0.049 A 
ATOM     58  H   UNL A   1      42.255  27.432  29.060  1.00  0.00     0.167 HD
ATOM     59  C   UNL A   1      46.476  26.769  29.853  1.00  0.00     0.031 A 
ATOM     60  C   UNL A   1      39.887  28.906  29.173  1.00  0.00     0.031 A 
ATOM     61  C   UNL A   1      46.236  28.121  30.281  1.00  0.00     0.049 A 
ATOM     62  C   UNL A   1      40.947  29.804  29.738  1.00  0.00     0.074 A 
ATOM     63  C   UNL A   1      47.140  29.038  30.792  1.00  0.00     0.029 A 
ATOM     64  N   UNL A   1      45.005  28.751  30.242  1.00  0.00    -0.354 N 
ATOM     65  N   UNL A   1      42.221  29.559  29.922  1.00  0.00    -0.248 NA
ATOM     66  C   UNL A   1      40.525  31.153  30.144  1.00  0.00     0.031 C 
ATOM     67  C   UNL A   1      46.448  30.220  31.080  1.00  0.00     0.029 A 
ATOM     68  C   UNL A   1      45.120  30.042  30.728  1.00  0.00     0.049 A 
ATOM     69  H   UNL A   1      44.170  28.341  29.917  1.00  0.00     0.167 HD
ATOM     70  C   UNL A   1      42.755  30.724  30.454  1.00  0.00     0.074 A 
ATOM     71  C   UNL A   1      41.671  31.679  30.556  1.00  0.00     0.031 C 
ATOM     72  C   UNL A   1      44.033  30.978  30.825  1.00  0.00     0.031 A 
BRANCH  59  73
ATOM     73  C   UNL A   1      47.853  26.201  30.027  1.00  0.00    -0.014 A 
ATOM     74  C   UNL A   1      48.759  26.161  28.956  1.00  0.00     0.009 A 
ATOM     75  C   UNL A   1      48.254  25.716  31.281  1.00  0.00     0.009 A 
ATOM     76  C   UNL A   1      50.031  25.613  29.131  1.00  0.00     0.001 A 
ATOM     77  C   UNL A   1      49.532  25.185  31.457  1.00  0.00     0.001 A 
ATOM     78  C   UNL A   1      50.417  25.127  30.381  1.00  0.00     0.000 A 
ENDBRANCH  59  73
BRANCH  60  79
ATOM     79  C   UNL A   1      38.485  29.373  29.062  1.00  0.00    -0.014 A 
ATOM     80  C   UNL A   1      37.615  29.262  30.157  1.00  0.00     0.009 A 
ATOM     81  C   UNL A   1      38.015  29.941  27.869  1.00  0.00     0.009 A 
ATOM     82  C   UNL A   1      36.295  29.704  30.055  1.00  0.00     0.001 A 
ATOM     83  C   UNL A   1      36.698  30.394  27.775  1.00  0.00     0.001 A 
ATOM     84  C   UNL A   1      35.839  30.272  28.866  1.00  0.00     0.000 A 
ENDBRANCH  60  79
BRANCH  72  85
ATOM     85  C   UNL A   1      44.327  32.348  31.356  1.00  0.00    -0.014 A 
ATOM     86  C   UNL A   1      44.868  33.340  30.524  1.00  0.00     0.009 A 
ATOM     87  C   UNL A   1      44.031  32.659  32.691  1.00  0.00     0.009 A 
ATOM     88  C   UNL A   1      45.128  34.616  31.028  1.00  0.00     0.001 A 
ATOM     89  C   UNL A   1      44.280  33.939  33.188  1.00  0.00     0.001 A 
ATOM     90  C   UNL A   1      44.833  34.914  32.357  1.00  0.00     0.000 A 
ENDBRANCH  72  85
ENDBRANCH  46  47
ENDBRANCH  38  41
ENDBRANCH  36  37
ENDBRANCH  35  36
ENDBRANCH  34  35
ENDBRANCH   1  34
TORSDOF 19
ENDMDL
