MODEL 1
REMARK VINA RESULT:     -11.7      0.000      0.000
REMARK SMILES Cc1ccc(C(C)C)c(OCC(=O)Nc2nc(CC(=O)NCCCCCCNC(=O)c3ccc(-c4c5nc(c(-c6ccccc6)c6ccc([nH]6)c(-c6ccccc6)c6nc(c(-c7ccccc7)c7ccc4[nH]7)C=C6)C=C5)cc3)cs2)c1
REMARK SMILES IDX 22 1 21 2 19 3 20 4 18 6 17 7 15 8 16 9 80 10 79 11 14 12
REMARK SMILES IDX 12 13 13 14 11 16 10 17 9 18 1 19 2 20 3 21 81 22 4 23 5 24
REMARK SMILES IDX 6 25 7 26 8 27 23 28 24 29 25 30 26 31 27 32 28 33 29 34
REMARK SMILES IDX 30 36 31 37 32 38 78 39 33 40 77 41 34 42 35 43 36 44 71 45
REMARK SMILES IDX 37 46 76 47 70 48 72 49 38 50 75 51 69 52 68 53 39 55 61 56
REMARK SMILES IDX 46 57 60 58 47 59 50 60 59 61 73 62 48 63 49 64 58 66 74 67
REMARK SMILES IDX 51 68 40 69 41 70 45 71 42 72 44 73 43 74 62 75 63 76 67 77
REMARK SMILES IDX 64 78 66 79 65 80 52 81 53 82 57 83 54 84 56 85 55 86
REMARK H PARENT 21 5 14 15 28 35 72 54 50 65
REMARK Flexibility Score: inf
ROOT
ATOM      1  C   UNL A   1      33.465  32.561  27.877  1.00  0.00     0.116 C 
ENDROOT
BRANCH   1   2
ATOM      2  N   UNL A   1      33.896  31.179  27.952  1.00  0.00    -0.356 N 
ATOM      3  C   UNL A   1      33.462  30.103  27.230  1.00  0.00     0.226 C 
ATOM      4  O   UNL A   1      34.054  29.030  27.375  1.00  0.00    -0.275 OA
ATOM      5  H   UNL A   1      34.599  30.989  28.615  1.00  0.00     0.163 HD
BRANCH   3   6
ATOM      6  C   UNL A   1      32.302  30.231  26.257  1.00  0.00     0.157 C 
BRANCH   6   7
ATOM      7  C   UNL A   1      31.779  28.908  25.804  1.00  0.00     0.063 A 
ATOM      8  C   UNL A   1      31.265  26.799  26.184  1.00  0.00     0.189 A 
ATOM      9  N   UNL A   1      31.522  27.939  26.766  1.00  0.00    -0.224 NA
ATOM     10  S   UNL A   1      31.196  26.816  24.481  1.00  0.00    -0.105 S 
ATOM     11  C   UNL A   1      31.556  28.492  24.501  1.00  0.00     0.093 A 
BRANCH   8  12
ATOM     12  N   UNL A   1      31.081  25.572  26.738  1.00  0.00    -0.299 N 
ATOM     13  C   UNL A   1      31.947  24.523  26.703  1.00  0.00     0.264 C 
ATOM     14  O   UNL A   1      31.552  23.444  27.165  1.00  0.00    -0.271 OA
ATOM     15  H   UNL A   1      30.232  25.426  27.215  1.00  0.00     0.172 HD
BRANCH  13  16
ATOM     16  C   UNL A   1      33.399  24.679  26.217  1.00  0.00     0.329 C 
BRANCH  16  17
ATOM     17  O   UNL A   1      33.806  24.054  25.018  1.00  0.00    -0.483 OA
BRANCH  17  18
ATOM     18  C   UNL A   1      34.711  23.030  25.043  1.00  0.00     0.123 A 
ATOM     19  C   UNL A   1      38.355  22.222  25.824  1.00  0.00     0.044 C 
ATOM     20  C   UNL A   1      36.913  22.064  25.439  1.00  0.00    -0.047 A 
ATOM     21  C   UNL A   1      36.400  20.794  25.171  1.00  0.00     0.004 A 
ATOM     22  C   UNL A   1      36.066  23.177  25.358  1.00  0.00     0.050 A 
ATOM     23  C   UNL A   1      35.063  20.641  24.813  1.00  0.00     0.008 A 
ATOM     24  C   UNL A   1      34.199  21.748  24.746  1.00  0.00    -0.003 A 
BRANCH  24  25
ATOM     25  C   UNL A   1      32.736  21.545  24.365  1.00  0.00     0.017 C 
ATOM     26  C   UNL A   1      32.461  21.982  22.925  1.00  0.00     0.012 C 
ATOM     27  C   UNL A   1      32.302  20.092  24.567  1.00  0.00     0.012 C 
ENDBRANCH  24  25
ENDBRANCH  17  18
ENDBRANCH  16  17
ENDBRANCH  13  16
ENDBRANCH   8  12
ENDBRANCH   6   7
ENDBRANCH   3   6
ENDBRANCH   1   2
BRANCH   1  28
ATOM     28  C   UNL A   1      34.349  33.513  28.682  1.00  0.00     0.021 C 
BRANCH  28  29
ATOM     29  C   UNL A   1      34.100  35.007  28.427  1.00  0.00     0.002 C 
BRANCH  29  30
ATOM     30  C   UNL A   1      32.879  35.640  29.121  1.00  0.00     0.002 C 
BRANCH  30  31
ATOM     31  C   UNL A   1      33.139  36.366  30.444  1.00  0.00     0.021 C 
BRANCH  31  32
ATOM     32  C   UNL A   1      32.598  35.652  31.673  1.00  0.00     0.116 C 
BRANCH  32  33
ATOM     33  N   UNL A   1      33.364  35.871  32.895  1.00  0.00    -0.352 N 
ATOM     34  C   UNL A   1      34.475  35.189  33.371  1.00  0.00     0.251 C 
ATOM     35  H   UNL A   1      33.047  36.609  33.465  1.00  0.00     0.163 HD
ATOM     36  O   UNL A   1      34.967  35.483  34.444  1.00  0.00    -0.269 OA
BRANCH  34  37
ATOM     37  C   UNL A   1      35.149  34.199  32.489  1.00  0.00     0.039 A 
ATOM     38  C   UNL A   1      35.106  32.855  32.877  1.00  0.00     0.014 A 
ATOM     39  C   UNL A   1      35.998  34.604  31.464  1.00  0.00     0.014 A 
ATOM     40  C   UNL A   1      36.109  31.992  32.446  1.00  0.00     0.010 A 
ATOM     41  C   UNL A   1      37.054  33.786  31.121  1.00  0.00     0.010 A 
ATOM     42  C   UNL A   1      37.151  32.510  31.680  1.00  0.00    -0.014 A 
BRANCH  42  43
ATOM     43  C   UNL A   1      38.421  31.823  31.493  1.00  0.00     0.031 A 
ATOM     44  C   UNL A   1      38.458  30.550  30.742  1.00  0.00     0.074 A 
ATOM     45  C   UNL A   1      39.565  32.376  31.960  1.00  0.00     0.049 A 
ATOM     46  N   UNL A   1      39.348  29.630  30.905  1.00  0.00    -0.248 NA
ATOM     47  C   UNL A   1      37.432  30.190  29.768  1.00  0.00     0.031 C 
ATOM     48  C   UNL A   1      40.929  31.926  31.686  1.00  0.00     0.029 A 
ATOM     49  N   UNL A   1      39.738  33.344  32.955  1.00  0.00    -0.354 N 
ATOM     50  C   UNL A   1      39.209  28.738  29.866  1.00  0.00     0.074 A 
ATOM     51  C   UNL A   1      37.939  29.064  29.261  1.00  0.00     0.031 C 
ATOM     52  C   UNL A   1      41.727  32.346  32.682  1.00  0.00     0.029 A 
ATOM     53  C   UNL A   1      40.864  32.940  33.690  1.00  0.00     0.049 A 
ATOM     54  H   UNL A   1      39.185  34.144  33.108  1.00  0.00     0.167 HD
ATOM     55  C   UNL A   1      40.256  27.929  29.531  1.00  0.00     0.031 A 
ATOM     56  C   UNL A   1      40.825  32.560  35.003  1.00  0.00     0.031 A 
ATOM     57  C   UNL A   1      41.365  28.067  30.477  1.00  0.00     0.049 A 
ATOM     58  C   UNL A   1      41.352  31.155  35.235  1.00  0.00     0.074 A 
ATOM     59  C   UNL A   1      42.571  28.749  30.421  1.00  0.00     0.029 A 
ATOM     60  N   UNL A   1      41.181  27.702  31.806  1.00  0.00    -0.354 N 
ATOM     61  N   UNL A   1      41.481  30.266  34.289  1.00  0.00    -0.248 NA
ATOM     62  C   UNL A   1      41.729  30.623  36.545  1.00  0.00     0.031 C 
ATOM     63  C   UNL A   1      43.068  28.866  31.746  1.00  0.00     0.029 A 
ATOM     64  C   UNL A   1      42.184  28.227  32.597  1.00  0.00     0.049 A 
ATOM     65  H   UNL A   1      40.437  27.146  32.137  1.00  0.00     0.167 HD
ATOM     66  C   UNL A   1      41.956  29.092  34.814  1.00  0.00     0.074 A 
ATOM     67  C   UNL A   1      42.096  29.367  36.233  1.00  0.00     0.031 C 
ATOM     68  C   UNL A   1      42.186  27.995  34.035  1.00  0.00     0.031 A 
BRANCH  55  69
ATOM     69  C   UNL A   1      40.397  27.248  28.184  1.00  0.00    -0.014 A 
ATOM     70  C   UNL A   1      39.889  25.946  28.007  1.00  0.00     0.009 A 
ATOM     71  C   UNL A   1      41.073  27.788  27.077  1.00  0.00     0.009 A 
ATOM     72  C   UNL A   1      40.130  25.200  26.843  1.00  0.00     0.001 A 
ATOM     73  C   UNL A   1      41.347  27.039  25.923  1.00  0.00     0.001 A 
ATOM     74  C   UNL A   1      40.886  25.737  25.811  1.00  0.00     0.000 A 
ENDBRANCH  55  69
BRANCH  56  75
ATOM     75  C   UNL A   1      39.743  33.195  35.800  1.00  0.00    -0.014 A 
ATOM     76  C   UNL A   1      38.558  32.465  36.015  1.00  0.00     0.009 A 
ATOM     77  C   UNL A   1      40.011  34.296  36.625  1.00  0.00     0.009 A 
ATOM     78  C   UNL A   1      37.731  32.750  37.106  1.00  0.00     0.001 A 
ATOM     79  C   UNL A   1      39.175  34.583  37.712  1.00  0.00     0.001 A 
ATOM     80  C   UNL A   1      38.060  33.785  37.975  1.00  0.00     0.000 A 
ENDBRANCH  56  75
BRANCH  68  81
ATOM     81  C   UNL A   1      42.507  26.604  34.528  1.00  0.00    -0.014 A 
ATOM     82  C   UNL A   1      41.658  25.835  35.333  1.00  0.00     0.009 A 
ATOM     83  C   UNL A   1      43.672  25.965  34.044  1.00  0.00     0.009 A 
ATOM     84  C   UNL A   1      41.978  24.512  35.673  1.00  0.00     0.001 A 
ATOM     85  C   UNL A   1      43.972  24.634  34.343  1.00  0.00     0.001 A 
ATOM     86  C   UNL A   1      43.128  23.909  35.170  1.00  0.00     0.000 A 
ENDBRANCH  68  81
ENDBRANCH  42  43
ENDBRANCH  34  37
ENDBRANCH  32  33
ENDBRANCH  31  32
ENDBRANCH  30  31
ENDBRANCH  29  30
ENDBRANCH  28  29
ENDBRANCH   1  28
TORSDOF 19
ENDMDL
MODEL 2
REMARK VINA RESULT:     -11.7      3.323      5.211
REMARK SMILES Cc1ccc(C(C)C)c(OCC(=O)Nc2nc(CC(=O)NCCCCCCNC(=O)c3ccc(-c4c5nc(c(-c6ccccc6)c6ccc([nH]6)c(-c6ccccc6)c6nc(c(-c7ccccc7)c7ccc4[nH]7)C=C6)C=C5)cc3)cs2)c1
REMARK SMILES IDX 22 1 21 2 19 3 20 4 18 6 17 7 15 8 16 9 80 10 79 11 14 12
REMARK SMILES IDX 12 13 13 14 11 16 10 17 9 18 1 19 2 20 3 21 81 22 4 23 5 24
REMARK SMILES IDX 6 25 7 26 8 27 23 28 24 29 25 30 26 31 27 32 28 33 29 34
REMARK SMILES IDX 30 36 31 37 32 38 78 39 33 40 77 41 34 42 35 43 36 44 71 45
REMARK SMILES IDX 37 46 76 47 70 48 72 49 38 50 75 51 69 52 68 53 39 55 61 56
REMARK SMILES IDX 46 57 60 58 47 59 50 60 59 61 73 62 48 63 49 64 58 66 74 67
REMARK SMILES IDX 51 68 40 69 41 70 45 71 42 72 44 73 43 74 62 75 63 76 67 77
REMARK SMILES IDX 64 78 66 79 65 80 52 81 53 82 57 83 54 84 56 85 55 86
REMARK H PARENT 21 5 14 15 28 35 72 54 50 65
REMARK Flexibility Score: inf
ROOT
ATOM      1  C   UNL A   1      31.656  29.333  24.512  1.00  0.00     0.116 C 
ENDROOT
BRANCH   1   2
ATOM      2  N   UNL A   1      31.269  29.677  23.157  1.00  0.00    -0.356 N 
ATOM      3  C   UNL A   1      30.162  29.292  22.455  1.00  0.00     0.226 C 
ATOM      4  O   UNL A   1      29.972  29.801  21.347  1.00  0.00    -0.275 OA
ATOM      5  H   UNL A   1      31.891  30.271  22.677  1.00  0.00     0.163 HD
BRANCH   3   6
ATOM      6  C   UNL A   1      29.181  28.286  23.033  1.00  0.00     0.157 C 
BRANCH   6   7
ATOM      7  C   UNL A   1      29.837  27.007  23.437  1.00  0.00     0.063 A 
ATOM      8  C   UNL A   1      31.166  25.300  23.020  1.00  0.00     0.189 A 
ATOM      9  N   UNL A   1      30.850  26.504  22.630  1.00  0.00    -0.224 NA
ATOM     10  S   UNL A   1      30.380  24.725  24.420  1.00  0.00    -0.105 S 
ATOM     11  C   UNL A   1      29.520  26.205  24.522  1.00  0.00     0.093 A 
BRANCH   8  12
ATOM     12  N   UNL A   1      32.010  24.403  22.446  1.00  0.00    -0.299 N 
ATOM     13  C   UNL A   1      33.367  24.382  22.544  1.00  0.00     0.264 C 
ATOM     14  O   UNL A   1      33.975  23.553  21.853  1.00  0.00    -0.271 OA
ATOM     15  H   UNL A   1      31.597  23.693  21.904  1.00  0.00     0.172 HD
BRANCH  13  16
ATOM     16  C   UNL A   1      34.127  25.267  23.548  1.00  0.00     0.329 C 
BRANCH  16  17
ATOM     17  O   UNL A   1      35.121  24.696  24.371  1.00  0.00    -0.483 OA
BRANCH  17  18
ATOM     18  C   UNL A   1      34.784  23.792  25.340  1.00  0.00     0.123 A 
ATOM     19  C   UNL A   1      31.957  22.780  27.690  1.00  0.00     0.044 C 
ATOM     20  C   UNL A   1      33.273  22.792  26.970  1.00  0.00    -0.047 A 
ATOM     21  C   UNL A   1      34.206  21.782  27.208  1.00  0.00     0.004 A 
ATOM     22  C   UNL A   1      33.577  23.801  26.046  1.00  0.00     0.050 A 
ATOM     23  C   UNL A   1      35.429  21.788  26.543  1.00  0.00     0.008 A 
ATOM     24  C   UNL A   1      35.737  22.784  25.600  1.00  0.00    -0.003 A 
BRANCH  24  25
ATOM     25  C   UNL A   1      37.081  22.754  24.878  1.00  0.00     0.017 C 
ATOM     26  C   UNL A   1      38.103  21.894  25.622  1.00  0.00     0.012 C 
ATOM     27  C   UNL A   1      36.930  22.265  23.436  1.00  0.00     0.012 C 
ENDBRANCH  24  25
ENDBRANCH  17  18
ENDBRANCH  16  17
ENDBRANCH  13  16
ENDBRANCH   8  12
ENDBRANCH   6   7
ENDBRANCH   3   6
ENDBRANCH   1   2
BRANCH   1  28
ATOM     28  C   UNL A   1      33.052  28.719  24.604  1.00  0.00     0.021 C 
BRANCH  28  29
ATOM     29  C   UNL A   1      33.425  28.149  25.980  1.00  0.00     0.002 C 
BRANCH  29  30
ATOM     30  C   UNL A   1      34.473  28.926  26.798  1.00  0.00     0.002 C 
BRANCH  30  31
ATOM     31  C   UNL A   1      34.188  30.409  27.053  1.00  0.00     0.021 C 
BRANCH  31  32
ATOM     32  C   UNL A   1      34.473  30.873  28.473  1.00  0.00     0.116 C 
BRANCH  32  33
ATOM     33  N   UNL A   1      35.533  31.868  28.592  1.00  0.00    -0.352 N 
ATOM     34  C   UNL A   1      36.903  31.683  28.705  1.00  0.00     0.251 C 
ATOM     35  H   UNL A   1      35.233  32.806  28.591  1.00  0.00     0.163 HD
ATOM     36  O   UNL A   1      37.646  32.638  28.840  1.00  0.00    -0.269 OA
BRANCH  34  37
ATOM     37  C   UNL A   1      37.470  30.322  28.511  1.00  0.00     0.039 A 
ATOM     38  C   UNL A   1      37.590  29.505  29.641  1.00  0.00     0.014 A 
ATOM     39  C   UNL A   1      38.085  29.959  27.318  1.00  0.00     0.014 A 
ATOM     40  C   UNL A   1      38.553  28.501  29.653  1.00  0.00     0.010 A 
ATOM     41  C   UNL A   1      39.114  29.041  27.360  1.00  0.00     0.010 A 
ATOM     42  C   UNL A   1      39.399  28.375  28.553  1.00  0.00    -0.014 A 
BRANCH  42  43
ATOM     43  C   UNL A   1      40.656  27.642  28.594  1.00  0.00     0.031 A 
ATOM     44  C   UNL A   1      40.650  26.173  28.431  1.00  0.00     0.074 A 
ATOM     45  C   UNL A   1      41.826  28.311  28.729  1.00  0.00     0.049 A 
ATOM     46  N   UNL A   1      41.550  25.380  28.907  1.00  0.00    -0.248 NA
ATOM     47  C   UNL A   1      39.569  25.469  27.749  1.00  0.00     0.031 C 
ATOM     48  C   UNL A   1      43.171  27.757  28.589  1.00  0.00     0.029 A 
ATOM     49  N   UNL A   1      42.056  29.598  29.228  1.00  0.00    -0.354 N 
ATOM     50  C   UNL A   1      41.351  24.144  28.335  1.00  0.00     0.074 A 
ATOM     51  C   UNL A   1      40.047  24.222  27.721  1.00  0.00     0.031 C 
ATOM     52  C   UNL A   1      44.026  28.530  29.279  1.00  0.00     0.029 A 
ATOM     53  C   UNL A   1      43.225  29.505  30.001  1.00  0.00     0.049 A 
ATOM     54  H   UNL A   1      41.512  30.403  29.070  1.00  0.00     0.167 HD
ATOM     55  C   UNL A   1      42.378  23.245  28.305  1.00  0.00     0.031 A 
ATOM     56  C   UNL A   1      43.265  29.697  31.354  1.00  0.00     0.031 A 
ATOM     57  C   UNL A   1      43.541  23.733  29.048  1.00  0.00     0.049 A 
ATOM     58  C   UNL A   1      43.808  28.499  32.113  1.00  0.00     0.074 A 
ATOM     59  C   UNL A   1      44.740  24.304  28.650  1.00  0.00     0.029 A 
ATOM     60  N   UNL A   1      43.437  23.948  30.417  1.00  0.00    -0.354 N 
ATOM     61  N   UNL A   1      43.881  27.297  31.609  1.00  0.00    -0.248 NA
ATOM     62  C   UNL A   1      44.263  28.541  33.502  1.00  0.00     0.031 C 
ATOM     63  C   UNL A   1      45.315  24.943  29.781  1.00  0.00     0.029 A 
ATOM     64  C   UNL A   1      44.485  24.728  30.866  1.00  0.00     0.049 A 
ATOM     65  H   UNL A   1      42.716  23.595  30.988  1.00  0.00     0.167 HD
ATOM     66  C   UNL A   1      44.389  26.431  32.542  1.00  0.00     0.074 A 
ATOM     67  C   UNL A   1      44.614  27.260  33.713  1.00  0.00     0.031 C 
ATOM     68  C   UNL A   1      44.573  25.106  32.271  1.00  0.00     0.031 A 
BRANCH  55  69
ATOM     69  C   UNL A   1      42.438  22.069  27.350  1.00  0.00    -0.014 A 
ATOM     70  C   UNL A   1      41.624  20.943  27.582  1.00  0.00     0.009 A 
ATOM     71  C   UNL A   1      43.314  21.966  26.256  1.00  0.00     0.009 A 
ATOM     72  C   UNL A   1      41.751  19.761  26.836  1.00  0.00     0.001 A 
ATOM     73  C   UNL A   1      43.471  20.779  25.526  1.00  0.00     0.001 A 
ATOM     74  C   UNL A   1      42.697  19.669  25.826  1.00  0.00     0.000 A 
ENDBRANCH  55  69
BRANCH  56  75
ATOM     75  C   UNL A   1      42.231  30.627  31.878  1.00  0.00    -0.014 A 
ATOM     76  C   UNL A   1      42.385  32.004  31.630  1.00  0.00     0.009 A 
ATOM     77  C   UNL A   1      40.970  30.153  32.264  1.00  0.00     0.009 A 
ATOM     78  C   UNL A   1      41.280  32.861  31.640  1.00  0.00     0.001 A 
ATOM     79  C   UNL A   1      39.867  31.017  32.282  1.00  0.00     0.001 A 
ATOM     80  C   UNL A   1      40.015  32.359  31.930  1.00  0.00     0.000 A 
ENDBRANCH  56  75
BRANCH  68  81
ATOM     81  C   UNL A   1      44.926  24.033  33.272  1.00  0.00    -0.014 A 
ATOM     82  C   UNL A   1      44.089  22.962  33.610  1.00  0.00     0.009 A 
ATOM     83  C   UNL A   1      46.234  24.009  33.810  1.00  0.00     0.009 A 
ATOM     84  C   UNL A   1      44.522  21.945  34.476  1.00  0.00     0.001 A 
ATOM     85  C   UNL A   1      46.683  22.976  34.635  1.00  0.00     0.001 A 
ATOM     86  C   UNL A   1      45.820  21.947  34.979  1.00  0.00     0.000 A 
ENDBRANCH  68  81
ENDBRANCH  42  43
ENDBRANCH  34  37
ENDBRANCH  32  33
ENDBRANCH  31  32
ENDBRANCH  30  31
ENDBRANCH  29  30
ENDBRANCH  28  29
ENDBRANCH   1  28
TORSDOF 19
ENDMDL
MODEL 3
REMARK VINA RESULT:     -11.5      1.662      2.467
REMARK SMILES Cc1ccc(C(C)C)c(OCC(=O)Nc2nc(CC(=O)NCCCCCCNC(=O)c3ccc(-c4c5nc(c(-c6ccccc6)c6ccc([nH]6)c(-c6ccccc6)c6nc(c(-c7ccccc7)c7ccc4[nH]7)C=C6)C=C5)cc3)cs2)c1
REMARK SMILES IDX 22 1 21 2 19 3 20 4 18 6 17 7 15 8 16 9 80 10 79 11 14 12
REMARK SMILES IDX 12 13 13 14 11 16 10 17 9 18 1 19 2 20 3 21 81 22 4 23 5 24
REMARK SMILES IDX 6 25 7 26 8 27 23 28 24 29 25 30 26 31 27 32 28 33 29 34
REMARK SMILES IDX 30 36 31 37 32 38 78 39 33 40 77 41 34 42 35 43 36 44 71 45
REMARK SMILES IDX 37 46 76 47 70 48 72 49 38 50 75 51 69 52 68 53 39 55 61 56
REMARK SMILES IDX 46 57 60 58 47 59 50 60 59 61 73 62 48 63 49 64 58 66 74 67
REMARK SMILES IDX 51 68 40 69 41 70 45 71 42 72 44 73 43 74 62 75 63 76 67 77
REMARK SMILES IDX 64 78 66 79 65 80 52 81 53 82 57 83 54 84 56 85 55 86
REMARK H PARENT 21 5 14 15 28 35 72 54 50 65
REMARK Flexibility Score: inf
ROOT
ATOM      1  C   UNL A   1      34.516  28.791  26.942  1.00  0.00     0.116 C 
ENDROOT
BRANCH   1   2
ATOM      2  N   UNL A   1      33.269  28.347  27.534  1.00  0.00    -0.356 N 
ATOM      3  C   UNL A   1      31.991  28.731  27.238  1.00  0.00     0.226 C 
ATOM      4  O   UNL A   1      31.063  28.134  27.789  1.00  0.00    -0.275 OA
ATOM      5  H   UNL A   1      33.355  27.675  28.249  1.00  0.00     0.163 HD
BRANCH   3   6
ATOM      6  C   UNL A   1      31.722  29.843  26.237  1.00  0.00     0.157 C 
BRANCH   6   7
ATOM      7  C   UNL A   1      31.413  29.326  24.870  1.00  0.00     0.063 A 
ATOM      8  C   UNL A   1      31.991  28.268  23.027  1.00  0.00     0.189 A 
ATOM      9  N   UNL A   1      32.319  28.456  24.275  1.00  0.00    -0.224 NA
ATOM     10  S   UNL A   1      30.545  29.002  22.502  1.00  0.00    -0.105 S 
ATOM     11  C   UNL A   1      30.327  29.653  24.074  1.00  0.00     0.093 A 
BRANCH   8  12
ATOM     12  N   UNL A   1      32.661  27.596  22.053  1.00  0.00    -0.299 N 
ATOM     13  C   UNL A   1      32.660  26.253  21.841  1.00  0.00     0.264 C 
ATOM     14  O   UNL A   1      33.428  25.813  20.973  1.00  0.00    -0.271 OA
ATOM     15  H   UNL A   1      33.203  28.139  21.436  1.00  0.00     0.172 HD
BRANCH  13  16
ATOM     16  C   UNL A   1      31.675  25.314  22.559  1.00  0.00     0.329 C 
BRANCH  16  17
ATOM     17  O   UNL A   1      32.098  24.026  22.954  1.00  0.00    -0.483 OA
BRANCH  17  18
ATOM     18  C   UNL A   1      32.977  23.873  23.990  1.00  0.00     0.123 A 
ATOM     19  C   UNL A   1      36.696  23.682  24.809  1.00  0.00     0.044 C 
ATOM     20  C   UNL A   1      35.205  23.717  24.967  1.00  0.00    -0.047 A 
ATOM     21  C   UNL A   1      34.639  23.686  26.242  1.00  0.00     0.004 A 
ATOM     22  C   UNL A   1      34.366  23.795  23.847  1.00  0.00     0.050 A 
ATOM     23  C   UNL A   1      33.255  23.718  26.395  1.00  0.00     0.008 A 
ATOM     24  C   UNL A   1      32.404  23.816  25.280  1.00  0.00    -0.003 A 
BRANCH  24  25
ATOM     25  C   UNL A   1      30.893  23.863  25.482  1.00  0.00     0.017 C 
ATOM     26  C   UNL A   1      30.420  22.787  26.460  1.00  0.00     0.012 C 
ATOM     27  C   UNL A   1      30.435  25.244  25.954  1.00  0.00     0.012 C 
ENDBRANCH  24  25
ENDBRANCH  17  18
ENDBRANCH  16  17
ENDBRANCH  13  16
ENDBRANCH   8  12
ENDBRANCH   6   7
ENDBRANCH   3   6
ENDBRANCH   1   2
BRANCH   1  28
ATOM     28  C   UNL A   1      35.270  29.800  27.807  1.00  0.00     0.021 C 
BRANCH  28  29
ATOM     29  C   UNL A   1      34.936  31.273  27.533  1.00  0.00     0.002 C 
BRANCH  29  30
ATOM     30  C   UNL A   1      34.965  32.233  28.737  1.00  0.00     0.002 C 
BRANCH  30  31
ATOM     31  C   UNL A   1      33.920  33.352  28.751  1.00  0.00     0.021 C 
BRANCH  31  32
ATOM     32  C   UNL A   1      34.325  34.585  29.545  1.00  0.00     0.116 C 
BRANCH  32  33
ATOM     33  N   UNL A   1      33.350  35.021  30.538  1.00  0.00    -0.352 N 
ATOM     34  C   UNL A   1      33.351  34.833  31.913  1.00  0.00     0.251 C 
ATOM     35  H   UNL A   1      32.581  35.522  30.182  1.00  0.00     0.163 HD
ATOM     36  O   UNL A   1      32.424  35.233  32.591  1.00  0.00    -0.269 OA
BRANCH  34  37
ATOM     37  C   UNL A   1      34.564  34.273  32.567  1.00  0.00     0.039 A 
ATOM     38  C   UNL A   1      35.698  35.092  32.635  1.00  0.00     0.014 A 
ATOM     39  C   UNL A   1      34.660  32.920  32.873  1.00  0.00     0.014 A 
ATOM     40  C   UNL A   1      36.955  34.503  32.718  1.00  0.00     0.010 A 
ATOM     41  C   UNL A   1      35.904  32.325  32.845  1.00  0.00     0.010 A 
ATOM     42  C   UNL A   1      37.045  33.112  32.683  1.00  0.00    -0.014 A 
BRANCH  42  43
ATOM     43  C   UNL A   1      38.279  32.400  32.386  1.00  0.00     0.031 A 
ATOM     44  C   UNL A   1      38.218  31.064  31.757  1.00  0.00     0.074 A 
ATOM     45  C   UNL A   1      39.475  32.984  32.637  1.00  0.00     0.049 A 
ATOM     46  N   UNL A   1      39.126  30.155  31.878  1.00  0.00    -0.248 NA
ATOM     47  C   UNL A   1      37.068  30.625  30.971  1.00  0.00     0.031 C 
ATOM     48  C   UNL A   1      40.789  32.500  32.220  1.00  0.00     0.029 A 
ATOM     49  N   UNL A   1      39.779  34.037  33.506  1.00  0.00    -0.354 N 
ATOM     50  C   UNL A   1      38.849  29.173  30.954  1.00  0.00     0.074 A 
ATOM     51  C   UNL A   1      37.506  29.453  30.503  1.00  0.00     0.031 C 
ATOM     52  C   UNL A   1      41.715  33.003  33.054  1.00  0.00     0.029 A 
ATOM     53  C   UNL A   1      40.998  33.693  34.113  1.00  0.00     0.049 A 
ATOM     54  H   UNL A   1      39.249  34.852  33.661  1.00  0.00     0.167 HD
ATOM     55  C   UNL A   1      39.843  28.328  30.553  1.00  0.00     0.031 A 
ATOM     56  C   UNL A   1      41.143  33.435  35.447  1.00  0.00     0.031 A 
ATOM     57  C   UNL A   1      41.071  28.543  31.320  1.00  0.00     0.049 A 
ATOM     58  C   UNL A   1      41.704  32.053  35.732  1.00  0.00     0.074 A 
ATOM     59  C   UNL A   1      42.254  29.207  31.036  1.00  0.00     0.029 A 
ATOM     60  N   UNL A   1      41.074  28.302  32.689  1.00  0.00    -0.354 N 
ATOM     61  N   UNL A   1      41.704  31.079  34.862  1.00  0.00    -0.248 NA
ATOM     62  C   UNL A   1      42.260  31.639  37.020  1.00  0.00     0.031 C 
ATOM     63  C   UNL A   1      42.929  29.441  32.263  1.00  0.00     0.029 A 
ATOM     64  C   UNL A   1      42.176  28.889  33.282  1.00  0.00     0.049 A 
ATOM     65  H   UNL A   1      40.386  27.785  33.169  1.00  0.00     0.167 HD
ATOM     66  C   UNL A   1      42.252  29.955  35.422  1.00  0.00     0.074 A 
ATOM     67  C   UNL A   1      42.587  30.356  36.776  1.00  0.00     0.031 C 
ATOM     68  C   UNL A   1      42.377  28.789  34.722  1.00  0.00     0.031 A 
BRANCH  55  69
ATOM     69  C   UNL A   1      39.798  27.526  29.268  1.00  0.00    -0.014 A 
ATOM     70  C   UNL A   1      39.272  26.220  29.282  1.00  0.00     0.009 A 
ATOM     71  C   UNL A   1      40.317  27.956  28.035  1.00  0.00     0.009 A 
ATOM     72  C   UNL A   1      39.352  25.369  28.169  1.00  0.00     0.001 A 
ATOM     73  C   UNL A   1      40.431  27.102  26.927  1.00  0.00     0.001 A 
ATOM     74  C   UNL A   1      39.960  25.801  26.999  1.00  0.00     0.000 A 
ENDBRANCH  55  69
BRANCH  56  75
ATOM     75  C   UNL A   1      40.178  34.148  36.325  1.00  0.00    -0.014 A 
ATOM     76  C   UNL A   1      39.156  33.400  36.938  1.00  0.00     0.009 A 
ATOM     77  C   UNL A   1      40.478  35.419  36.836  1.00  0.00     0.009 A 
ATOM     78  C   UNL A   1      38.541  33.855  38.109  1.00  0.00     0.001 A 
ATOM     79  C   UNL A   1      39.853  35.875  38.004  1.00  0.00     0.001 A 
ATOM     80  C   UNL A   1      38.916  35.076  38.661  1.00  0.00     0.000 A 
ENDBRANCH  56  75
BRANCH  68  81
ATOM     81  C   UNL A   1      42.770  27.447  35.291  1.00  0.00    -0.014 A 
ATOM     82  C   UNL A   1      42.006  26.727  36.217  1.00  0.00     0.009 A 
ATOM     83  C   UNL A   1      43.908  26.793  34.764  1.00  0.00     0.009 A 
ATOM     84  C   UNL A   1      42.384  25.439  36.629  1.00  0.00     0.001 A 
ATOM     85  C   UNL A   1      44.263  25.495  35.137  1.00  0.00     0.001 A 
ATOM     86  C   UNL A   1      43.505  24.821  36.081  1.00  0.00     0.000 A 
ENDBRANCH  68  81
ENDBRANCH  42  43
ENDBRANCH  34  37
ENDBRANCH  32  33
ENDBRANCH  31  32
ENDBRANCH  30  31
ENDBRANCH  29  30
ENDBRANCH  28  29
ENDBRANCH   1  28
TORSDOF 19
ENDMDL
