MODEL 1
REMARK VINA RESULT:     -12.2      0.000      0.000
REMARK SMILES Cc1cc(C(=O)NCCCCCCNC(=O)c2ccc(-c3c4nc(c(-c5ccccc5)c5ccc([nH]5)c(-c5ccccc5)c5nc(c(-c6ccccc6)c6ccc3[nH]6)C=C5)C=C4)cc2)ccc1NC(=O)N1C[C@@H](C)[C@H](C)C1
REMARK SMILES IDX 11 1 10 2 9 3 8 4 7 5 5 6 6 7 4 9 1 10 2 11 3 12 67 13 66 14
REMARK SMILES IDX 65 15 68 16 69 17 70 19 71 20 72 21 77 22 73 23 75 24 74 25
REMARK SMILES IDX 76 26 12 27 13 28 14 29 15 30 16 32 17 33 18 34 64 35 19 36
REMARK SMILES IDX 63 37 20 38 21 39 22 40 57 41 23 42 62 43 56 44 58 45 24 46
REMARK SMILES IDX 61 47 55 48 54 49 25 51 47 52 32 53 46 54 33 55 36 56 45 57
REMARK SMILES IDX 59 58 34 59 35 60 44 62 60 63 37 64 26 65 27 66 31 67 28 68
REMARK SMILES IDX 30 69 29 70 48 71 49 72 53 73 50 74 52 75 51 76 38 77 39 78
REMARK SMILES IDX 43 79 40 80 42 81 41 82
REMARK H PARENT 7 8 68 18 14 31 58 50 36 61
REMARK Flexibility Score: inf
ROOT
ATOM      1  C   UNL A   1      34.112  28.437  26.851  1.00  0.00     0.002 C 
ENDROOT
BRANCH   1   2
ATOM      2  C   UNL A   1      33.541  27.974  25.500  1.00  0.00     0.002 C 
BRANCH   2   3
ATOM      3  C   UNL A   1      33.662  28.964  24.331  1.00  0.00     0.021 C 
BRANCH   3   4
ATOM      4  C   UNL A   1      33.527  28.337  22.941  1.00  0.00     0.116 C 
BRANCH   4   5
ATOM      5  N   UNL A   1      32.252  28.669  22.324  1.00  0.00    -0.352 N 
ATOM      6  C   UNL A   1      31.040  28.018  22.354  1.00  0.00     0.251 C 
ATOM      7  O   UNL A   1      30.053  28.574  21.879  1.00  0.00    -0.269 OA
ATOM      8  H   UNL A   1      32.257  29.499  21.797  1.00  0.00     0.163 HD
BRANCH   6   9
ATOM      9  C   UNL A   1      30.888  26.692  23.003  1.00  0.00     0.040 A 
ATOM     10  C   UNL A   1      29.630  25.434  26.356  1.00  0.00     0.046 C 
ATOM     11  C   UNL A   1      30.315  25.414  25.016  1.00  0.00    -0.027 A 
ATOM     12  C   UNL A   1      30.370  26.631  24.303  1.00  0.00     0.019 A 
ATOM     13  C   UNL A   1      30.849  24.258  24.417  1.00  0.00     0.045 A 
ATOM     14  C   UNL A   1      31.206  24.307  23.063  1.00  0.00     0.027 A 
ATOM     15  C   UNL A   1      31.204  25.506  22.355  1.00  0.00     0.016 A 
BRANCH  13  16
ATOM     16  N   UNL A   1      30.979  23.058  25.146  1.00  0.00    -0.308 N 
ATOM     17  C   UNL A   1      31.991  22.139  25.126  1.00  0.00     0.321 C 
ATOM     18  H   UNL A   1      30.235  22.852  25.757  1.00  0.00     0.171 HD
ATOM     19  O   UNL A   1      31.721  20.954  25.326  1.00  0.00    -0.248 OA
ATOM     20  N   UNL A   1      33.276  22.569  24.916  1.00  0.00    -0.324 N 
ATOM     21  C   UNL A   1      34.279  21.681  24.357  1.00  0.00     0.125 C 
ATOM     22  C   UNL A   1      33.893  23.704  25.594  1.00  0.00     0.125 C 
ATOM     23  C   UNL A   1      35.623  22.227  24.840  1.00  0.00     0.010 C 
ATOM     24  C   UNL A   1      35.336  23.720  25.084  1.00  0.00     0.010 C 
ATOM     25  C   UNL A   1      36.746  21.985  23.844  1.00  0.00     0.010 C 
ATOM     26  C   UNL A   1      36.316  24.366  26.057  1.00  0.00     0.010 C 
ENDBRANCH  13  16
ENDBRANCH   6   9
ENDBRANCH   4   5
ENDBRANCH   3   4
ENDBRANCH   2   3
ENDBRANCH   1   2
BRANCH   1  27
ATOM     27  C   UNL A   1      33.367  29.584  27.540  1.00  0.00     0.021 C 
BRANCH  27  28
ATOM     28  C   UNL A   1      33.996  30.957  27.324  1.00  0.00     0.116 C 
BRANCH  28  29
ATOM     29  N   UNL A   1      34.374  31.631  28.550  1.00  0.00    -0.352 N 
ATOM     30  C   UNL A   1      35.406  31.335  29.442  1.00  0.00     0.251 C 
ATOM     31  H   UNL A   1      33.824  32.412  28.789  1.00  0.00     0.163 HD
ATOM     32  O   UNL A   1      35.552  32.001  30.449  1.00  0.00    -0.269 OA
BRANCH  30  33
ATOM     33  C   UNL A   1      36.391  30.286  29.087  1.00  0.00     0.039 A 
ATOM     34  C   UNL A   1      36.656  29.296  30.039  1.00  0.00     0.014 A 
ATOM     35  C   UNL A   1      37.171  30.374  27.937  1.00  0.00     0.014 A 
ATOM     36  C   UNL A   1      37.841  28.567  29.961  1.00  0.00     0.010 A 
ATOM     37  C   UNL A   1      38.388  29.719  27.900  1.00  0.00     0.010 A 
ATOM     38  C   UNL A   1      38.752  28.872  28.948  1.00  0.00    -0.014 A 
BRANCH  38  39
ATOM     39  C   UNL A   1      40.149  28.458  28.990  1.00  0.00     0.031 A 
ATOM     40  C   UNL A   1      40.582  27.182  28.395  1.00  0.00     0.074 A 
ATOM     41  C   UNL A   1      41.066  29.272  29.555  1.00  0.00     0.049 A 
ATOM     42  N   UNL A   1      41.647  26.546  28.751  1.00  0.00    -0.248 NA
ATOM     43  C   UNL A   1      39.808  26.489  27.373  1.00  0.00     0.031 C 
ATOM     44  C   UNL A   1      42.521  29.169  29.490  1.00  0.00     0.029 A 
ATOM     45  N   UNL A   1      40.830  30.243  30.527  1.00  0.00    -0.354 N 
ATOM     46  C   UNL A   1      41.847  25.536  27.845  1.00  0.00     0.074 A 
ATOM     47  C   UNL A   1      40.640  25.494  27.051  1.00  0.00     0.031 C 
ATOM     48  C   UNL A   1      43.046  29.831  30.534  1.00  0.00     0.029 A 
ATOM     49  C   UNL A   1      41.945  30.247  31.385  1.00  0.00     0.049 A 
ATOM     50  H   UNL A   1      40.035  30.818  30.598  1.00  0.00     0.167 HD
ATOM     51  C   UNL A   1      43.060  24.919  27.781  1.00  0.00     0.031 A 
ATOM     52  C   UNL A   1      41.801  29.916  32.702  1.00  0.00     0.031 A 
ATOM     53  C   UNL A   1      43.988  25.395  28.805  1.00  0.00     0.049 A 
ATOM     54  C   UNL A   1      42.566  28.678  33.131  1.00  0.00     0.074 A 
ATOM     55  C   UNL A   1      45.081  26.247  28.805  1.00  0.00     0.029 A 
ATOM     56  N   UNL A   1      43.667  25.187  30.136  1.00  0.00    -0.354 N 
ATOM     57  N   UNL A   1      43.244  27.908  32.325  1.00  0.00    -0.248 NA
ATOM     58  C   UNL A   1      42.526  28.152  34.498  1.00  0.00     0.031 C 
ATOM     59  C   UNL A   1      45.413  26.545  30.158  1.00  0.00     0.029 A 
ATOM     60  C   UNL A   1      44.530  25.865  30.974  1.00  0.00     0.049 A 
ATOM     61  H   UNL A   1      42.919  24.628  30.445  1.00  0.00     0.167 HD
ATOM     62  C   UNL A   1      43.668  26.799  33.008  1.00  0.00     0.074 A 
ATOM     63  C   UNL A   1      43.201  26.998  34.368  1.00  0.00     0.031 C 
ATOM     64  C   UNL A   1      44.327  25.770  32.407  1.00  0.00     0.031 A 
BRANCH  51  65
ATOM     65  C   UNL A   1      43.474  24.039  26.630  1.00  0.00    -0.014 A 
ATOM     66  C   UNL A   1      43.054  22.697  26.593  1.00  0.00     0.009 A 
ATOM     67  C   UNL A   1      44.304  24.455  25.575  1.00  0.00     0.009 A 
ATOM     68  C   UNL A   1      43.518  21.800  25.622  1.00  0.00     0.001 A 
ATOM     69  C   UNL A   1      44.808  23.556  24.626  1.00  0.00     0.001 A 
ATOM     70  C   UNL A   1      44.422  22.222  24.658  1.00  0.00     0.000 A 
ENDBRANCH  51  65
BRANCH  52  71
ATOM     71  C   UNL A   1      40.483  30.323  33.271  1.00  0.00    -0.014 A 
ATOM     72  C   UNL A   1      40.240  31.695  33.490  1.00  0.00     0.009 A 
ATOM     73  C   UNL A   1      39.393  29.443  33.265  1.00  0.00     0.009 A 
ATOM     74  C   UNL A   1      38.935  32.185  33.577  1.00  0.00     0.001 A 
ATOM     75  C   UNL A   1      38.088  29.937  33.376  1.00  0.00     0.001 A 
ATOM     76  C   UNL A   1      37.858  31.307  33.493  1.00  0.00     0.000 A 
ENDBRANCH  52  71
BRANCH  64  77
ATOM     77  C   UNL A   1      44.812  24.555  33.142  1.00  0.00    -0.014 A 
ATOM     78  C   UNL A   1      43.972  23.471  33.437  1.00  0.00     0.009 A 
ATOM     79  C   UNL A   1      46.116  24.524  33.673  1.00  0.00     0.009 A 
ATOM     80  C   UNL A   1      44.436  22.381  34.183  1.00  0.00     0.001 A 
ATOM     81  C   UNL A   1      46.575  23.448  34.436  1.00  0.00     0.001 A 
ATOM     82  C   UNL A   1      45.736  22.370  34.682  1.00  0.00     0.000 A 
ENDBRANCH  64  77
ENDBRANCH  38  39
ENDBRANCH  30  33
ENDBRANCH  28  29
ENDBRANCH  27  28
ENDBRANCH   1  27
TORSDOF 14
ENDMDL
MODEL 2
REMARK VINA RESULT:     -12.0      3.179      8.721
REMARK SMILES Cc1cc(C(=O)NCCCCCCNC(=O)c2ccc(-c3c4nc(c(-c5ccccc5)c5ccc([nH]5)c(-c5ccccc5)c5nc(c(-c6ccccc6)c6ccc3[nH]6)C=C5)C=C4)cc2)ccc1NC(=O)N1C[C@@H](C)[C@H](C)C1
REMARK SMILES IDX 11 1 10 2 9 3 8 4 7 5 5 6 6 7 4 9 1 10 2 11 3 12 67 13 66 14
REMARK SMILES IDX 65 15 68 16 69 17 70 19 71 20 72 21 77 22 73 23 75 24 74 25
REMARK SMILES IDX 76 26 12 27 13 28 14 29 15 30 16 32 17 33 18 34 64 35 19 36
REMARK SMILES IDX 63 37 20 38 21 39 22 40 57 41 23 42 62 43 56 44 58 45 24 46
REMARK SMILES IDX 61 47 55 48 54 49 25 51 47 52 32 53 46 54 33 55 36 56 45 57
REMARK SMILES IDX 59 58 34 59 35 60 44 62 60 63 37 64 26 65 27 66 31 67 28 68
REMARK SMILES IDX 30 69 29 70 48 71 49 72 53 73 50 74 52 75 51 76 38 77 39 78
REMARK SMILES IDX 43 79 40 80 42 81 41 82
REMARK H PARENT 7 8 68 18 14 31 58 50 36 61
REMARK Flexibility Score: inf
ROOT
ATOM      1  C   UNL A   1      36.688  22.222  23.946  1.00  0.00     0.002 C 
ENDROOT
BRANCH   1   2
ATOM      2  C   UNL A   1      35.225  21.776  24.108  1.00  0.00     0.002 C 
BRANCH   2   3
ATOM      3  C   UNL A   1      34.984  20.509  24.942  1.00  0.00     0.021 C 
BRANCH   3   4
ATOM      4  C   UNL A   1      33.546  20.325  25.432  1.00  0.00     0.116 C 
BRANCH   4   5
ATOM      5  N   UNL A   1      33.382  20.786  26.802  1.00  0.00    -0.352 N 
ATOM      6  C   UNL A   1      33.143  22.043  27.307  1.00  0.00     0.251 C 
ATOM      7  O   UNL A   1      32.886  22.166  28.502  1.00  0.00    -0.269 OA
ATOM      8  H   UNL A   1      33.453  20.079  27.482  1.00  0.00     0.163 HD
BRANCH   6   9
ATOM      9  C   UNL A   1      33.126  23.241  26.430  1.00  0.00     0.040 A 
ATOM     10  C   UNL A   1      30.626  24.844  24.067  1.00  0.00     0.046 C 
ATOM     11  C   UNL A   1      31.944  24.562  24.736  1.00  0.00    -0.027 A 
ATOM     12  C   UNL A   1      31.976  23.510  25.676  1.00  0.00     0.019 A 
ATOM     13  C   UNL A   1      33.117  25.309  24.522  1.00  0.00     0.045 A 
ATOM     14  C   UNL A   1      34.195  25.134  25.399  1.00  0.00     0.027 A 
ATOM     15  C   UNL A   1      34.193  24.126  26.360  1.00  0.00     0.016 A 
BRANCH  13  16
ATOM     16  N   UNL A   1      33.195  26.252  23.476  1.00  0.00    -0.308 N 
ATOM     17  C   UNL A   1      32.735  27.538  23.435  1.00  0.00     0.321 C 
ATOM     18  H   UNL A   1      33.644  25.939  22.658  1.00  0.00     0.171 HD
ATOM     19  O   UNL A   1      32.357  28.000  22.357  1.00  0.00    -0.248 OA
ATOM     20  N   UNL A   1      32.739  28.284  24.586  1.00  0.00    -0.324 N 
ATOM     21  C   UNL A   1      31.819  29.392  24.762  1.00  0.00     0.125 C 
ATOM     22  C   UNL A   1      33.865  28.379  25.509  1.00  0.00     0.125 C 
ATOM     23  C   UNL A   1      32.488  30.323  25.774  1.00  0.00     0.010 C 
ATOM     24  C   UNL A   1      33.409  29.381  26.572  1.00  0.00     0.010 C 
ATOM     25  C   UNL A   1      31.484  31.064  26.642  1.00  0.00     0.010 C 
ATOM     26  C   UNL A   1      34.561  30.108  27.255  1.00  0.00     0.010 C 
ENDBRANCH  13  16
ENDBRANCH   6   9
ENDBRANCH   4   5
ENDBRANCH   3   4
ENDBRANCH   2   3
ENDBRANCH   1   2
BRANCH   1  27
ATOM     27  C   UNL A   1      37.688  21.627  24.942  1.00  0.00     0.021 C 
BRANCH  27  28
ATOM     28  C   UNL A   1      38.259  22.636  25.934  1.00  0.00     0.116 C 
BRANCH  28  29
ATOM     29  N   UNL A   1      39.699  22.563  26.085  1.00  0.00    -0.352 N 
ATOM     30  C   UNL A   1      40.597  23.544  26.508  1.00  0.00     0.251 C 
ATOM     31  H   UNL A   1      40.102  21.694  25.856  1.00  0.00     0.163 HD
ATOM     32  O   UNL A   1      41.789  23.306  26.539  1.00  0.00    -0.269 OA
BRANCH  30  33
ATOM     33  C   UNL A   1      40.073  24.826  27.034  1.00  0.00     0.039 A 
ATOM     34  C   UNL A   1      40.456  26.001  26.377  1.00  0.00     0.014 A 
ATOM     35  C   UNL A   1      39.383  24.896  28.241  1.00  0.00     0.014 A 
ATOM     36  C   UNL A   1      40.372  27.220  27.047  1.00  0.00     0.010 A 
ATOM     37  C   UNL A   1      39.379  26.086  28.945  1.00  0.00     0.010 A 
ATOM     38  C   UNL A   1      39.939  27.230  28.374  1.00  0.00    -0.014 A 
BRANCH  38  39
ATOM     39  C   UNL A   1      40.168  28.355  29.272  1.00  0.00     0.031 A 
ATOM     40  C   UNL A   1      39.121  29.364  29.508  1.00  0.00     0.074 A 
ATOM     41  C   UNL A   1      41.347  28.457  29.923  1.00  0.00     0.049 A 
ATOM     42  N   UNL A   1      39.360  30.569  29.905  1.00  0.00    -0.248 NA
ATOM     43  C   UNL A   1      37.709  29.104  29.262  1.00  0.00     0.031 C 
ATOM     44  C   UNL A   1      41.690  29.346  31.029  1.00  0.00     0.029 A 
ATOM     45  N   UNL A   1      42.567  27.912  29.524  1.00  0.00    -0.354 N 
ATOM     46  C   UNL A   1      38.156  31.144  30.227  1.00  0.00     0.074 A 
ATOM     47  C   UNL A   1      37.154  30.221  29.741  1.00  0.00     0.031 C 
ATOM     48  C   UNL A   1      43.023  29.494  31.064  1.00  0.00     0.029 A 
ATOM     49  C   UNL A   1      43.568  28.831  29.891  1.00  0.00     0.049 A 
ATOM     50  H   UNL A   1      42.702  27.049  29.072  1.00  0.00     0.167 HD
ATOM     51  C   UNL A   1      38.132  32.280  30.977  1.00  0.00     0.031 A 
ATOM     52  C   UNL A   1      44.335  29.431  28.934  1.00  0.00     0.031 A 
ATOM     53  C   UNL A   1      39.469  32.792  31.266  1.00  0.00     0.049 A 
ATOM     54  C   UNL A   1      44.191  30.940  28.861  1.00  0.00     0.074 A 
ATOM     55  C   UNL A   1      40.295  32.779  32.380  1.00  0.00     0.029 A 
ATOM     56  N   UNL A   1      40.263  33.203  30.208  1.00  0.00    -0.354 N 
ATOM     57  N   UNL A   1      43.350  31.640  29.570  1.00  0.00    -0.248 NA
ATOM     58  C   UNL A   1      44.919  31.763  27.890  1.00  0.00     0.031 C 
ATOM     59  C   UNL A   1      41.596  33.192  31.974  1.00  0.00     0.029 A 
ATOM     60  C   UNL A   1      41.555  33.465  30.620  1.00  0.00     0.049 A 
ATOM     61  H   UNL A   1      39.947  33.296  29.282  1.00  0.00     0.167 HD
ATOM     62  C   UNL A   1      43.368  32.941  29.140  1.00  0.00     0.074 A 
ATOM     63  C   UNL A   1      44.370  32.972  28.090  1.00  0.00     0.031 C 
ATOM     64  C   UNL A   1      42.528  33.893  29.633  1.00  0.00     0.031 A 
BRANCH  51  65
ATOM     65  C   UNL A   1      36.882  32.798  31.642  1.00  0.00    -0.014 A 
ATOM     66  C   UNL A   1      35.977  33.585  30.907  1.00  0.00     0.009 A 
ATOM     67  C   UNL A   1      36.558  32.583  32.992  1.00  0.00     0.009 A 
ATOM     68  C   UNL A   1      34.873  34.204  31.507  1.00  0.00     0.001 A 
ATOM     69  C   UNL A   1      35.481  33.232  33.610  1.00  0.00     0.001 A 
ATOM     70  C   UNL A   1      34.644  34.054  32.868  1.00  0.00     0.000 A 
ENDBRANCH  51  65
BRANCH  52  71
ATOM     71  C   UNL A   1      44.592  28.558  27.751  1.00  0.00    -0.014 A 
ATOM     72  C   UNL A   1      45.395  27.412  27.924  1.00  0.00     0.009 A 
ATOM     73  C   UNL A   1      43.797  28.653  26.601  1.00  0.00     0.009 A 
ATOM     74  C   UNL A   1      45.312  26.340  27.032  1.00  0.00     0.001 A 
ATOM     75  C   UNL A   1      43.735  27.584  25.698  1.00  0.00     0.001 A 
ATOM     76  C   UNL A   1      44.461  26.418  25.933  1.00  0.00     0.000 A 
ENDBRANCH  52  71
BRANCH  64  77
ATOM     77  C   UNL A   1      42.543  35.324  29.184  1.00  0.00    -0.014 A 
ATOM     78  C   UNL A   1      41.861  35.759  28.039  1.00  0.00     0.009 A 
ATOM     79  C   UNL A   1      43.360  36.263  29.844  1.00  0.00     0.009 A 
ATOM     80  C   UNL A   1      41.949  37.089  27.608  1.00  0.00     0.001 A 
ATOM     81  C   UNL A   1      43.467  37.583  29.404  1.00  0.00     0.001 A 
ATOM     82  C   UNL A   1      42.752  37.999  28.289  1.00  0.00     0.000 A 
ENDBRANCH  64  77
ENDBRANCH  38  39
ENDBRANCH  30  33
ENDBRANCH  28  29
ENDBRANCH  27  28
ENDBRANCH   1  27
TORSDOF 14
ENDMDL
MODEL 3
REMARK VINA RESULT:     -11.8      2.932      8.313
REMARK SMILES Cc1cc(C(=O)NCCCCCCNC(=O)c2ccc(-c3c4nc(c(-c5ccccc5)c5ccc([nH]5)c(-c5ccccc5)c5nc(c(-c6ccccc6)c6ccc3[nH]6)C=C5)C=C4)cc2)ccc1NC(=O)N1C[C@@H](C)[C@H](C)C1
REMARK SMILES IDX 11 1 10 2 9 3 8 4 7 5 5 6 6 7 4 9 1 10 2 11 3 12 67 13 66 14
REMARK SMILES IDX 65 15 68 16 69 17 70 19 71 20 72 21 77 22 73 23 75 24 74 25
REMARK SMILES IDX 76 26 12 27 13 28 14 29 15 30 16 32 17 33 18 34 64 35 19 36
REMARK SMILES IDX 63 37 20 38 21 39 22 40 57 41 23 42 62 43 56 44 58 45 24 46
REMARK SMILES IDX 61 47 55 48 54 49 25 51 47 52 32 53 46 54 33 55 36 56 45 57
REMARK SMILES IDX 59 58 34 59 35 60 44 62 60 63 37 64 26 65 27 66 31 67 28 68
REMARK SMILES IDX 30 69 29 70 48 71 49 72 53 73 50 74 52 75 51 76 38 77 39 78
REMARK SMILES IDX 43 79 40 80 42 81 41 82
REMARK H PARENT 7 8 68 18 14 31 58 50 36 61
REMARK Flexibility Score: inf
ROOT
ATOM      1  C   UNL A   1      38.577  22.938  26.507  1.00  0.00     0.002 C 
ENDROOT
BRANCH   1   2
ATOM      2  C   UNL A   1      37.274  23.388  25.828  1.00  0.00     0.002 C 
BRANCH   2   3
ATOM      3  C   UNL A   1      36.070  22.444  25.962  1.00  0.00     0.021 C 
BRANCH   3   4
ATOM      4  C   UNL A   1      35.882  21.470  24.795  1.00  0.00     0.116 C 
BRANCH   4   5
ATOM      5  N   UNL A   1      34.955  20.401  25.131  1.00  0.00    -0.352 N 
ATOM      6  C   UNL A   1      33.584  20.338  25.045  1.00  0.00     0.251 C 
ATOM      7  O   UNL A   1      33.023  19.262  25.243  1.00  0.00    -0.269 OA
ATOM      8  H   UNL A   1      35.381  19.585  25.478  1.00  0.00     0.163 HD
BRANCH   6   9
ATOM      9  C   UNL A   1      32.776  21.521  24.655  1.00  0.00     0.040 A 
ATOM     10  C   UNL A   1      30.510  23.978  26.455  1.00  0.00     0.046 C 
ATOM     11  C   UNL A   1      31.161  23.244  25.312  1.00  0.00    -0.027 A 
ATOM     12  C   UNL A   1      32.040  22.190  25.641  1.00  0.00     0.019 A 
ATOM     13  C   UNL A   1      30.986  23.578  23.957  1.00  0.00     0.045 A 
ATOM     14  C   UNL A   1      31.850  23.013  23.009  1.00  0.00     0.027 A 
ATOM     15  C   UNL A   1      32.753  22.011  23.357  1.00  0.00     0.016 A 
BRANCH  13  16
ATOM     16  N   UNL A   1      29.995  24.498  23.558  1.00  0.00    -0.308 N 
ATOM     17  C   UNL A   1      29.901  25.836  23.819  1.00  0.00     0.321 C 
ATOM     18  H   UNL A   1      29.266  24.123  23.013  1.00  0.00     0.171 HD
ATOM     19  O   UNL A   1      28.784  26.344  23.925  1.00  0.00    -0.248 OA
ATOM     20  N   UNL A   1      31.051  26.576  23.924  1.00  0.00    -0.324 N 
ATOM     21  C   UNL A   1      31.082  27.803  24.698  1.00  0.00     0.125 C 
ATOM     22  C   UNL A   1      32.166  26.514  22.985  1.00  0.00     0.125 C 
ATOM     23  C   UNL A   1      32.221  28.632  24.104  1.00  0.00     0.010 C 
ATOM     24  C   UNL A   1      33.151  27.573  23.486  1.00  0.00     0.010 C 
ATOM     25  C   UNL A   1      32.909  29.509  25.139  1.00  0.00     0.010 C 
ATOM     26  C   UNL A   1      34.050  28.132  22.390  1.00  0.00     0.010 C 
ENDBRANCH  13  16
ENDBRANCH   6   9
ENDBRANCH   4   5
ENDBRANCH   3   4
ENDBRANCH   2   3
ENDBRANCH   1   2
BRANCH   1  27
ATOM     27  C   UNL A   1      39.402  21.890  25.756  1.00  0.00     0.021 C 
BRANCH  27  28
ATOM     28  C   UNL A   1      40.167  20.928  26.661  1.00  0.00     0.116 C 
BRANCH  28  29
ATOM     29  N   UNL A   1      41.247  20.226  25.995  1.00  0.00    -0.352 N 
ATOM     30  C   UNL A   1      42.606  20.537  25.940  1.00  0.00     0.251 C 
ATOM     31  H   UNL A   1      40.983  19.410  25.512  1.00  0.00     0.163 HD
ATOM     32  O   UNL A   1      43.366  19.839  25.296  1.00  0.00    -0.269 OA
BRANCH  30  33
ATOM     33  C   UNL A   1      43.128  21.647  26.771  1.00  0.00     0.039 A 
ATOM     34  C   UNL A   1      42.879  21.599  28.147  1.00  0.00     0.014 A 
ATOM     35  C   UNL A   1      43.679  22.792  26.201  1.00  0.00     0.014 A 
ATOM     36  C   UNL A   1      42.945  22.772  28.898  1.00  0.00     0.010 A 
ATOM     37  C   UNL A   1      43.662  23.974  26.918  1.00  0.00     0.010 A 
ATOM     38  C   UNL A   1      43.226  23.973  28.245  1.00  0.00    -0.014 A 
BRANCH  38  39
ATOM     39  C   UNL A   1      42.952  25.277  28.836  1.00  0.00     0.031 A 
ATOM     40  C   UNL A   1      41.761  26.053  28.448  1.00  0.00     0.074 A 
ATOM     41  C   UNL A   1      43.784  25.767  29.780  1.00  0.00     0.049 A 
ATOM     42  N   UNL A   1      41.667  27.335  28.566  1.00  0.00    -0.248 NA
ATOM     43  C   UNL A   1      40.587  25.439  27.840  1.00  0.00     0.031 C 
ATOM     44  C   UNL A   1      43.572  26.912  30.659  1.00  0.00     0.029 A 
ATOM     45  N   UNL A   1      45.128  25.441  29.952  1.00  0.00    -0.354 N 
ATOM     46  C   UNL A   1      40.362  27.678  28.320  1.00  0.00     0.074 A 
ATOM     47  C   UNL A   1      39.745  26.476  27.802  1.00  0.00     0.031 C 
ATOM     48  C   UNL A   1      44.766  27.359  31.079  1.00  0.00     0.029 A 
ATOM     49  C   UNL A   1      45.788  26.615  30.363  1.00  0.00     0.049 A 
ATOM     50  H   UNL A   1      45.539  24.558  29.814  1.00  0.00     0.167 HD
ATOM     51  C   UNL A   1      39.907  28.906  28.693  1.00  0.00     0.031 A 
ATOM     52  C   UNL A   1      46.760  27.168  29.580  1.00  0.00     0.031 A 
ATOM     53  C   UNL A   1      40.961  29.751  29.249  1.00  0.00     0.049 A 
ATOM     54  C   UNL A   1      46.444  28.561  29.068  1.00  0.00     0.074 A 
ATOM     55  C   UNL A   1      41.316  30.145  30.530  1.00  0.00     0.029 A 
ATOM     56  N   UNL A   1      42.021  30.110  28.433  1.00  0.00    -0.354 N 
ATOM     57  N   UNL A   1      45.313  29.182  29.256  1.00  0.00    -0.248 NA
ATOM     58  C   UNL A   1      47.353  29.315  28.200  1.00  0.00     0.031 C 
ATOM     59  C   UNL A   1      42.605  30.750  30.469  1.00  0.00     0.029 A 
ATOM     60  C   UNL A   1      43.022  30.731  29.152  1.00  0.00     0.049 A 
ATOM     61  H   UNL A   1      42.056  29.943  27.464  1.00  0.00     0.167 HD
ATOM     62  C   UNL A   1      45.305  30.341  28.526  1.00  0.00     0.074 A 
ATOM     63  C   UNL A   1      46.606  30.385  27.885  1.00  0.00     0.031 C 
ATOM     64  C   UNL A   1      44.219  31.160  28.452  1.00  0.00     0.031 A 
BRANCH  51  65
ATOM     65  C   UNL A   1      38.442  29.253  28.759  1.00  0.00    -0.014 A 
ATOM     66  C   UNL A   1      37.781  29.708  27.604  1.00  0.00     0.009 A 
ATOM     67  C   UNL A   1      37.668  29.194  29.930  1.00  0.00     0.009 A 
ATOM     68  C   UNL A   1      36.460  30.172  27.639  1.00  0.00     0.001 A 
ATOM     69  C   UNL A   1      36.361  29.696  29.984  1.00  0.00     0.001 A 
ATOM     70  C   UNL A   1      35.760  30.197  28.837  1.00  0.00     0.000 A 
ENDBRANCH  51  65
BRANCH  52  71
ATOM     71  C   UNL A   1      47.550  26.156  28.818  1.00  0.00    -0.014 A 
ATOM     72  C   UNL A   1      47.223  25.929  27.466  1.00  0.00     0.009 A 
ATOM     73  C   UNL A   1      48.786  25.701  29.295  1.00  0.00     0.009 A 
ATOM     74  C   UNL A   1      48.156  25.370  26.589  1.00  0.00     0.001 A 
ATOM     75  C   UNL A   1      49.709  25.121  28.416  1.00  0.00     0.001 A 
ATOM     76  C   UNL A   1      49.409  24.991  27.061  1.00  0.00     0.000 A 
ENDBRANCH  52  71
BRANCH  64  77
ATOM     77  C   UNL A   1      44.197  32.439  27.669  1.00  0.00    -0.014 A 
ATOM     78  C   UNL A   1      44.005  33.688  28.277  1.00  0.00     0.009 A 
ATOM     79  C   UNL A   1      44.245  32.407  26.262  1.00  0.00     0.009 A 
ATOM     80  C   UNL A   1      43.921  34.858  27.511  1.00  0.00     0.001 A 
ATOM     81  C   UNL A   1      44.140  33.569  25.495  1.00  0.00     0.001 A 
ATOM     82  C   UNL A   1      43.988  34.798  26.122  1.00  0.00     0.000 A 
ENDBRANCH  64  77
ENDBRANCH  38  39
ENDBRANCH  30  33
ENDBRANCH  28  29
ENDBRANCH  27  28
ENDBRANCH   1  27
TORSDOF 14
ENDMDL
