MODEL 1
REMARK VINA RESULT:     -13.0      0.000      0.000
REMARK SMILES O=C(NCCCCCCNC(=O)c1ccn(-c2cc(-c3ccncc3)nc(-c3ccccc3F)n2)n1)c1ccc(-c2c3nc(c(-c4ccccc4)c4ccc([nH]4)c(-c4ccccc4)c4nc(c(-c5ccccc5)c5ccc2[nH]5)C=C4)C=C3)cc1
REMARK SMILES IDX 6 1 5 2 4 3 3 4 1 5 2 6 37 8 38 9 84 10 39 11 83 12 40 13
REMARK SMILES IDX 41 14 42 15 77 16 43 17 82 18 76 19 78 20 44 21 81 22 75 23
REMARK SMILES IDX 74 24 45 26 67 27 52 28 66 29 53 30 56 31 65 32 79 33 54 34
REMARK SMILES IDX 55 35 64 37 80 38 57 39 46 40 47 41 51 42 48 43 50 44 49 45
REMARK SMILES IDX 68 46 69 47 73 48 70 49 72 50 71 51 58 52 59 53 63 54 60 55
REMARK SMILES IDX 62 56 61 57 7 58 8 59 9 60 10 61 11 62 12 64 13 65 14 66
REMARK SMILES IDX 36 67 15 68 16 69 17 70 18 71 35 72 19 73 27 74 26 75 20 76
REMARK SMILES IDX 21 77 25 78 22 79 24 80 23 81 28 82 29 83 33 84 30 85 32 86
REMARK SMILES IDX 34 87 31 88
REMARK H PARENT 3 7 78 25 56 36 10 63
REMARK Flexibility Score: inf
ROOT
ATOM      1  C   UNL A   1      36.608  22.288  23.774  1.00  0.00     0.002 C 
ENDROOT
BRANCH   1   2
ATOM      2  C   UNL A   1      37.299  21.506  24.897  1.00  0.00     0.021 C 
BRANCH   2   3
ATOM      3  C   UNL A   1      38.077  22.372  25.887  1.00  0.00     0.116 C 
BRANCH   3   4
ATOM      4  N   UNL A   1      39.495  22.089  25.938  1.00  0.00    -0.352 N 
ATOM      5  O   UNL A   1      41.648  22.106  26.445  1.00  0.00    -0.269 OA
ATOM      6  C   UNL A   1      40.577  22.717  26.486  1.00  0.00     0.251 C 
ATOM      7  H   UNL A   1      39.735  21.256  25.471  1.00  0.00     0.163 HD
BRANCH   6   8
ATOM      8  C   UNL A   1      40.567  24.098  27.034  1.00  0.00     0.039 A 
ATOM      9  C   UNL A   1      39.767  25.155  26.595  1.00  0.00     0.014 A 
ATOM     10  C   UNL A   1      41.472  24.329  28.087  1.00  0.00     0.014 A 
ATOM     11  C   UNL A   1      39.940  26.434  27.123  1.00  0.00     0.010 A 
ATOM     12  C   UNL A   1      41.642  25.597  28.624  1.00  0.00     0.010 A 
ATOM     13  C   UNL A   1      40.902  26.657  28.113  1.00  0.00    -0.014 A 
BRANCH  13  14
ATOM     14  C   UNL A   1      40.984  27.973  28.740  1.00  0.00     0.031 A 
ATOM     15  C   UNL A   1      42.100  28.819  28.227  1.00  0.00     0.074 A 
ATOM     16  C   UNL A   1      40.039  28.461  29.570  1.00  0.00     0.049 A 
ATOM     17  N   UNL A   1      43.099  29.302  28.892  1.00  0.00    -0.248 NA
ATOM     18  C   UNL A   1      42.177  29.062  26.776  1.00  0.00     0.031 C 
ATOM     19  C   UNL A   1      38.753  27.856  29.926  1.00  0.00     0.029 A 
ATOM     20  N   UNL A   1      39.978  29.677  30.187  1.00  0.00    -0.354 N 
ATOM     21  C   UNL A   1      43.839  30.058  27.983  1.00  0.00     0.074 A 
ATOM     22  C   UNL A   1      43.311  29.758  26.678  1.00  0.00     0.031 C 
ATOM     23  C   UNL A   1      37.953  28.797  30.480  1.00  0.00     0.029 A 
ATOM     24  C   UNL A   1      38.710  30.026  30.642  1.00  0.00     0.049 A 
ATOM     25  H   UNL A   1      40.765  30.258  30.300  1.00  0.00     0.167 HD
ATOM     26  C   UNL A   1      44.679  31.048  28.392  1.00  0.00     0.031 A 
ATOM     27  C   UNL A   1      38.300  31.251  31.066  1.00  0.00     0.031 A 
ATOM     28  C   UNL A   1      44.976  30.950  29.795  1.00  0.00     0.049 A 
ATOM     29  C   UNL A   1      39.508  32.039  31.397  1.00  0.00     0.074 A 
ATOM     30  C   UNL A   1      45.592  30.017  30.603  1.00  0.00     0.029 A 
ATOM     31  N   UNL A   1      44.273  31.777  30.636  1.00  0.00    -0.354 N 
ATOM     32  N   UNL A   1      40.284  31.766  32.404  1.00  0.00    -0.248 NA
ATOM     33  C   UNL A   1      40.101  32.849  30.346  1.00  0.00     0.031 C 
ATOM     34  C   UNL A   1      44.840  30.034  31.814  1.00  0.00     0.029 A 
ATOM     35  C   UNL A   1      43.863  31.025  31.702  1.00  0.00     0.049 A 
ATOM     36  H   UNL A   1      44.097  32.736  30.498  1.00  0.00     0.167 HD
ATOM     37  C   UNL A   1      41.566  31.958  31.912  1.00  0.00     0.074 A 
ATOM     38  C   UNL A   1      41.389  32.716  30.673  1.00  0.00     0.031 C 
ATOM     39  C   UNL A   1      42.619  31.241  32.403  1.00  0.00     0.031 A 
BRANCH  26  40
ATOM     40  C   UNL A   1      44.880  32.340  27.637  1.00  0.00    -0.014 A 
ATOM     41  C   UNL A   1      46.036  32.485  26.848  1.00  0.00     0.009 A 
ATOM     42  C   UNL A   1      44.153  33.512  27.915  1.00  0.00     0.009 A 
ATOM     43  C   UNL A   1      46.488  33.746  26.440  1.00  0.00     0.001 A 
ATOM     44  C   UNL A   1      44.579  34.768  27.474  1.00  0.00     0.001 A 
ATOM     45  C   UNL A   1      45.764  34.888  26.764  1.00  0.00     0.000 A 
ENDBRANCH  26  40
BRANCH  27  46
ATOM     46  C   UNL A   1      36.974  31.900  30.932  1.00  0.00    -0.014 A 
ATOM     47  C   UNL A   1      35.960  31.683  31.882  1.00  0.00     0.009 A 
ATOM     48  C   UNL A   1      36.802  32.966  30.030  1.00  0.00     0.009 A 
ATOM     49  C   UNL A   1      34.839  32.523  31.951  1.00  0.00     0.001 A 
ATOM     50  C   UNL A   1      35.683  33.805  30.098  1.00  0.00     0.001 A 
ATOM     51  C   UNL A   1      34.709  33.594  31.069  1.00  0.00     0.000 A 
ENDBRANCH  27  46
BRANCH  39  52
ATOM     52  C   UNL A   1      42.395  30.412  33.643  1.00  0.00    -0.014 A 
ATOM     53  C   UNL A   1      42.631  30.886  34.946  1.00  0.00     0.009 A 
ATOM     54  C   UNL A   1      41.780  29.161  33.491  1.00  0.00     0.009 A 
ATOM     55  C   UNL A   1      42.287  30.113  36.061  1.00  0.00     0.001 A 
ATOM     56  C   UNL A   1      41.416  28.401  34.602  1.00  0.00     0.001 A 
ATOM     57  C   UNL A   1      41.675  28.873  35.887  1.00  0.00     0.000 A 
ENDBRANCH  39  52
ENDBRANCH  13  14
ENDBRANCH   6   8
ENDBRANCH   3   4
ENDBRANCH   2   3
ENDBRANCH   1   2
BRANCH   1  58
ATOM     58  C   UNL A   1      35.090  22.448  23.919  1.00  0.00     0.002 C 
BRANCH  58  59
ATOM     59  C   UNL A   1      34.412  21.438  24.851  1.00  0.00     0.021 C 
BRANCH  59  60
ATOM     60  C   UNL A   1      33.716  22.063  26.057  1.00  0.00     0.116 C 
BRANCH  60  61
ATOM     61  N   UNL A   1      32.335  21.627  26.140  1.00  0.00    -0.351 N 
ATOM     62  C   UNL A   1      31.213  22.329  25.785  1.00  0.00     0.271 C 
ATOM     63  H   UNL A   1      32.187  20.720  26.492  1.00  0.00     0.163 HD
ATOM     64  O   UNL A   1      30.106  21.912  26.144  1.00  0.00    -0.267 OA
BRANCH  62  65
ATOM     65  C   UNL A   1      31.374  23.509  24.935  1.00  0.00     0.150 A 
ATOM     66  C   UNL A   1      31.276  23.542  23.519  1.00  0.00     0.056 A 
ATOM     67  N   UNL A   1      31.632  24.733  25.432  1.00  0.00    -0.161 NA
ATOM     68  C   UNL A   1      31.322  24.872  23.192  1.00  0.00     0.118 A 
ATOM     69  N   UNL A   1      31.472  25.564  24.373  1.00  0.00    -0.222 N 
BRANCH  69  70
ATOM     70  C   UNL A   1      31.439  26.976  24.513  1.00  0.00     0.158 A 
ATOM     71  C   UNL A   1      30.603  27.710  23.700  1.00  0.00     0.078 A 
ATOM     72  N   UNL A   1      32.233  27.526  25.457  1.00  0.00    -0.209 NA
ATOM     73  C   UNL A   1      30.577  29.069  23.942  1.00  0.00     0.077 A 
ATOM     74  C   UNL A   1      32.210  28.864  25.541  1.00  0.00     0.165 A 
ATOM     75  N   UNL A   1      31.406  29.665  24.824  1.00  0.00    -0.228 NA
BRANCH  73  76
ATOM     76  C   UNL A   1      29.594  29.952  23.307  1.00  0.00     0.003 A 
ATOM     77  C   UNL A   1      28.940  29.566  22.129  1.00  0.00     0.030 A 
ATOM     78  C   UNL A   1      29.246  31.180  23.877  1.00  0.00     0.030 A 
ATOM     79  C   UNL A   1      27.994  30.414  21.577  1.00  0.00     0.111 A 
ATOM     80  C   UNL A   1      28.295  31.964  23.244  1.00  0.00     0.111 A 
ATOM     81  N   UNL A   1      27.665  31.611  22.104  1.00  0.00    -0.265 NA
ENDBRANCH  73  76
BRANCH  74  82
ATOM     82  C   UNL A   1      33.206  29.485  26.400  1.00  0.00     0.055 A 
ATOM     83  C   UNL A   1      34.432  28.844  26.664  1.00  0.00     0.015 A 
ATOM     84  C   UNL A   1      32.975  30.727  26.995  1.00  0.00     0.134 A 
ATOM     85  C   UNL A   1      35.391  29.438  27.489  1.00  0.00     0.001 A 
ATOM     86  C   UNL A   1      33.925  31.322  27.826  1.00  0.00     0.040 A 
ATOM     87  F   UNL A   1      31.812  31.365  26.803  1.00  0.00    -0.206 F 
ATOM     88  C   UNL A   1      35.137  30.678  28.071  1.00  0.00     0.003 A 
ENDBRANCH  74  82
ENDBRANCH  69  70
ENDBRANCH  62  65
ENDBRANCH  60  61
ENDBRANCH  59  60
ENDBRANCH  58  59
ENDBRANCH   1  58
TORSDOF 16
ENDMDL
MODEL 2
REMARK VINA RESULT:     -12.7      3.204      8.725
REMARK SMILES O=C(NCCCCCCNC(=O)c1ccn(-c2cc(-c3ccncc3)nc(-c3ccccc3F)n2)n1)c1ccc(-c2c3nc(c(-c4ccccc4)c4ccc([nH]4)c(-c4ccccc4)c4nc(c(-c5ccccc5)c5ccc2[nH]5)C=C4)C=C3)cc1
REMARK SMILES IDX 6 1 5 2 4 3 3 4 1 5 2 6 37 8 38 9 84 10 39 11 83 12 40 13
REMARK SMILES IDX 41 14 42 15 77 16 43 17 82 18 76 19 78 20 44 21 81 22 75 23
REMARK SMILES IDX 74 24 45 26 67 27 52 28 66 29 53 30 56 31 65 32 79 33 54 34
REMARK SMILES IDX 55 35 64 37 80 38 57 39 46 40 47 41 51 42 48 43 50 44 49 45
REMARK SMILES IDX 68 46 69 47 73 48 70 49 72 50 71 51 58 52 59 53 63 54 60 55
REMARK SMILES IDX 62 56 61 57 7 58 8 59 9 60 10 61 11 62 12 64 13 65 14 66
REMARK SMILES IDX 36 67 15 68 16 69 17 70 18 71 35 72 19 73 27 74 26 75 20 76
REMARK SMILES IDX 21 77 25 78 22 79 24 80 23 81 28 82 29 83 33 84 30 85 32 86
REMARK SMILES IDX 34 87 31 88
REMARK H PARENT 3 7 78 25 56 36 10 63
REMARK Flexibility Score: inf
ROOT
ATOM      1  C   UNL A   1      33.081  27.440  25.420  1.00  0.00     0.002 C 
ENDROOT
BRANCH   1   2
ATOM      2  C   UNL A   1      33.917  28.424  26.248  1.00  0.00     0.021 C 
BRANCH   2   3
ATOM      3  C   UNL A   1      33.270  28.853  27.564  1.00  0.00     0.116 C 
BRANCH   3   4
ATOM      4  N   UNL A   1      33.518  30.231  27.929  1.00  0.00    -0.352 N 
ATOM      5  O   UNL A   1      34.480  32.181  28.332  1.00  0.00    -0.269 OA
ATOM      6  C   UNL A   1      34.642  30.968  28.172  1.00  0.00     0.251 C 
ATOM      7  H   UNL A   1      32.691  30.755  28.023  1.00  0.00     0.163 HD
BRANCH   6   8
ATOM      8  C   UNL A   1      36.005  30.404  28.343  1.00  0.00     0.039 A 
ATOM      9  C   UNL A   1      37.004  30.347  27.368  1.00  0.00     0.014 A 
ATOM     10  C   UNL A   1      36.277  29.877  29.619  1.00  0.00     0.014 A 
ATOM     11  C   UNL A   1      38.203  29.685  27.629  1.00  0.00     0.010 A 
ATOM     12  C   UNL A   1      37.473  29.228  29.889  1.00  0.00     0.010 A 
ATOM     13  C   UNL A   1      38.420  29.098  28.880  1.00  0.00    -0.014 A 
BRANCH  13  14
ATOM     14  C   UNL A   1      39.727  28.520  29.175  1.00  0.00     0.031 A 
ATOM     15  C   UNL A   1      40.035  28.435  30.632  1.00  0.00     0.074 A 
ATOM     16  C   UNL A   1      40.514  27.943  28.243  1.00  0.00     0.049 A 
ATOM     17  N   UNL A   1      41.007  28.999  31.272  1.00  0.00    -0.248 NA
ATOM     18  C   UNL A   1      39.078  27.729  31.504  1.00  0.00     0.031 C 
ATOM     19  C   UNL A   1      40.207  27.698  26.832  1.00  0.00     0.029 A 
ATOM     20  N   UNL A   1      41.730  27.340  28.394  1.00  0.00    -0.354 N 
ATOM     21  C   UNL A   1      40.893  28.581  32.597  1.00  0.00     0.074 A 
ATOM     22  C   UNL A   1      39.616  27.924  32.709  1.00  0.00     0.031 C 
ATOM     23  C   UNL A   1      41.083  26.795  26.333  1.00  0.00     0.029 A 
ATOM     24  C   UNL A   1      42.089  26.505  27.341  1.00  0.00     0.049 A 
ATOM     25  H   UNL A   1      42.302  27.483  29.182  1.00  0.00     0.167 HD
ATOM     26  C   UNL A   1      41.955  28.602  33.449  1.00  0.00     0.031 A 
ATOM     27  C   UNL A   1      43.103  25.601  27.321  1.00  0.00     0.031 A 
ATOM     28  C   UNL A   1      43.024  29.423  32.948  1.00  0.00     0.049 A 
ATOM     29  C   UNL A   1      44.041  25.955  28.411  1.00  0.00     0.074 A 
ATOM     30  C   UNL A   1      43.172  30.760  32.640  1.00  0.00     0.029 A 
ATOM     31  N   UNL A   1      44.067  28.774  32.336  1.00  0.00    -0.354 N 
ATOM     32  N   UNL A   1      44.775  27.028  28.400  1.00  0.00    -0.248 NA
ATOM     33  C   UNL A   1      43.826  25.351  29.716  1.00  0.00     0.031 C 
ATOM     34  C   UNL A   1      43.993  30.774  31.476  1.00  0.00     0.029 A 
ATOM     35  C   UNL A   1      44.358  29.458  31.187  1.00  0.00     0.049 A 
ATOM     36  H   UNL A   1      44.523  27.965  32.663  1.00  0.00     0.167 HD
ATOM     37  C   UNL A   1      44.722  27.494  29.705  1.00  0.00     0.074 A 
ATOM     38  C   UNL A   1      44.206  26.372  30.489  1.00  0.00     0.031 C 
ATOM     39  C   UNL A   1      44.829  28.827  29.978  1.00  0.00     0.031 A 
BRANCH  26  40
ATOM     40  C   UNL A   1      42.201  27.552  34.506  1.00  0.00    -0.014 A 
ATOM     41  C   UNL A   1      42.703  26.300  34.105  1.00  0.00     0.009 A 
ATOM     42  C   UNL A   1      41.675  27.636  35.808  1.00  0.00     0.009 A 
ATOM     43  C   UNL A   1      42.596  25.174  34.929  1.00  0.00     0.001 A 
ATOM     44  C   UNL A   1      41.605  26.522  36.649  1.00  0.00     0.001 A 
ATOM     45  C   UNL A   1      42.036  25.284  36.198  1.00  0.00     0.000 A 
ENDBRANCH  26  40
BRANCH  27  46
ATOM     46  C   UNL A   1      43.185  24.289  26.636  1.00  0.00    -0.014 A 
ATOM     47  C   UNL A   1      43.378  24.207  25.245  1.00  0.00     0.009 A 
ATOM     48  C   UNL A   1      43.371  23.115  27.388  1.00  0.00     0.009 A 
ATOM     49  C   UNL A   1      43.777  23.007  24.638  1.00  0.00     0.001 A 
ATOM     50  C   UNL A   1      43.769  21.916  26.781  1.00  0.00     0.001 A 
ATOM     51  C   UNL A   1      43.988  21.867  25.409  1.00  0.00     0.000 A 
ENDBRANCH  27  46
BRANCH  39  52
ATOM     52  C   UNL A   1      45.237  29.749  28.856  1.00  0.00    -0.014 A 
ATOM     53  C   UNL A   1      46.577  30.016  28.519  1.00  0.00     0.009 A 
ATOM     54  C   UNL A   1      44.229  30.244  28.016  1.00  0.00     0.009 A 
ATOM     55  C   UNL A   1      46.891  30.781  27.390  1.00  0.00     0.001 A 
ATOM     56  C   UNL A   1      44.544  30.988  26.879  1.00  0.00     0.001 A 
ATOM     57  C   UNL A   1      45.874  31.262  26.569  1.00  0.00     0.000 A 
ENDBRANCH  39  52
ENDBRANCH  13  14
ENDBRANCH   6   8
ENDBRANCH   3   4
ENDBRANCH   2   3
ENDBRANCH   1   2
BRANCH   1  58
ATOM     58  C   UNL A   1      31.823  28.027  24.770  1.00  0.00     0.002 C 
BRANCH  58  59
ATOM     59  C   UNL A   1      31.982  28.456  23.307  1.00  0.00     0.021 C 
BRANCH  59  60
ATOM     60  C   UNL A   1      33.260  27.956  22.639  1.00  0.00     0.116 C 
BRANCH  60  61
ATOM     61  N   UNL A   1      32.966  27.340  21.360  1.00  0.00    -0.351 N 
ATOM     62  C   UNL A   1      32.915  26.001  21.067  1.00  0.00     0.271 C 
ATOM     63  H   UNL A   1      32.783  27.955  20.614  1.00  0.00     0.163 HD
ATOM     64  O   UNL A   1      32.893  25.646  19.883  1.00  0.00    -0.267 OA
BRANCH  62  65
ATOM     65  C   UNL A   1      32.816  25.053  22.177  1.00  0.00     0.150 A 
ATOM     66  C   UNL A   1      31.621  24.624  22.810  1.00  0.00     0.056 A 
ATOM     67  N   UNL A   1      33.894  24.461  22.724  1.00  0.00    -0.161 NA
ATOM     68  C   UNL A   1      32.010  23.618  23.657  1.00  0.00     0.118 A 
ATOM     69  N   UNL A   1      33.376  23.503  23.532  1.00  0.00    -0.222 N 
BRANCH  69  70
ATOM     70  C   UNL A   1      34.179  22.501  24.135  1.00  0.00     0.158 A 
ATOM     71  C   UNL A   1      33.659  21.235  24.299  1.00  0.00     0.078 A 
ATOM     72  N   UNL A   1      35.431  22.846  24.507  1.00  0.00    -0.209 NA
ATOM     73  C   UNL A   1      34.523  20.299  24.830  1.00  0.00     0.077 A 
ATOM     74  C   UNL A   1      36.153  21.890  25.108  1.00  0.00     0.165 A 
ATOM     75  N   UNL A   1      35.753  20.620  25.282  1.00  0.00    -0.228 NA
BRANCH  73  76
ATOM     76  C   UNL A   1      34.189  18.872  24.875  1.00  0.00     0.003 A 
ATOM     77  C   UNL A   1      32.876  18.450  25.126  1.00  0.00     0.030 A 
ATOM     78  C   UNL A   1      35.155  17.893  24.626  1.00  0.00     0.030 A 
ATOM     79  C   UNL A   1      32.595  17.094  25.128  1.00  0.00     0.111 A 
ATOM     80  C   UNL A   1      34.778  16.560  24.660  1.00  0.00     0.111 A 
ATOM     81  N   UNL A   1      33.520  16.139  24.911  1.00  0.00    -0.265 NA
ENDBRANCH  73  76
BRANCH  74  82
ATOM     82  C   UNL A   1      37.416  22.297  25.703  1.00  0.00     0.055 A 
ATOM     83  C   UNL A   1      37.570  23.582  26.261  1.00  0.00     0.015 A 
ATOM     84  C   UNL A   1      38.514  21.436  25.731  1.00  0.00     0.134 A 
ATOM     85  C   UNL A   1      38.782  23.977  26.833  1.00  0.00     0.001 A 
ATOM     86  C   UNL A   1      39.730  21.826  26.294  1.00  0.00     0.040 A 
ATOM     87  F   UNL A   1      38.431  20.213  25.185  1.00  0.00    -0.206 F 
ATOM     88  C   UNL A   1      39.864  23.098  26.848  1.00  0.00     0.003 A 
ENDBRANCH  74  82
ENDBRANCH  69  70
ENDBRANCH  62  65
ENDBRANCH  60  61
ENDBRANCH  59  60
ENDBRANCH  58  59
ENDBRANCH   1  58
TORSDOF 16
ENDMDL
MODEL 3
REMARK VINA RESULT:     -12.7      3.165      8.829
REMARK SMILES O=C(NCCCCCCNC(=O)c1ccn(-c2cc(-c3ccncc3)nc(-c3ccccc3F)n2)n1)c1ccc(-c2c3nc(c(-c4ccccc4)c4ccc([nH]4)c(-c4ccccc4)c4nc(c(-c5ccccc5)c5ccc2[nH]5)C=C4)C=C3)cc1
REMARK SMILES IDX 6 1 5 2 4 3 3 4 1 5 2 6 37 8 38 9 84 10 39 11 83 12 40 13
REMARK SMILES IDX 41 14 42 15 77 16 43 17 82 18 76 19 78 20 44 21 81 22 75 23
REMARK SMILES IDX 74 24 45 26 67 27 52 28 66 29 53 30 56 31 65 32 79 33 54 34
REMARK SMILES IDX 55 35 64 37 80 38 57 39 46 40 47 41 51 42 48 43 50 44 49 45
REMARK SMILES IDX 68 46 69 47 73 48 70 49 72 50 71 51 58 52 59 53 63 54 60 55
REMARK SMILES IDX 62 56 61 57 7 58 8 59 9 60 10 61 11 62 12 64 13 65 14 66
REMARK SMILES IDX 36 67 15 68 16 69 17 70 18 71 35 72 19 73 27 74 26 75 20 76
REMARK SMILES IDX 21 77 25 78 22 79 24 80 23 81 28 82 29 83 33 84 30 85 32 86
REMARK SMILES IDX 34 87 31 88
REMARK H PARENT 3 7 78 25 56 36 10 63
REMARK Flexibility Score: inf
ROOT
ATOM      1  C   UNL A   1      31.639  30.794  26.080  1.00  0.00     0.002 C 
ENDROOT
BRANCH   1   2
ATOM      2  C   UNL A   1      32.294  30.047  27.248  1.00  0.00     0.021 C 
BRANCH   2   3
ATOM      3  C   UNL A   1      33.822  30.050  27.225  1.00  0.00     0.116 C 
BRANCH   3   4
ATOM      4  N   UNL A   1      34.420  31.299  27.643  1.00  0.00    -0.352 N 
ATOM      5  O   UNL A   1      35.859  32.892  28.177  1.00  0.00    -0.269 OA
ATOM      6  C   UNL A   1      35.681  31.684  28.003  1.00  0.00     0.251 C 
ATOM      7  H   UNL A   1      33.773  32.040  27.676  1.00  0.00     0.163 HD
BRANCH   6   8
ATOM      8  C   UNL A   1      36.804  30.752  28.281  1.00  0.00     0.039 A 
ATOM      9  C   UNL A   1      36.818  29.378  28.029  1.00  0.00     0.014 A 
ATOM     10  C   UNL A   1      37.939  31.342  28.865  1.00  0.00     0.014 A 
ATOM     11  C   UNL A   1      37.897  28.599  28.445  1.00  0.00     0.010 A 
ATOM     12  C   UNL A   1      39.021  30.575  29.272  1.00  0.00     0.010 A 
ATOM     13  C   UNL A   1      38.980  29.196  29.097  1.00  0.00    -0.014 A 
BRANCH  13  14
ATOM     14  C   UNL A   1      40.153  28.386  29.413  1.00  0.00     0.031 A 
ATOM     15  C   UNL A   1      40.460  28.311  30.871  1.00  0.00     0.074 A 
ATOM     16  C   UNL A   1      40.797  27.623  28.506  1.00  0.00     0.049 A 
ATOM     17  N   UNL A   1      41.534  28.702  31.477  1.00  0.00    -0.248 NA
ATOM     18  C   UNL A   1      39.397  27.849  31.781  1.00  0.00     0.031 C 
ATOM     19  C   UNL A   1      40.426  27.376  27.111  1.00  0.00     0.029 A 
ATOM     20  N   UNL A   1      41.872  26.799  28.680  1.00  0.00    -0.354 N 
ATOM     21  C   UNL A   1      41.360  28.377  32.822  1.00  0.00     0.074 A 
ATOM     22  C   UNL A   1      39.981  27.991  32.972  1.00  0.00     0.031 C 
ATOM     23  C   UNL A   1      41.100  26.296  26.651  1.00  0.00     0.029 A 
ATOM     24  C   UNL A   1      42.045  25.861  27.666  1.00  0.00     0.049 A 
ATOM     25  H   UNL A   1      42.474  26.864  29.456  1.00  0.00     0.167 HD
ATOM     26  C   UNL A   1      42.418  28.229  33.665  1.00  0.00     0.031 A 
ATOM     27  C   UNL A   1      42.861  24.775  27.686  1.00  0.00     0.031 A 
ATOM     28  C   UNL A   1      43.620  28.798  33.118  1.00  0.00     0.049 A 
ATOM     29  C   UNL A   1      43.866  24.988  28.751  1.00  0.00     0.074 A 
ATOM     30  C   UNL A   1      44.023  30.063  32.744  1.00  0.00     0.029 A 
ATOM     31  N   UNL A   1      44.506  27.928  32.533  1.00  0.00    -0.354 N 
ATOM     32  N   UNL A   1      44.796  25.894  28.684  1.00  0.00    -0.248 NA
ATOM     33  C   UNL A   1      43.557  24.500  30.085  1.00  0.00     0.031 C 
ATOM     34  C   UNL A   1      44.814  29.861  31.576  1.00  0.00     0.029 A 
ATOM     35  C   UNL A   1      44.908  28.486  31.351  1.00  0.00     0.049 A 
ATOM     36  H   UNL A   1      44.799  27.061  32.897  1.00  0.00     0.167 HD
ATOM     37  C   UNL A   1      44.856  26.421  29.965  1.00  0.00     0.074 A 
ATOM     38  C   UNL A   1      44.141  25.462  30.806  1.00  0.00     0.031 C 
ATOM     39  C   UNL A   1      45.228  27.719  30.171  1.00  0.00     0.031 A 
BRANCH  26  40
ATOM     40  C   UNL A   1      42.470  27.202  34.770  1.00  0.00    -0.014 A 
ATOM     41  C   UNL A   1      42.723  25.860  34.430  1.00  0.00     0.009 A 
ATOM     42  C   UNL A   1      41.977  27.443  36.066  1.00  0.00     0.009 A 
ATOM     43  C   UNL A   1      42.412  24.814  35.307  1.00  0.00     0.001 A 
ATOM     44  C   UNL A   1      41.703  26.404  36.959  1.00  0.00     0.001 A 
ATOM     45  C   UNL A   1      41.891  25.087  36.567  1.00  0.00     0.000 A 
ENDBRANCH  26  40
BRANCH  27  46
ATOM     46  C   UNL A   1      42.672  23.441  27.065  1.00  0.00    -0.014 A 
ATOM     47  C   UNL A   1      43.169  23.163  25.780  1.00  0.00     0.009 A 
ATOM     48  C   UNL A   1      42.263  22.352  27.855  1.00  0.00     0.009 A 
ATOM     49  C   UNL A   1      43.287  21.843  25.318  1.00  0.00     0.001 A 
ATOM     50  C   UNL A   1      42.380  21.034  27.394  1.00  0.00     0.001 A 
ATOM     51  C   UNL A   1      42.907  20.779  26.133  1.00  0.00     0.000 A 
ENDBRANCH  27  46
BRANCH  39  52
ATOM     52  C   UNL A   1      45.792  28.488  29.002  1.00  0.00    -0.014 A 
ATOM     53  C   UNL A   1      45.008  28.966  27.937  1.00  0.00     0.009 A 
ATOM     54  C   UNL A   1      47.139  28.873  29.062  1.00  0.00     0.009 A 
ATOM     55  C   UNL A   1      45.568  29.780  26.945  1.00  0.00     0.001 A 
ATOM     56  C   UNL A   1      47.692  29.702  28.086  1.00  0.00     0.001 A 
ATOM     57  C   UNL A   1      46.909  30.151  27.025  1.00  0.00     0.000 A 
ENDBRANCH  39  52
ENDBRANCH  13  14
ENDBRANCH   6   8
ENDBRANCH   3   4
ENDBRANCH   2   3
ENDBRANCH   1   2
BRANCH   1  58
ATOM     58  C   UNL A   1      31.202  29.919  24.899  1.00  0.00     0.002 C 
BRANCH  58  59
ATOM     59  C   UNL A   1      32.328  29.137  24.212  1.00  0.00     0.021 C 
BRANCH  59  60
ATOM     60  C   UNL A   1      32.301  27.634  24.473  1.00  0.00     0.116 C 
BRANCH  60  61
ATOM     61  N   UNL A   1      30.972  27.202  24.864  1.00  0.00    -0.351 N 
ATOM     62  C   UNL A   1      30.320  26.056  24.489  1.00  0.00     0.271 C 
ATOM     63  H   UNL A   1      30.481  27.804  25.469  1.00  0.00     0.163 HD
ATOM     64  O   UNL A   1      29.108  25.956  24.710  1.00  0.00    -0.267 OA
BRANCH  62  65
ATOM     65  C   UNL A   1      31.108  24.971  23.904  1.00  0.00     0.150 A 
ATOM     66  C   UNL A   1      31.444  24.823  22.533  1.00  0.00     0.056 A 
ATOM     67  N   UNL A   1      31.621  23.968  24.641  1.00  0.00    -0.161 NA
ATOM     68  C   UNL A   1      32.325  23.774  22.496  1.00  0.00     0.118 A 
ATOM     69  N   UNL A   1      32.459  23.324  23.790  1.00  0.00    -0.222 N 
BRANCH  69  70
ATOM     70  C   UNL A   1      33.371  22.330  24.229  1.00  0.00     0.158 A 
ATOM     71  C   UNL A   1      32.937  21.026  24.343  1.00  0.00     0.078 A 
ATOM     72  N   UNL A   1      34.634  22.721  24.503  1.00  0.00    -0.209 NA
ATOM     73  C   UNL A   1      33.898  20.107  24.710  1.00  0.00     0.077 A 
ATOM     74  C   UNL A   1      35.463  21.768  24.952  1.00  0.00     0.165 A 
ATOM     75  N   UNL A   1      35.150  20.466  25.062  1.00  0.00    -0.228 NA
BRANCH  73  76
ATOM     76  C   UNL A   1      33.646  18.663  24.673  1.00  0.00     0.003 A 
ATOM     77  C   UNL A   1      34.379  17.829  23.817  1.00  0.00     0.030 A 
ATOM     78  C   UNL A   1      32.704  18.069  25.517  1.00  0.00     0.030 A 
ATOM     79  C   UNL A   1      34.134  16.466  23.835  1.00  0.00     0.111 A 
ATOM     80  C   UNL A   1      32.523  16.696  25.454  1.00  0.00     0.111 A 
ATOM     81  N   UNL A   1      33.213  15.883  24.628  1.00  0.00    -0.265 NA
ENDBRANCH  73  76
BRANCH  74  82
ATOM     82  C   UNL A   1      36.758  22.205  25.451  1.00  0.00     0.055 A 
ATOM     83  C   UNL A   1      36.918  23.486  26.015  1.00  0.00     0.015 A 
ATOM     84  C   UNL A   1      37.879  21.377  25.376  1.00  0.00     0.134 A 
ATOM     85  C   UNL A   1      38.161  23.909  26.495  1.00  0.00     0.001 A 
ATOM     86  C   UNL A   1      39.124  21.796  25.846  1.00  0.00     0.040 A 
ATOM     87  F   UNL A   1      37.788  20.161  24.818  1.00  0.00    -0.206 F 
ATOM     88  C   UNL A   1      39.265  23.063  26.409  1.00  0.00     0.003 A 
ENDBRANCH  74  82
ENDBRANCH  69  70
ENDBRANCH  62  65
ENDBRANCH  60  61
ENDBRANCH  59  60
ENDBRANCH  58  59
ENDBRANCH   1  58
TORSDOF 16
ENDMDL
