MODEL 1
REMARK VINA RESULT:     -11.8      0.000      0.000
REMARK SMILES Cc1cc2cc(-c3ccc([C@@H](C)C(=O)NCCCCCCNC(=O)c4ccc(-c5c6nc(c(-c7ccccc7)c7ccc([nH]7)c(-c7ccccc7)c7nc(c(-c8ccccc8)c8ccc5[nH]8)C=C7)C=C6)cc4)cc3)ccc2[nH]1
REMARK SMILES IDX 18 1 17 2 16 3 15 4 13 5 14 6 11 8 12 9 10 10 7 11 8 12
REMARK SMILES IDX 74 13 9 14 73 15 6 16 1 17 2 18 3 19 78 20 4 21 77 22 5 24
REMARK SMILES IDX 76 25 75 26 19 27 20 28 21 29 22 30 23 31 24 33 25 34 26 35
REMARK SMILES IDX 72 36 27 37 71 38 28 39 29 40 30 41 65 42 31 43 70 44 64 45
REMARK SMILES IDX 66 46 32 47 69 48 63 49 62 50 33 52 55 53 40 54 54 55 41 56
REMARK SMILES IDX 44 57 53 58 67 59 42 60 43 61 52 63 68 64 45 65 34 66 35 67
REMARK SMILES IDX 39 68 36 69 38 70 37 71 56 72 57 73 61 74 58 75 60 76 59 77
REMARK SMILES IDX 46 78 47 79 51 80 48 81 50 82 49 83
REMARK H PARENT 15 7 78 23 22 32 66 51 44 62
REMARK Flexibility Score: inf
ROOT
ATOM      1  C   UNL A   1      36.114  21.538  24.912  1.00  0.00     0.002 C 
ENDROOT
BRANCH   1   2
ATOM      2  C   UNL A   1      35.436  22.577  24.013  1.00  0.00     0.021 C 
BRANCH   2   3
ATOM      3  C   UNL A   1      34.640  23.637  24.777  1.00  0.00     0.116 C 
BRANCH   3   4
ATOM      4  N   UNL A   1      34.371  23.230  26.141  1.00  0.00    -0.356 N 
ATOM      5  C   UNL A   1      33.276  22.668  26.720  1.00  0.00     0.227 C 
ATOM      6  O   UNL A   1      33.324  22.509  27.946  1.00  0.00    -0.274 OA
ATOM      7  H   UNL A   1      35.119  23.388  26.762  1.00  0.00     0.163 HD
BRANCH   5   8
ATOM      8  C   UNL A   1      32.030  22.220  25.941  1.00  0.00     0.105 C 
ATOM      9  C   UNL A   1      32.282  21.048  24.989  1.00  0.00     0.023 C 
BRANCH   8  10
ATOM     10  C   UNL A   1      31.220  23.374  25.373  1.00  0.00    -0.036 A 
ATOM     11  C   UNL A   1      29.779  25.630  24.371  1.00  0.00    -0.018 A 
ATOM     12  C   UNL A   1      30.353  24.675  23.514  1.00  0.00     0.009 A 
ATOM     13  C   UNL A   1      29.932  25.420  25.748  1.00  0.00     0.009 A 
ATOM     14  C   UNL A   1      31.026  23.555  24.003  1.00  0.00     0.005 A 
ATOM     15  C   UNL A   1      30.656  24.323  26.240  1.00  0.00     0.005 A 
BRANCH  11  16
ATOM     16  C   UNL A   1      29.049  26.789  23.811  1.00  0.00    -0.018 A 
ATOM     17  C   UNL A   1      28.331  32.288  21.192  1.00  0.00     0.064 C 
ATOM     18  C   UNL A   1      28.440  30.947  21.814  1.00  0.00     0.013 A 
ATOM     19  C   UNL A   1      29.537  30.135  22.004  1.00  0.00     0.031 A 
ATOM     20  N   UNL A   1      27.348  30.286  22.326  1.00  0.00    -0.359 N 
ATOM     21  C   UNL A   1      29.099  28.957  22.662  1.00  0.00     0.000 A 
ATOM     22  C   UNL A   1      27.728  29.075  22.861  1.00  0.00     0.046 A 
ATOM     23  H   UNL A   1      26.425  30.629  22.312  1.00  0.00     0.166 HD
ATOM     24  C   UNL A   1      29.752  27.800  23.120  1.00  0.00     0.019 A 
ATOM     25  C   UNL A   1      26.977  28.083  23.500  1.00  0.00     0.027 A 
ATOM     26  C   UNL A   1      27.663  26.952  23.976  1.00  0.00     0.011 A 
ENDBRANCH  11  16
ENDBRANCH   8  10
ENDBRANCH   5   8
ENDBRANCH   3   4
ENDBRANCH   2   3
ENDBRANCH   1   2
BRANCH   1  27
ATOM     27  C   UNL A   1      37.647  21.598  24.940  1.00  0.00     0.002 C 
BRANCH  27  28
ATOM     28  C   UNL A   1      38.364  20.244  24.908  1.00  0.00     0.021 C 
BRANCH  28  29
ATOM     29  C   UNL A   1      39.137  19.897  26.179  1.00  0.00     0.116 C 
BRANCH  29  30
ATOM     30  N   UNL A   1      40.380  19.203  25.887  1.00  0.00    -0.352 N 
ATOM     31  C   UNL A   1      41.668  19.681  25.856  1.00  0.00     0.251 C 
ATOM     32  H   UNL A   1      40.285  18.246  25.679  1.00  0.00     0.163 HD
ATOM     33  O   UNL A   1      42.566  18.997  25.375  1.00  0.00    -0.269 OA
BRANCH  31  34
ATOM     34  C   UNL A   1      41.978  21.023  26.393  1.00  0.00     0.039 A 
ATOM     35  C   UNL A   1      41.972  21.214  27.777  1.00  0.00     0.014 A 
ATOM     36  C   UNL A   1      42.232  22.099  25.537  1.00  0.00     0.014 A 
ATOM     37  C   UNL A   1      42.271  22.473  28.306  1.00  0.00     0.010 A 
ATOM     38  C   UNL A   1      42.591  23.337  26.066  1.00  0.00     0.010 A 
ATOM     39  C   UNL A   1      42.607  23.537  27.455  1.00  0.00    -0.014 A 
BRANCH  39  40
ATOM     40  C   UNL A   1      42.969  24.871  27.996  1.00  0.00     0.031 A 
ATOM     41  C   UNL A   1      41.905  25.908  28.225  1.00  0.00     0.074 A 
ATOM     42  C   UNL A   1      44.262  25.168  28.229  1.00  0.00     0.049 A 
ATOM     43  N   UNL A   1      42.032  27.148  28.628  1.00  0.00    -0.248 NA
ATOM     44  C   UNL A   1      40.517  25.508  27.942  1.00  0.00     0.031 C 
ATOM     45  C   UNL A   1      45.392  24.261  28.023  1.00  0.00     0.029 A 
ATOM     46  N   UNL A   1      44.843  26.325  28.686  1.00  0.00    -0.354 N 
ATOM     47  C   UNL A   1      40.749  27.677  28.632  1.00  0.00     0.074 A 
ATOM     48  C   UNL A   1      39.862  26.641  28.149  1.00  0.00     0.031 C 
ATOM     49  C   UNL A   1      46.527  24.888  28.374  1.00  0.00     0.029 A 
ATOM     50  C   UNL A   1      46.210  26.249  28.793  1.00  0.00     0.049 A 
ATOM     51  H   UNL A   1      44.328  27.132  28.915  1.00  0.00     0.167 HD
ATOM     52  C   UNL A   1      40.339  28.908  29.021  1.00  0.00     0.031 A 
ATOM     53  C   UNL A   1      47.107  27.173  29.181  1.00  0.00     0.031 A 
ATOM     54  C   UNL A   1      41.216  29.937  29.511  1.00  0.00     0.049 A 
ATOM     55  C   UNL A   1      46.630  28.539  29.589  1.00  0.00     0.074 A 
ATOM     56  C   UNL A   1      40.891  31.201  29.971  1.00  0.00     0.029 A 
ATOM     57  N   UNL A   1      42.593  29.818  29.608  1.00  0.00    -0.354 N 
ATOM     58  N   UNL A   1      45.407  29.006  29.636  1.00  0.00    -0.248 NA
ATOM     59  C   UNL A   1      47.659  29.500  30.007  1.00  0.00     0.031 C 
ATOM     60  C   UNL A   1      42.077  31.863  30.306  1.00  0.00     0.029 A 
ATOM     61  C   UNL A   1      43.135  30.992  30.103  1.00  0.00     0.049 A 
ATOM     62  H   UNL A   1      43.110  29.017  29.361  1.00  0.00     0.167 HD
ATOM     63  C   UNL A   1      45.516  30.304  30.116  1.00  0.00     0.074 A 
ATOM     64  C   UNL A   1      46.923  30.547  30.357  1.00  0.00     0.031 C 
ATOM     65  C   UNL A   1      44.537  31.215  30.338  1.00  0.00     0.031 A 
BRANCH  52  66
ATOM     66  C   UNL A   1      38.869  29.208  28.925  1.00  0.00    -0.014 A 
ATOM     67  C   UNL A   1      38.023  29.051  30.036  1.00  0.00     0.009 A 
ATOM     68  C   UNL A   1      38.327  29.682  27.720  1.00  0.00     0.009 A 
ATOM     69  C   UNL A   1      36.658  29.327  29.930  1.00  0.00     0.001 A 
ATOM     70  C   UNL A   1      36.968  29.983  27.625  1.00  0.00     0.001 A 
ATOM     71  C   UNL A   1      36.133  29.796  28.726  1.00  0.00     0.000 A 
ENDBRANCH  52  66
BRANCH  53  72
ATOM     72  C   UNL A   1      48.554  26.837  29.221  1.00  0.00    -0.014 A 
ATOM     73  C   UNL A   1      49.364  27.058  28.098  1.00  0.00     0.009 A 
ATOM     74  C   UNL A   1      49.130  26.285  30.377  1.00  0.00     0.009 A 
ATOM     75  C   UNL A   1      50.716  26.709  28.120  1.00  0.00     0.001 A 
ATOM     76  C   UNL A   1      50.488  25.962  30.405  1.00  0.00     0.001 A 
ATOM     77  C   UNL A   1      51.278  26.165  29.274  1.00  0.00     0.000 A 
ENDBRANCH  53  72
BRANCH  65  78
ATOM     78  C   UNL A   1      44.953  32.542  30.905  1.00  0.00    -0.014 A 
ATOM     79  C   UNL A   1      45.265  33.625  30.071  1.00  0.00     0.009 A 
ATOM     80  C   UNL A   1      44.997  32.718  32.297  1.00  0.00     0.009 A 
ATOM     81  C   UNL A   1      45.644  34.852  30.620  1.00  0.00     0.001 A 
ATOM     82  C   UNL A   1      45.350  33.953  32.843  1.00  0.00     0.001 A 
ATOM     83  C   UNL A   1      45.681  35.016  32.004  1.00  0.00     0.000 A 
ENDBRANCH  65  78
ENDBRANCH  39  40
ENDBRANCH  31  34
ENDBRANCH  29  30
ENDBRANCH  28  29
ENDBRANCH  27  28
ENDBRANCH   1  27
TORSDOF 15
ENDMDL
MODEL 2
REMARK VINA RESULT:     -11.7      2.436      2.768
REMARK SMILES Cc1cc2cc(-c3ccc([C@@H](C)C(=O)NCCCCCCNC(=O)c4ccc(-c5c6nc(c(-c7ccccc7)c7ccc([nH]7)c(-c7ccccc7)c7nc(c(-c8ccccc8)c8ccc5[nH]8)C=C7)C=C6)cc4)cc3)ccc2[nH]1
REMARK SMILES IDX 18 1 17 2 16 3 15 4 13 5 14 6 11 8 12 9 10 10 7 11 8 12
REMARK SMILES IDX 74 13 9 14 73 15 6 16 1 17 2 18 3 19 78 20 4 21 77 22 5 24
REMARK SMILES IDX 76 25 75 26 19 27 20 28 21 29 22 30 23 31 24 33 25 34 26 35
REMARK SMILES IDX 72 36 27 37 71 38 28 39 29 40 30 41 65 42 31 43 70 44 64 45
REMARK SMILES IDX 66 46 32 47 69 48 63 49 62 50 33 52 55 53 40 54 54 55 41 56
REMARK SMILES IDX 44 57 53 58 67 59 42 60 43 61 52 63 68 64 45 65 34 66 35 67
REMARK SMILES IDX 39 68 36 69 38 70 37 71 56 72 57 73 61 74 58 75 60 76 59 77
REMARK SMILES IDX 46 78 47 79 51 80 48 81 50 82 49 83
REMARK H PARENT 15 7 78 23 22 32 66 51 44 62
REMARK Flexibility Score: inf
ROOT
ATOM      1  C   UNL A   1      36.325  21.839  24.680  1.00  0.00     0.002 C 
ENDROOT
BRANCH   1   2
ATOM      2  C   UNL A   1      35.503  20.809  25.463  1.00  0.00     0.021 C 
BRANCH   2   3
ATOM      3  C   UNL A   1      35.212  19.524  24.684  1.00  0.00     0.116 C 
BRANCH   3   4
ATOM      4  N   UNL A   1      34.094  18.795  25.246  1.00  0.00    -0.356 N 
ATOM      5  C   UNL A   1      32.759  18.842  24.986  1.00  0.00     0.227 C 
ATOM      6  O   UNL A   1      32.036  18.139  25.703  1.00  0.00    -0.274 OA
ATOM      7  H   UNL A   1      34.346  18.146  25.943  1.00  0.00     0.163 HD
BRANCH   5   8
ATOM      8  C   UNL A   1      32.135  19.685  23.864  1.00  0.00     0.105 C 
ATOM      9  C   UNL A   1      32.359  19.117  22.462  1.00  0.00     0.023 C 
BRANCH   8  10
ATOM     10  C   UNL A   1      32.374  21.178  24.022  1.00  0.00    -0.036 A 
ATOM     11  C   UNL A   1      32.911  23.958  24.417  1.00  0.00    -0.018 A 
ATOM     12  C   UNL A   1      33.076  23.340  23.166  1.00  0.00     0.009 A 
ATOM     13  C   UNL A   1      32.455  23.150  25.468  1.00  0.00     0.009 A 
ATOM     14  C   UNL A   1      32.780  21.991  22.963  1.00  0.00     0.005 A 
ATOM     15  C   UNL A   1      32.208  21.781  25.279  1.00  0.00     0.005 A 
BRANCH  11  16
ATOM     16  C   UNL A   1      33.210  25.398  24.581  1.00  0.00    -0.018 A 
ATOM     17  C   UNL A   1      33.377  30.853  27.379  1.00  0.00     0.064 C 
ATOM     18  C   UNL A   1      33.379  29.558  26.657  1.00  0.00     0.013 A 
ATOM     19  C   UNL A   1      33.069  28.288  27.095  1.00  0.00     0.031 A 
ATOM     20  N   UNL A   1      33.727  29.459  25.330  1.00  0.00    -0.359 N 
ATOM     21  C   UNL A   1      33.219  27.400  25.999  1.00  0.00     0.000 A 
ATOM     22  C   UNL A   1      33.624  28.154  24.903  1.00  0.00     0.046 A 
ATOM     23  H   UNL A   1      34.009  30.215  24.765  1.00  0.00     0.166 HD
ATOM     24  C   UNL A   1      33.035  26.016  25.838  1.00  0.00     0.019 A 
ATOM     25  C   UNL A   1      33.853  27.583  23.647  1.00  0.00     0.027 A 
ATOM     26  C   UNL A   1      33.629  26.203  23.508  1.00  0.00     0.011 A 
ENDBRANCH  11  16
ENDBRANCH   8  10
ENDBRANCH   5   8
ENDBRANCH   3   4
ENDBRANCH   2   3
ENDBRANCH   1   2
BRANCH   1  27
ATOM     27  C   UNL A   1      37.822  21.872  25.016  1.00  0.00     0.002 C 
BRANCH  27  28
ATOM     28  C   UNL A   1      38.549  20.526  24.937  1.00  0.00     0.021 C 
BRANCH  28  29
ATOM     29  C   UNL A   1      39.244  20.096  26.227  1.00  0.00     0.116 C 
BRANCH  29  30
ATOM     30  N   UNL A   1      40.433  19.301  25.965  1.00  0.00    -0.352 N 
ATOM     31  C   UNL A   1      41.755  19.673  25.953  1.00  0.00     0.251 C 
ATOM     32  H   UNL A   1      40.264  18.352  25.765  1.00  0.00     0.163 HD
ATOM     33  O   UNL A   1      42.603  18.913  25.496  1.00  0.00    -0.269 OA
BRANCH  31  34
ATOM     34  C   UNL A   1      42.163  20.992  26.483  1.00  0.00     0.039 A 
ATOM     35  C   UNL A   1      42.460  22.018  25.582  1.00  0.00     0.014 A 
ATOM     36  C   UNL A   1      42.297  21.204  27.858  1.00  0.00     0.014 A 
ATOM     37  C   UNL A   1      42.840  23.274  26.062  1.00  0.00     0.010 A 
ATOM     38  C   UNL A   1      42.615  22.473  28.337  1.00  0.00     0.010 A 
ATOM     39  C   UNL A   1      42.896  23.519  27.443  1.00  0.00    -0.014 A 
BRANCH  39  40
ATOM     40  C   UNL A   1      43.257  24.856  27.974  1.00  0.00     0.031 A 
ATOM     41  C   UNL A   1      42.187  25.877  28.244  1.00  0.00     0.074 A 
ATOM     42  C   UNL A   1      44.553  25.173  28.161  1.00  0.00     0.049 A 
ATOM     43  N   UNL A   1      42.310  27.118  28.646  1.00  0.00    -0.248 NA
ATOM     44  C   UNL A   1      40.796  25.457  28.010  1.00  0.00     0.031 C 
ATOM     45  C   UNL A   1      45.688  24.283  27.912  1.00  0.00     0.029 A 
ATOM     46  N   UNL A   1      45.133  26.337  28.600  1.00  0.00    -0.354 N 
ATOM     47  C   UNL A   1      41.020  27.627  28.698  1.00  0.00     0.074 A 
ATOM     48  C   UNL A   1      40.131  26.579  28.243  1.00  0.00     0.031 C 
ATOM     49  C   UNL A   1      46.826  24.926  28.224  1.00  0.00     0.029 A 
ATOM     50  C   UNL A   1      46.504  26.281  28.658  1.00  0.00     0.049 A 
ATOM     51  H   UNL A   1      44.614  27.136  28.849  1.00  0.00     0.167 HD
ATOM     52  C   UNL A   1      40.606  28.852  29.104  1.00  0.00     0.031 A 
ATOM     53  C   UNL A   1      47.401  27.218  29.016  1.00  0.00     0.031 A 
ATOM     54  C   UNL A   1      41.484  29.892  29.565  1.00  0.00     0.049 A 
ATOM     55  C   UNL A   1      46.918  28.575  29.445  1.00  0.00     0.074 A 
ATOM     56  C   UNL A   1      41.157  31.151  30.040  1.00  0.00     0.029 A 
ATOM     57  N   UNL A   1      42.866  29.794  29.612  1.00  0.00    -0.354 N 
ATOM     58  N   UNL A   1      45.691  29.024  29.537  1.00  0.00    -0.248 NA
ATOM     59  C   UNL A   1      47.948  29.551  29.828  1.00  0.00     0.031 C 
ATOM     60  C   UNL A   1      42.345  31.829  30.334  1.00  0.00     0.029 A 
ATOM     61  C   UNL A   1      43.408  30.975  30.090  1.00  0.00     0.049 A 
ATOM     62  H   UNL A   1      43.385  29.001  29.345  1.00  0.00     0.167 HD
ATOM     63  C   UNL A   1      45.797  30.322  30.016  1.00  0.00     0.074 A 
ATOM     64  C   UNL A   1      47.209  30.585  30.207  1.00  0.00     0.031 C 
ATOM     65  C   UNL A   1      44.814  31.218  30.276  1.00  0.00     0.031 A 
BRANCH  52  66
ATOM     66  C   UNL A   1      39.129  29.130  29.062  1.00  0.00    -0.014 A 
ATOM     67  C   UNL A   1      38.333  28.997  30.212  1.00  0.00     0.009 A 
ATOM     68  C   UNL A   1      38.530  29.559  27.868  1.00  0.00     0.009 A 
ATOM     69  C   UNL A   1      36.961  29.252  30.156  1.00  0.00     0.001 A 
ATOM     70  C   UNL A   1      37.164  29.840  27.821  1.00  0.00     0.001 A 
ATOM     71  C   UNL A   1      36.379  29.677  28.962  1.00  0.00     0.000 A 
ENDBRANCH  52  66
BRANCH  53  72
ATOM     72  C   UNL A   1      48.853  26.903  29.003  1.00  0.00    -0.014 A 
ATOM     73  C   UNL A   1      49.621  27.151  27.856  1.00  0.00     0.009 A 
ATOM     74  C   UNL A   1      49.475  26.346  30.131  1.00  0.00     0.009 A 
ATOM     75  C   UNL A   1      50.978  26.822  27.829  1.00  0.00     0.001 A 
ATOM     76  C   UNL A   1      50.838  26.043  30.109  1.00  0.00     0.001 A 
ATOM     77  C   UNL A   1      51.586  26.272  28.955  1.00  0.00     0.000 A 
ENDBRANCH  53  72
BRANCH  65  78
ATOM     78  C   UNL A   1      45.230  32.550  30.831  1.00  0.00    -0.014 A 
ATOM     79  C   UNL A   1      45.499  33.639  29.989  1.00  0.00     0.009 A 
ATOM     80  C   UNL A   1      45.319  32.725  32.221  1.00  0.00     0.009 A 
ATOM     81  C   UNL A   1      45.878  34.870  30.527  1.00  0.00     0.001 A 
ATOM     82  C   UNL A   1      45.673  33.964  32.757  1.00  0.00     0.001 A 
ATOM     83  C   UNL A   1      45.960  35.032  31.910  1.00  0.00     0.000 A 
ENDBRANCH  65  78
ENDBRANCH  39  40
ENDBRANCH  31  34
ENDBRANCH  29  30
ENDBRANCH  28  29
ENDBRANCH  27  28
ENDBRANCH   1  27
TORSDOF 15
ENDMDL
MODEL 3
REMARK VINA RESULT:     -11.7      3.362      8.847
REMARK SMILES Cc1cc2cc(-c3ccc([C@@H](C)C(=O)NCCCCCCNC(=O)c4ccc(-c5c6nc(c(-c7ccccc7)c7ccc([nH]7)c(-c7ccccc7)c7nc(c(-c8ccccc8)c8ccc5[nH]8)C=C7)C=C6)cc4)cc3)ccc2[nH]1
REMARK SMILES IDX 18 1 17 2 16 3 15 4 13 5 14 6 11 8 12 9 10 10 7 11 8 12
REMARK SMILES IDX 74 13 9 14 73 15 6 16 1 17 2 18 3 19 78 20 4 21 77 22 5 24
REMARK SMILES IDX 76 25 75 26 19 27 20 28 21 29 22 30 23 31 24 33 25 34 26 35
REMARK SMILES IDX 72 36 27 37 71 38 28 39 29 40 30 41 65 42 31 43 70 44 64 45
REMARK SMILES IDX 66 46 32 47 69 48 63 49 62 50 33 52 55 53 40 54 54 55 41 56
REMARK SMILES IDX 44 57 53 58 67 59 42 60 43 61 52 63 68 64 45 65 34 66 35 67
REMARK SMILES IDX 39 68 36 69 38 70 37 71 56 72 57 73 61 74 58 75 60 76 59 77
REMARK SMILES IDX 46 78 47 79 51 80 48 81 50 82 49 83
REMARK H PARENT 15 7 78 23 22 32 66 51 44 62
REMARK Flexibility Score: inf
ROOT
ATOM      1  C   UNL A   1      35.092  32.251  28.281  1.00  0.00     0.002 C 
ENDROOT
BRANCH   1   2
ATOM      2  C   UNL A   1      33.856  31.602  27.649  1.00  0.00     0.021 C 
BRANCH   2   3
ATOM      3  C   UNL A   1      34.057  30.139  27.246  1.00  0.00     0.116 C 
BRANCH   3   4
ATOM      4  N   UNL A   1      33.008  29.288  27.767  1.00  0.00    -0.356 N 
ATOM      5  C   UNL A   1      32.171  28.406  27.156  1.00  0.00     0.227 C 
ATOM      6  O   UNL A   1      31.310  27.880  27.873  1.00  0.00    -0.274 OA
ATOM      7  H   UNL A   1      32.877  29.360  28.740  1.00  0.00     0.163 HD
BRANCH   5   8
ATOM      8  C   UNL A   1      32.257  28.032  25.669  1.00  0.00     0.105 C 
ATOM      9  C   UNL A   1      31.057  28.496  24.841  1.00  0.00     0.023 C 
BRANCH   8  10
ATOM     10  C   UNL A   1      32.718  26.604  25.427  1.00  0.00    -0.036 A 
ATOM     11  C   UNL A   1      33.625  23.913  25.099  1.00  0.00    -0.018 A 
ATOM     12  C   UNL A   1      32.298  24.287  24.830  1.00  0.00     0.009 A 
ATOM     13  C   UNL A   1      34.496  24.926  25.526  1.00  0.00     0.009 A 
ATOM     14  C   UNL A   1      31.863  25.607  24.955  1.00  0.00     0.005 A 
ATOM     15  C   UNL A   1      34.046  26.244  25.704  1.00  0.00     0.005 A 
BRANCH  11  16
ATOM     16  C   UNL A   1      34.052  22.507  24.927  1.00  0.00    -0.018 A 
ATOM     17  C   UNL A   1      33.404  16.453  24.192  1.00  0.00     0.064 C 
ATOM     18  C   UNL A   1      33.625  17.909  24.355  1.00  0.00     0.013 A 
ATOM     19  C   UNL A   1      32.737  18.962  24.295  1.00  0.00     0.031 A 
ATOM     20  N   UNL A   1      34.869  18.438  24.609  1.00  0.00    -0.359 N 
ATOM     21  C   UNL A   1      33.461  20.158  24.534  1.00  0.00     0.000 A 
ATOM     22  C   UNL A   1      34.792  19.807  24.735  1.00  0.00     0.046 A 
ATOM     23  H   UNL A   1      35.697  17.912  24.690  1.00  0.00     0.166 HD
ATOM     24  C   UNL A   1      33.100  21.514  24.609  1.00  0.00     0.019 A 
ATOM     25  C   UNL A   1      35.782  20.756  25.010  1.00  0.00     0.027 A 
ATOM     26  C   UNL A   1      35.384  22.101  25.111  1.00  0.00     0.011 A 
ENDBRANCH  11  16
ENDBRANCH   8  10
ENDBRANCH   5   8
ENDBRANCH   3   4
ENDBRANCH   2   3
ENDBRANCH   1   2
BRANCH   1  27
ATOM     27  C   UNL A   1      34.854  33.626  28.919  1.00  0.00     0.002 C 
BRANCH  27  28
ATOM     28  C   UNL A   1      34.389  33.608  30.379  1.00  0.00     0.021 C 
BRANCH  28  29
ATOM     29  C   UNL A   1      34.693  32.315  31.133  1.00  0.00     0.116 C 
BRANCH  29  30
ATOM     30  N   UNL A   1      35.202  32.573  32.470  1.00  0.00    -0.352 N 
ATOM     31  C   UNL A   1      36.404  32.225  33.036  1.00  0.00     0.251 C 
ATOM     32  H   UNL A   1      34.592  33.072  33.060  1.00  0.00     0.163 HD
ATOM     33  O   UNL A   1      36.570  32.337  34.246  1.00  0.00    -0.269 OA
BRANCH  31  34
ATOM     34  C   UNL A   1      37.502  31.705  32.193  1.00  0.00     0.039 A 
ATOM     35  C   UNL A   1      37.655  32.207  30.898  1.00  0.00     0.014 A 
ATOM     36  C   UNL A   1      38.351  30.696  32.659  1.00  0.00     0.014 A 
ATOM     37  C   UNL A   1      38.691  31.735  30.087  1.00  0.00     0.010 A 
ATOM     38  C   UNL A   1      39.421  30.272  31.874  1.00  0.00     0.010 A 
ATOM     39  C   UNL A   1      39.597  30.783  30.578  1.00  0.00    -0.014 A 
BRANCH  39  40
ATOM     40  C   UNL A   1      40.729  30.299  29.750  1.00  0.00     0.031 A 
ATOM     41  C   UNL A   1      40.672  28.940  29.110  1.00  0.00     0.074 A 
ATOM     42  C   UNL A   1      41.834  31.058  29.620  1.00  0.00     0.049 A 
ATOM     43  N   UNL A   1      41.585  28.317  28.408  1.00  0.00    -0.248 NA
ATOM     44  C   UNL A   1      39.433  28.168  29.303  1.00  0.00     0.031 C 
ATOM     45  C   UNL A   1      42.028  32.383  30.213  1.00  0.00     0.029 A 
ATOM     46  N   UNL A   1      43.008  30.820  28.950  1.00  0.00    -0.354 N 
ATOM     47  C   UNL A   1      41.039  27.081  28.090  1.00  0.00     0.074 A 
ATOM     48  C   UNL A   1      39.734  27.021  28.713  1.00  0.00     0.031 C 
ATOM     49  C   UNL A   1      43.237  32.849  29.860  1.00  0.00     0.029 A 
ATOM     50  C   UNL A   1      43.917  31.844  29.051  1.00  0.00     0.049 A 
ATOM     51  H   UNL A   1      43.180  29.992  28.445  1.00  0.00     0.167 HD
ATOM     52  C   UNL A   1      41.566  26.089  27.332  1.00  0.00     0.031 A 
ATOM     53  C   UNL A   1      45.161  31.958  28.550  1.00  0.00     0.031 A 
ATOM     54  C   UNL A   1      42.858  26.149  26.704  1.00  0.00     0.049 A 
ATOM     55  C   UNL A   1      45.731  30.836  27.729  1.00  0.00     0.074 A 
ATOM     56  C   UNL A   1      43.462  25.214  25.880  1.00  0.00     0.029 A 
ATOM     57  N   UNL A   1      43.746  27.205  26.827  1.00  0.00    -0.354 N 
ATOM     58  N   UNL A   1      45.181  29.695  27.395  1.00  0.00    -0.248 NA
ATOM     59  C   UNL A   1      47.092  31.025  27.208  1.00  0.00     0.031 C 
ATOM     60  C   UNL A   1      44.733  25.688  25.540  1.00  0.00     0.029 A 
ATOM     61  C   UNL A   1      44.900  26.939  26.110  1.00  0.00     0.049 A 
ATOM     62  H   UNL A   1      43.581  28.025  27.348  1.00  0.00     0.167 HD
ATOM     63  C   UNL A   1      46.115  29.042  26.601  1.00  0.00     0.074 A 
ATOM     64  C   UNL A   1      47.262  29.921  26.493  1.00  0.00     0.031 C 
ATOM     65  C   UNL A   1      46.031  27.825  26.012  1.00  0.00     0.031 A 
BRANCH  52  66
ATOM     66  C   UNL A   1      40.738  24.848  27.146  1.00  0.00    -0.014 A 
ATOM     67  C   UNL A   1      39.578  24.863  26.355  1.00  0.00     0.009 A 
ATOM     68  C   UNL A   1      41.137  23.643  27.744  1.00  0.00     0.009 A 
ATOM     69  C   UNL A   1      38.815  23.704  26.197  1.00  0.00     0.001 A 
ATOM     70  C   UNL A   1      40.387  22.480  27.563  1.00  0.00     0.001 A 
ATOM     71  C   UNL A   1      39.222  22.513  26.798  1.00  0.00     0.000 A 
ENDBRANCH  52  66
BRANCH  53  72
ATOM     72  C   UNL A   1      45.953  33.191  28.796  1.00  0.00    -0.014 A 
ATOM     73  C   UNL A   1      46.709  33.325  29.970  1.00  0.00     0.009 A 
ATOM     74  C   UNL A   1      45.949  34.242  27.865  1.00  0.00     0.009 A 
ATOM     75  C   UNL A   1      47.425  34.498  30.220  1.00  0.00     0.001 A 
ATOM     76  C   UNL A   1      46.688  35.402  28.106  1.00  0.00     0.001 A 
ATOM     77  C   UNL A   1      47.417  35.533  29.288  1.00  0.00     0.000 A 
ENDBRANCH  53  72
BRANCH  65  78
ATOM     78  C   UNL A   1      47.194  27.389  25.169  1.00  0.00    -0.014 A 
ATOM     79  C   UNL A   1      48.236  26.619  25.706  1.00  0.00     0.009 A 
ATOM     80  C   UNL A   1      47.228  27.727  23.807  1.00  0.00     0.009 A 
ATOM     81  C   UNL A   1      49.305  26.221  24.902  1.00  0.00     0.001 A 
ATOM     82  C   UNL A   1      48.285  27.304  22.999  1.00  0.00     0.001 A 
ATOM     83  C   UNL A   1      49.326  26.560  23.549  1.00  0.00     0.000 A 
ENDBRANCH  65  78
ENDBRANCH  39  40
ENDBRANCH  31  34
ENDBRANCH  29  30
ENDBRANCH  28  29
ENDBRANCH  27  28
ENDBRANCH   1  27
TORSDOF 15
ENDMDL
