MODEL 1
REMARK VINA RESULT:     -12.1      0.000      0.000
REMARK SMILES Cc1c(NCc2ccc(-c3ccc(Cl)cc3)o2)cccc1C(=O)NCCCCCCNC(=O)c1ccc(-c2c3nc(c(-c4ccccc4)c4ccc([nH]4)c(-c4ccccc4)c4nc(c(-c5ccccc5)c5ccc2[nH]5)C=C4)C=C3)cc1
REMARK SMILES IDX 26 1 25 2 24 3 22 4 23 5 21 7 1 8 2 9 3 10 18 11 20 12 19 13
REMARK SMILES IDX 4 14 5 16 6 17 7 18 17 19 8 20 9 21 10 22 11 23 16 24 12 25
REMARK SMILES IDX 15 26 13 27 14 28 27 29 28 30 29 31 30 32 31 33 32 34 33 36
REMARK SMILES IDX 34 37 35 38 81 39 36 40 80 41 37 42 38 43 39 44 74 45 40 46
REMARK SMILES IDX 79 47 73 48 75 49 41 50 78 51 72 52 71 53 42 55 64 56 49 57
REMARK SMILES IDX 63 58 50 59 53 60 62 61 76 62 51 63 52 64 61 66 77 67 54 68
REMARK SMILES IDX 43 69 44 70 48 71 45 72 47 73 46 74 65 75 66 76 70 77 67 78
REMARK SMILES IDX 69 79 68 80 55 81 56 82 60 83 57 84 59 85 58 86
REMARK H PARENT 24 6 4 15 31 35 75 54 53 65
REMARK Flexibility Score: inf
ROOT
ATOM      1  C   UNL A   1      32.120  26.921  26.490  1.00  0.00     0.021 C 
ENDROOT
BRANCH   1   2
ATOM      2  C   UNL A   1      30.763  26.224  26.287  1.00  0.00     0.116 C 
BRANCH   2   3
ATOM      3  N   UNL A   1      30.803  24.896  26.868  1.00  0.00    -0.352 N 
ATOM      4  C   UNL A   1      31.356  23.700  26.487  1.00  0.00     0.251 C 
ATOM      5  O   UNL A   1      31.124  22.739  27.226  1.00  0.00    -0.269 OA
ATOM      6  H   UNL A   1      30.328  24.842  27.728  1.00  0.00     0.163 HD
BRANCH   4   7
ATOM      7  C   UNL A   1      32.283  23.493  25.329  1.00  0.00     0.044 A 
ATOM      8  C   UNL A   1      30.590  23.761  23.440  1.00  0.00     0.047 C 
ATOM      9  C   UNL A   1      31.995  23.592  23.948  1.00  0.00    -0.015 A 
ATOM     10  C   UNL A   1      33.033  23.415  22.986  1.00  0.00     0.038 A 
ATOM     11  C   UNL A   1      34.275  22.935  23.422  1.00  0.00     0.026 A 
ATOM     12  C   UNL A   1      33.556  23.031  25.713  1.00  0.00     0.014 A 
ATOM     13  C   UNL A   1      34.531  22.722  24.771  1.00  0.00     0.003 A 
BRANCH  10  14
ATOM     14  N   UNL A   1      32.790  23.669  21.647  1.00  0.00    -0.378 N 
ATOM     15  H   UNL A   1      32.461  22.915  21.105  1.00  0.00     0.161 HD
BRANCH  14  16
ATOM     16  C   UNL A   1      32.973  24.940  20.959  1.00  0.00     0.188 C 
BRANCH  16  17
ATOM     17  C   UNL A   1      32.949  26.116  21.878  1.00  0.00     0.123 A 
ATOM     18  C   UNL A   1      33.865  26.640  22.767  1.00  0.00     0.048 A 
ATOM     19  O   UNL A   1      31.812  26.873  21.886  1.00  0.00    -0.459 OA
ATOM     20  C   UNL A   1      33.284  27.809  23.305  1.00  0.00     0.051 A 
ATOM     21  C   UNL A   1      32.023  27.902  22.757  1.00  0.00     0.134 A 
BRANCH  21  22
ATOM     22  C   UNL A   1      30.927  28.838  22.931  1.00  0.00     0.017 A 
ATOM     23  C   UNL A   1      30.915  29.719  24.021  1.00  0.00     0.013 A 
ATOM     24  C   UNL A   1      29.845  28.837  22.042  1.00  0.00     0.013 A 
ATOM     25  C   UNL A   1      29.834  30.582  24.222  1.00  0.00     0.021 A 
ATOM     26  C   UNL A   1      28.756  29.689  22.250  1.00  0.00     0.021 A 
ATOM     27  C   UNL A   1      28.756  30.557  23.340  1.00  0.00     0.041 A 
ATOM     28  Cl  UNL A   1      27.413  31.599  23.603  1.00  0.00    -0.084 Cl
ENDBRANCH  21  22
ENDBRANCH  16  17
ENDBRANCH  14  16
ENDBRANCH  10  14
ENDBRANCH   4   7
ENDBRANCH   2   3
ENDBRANCH   1   2
BRANCH   1  29
ATOM     29  C   UNL A   1      32.055  28.329  27.096  1.00  0.00     0.002 C 
BRANCH  29  30
ATOM     30  C   UNL A   1      33.398  29.044  27.307  1.00  0.00     0.002 C 
BRANCH  30  31
ATOM     31  C   UNL A   1      33.456  30.508  26.865  1.00  0.00     0.021 C 
BRANCH  31  32
ATOM     32  C   UNL A   1      34.370  31.385  27.714  1.00  0.00     0.116 C 
BRANCH  32  33
ATOM     33  N   UNL A   1      33.705  32.554  28.276  1.00  0.00    -0.352 N 
ATOM     34  C   UNL A   1      34.112  33.397  29.290  1.00  0.00     0.251 C 
ATOM     35  H   UNL A   1      32.834  32.774  27.874  1.00  0.00     0.163 HD
ATOM     36  O   UNL A   1      33.383  34.320  29.649  1.00  0.00    -0.269 OA
BRANCH  34  37
ATOM     37  C   UNL A   1      35.473  33.271  29.860  1.00  0.00     0.039 A 
ATOM     38  C   UNL A   1      36.523  33.922  29.200  1.00  0.00     0.014 A 
ATOM     39  C   UNL A   1      35.746  32.402  30.913  1.00  0.00     0.014 A 
ATOM     40  C   UNL A   1      37.836  33.520  29.434  1.00  0.00     0.010 A 
ATOM     41  C   UNL A   1      37.038  31.942  31.090  1.00  0.00     0.010 A 
ATOM     42  C   UNL A   1      38.071  32.453  30.301  1.00  0.00    -0.014 A 
BRANCH  42  43
ATOM     43  C   UNL A   1      39.337  31.732  30.346  1.00  0.00     0.031 A 
ATOM     44  C   UNL A   1      39.504  30.446  29.648  1.00  0.00     0.074 A 
ATOM     45  C   UNL A   1      40.378  32.264  31.020  1.00  0.00     0.049 A 
ATOM     46  N   UNL A   1      40.377  29.556  29.981  1.00  0.00    -0.248 NA
ATOM     47  C   UNL A   1      38.650  30.038  28.540  1.00  0.00     0.031 C 
ATOM     48  C   UNL A   1      41.774  31.835  31.001  1.00  0.00     0.029 A 
ATOM     49  N   UNL A   1      40.311  33.175  32.073  1.00  0.00    -0.354 N 
ATOM     50  C   UNL A   1      40.389  28.602  28.994  1.00  0.00     0.074 A 
ATOM     51  C   UNL A   1      39.250  28.908  28.157  1.00  0.00     0.031 C 
ATOM     52  C   UNL A   1      42.371  32.264  32.124  1.00  0.00     0.029 A 
ATOM     53  C   UNL A   1      41.343  32.847  32.970  1.00  0.00     0.049 A 
ATOM     54  H   UNL A   1      39.661  33.909  32.170  1.00  0.00     0.167 HD
ATOM     55  C   UNL A   1      41.429  27.726  28.918  1.00  0.00     0.031 A 
ATOM     56  C   UNL A   1      41.050  32.446  34.241  1.00  0.00     0.031 A 
ATOM     57  C   UNL A   1      42.381  27.887  30.014  1.00  0.00     0.049 A 
ATOM     58  C   UNL A   1      41.492  31.035  34.577  1.00  0.00     0.074 A 
ATOM     59  C   UNL A   1      43.636  28.462  30.133  1.00  0.00     0.029 A 
ATOM     60  N   UNL A   1      41.947  27.648  31.308  1.00  0.00    -0.354 N 
ATOM     61  N   UNL A   1      42.021  30.200  33.726  1.00  0.00    -0.248 NA
ATOM     62  C   UNL A   1      41.261  30.419  35.887  1.00  0.00     0.031 C 
ATOM     63  C   UNL A   1      43.951  28.561  31.519  1.00  0.00     0.029 A 
ATOM     64  C   UNL A   1      42.892  28.037  32.235  1.00  0.00     0.049 A 
ATOM     65  H   UNL A   1      41.076  27.251  31.536  1.00  0.00     0.167 HD
ATOM     66  C   UNL A   1      42.149  28.972  34.317  1.00  0.00     0.074 A 
ATOM     67  C   UNL A   1      41.666  29.157  35.671  1.00  0.00     0.031 C 
ATOM     68  C   UNL A   1      42.594  27.873  33.646  1.00  0.00     0.031 A 
BRANCH  55  69
ATOM     69  C   UNL A   1      41.694  26.868  27.707  1.00  0.00    -0.014 A 
ATOM     70  C   UNL A   1      41.592  25.469  27.810  1.00  0.00     0.009 A 
ATOM     71  C   UNL A   1      42.083  27.370  26.454  1.00  0.00     0.009 A 
ATOM     72  C   UNL A   1      41.955  24.619  26.757  1.00  0.00     0.001 A 
ATOM     73  C   UNL A   1      42.490  26.526  25.411  1.00  0.00     0.001 A 
ATOM     74  C   UNL A   1      42.438  25.149  25.568  1.00  0.00     0.000 A 
ENDBRANCH  55  69
BRANCH  56  75
ATOM     75  C   UNL A   1      39.825  33.092  34.796  1.00  0.00    -0.014 A 
ATOM     76  C   UNL A   1      38.567  32.544  34.468  1.00  0.00     0.009 A 
ATOM     77  C   UNL A   1      39.906  33.982  35.876  1.00  0.00     0.009 A 
ATOM     78  C   UNL A   1      37.450  32.786  35.272  1.00  0.00     0.001 A 
ATOM     79  C   UNL A   1      38.778  34.238  36.665  1.00  0.00     0.001 A 
ATOM     80  C   UNL A   1      37.564  33.613  36.385  1.00  0.00     0.000 A 
ENDBRANCH  56  75
BRANCH  68  81
ATOM     81  C   UNL A   1      42.753  26.524  34.281  1.00  0.00    -0.014 A 
ATOM     82  C   UNL A   1      43.856  25.699  34.022  1.00  0.00     0.009 A 
ATOM     83  C   UNL A   1      41.717  25.988  35.071  1.00  0.00     0.009 A 
ATOM     84  C   UNL A   1      43.943  24.415  34.575  1.00  0.00     0.001 A 
ATOM     85  C   UNL A   1      41.791  24.700  35.607  1.00  0.00     0.001 A 
ATOM     86  C   UNL A   1      42.911  23.916  35.366  1.00  0.00     0.000 A 
ENDBRANCH  68  81
ENDBRANCH  42  43
ENDBRANCH  34  37
ENDBRANCH  32  33
ENDBRANCH  31  32
ENDBRANCH  30  31
ENDBRANCH  29  30
ENDBRANCH   1  29
TORSDOF 17
ENDMDL
MODEL 2
REMARK VINA RESULT:     -11.9      2.877      5.098
REMARK SMILES Cc1c(NCc2ccc(-c3ccc(Cl)cc3)o2)cccc1C(=O)NCCCCCCNC(=O)c1ccc(-c2c3nc(c(-c4ccccc4)c4ccc([nH]4)c(-c4ccccc4)c4nc(c(-c5ccccc5)c5ccc2[nH]5)C=C4)C=C3)cc1
REMARK SMILES IDX 26 1 25 2 24 3 22 4 23 5 21 7 1 8 2 9 3 10 18 11 20 12 19 13
REMARK SMILES IDX 4 14 5 16 6 17 7 18 17 19 8 20 9 21 10 22 11 23 16 24 12 25
REMARK SMILES IDX 15 26 13 27 14 28 27 29 28 30 29 31 30 32 31 33 32 34 33 36
REMARK SMILES IDX 34 37 35 38 81 39 36 40 80 41 37 42 38 43 39 44 74 45 40 46
REMARK SMILES IDX 79 47 73 48 75 49 41 50 78 51 72 52 71 53 42 55 64 56 49 57
REMARK SMILES IDX 63 58 50 59 53 60 62 61 76 62 51 63 52 64 61 66 77 67 54 68
REMARK SMILES IDX 43 69 44 70 48 71 45 72 47 73 46 74 65 75 66 76 70 77 67 78
REMARK SMILES IDX 69 79 68 80 55 81 56 82 60 83 57 84 59 85 58 86
REMARK H PARENT 24 6 4 15 31 35 75 54 53 65
REMARK Flexibility Score: inf
ROOT
ATOM      1  C   UNL A   1      31.915  26.471  26.508  1.00  0.00     0.021 C 
ENDROOT
BRANCH   1   2
ATOM      2  C   UNL A   1      30.768  25.914  25.646  1.00  0.00     0.116 C 
BRANCH   2   3
ATOM      3  N   UNL A   1      30.126  24.814  26.336  1.00  0.00    -0.352 N 
ATOM      4  C   UNL A   1      30.517  23.548  26.694  1.00  0.00     0.251 C 
ATOM      5  O   UNL A   1      29.654  22.849  27.232  1.00  0.00    -0.269 OA
ATOM      6  H   UNL A   1      29.204  25.020  26.610  1.00  0.00     0.163 HD
BRANCH   4   7
ATOM      7  C   UNL A   1      31.905  22.996  26.582  1.00  0.00     0.044 A 
ATOM      8  C   UNL A   1      31.962  22.639  24.057  1.00  0.00     0.047 C 
ATOM      9  C   UNL A   1      32.618  22.652  25.410  1.00  0.00    -0.015 A 
ATOM     10  C   UNL A   1      33.964  22.191  25.503  1.00  0.00     0.038 A 
ATOM     11  C   UNL A   1      34.482  21.885  26.768  1.00  0.00     0.026 A 
ATOM     12  C   UNL A   1      32.483  22.691  27.829  1.00  0.00     0.014 A 
ATOM     13  C   UNL A   1      33.743  22.110  27.922  1.00  0.00     0.003 A 
BRANCH  10  14
ATOM     14  N   UNL A   1      34.715  22.007  24.354  1.00  0.00    -0.378 N 
ATOM     15  H   UNL A   1      34.300  21.481  23.632  1.00  0.00     0.161 HD
BRANCH  14  16
ATOM     16  C   UNL A   1      36.059  22.512  24.108  1.00  0.00     0.188 C 
BRANCH  16  17
ATOM     17  C   UNL A   1      37.130  21.620  24.640  1.00  0.00     0.123 A 
ATOM     18  C   UNL A   1      37.358  20.261  24.558  1.00  0.00     0.048 A 
ATOM     19  O   UNL A   1      38.124  22.211  25.367  1.00  0.00    -0.459 OA
ATOM     20  C   UNL A   1      38.580  20.014  25.218  1.00  0.00     0.051 A 
ATOM     21  C   UNL A   1      39.004  21.227  25.716  1.00  0.00     0.134 A 
BRANCH  21  22
ATOM     22  C   UNL A   1      40.148  21.635  26.510  1.00  0.00     0.017 A 
ATOM     23  C   UNL A   1      40.065  22.753  27.351  1.00  0.00     0.013 A 
ATOM     24  C   UNL A   1      41.365  20.949  26.407  1.00  0.00     0.013 A 
ATOM     25  C   UNL A   1      41.182  23.181  28.073  1.00  0.00     0.021 A 
ATOM     26  C   UNL A   1      42.487  21.384  27.117  1.00  0.00     0.021 A 
ATOM     27  C   UNL A   1      42.390  22.499  27.947  1.00  0.00     0.041 A 
ATOM     28  Cl  UNL A   1      43.773  23.043  28.814  1.00  0.00    -0.084 Cl
ENDBRANCH  21  22
ENDBRANCH  16  17
ENDBRANCH  14  16
ENDBRANCH  10  14
ENDBRANCH   4   7
ENDBRANCH   2   3
ENDBRANCH   1   2
BRANCH   1  29
ATOM     29  C   UNL A   1      31.840  27.972  26.818  1.00  0.00     0.002 C 
BRANCH  29  30
ATOM     30  C   UNL A   1      33.166  28.663  27.169  1.00  0.00     0.002 C 
BRANCH  30  31
ATOM     31  C   UNL A   1      33.320  30.105  26.682  1.00  0.00     0.021 C 
BRANCH  31  32
ATOM     32  C   UNL A   1      34.175  30.986  27.587  1.00  0.00     0.116 C 
BRANCH  32  33
ATOM     33  N   UNL A   1      33.573  32.280  27.886  1.00  0.00    -0.352 N 
ATOM     34  C   UNL A   1      34.002  33.275  28.740  1.00  0.00     0.251 C 
ATOM     35  H   UNL A   1      32.735  32.472  27.407  1.00  0.00     0.163 HD
ATOM     36  O   UNL A   1      33.327  34.293  28.883  1.00  0.00    -0.269 OA
BRANCH  34  37
ATOM     37  C   UNL A   1      35.330  33.176  29.389  1.00  0.00     0.039 A 
ATOM     38  C   UNL A   1      36.402  33.851  28.793  1.00  0.00     0.014 A 
ATOM     39  C   UNL A   1      35.558  32.310  30.456  1.00  0.00     0.014 A 
ATOM     40  C   UNL A   1      37.707  33.476  29.104  1.00  0.00     0.010 A 
ATOM     41  C   UNL A   1      36.847  31.877  30.708  1.00  0.00     0.010 A 
ATOM     42  C   UNL A   1      37.914  32.412  29.982  1.00  0.00    -0.014 A 
BRANCH  42  43
ATOM     43  C   UNL A   1      39.190  31.718  30.100  1.00  0.00     0.031 A 
ATOM     44  C   UNL A   1      39.414  30.423  29.437  1.00  0.00     0.074 A 
ATOM     45  C   UNL A   1      40.188  32.284  30.812  1.00  0.00     0.049 A 
ATOM     46  N   UNL A   1      40.288  29.557  29.828  1.00  0.00    -0.248 NA
ATOM     47  C   UNL A   1      38.622  29.976  28.298  1.00  0.00     0.031 C 
ATOM     48  C   UNL A   1      41.591  31.883  30.867  1.00  0.00     0.029 A 
ATOM     49  N   UNL A   1      40.053  33.213  31.842  1.00  0.00    -0.354 N 
ATOM     50  C   UNL A   1      40.365  28.585  28.863  1.00  0.00     0.074 A 
ATOM     51  C   UNL A   1      39.261  28.851  27.967  1.00  0.00     0.031 C 
ATOM     52  C   UNL A   1      42.126  32.345  32.008  1.00  0.00     0.029 A 
ATOM     53  C   UNL A   1      41.048  32.923  32.793  1.00  0.00     0.049 A 
ATOM     54  H   UNL A   1      39.385  33.936  31.894  1.00  0.00     0.167 HD
ATOM     55  C   UNL A   1      41.424  27.728  28.853  1.00  0.00     0.031 A 
ATOM     56  C   UNL A   1      40.703  32.541  34.057  1.00  0.00     0.031 A 
ATOM     57  C   UNL A   1      42.320  27.930  29.989  1.00  0.00     0.049 A 
ATOM     58  C   UNL A   1      41.156  31.145  34.442  1.00  0.00     0.074 A 
ATOM     59  C   UNL A   1      43.557  28.532  30.155  1.00  0.00     0.029 A 
ATOM     60  N   UNL A   1      41.830  27.707  31.265  1.00  0.00    -0.354 N 
ATOM     61  N   UNL A   1      41.740  30.305  33.633  1.00  0.00    -0.248 NA
ATOM     62  C   UNL A   1      40.875  30.551  35.751  1.00  0.00     0.031 C 
ATOM     63  C   UNL A   1      43.804  28.664  31.552  1.00  0.00     0.029 A 
ATOM     64  C   UNL A   1      42.723  28.132  32.228  1.00  0.00     0.049 A 
ATOM     65  H   UNL A   1      40.957  27.297  31.460  1.00  0.00     0.167 HD
ATOM     66  C   UNL A   1      41.864  29.092  34.254  1.00  0.00     0.074 A 
ATOM     67  C   UNL A   1      41.314  29.292  35.580  1.00  0.00     0.031 C 
ATOM     68  C   UNL A   1      42.362  27.989  33.627  1.00  0.00     0.031 A 
BRANCH  55  69
ATOM     69  C   UNL A   1      41.762  26.853  27.673  1.00  0.00    -0.014 A 
ATOM     70  C   UNL A   1      43.078  26.384  27.510  1.00  0.00     0.009 A 
ATOM     71  C   UNL A   1      40.847  26.489  26.672  1.00  0.00     0.009 A 
ATOM     72  C   UNL A   1      43.479  25.681  26.366  1.00  0.00     0.001 A 
ATOM     73  C   UNL A   1      41.249  25.826  25.505  1.00  0.00     0.001 A 
ATOM     74  C   UNL A   1      42.570  25.432  25.347  1.00  0.00     0.000 A 
ENDBRANCH  55  69
BRANCH  56  75
ATOM     75  C   UNL A   1      39.441  33.172  34.541  1.00  0.00    -0.014 A 
ATOM     76  C   UNL A   1      38.211  32.675  34.059  1.00  0.00     0.009 A 
ATOM     77  C   UNL A   1      39.433  33.983  35.684  1.00  0.00     0.009 A 
ATOM     78  C   UNL A   1      37.027  32.884  34.772  1.00  0.00     0.001 A 
ATOM     79  C   UNL A   1      38.240  34.207  36.382  1.00  0.00     0.001 A 
ATOM     80  C   UNL A   1      37.048  33.629  35.947  1.00  0.00     0.000 A 
ENDBRANCH  56  75
BRANCH  68  81
ATOM     81  C   UNL A   1      42.517  26.656  34.295  1.00  0.00    -0.014 A 
ATOM     82  C   UNL A   1      43.628  25.831  34.074  1.00  0.00     0.009 A 
ATOM     83  C   UNL A   1      41.470  26.133  35.080  1.00  0.00     0.009 A 
ATOM     84  C   UNL A   1      43.712  24.561  34.658  1.00  0.00     0.001 A 
ATOM     85  C   UNL A   1      41.541  24.858  35.647  1.00  0.00     0.001 A 
ATOM     86  C   UNL A   1      42.668  24.075  35.443  1.00  0.00     0.000 A 
ENDBRANCH  68  81
ENDBRANCH  42  43
ENDBRANCH  34  37
ENDBRANCH  32  33
ENDBRANCH  31  32
ENDBRANCH  30  31
ENDBRANCH  29  30
ENDBRANCH   1  29
TORSDOF 17
ENDMDL
MODEL 3
REMARK VINA RESULT:     -11.8      1.971      3.128
REMARK SMILES Cc1c(NCc2ccc(-c3ccc(Cl)cc3)o2)cccc1C(=O)NCCCCCCNC(=O)c1ccc(-c2c3nc(c(-c4ccccc4)c4ccc([nH]4)c(-c4ccccc4)c4nc(c(-c5ccccc5)c5ccc2[nH]5)C=C4)C=C3)cc1
REMARK SMILES IDX 26 1 25 2 24 3 22 4 23 5 21 7 1 8 2 9 3 10 18 11 20 12 19 13
REMARK SMILES IDX 4 14 5 16 6 17 7 18 17 19 8 20 9 21 10 22 11 23 16 24 12 25
REMARK SMILES IDX 15 26 13 27 14 28 27 29 28 30 29 31 30 32 31 33 32 34 33 36
REMARK SMILES IDX 34 37 35 38 81 39 36 40 80 41 37 42 38 43 39 44 74 45 40 46
REMARK SMILES IDX 79 47 73 48 75 49 41 50 78 51 72 52 71 53 42 55 64 56 49 57
REMARK SMILES IDX 63 58 50 59 53 60 62 61 76 62 51 63 52 64 61 66 77 67 54 68
REMARK SMILES IDX 43 69 44 70 48 71 45 72 47 73 46 74 65 75 66 76 70 77 67 78
REMARK SMILES IDX 69 79 68 80 55 81 56 82 60 83 57 84 59 85 58 86
REMARK H PARENT 24 6 4 15 31 35 75 54 53 65
REMARK Flexibility Score: inf
ROOT
ATOM      1  C   UNL A   1      31.385  26.710  26.489  1.00  0.00     0.021 C 
ENDROOT
BRANCH   1   2
ATOM      2  C   UNL A   1      30.240  25.968  25.779  1.00  0.00     0.116 C 
BRANCH   2   3
ATOM      3  N   UNL A   1      29.766  24.883  26.615  1.00  0.00    -0.352 N 
ATOM      4  C   UNL A   1      30.244  23.636  26.929  1.00  0.00     0.251 C 
ATOM      5  O   UNL A   1      29.516  22.944  27.648  1.00  0.00    -0.269 OA
ATOM      6  H   UNL A   1      28.911  25.088  27.058  1.00  0.00     0.163 HD
BRANCH   4   7
ATOM      7  C   UNL A   1      31.593  23.098  26.565  1.00  0.00     0.044 A 
ATOM      8  C   UNL A   1      31.196  22.749  24.070  1.00  0.00     0.047 C 
ATOM      9  C   UNL A   1      32.086  22.765  25.282  1.00  0.00    -0.015 A 
ATOM     10  C   UNL A   1      33.431  22.317  25.127  1.00  0.00     0.038 A 
ATOM     11  C   UNL A   1      34.172  22.012  26.275  1.00  0.00     0.026 A 
ATOM     12  C   UNL A   1      32.391  22.795  27.685  1.00  0.00     0.014 A 
ATOM     13  C   UNL A   1      33.652  22.226  27.546  1.00  0.00     0.003 A 
BRANCH  10  14
ATOM     14  N   UNL A   1      33.963  22.144  23.860  1.00  0.00    -0.378 N 
ATOM     15  H   UNL A   1      33.820  21.268  23.434  1.00  0.00     0.161 HD
BRANCH  14  16
ATOM     16  C   UNL A   1      34.715  23.130  23.095  1.00  0.00     0.188 C 
BRANCH  16  17
ATOM     17  C   UNL A   1      33.849  24.014  22.260  1.00  0.00     0.123 A 
ATOM     18  C   UNL A   1      33.450  23.973  20.940  1.00  0.00     0.048 A 
ATOM     19  O   UNL A   1      33.307  25.108  22.873  1.00  0.00    -0.459 OA
ATOM     20  C   UNL A   1      32.575  25.063  20.748  1.00  0.00     0.051 A 
ATOM     21  C   UNL A   1      32.532  25.742  21.946  1.00  0.00     0.134 A 
BRANCH  21  22
ATOM     22  C   UNL A   1      31.858  26.951  22.384  1.00  0.00     0.017 A 
ATOM     23  C   UNL A   1      32.601  28.072  22.781  1.00  0.00     0.013 A 
ATOM     24  C   UNL A   1      30.461  26.995  22.466  1.00  0.00     0.013 A 
ATOM     25  C   UNL A   1      31.957  29.217  23.257  1.00  0.00     0.021 A 
ATOM     26  C   UNL A   1      29.815  28.134  22.955  1.00  0.00     0.021 A 
ATOM     27  C   UNL A   1      30.567  29.239  23.349  1.00  0.00     0.041 A 
ATOM     28  Cl  UNL A   1      29.774  30.638  23.961  1.00  0.00    -0.084 Cl
ENDBRANCH  21  22
ENDBRANCH  16  17
ENDBRANCH  14  16
ENDBRANCH  10  14
ENDBRANCH   4   7
ENDBRANCH   2   3
ENDBRANCH   1   2
BRANCH   1  29
ATOM     29  C   UNL A   1      32.798  26.375  25.993  1.00  0.00     0.002 C 
BRANCH  29  30
ATOM     30  C   UNL A   1      33.884  27.426  26.265  1.00  0.00     0.002 C 
BRANCH  30  31
ATOM     31  C   UNL A   1      33.395  28.863  26.454  1.00  0.00     0.021 C 
BRANCH  31  32
ATOM     32  C   UNL A   1      33.443  29.358  27.896  1.00  0.00     0.116 C 
BRANCH  32  33
ATOM     33  N   UNL A   1      34.028  30.686  28.042  1.00  0.00    -0.352 N 
ATOM     34  C   UNL A   1      35.335  31.049  28.294  1.00  0.00     0.251 C 
ATOM     35  H   UNL A   1      33.396  31.434  27.948  1.00  0.00     0.163 HD
ATOM     36  O   UNL A   1      35.627  32.237  28.420  1.00  0.00    -0.269 OA
BRANCH  34  37
ATOM     37  C   UNL A   1      36.406  30.025  28.291  1.00  0.00     0.039 A 
ATOM     38  C   UNL A   1      36.697  29.377  29.497  1.00  0.00     0.014 A 
ATOM     39  C   UNL A   1      37.219  29.824  27.179  1.00  0.00     0.014 A 
ATOM     40  C   UNL A   1      37.921  28.731  29.652  1.00  0.00     0.010 A 
ATOM     41  C   UNL A   1      38.468  29.257  27.351  1.00  0.00     0.010 A 
ATOM     42  C   UNL A   1      38.843  28.773  28.606  1.00  0.00    -0.014 A 
BRANCH  42  43
ATOM     43  C   UNL A   1      40.254  28.451  28.780  1.00  0.00     0.031 A 
ATOM     44  C   UNL A   1      40.819  27.199  28.248  1.00  0.00     0.074 A 
ATOM     45  C   UNL A   1      41.059  29.325  29.422  1.00  0.00     0.049 A 
ATOM     46  N   UNL A   1      41.881  26.634  28.714  1.00  0.00    -0.248 NA
ATOM     47  C   UNL A   1      40.189  26.451  27.168  1.00  0.00     0.031 C 
ATOM     48  C   UNL A   1      42.517  29.311  29.501  1.00  0.00     0.029 A 
ATOM     49  N   UNL A   1      40.670  30.284  30.354  1.00  0.00    -0.354 N 
ATOM     50  C   UNL A   1      42.224  25.625  27.850  1.00  0.00     0.074 A 
ATOM     51  C   UNL A   1      41.104  25.504  26.944  1.00  0.00     0.031 C 
ATOM     52  C   UNL A   1      42.895  30.008  30.584  1.00  0.00     0.029 A 
ATOM     53  C   UNL A   1      41.691  30.360  31.319  1.00  0.00     0.049 A 
ATOM     54  H   UNL A   1      39.837  30.810  30.341  1.00  0.00     0.167 HD
ATOM     55  C   UNL A   1      43.470  25.078  27.915  1.00  0.00     0.031 A 
ATOM     56  C   UNL A   1      41.438  30.028  32.619  1.00  0.00     0.031 A 
ATOM     57  C   UNL A   1      44.264  25.618  29.016  1.00  0.00     0.049 A 
ATOM     58  C   UNL A   1      42.232  28.845  33.136  1.00  0.00     0.074 A 
ATOM     59  C   UNL A   1      45.299  26.535  29.108  1.00  0.00     0.029 A 
ATOM     60  N   UNL A   1      43.829  25.403  30.313  1.00  0.00    -0.354 N 
ATOM     61  N   UNL A   1      43.028  28.110  32.410  1.00  0.00    -0.248 NA
ATOM     62  C   UNL A   1      42.095  28.331  34.501  1.00  0.00     0.031 C 
ATOM     63  C   UNL A   1      45.481  26.864  30.482  1.00  0.00     0.029 A 
ATOM     64  C   UNL A   1      44.565  26.140  31.219  1.00  0.00     0.049 A 
ATOM     65  H   UNL A   1      43.089  24.801  30.557  1.00  0.00     0.167 HD
ATOM     66  C   UNL A   1      43.454  27.039  33.147  1.00  0.00     0.074 A 
ATOM     67  C   UNL A   1      42.849  27.220  34.452  1.00  0.00     0.031 C 
ATOM     68  C   UNL A   1      44.231  26.047  32.628  1.00  0.00     0.031 A 
BRANCH  55  69
ATOM     69  C   UNL A   1      44.043  24.208  26.825  1.00  0.00    -0.014 A 
ATOM     70  C   UNL A   1      44.977  23.209  27.152  1.00  0.00     0.009 A 
ATOM     71  C   UNL A   1      43.737  24.347  25.462  1.00  0.00     0.009 A 
ATOM     72  C   UNL A   1      45.640  22.463  26.169  1.00  0.00     0.001 A 
ATOM     73  C   UNL A   1      44.428  23.637  24.470  1.00  0.00     0.001 A 
ATOM     74  C   UNL A   1      45.390  22.702  24.825  1.00  0.00     0.000 A 
ENDBRANCH  55  69
BRANCH  56  75
ATOM     75  C   UNL A   1      40.047  30.354  33.050  1.00  0.00    -0.014 A 
ATOM     76  C   UNL A   1      39.650  31.707  33.080  1.00  0.00     0.009 A 
ATOM     77  C   UNL A   1      39.054  29.365  33.089  1.00  0.00     0.009 A 
ATOM     78  C   UNL A   1      38.299  32.057  33.026  1.00  0.00     0.001 A 
ATOM     79  C   UNL A   1      37.701  29.722  33.057  1.00  0.00     0.001 A 
ATOM     80  C   UNL A   1      37.327  31.063  32.989  1.00  0.00     0.000 A 
ENDBRANCH  56  75
BRANCH  68  81
ATOM     81  C   UNL A   1      44.717  24.874  33.425  1.00  0.00    -0.014 A 
ATOM     82  C   UNL A   1      45.970  24.860  34.052  1.00  0.00     0.009 A 
ATOM     83  C   UNL A   1      43.964  23.683  33.460  1.00  0.00     0.009 A 
ATOM     84  C   UNL A   1      46.426  23.723  34.731  1.00  0.00     0.001 A 
ATOM     85  C   UNL A   1      44.425  22.540  34.118  1.00  0.00     0.001 A 
ATOM     86  C   UNL A   1      45.654  22.564  34.763  1.00  0.00     0.000 A 
ENDBRANCH  68  81
ENDBRANCH  42  43
ENDBRANCH  34  37
ENDBRANCH  32  33
ENDBRANCH  31  32
ENDBRANCH  30  31
ENDBRANCH  29  30
ENDBRANCH   1  29
TORSDOF 17
ENDMDL
