MODEL 1
REMARK VINA RESULT:     -12.3      0.000      0.000
REMARK SMILES COc1ccc(NC(=O)N[C@@H]2C=C[C@H](C(=O)NCCCCCCNC(=O)c3ccc(-c4c5nc(c(-c6ccccc6)c6ccc([nH]6)c(-c6ccccc6)c6nc(c(-c7ccccc7)c7ccc4[nH]7)C=C6)C=C5)cc3)C2)c(C)c1
REMARK SMILES IDX 20 1 19 2 18 3 17 4 15 5 16 6 14 8 11 9 12 10 75 11 13 12
REMARK SMILES IDX 10 13 7 14 8 15 9 17 6 19 3 20 4 21 78 22 5 23 76 24 77 25
REMARK SMILES IDX 2 26 1 27 21 28 22 29 23 30 24 31 25 32 26 34 27 35 28 36
REMARK SMILES IDX 74 37 29 38 73 39 30 40 31 41 32 42 67 43 33 44 72 45 66 46
REMARK SMILES IDX 68 47 34 48 71 49 65 50 64 51 35 53 57 54 42 55 56 56 43 57
REMARK SMILES IDX 46 58 55 59 69 60 44 61 45 62 54 64 70 65 47 66 36 67 37 68
REMARK SMILES IDX 41 69 38 70 40 71 39 72 58 73 59 74 63 75 60 76 62 77 61 78
REMARK SMILES IDX 48 79 49 80 53 81 50 82 52 83 51 84
REMARK H PARENT 17 7 7 16 10 18 24 33 68 52 46 63
REMARK Flexibility Score: inf
ROOT
ATOM      1  C   UNL A   1      31.382  29.118  25.100  1.00  0.00     0.002 C 
ENDROOT
BRANCH   1   2
ATOM      2  C   UNL A   1      31.982  28.794  23.725  1.00  0.00     0.021 C 
BRANCH   2   3
ATOM      3  C   UNL A   1      31.152  27.850  22.841  1.00  0.00     0.116 C 
BRANCH   3   4
ATOM      4  N   UNL A   1      31.942  27.259  21.774  1.00  0.00    -0.356 N 
ATOM      5  C   UNL A   1      32.659  26.102  21.685  1.00  0.00     0.227 C 
ATOM      6  O   UNL A   1      33.176  25.872  20.584  1.00  0.00    -0.274 OA
ATOM      7  H   UNL A   1      31.967  27.802  20.953  1.00  0.00     0.163 HD
BRANCH   5   8
ATOM      8  C   UNL A   1      32.752  25.066  22.821  1.00  0.00     0.103 C 
ATOM      9  C   UNL A   1      34.415  23.996  24.306  1.00  0.00     0.107 C 
ATOM     10  C   UNL A   1      34.157  23.169  23.090  1.00  0.00    -0.006 C 
ATOM     11  C   UNL A   1      33.776  25.324  23.913  1.00  0.00     0.047 C 
ATOM     12  C   UNL A   1      33.229  23.730  22.304  1.00  0.00    -0.016 C 
BRANCH   9  13
ATOM     13  N   UNL A   1      35.840  24.106  24.564  1.00  0.00    -0.332 N 
ATOM     14  N   UNL A   1      36.171  22.531  26.315  1.00  0.00    -0.308 N 
ATOM     15  C   UNL A   1      36.615  23.537  25.520  1.00  0.00     0.319 C 
ATOM     16  H   UNL A   1      36.563  22.518  27.218  1.00  0.00     0.171 HD
ATOM     17  O   UNL A   1      37.714  24.042  25.759  1.00  0.00    -0.248 OA
ATOM     18  H   UNL A   1      36.324  24.694  23.940  1.00  0.00     0.165 HD
BRANCH  14  19
ATOM     19  C   UNL A   1      35.246  21.504  26.066  1.00  0.00     0.046 A 
ATOM     20  C   UNL A   1      33.285  19.681  25.220  1.00  0.00     0.119 A 
ATOM     21  C   UNL A   1      34.568  19.616  24.691  1.00  0.00     0.048 A 
ATOM     22  C   UNL A   1      33.025  20.580  26.259  1.00  0.00     0.052 A 
ATOM     23  C   UNL A   1      35.544  20.515  25.123  1.00  0.00     0.030 A 
ATOM     24  C   UNL A   1      34.006  21.477  26.725  1.00  0.00    -0.024 A 
ATOM     25  C   UNL A   1      33.599  22.420  27.822  1.00  0.00     0.047 C 
BRANCH  20  26
ATOM     26  O   UNL A   1      32.211  18.942  24.814  1.00  0.00    -0.497 OA
ATOM     27  C   UNL A   1      32.430  18.032  23.742  1.00  0.00     0.278 C 
ENDBRANCH  20  26
ENDBRANCH  14  19
ENDBRANCH   9  13
ENDBRANCH   5   8
ENDBRANCH   3   4
ENDBRANCH   2   3
ENDBRANCH   1   2
BRANCH   1  28
ATOM     28  C   UNL A   1      32.227  28.745  26.329  1.00  0.00     0.002 C 
BRANCH  28  29
ATOM     29  C   UNL A   1      32.559  29.894  27.283  1.00  0.00     0.021 C 
BRANCH  29  30
ATOM     30  C   UNL A   1      33.950  30.489  27.083  1.00  0.00     0.116 C 
BRANCH  30  31
ATOM     31  N   UNL A   1      34.375  31.350  28.183  1.00  0.00    -0.352 N 
ATOM     32  C   UNL A   1      35.465  31.215  29.027  1.00  0.00     0.251 C 
ATOM     33  H   UNL A   1      33.808  32.139  28.347  1.00  0.00     0.163 HD
ATOM     34  O   UNL A   1      35.703  32.051  29.883  1.00  0.00    -0.269 OA
BRANCH  32  35
ATOM     35  C   UNL A   1      36.406  30.095  28.792  1.00  0.00     0.039 A 
ATOM     36  C   UNL A   1      36.684  29.243  29.865  1.00  0.00     0.014 A 
ATOM     37  C   UNL A   1      37.155  30.033  27.619  1.00  0.00     0.014 A 
ATOM     38  C   UNL A   1      37.866  28.511  29.856  1.00  0.00     0.010 A 
ATOM     39  C   UNL A   1      38.366  29.367  27.640  1.00  0.00     0.010 A 
ATOM     40  C   UNL A   1      38.753  28.673  28.790  1.00  0.00    -0.014 A 
BRANCH  40  41
ATOM     41  C   UNL A   1      40.158  28.296  28.888  1.00  0.00     0.031 A 
ATOM     42  C   UNL A   1      40.641  27.002  28.385  1.00  0.00     0.074 A 
ATOM     43  C   UNL A   1      41.036  29.156  29.449  1.00  0.00     0.049 A 
ATOM     44  N   UNL A   1      41.658  26.373  28.872  1.00  0.00    -0.248 NA
ATOM     45  C   UNL A   1      39.970  26.286  27.311  1.00  0.00     0.031 C 
ATOM     46  C   UNL A   1      42.494  29.072  29.449  1.00  0.00     0.029 A 
ATOM     47  N   UNL A   1      40.744  30.170  30.362  1.00  0.00    -0.354 N 
ATOM     48  C   UNL A   1      41.966  25.364  27.993  1.00  0.00     0.074 A 
ATOM     49  C   UNL A   1      40.827  25.281  27.104  1.00  0.00     0.031 C 
ATOM     50  C   UNL A   1      42.964  29.781  30.487  1.00  0.00     0.029 A 
ATOM     51  C   UNL A   1      41.820  30.219  31.266  1.00  0.00     0.049 A 
ATOM     52  H   UNL A   1      39.942  30.740  30.371  1.00  0.00     0.167 HD
ATOM     53  C   UNL A   1      43.216  24.819  27.999  1.00  0.00     0.031 A 
ATOM     54  C   UNL A   1      41.634  29.967  32.593  1.00  0.00     0.031 A 
ATOM     55  C   UNL A   1      44.059  25.361  29.069  1.00  0.00     0.049 A 
ATOM     56  C   UNL A   1      42.447  28.814  33.136  1.00  0.00     0.074 A 
ATOM     57  C   UNL A   1      45.109  26.265  29.088  1.00  0.00     0.029 A 
ATOM     58  N   UNL A   1      43.685  25.176  30.394  1.00  0.00    -0.354 N 
ATOM     59  N   UNL A   1      43.085  27.940  32.409  1.00  0.00    -0.248 NA
ATOM     60  C   UNL A   1      42.524  28.510  34.560  1.00  0.00     0.031 C 
ATOM     61  C   UNL A   1      45.361  26.629  30.438  1.00  0.00     0.029 A 
ATOM     62  C   UNL A   1      44.471  25.939  31.240  1.00  0.00     0.049 A 
ATOM     63  H   UNL A   1      42.959  24.582  30.692  1.00  0.00     0.167 HD
ATOM     64  C   UNL A   1      43.609  26.958  33.215  1.00  0.00     0.074 A 
ATOM     65  C   UNL A   1      43.243  27.376  34.557  1.00  0.00     0.031 C 
ATOM     66  C   UNL A   1      44.262  25.876  32.686  1.00  0.00     0.031 A 
BRANCH  53  67
ATOM     67  C   UNL A   1      43.757  24.030  26.826  1.00  0.00    -0.014 A 
ATOM     68  C   UNL A   1      44.584  24.660  25.879  1.00  0.00     0.009 A 
ATOM     69  C   UNL A   1      43.439  22.687  26.561  1.00  0.00     0.009 A 
ATOM     70  C   UNL A   1      44.960  24.033  24.683  1.00  0.00     0.001 A 
ATOM     71  C   UNL A   1      43.771  22.067  25.348  1.00  0.00     0.001 A 
ATOM     72  C   UNL A   1      44.520  22.748  24.400  1.00  0.00     0.000 A 
ENDBRANCH  53  67
BRANCH  54  73
ATOM     73  C   UNL A   1      40.285  30.341  33.102  1.00  0.00    -0.014 A 
ATOM     74  C   UNL A   1      39.933  31.705  33.158  1.00  0.00     0.009 A 
ATOM     75  C   UNL A   1      39.268  29.383  33.219  1.00  0.00     0.009 A 
ATOM     76  C   UNL A   1      38.593  32.097  33.220  1.00  0.00     0.001 A 
ATOM     77  C   UNL A   1      37.929  29.780  33.298  1.00  0.00     0.001 A 
ATOM     78  C   UNL A   1      37.590  31.133  33.266  1.00  0.00     0.000 A 
ENDBRANCH  54  73
BRANCH  66  79
ATOM     79  C   UNL A   1      44.788  24.648  33.417  1.00  0.00    -0.014 A 
ATOM     80  C   UNL A   1      46.119  24.412  33.777  1.00  0.00     0.009 A 
ATOM     81  C   UNL A   1      43.866  23.644  33.807  1.00  0.00     0.009 A 
ATOM     82  C   UNL A   1      46.504  23.266  34.495  1.00  0.00     0.001 A 
ATOM     83  C   UNL A   1      44.237  22.510  34.536  1.00  0.00     0.001 A 
ATOM     84  C   UNL A   1      45.564  22.321  34.884  1.00  0.00     0.000 A 
ENDBRANCH  66  79
ENDBRANCH  40  41
ENDBRANCH  32  35
ENDBRANCH  30  31
ENDBRANCH  29  30
ENDBRANCH  28  29
ENDBRANCH   1  28
TORSDOF 16
ENDMDL
MODEL 2
REMARK VINA RESULT:     -12.2      1.673      2.792
REMARK SMILES COc1ccc(NC(=O)N[C@@H]2C=C[C@H](C(=O)NCCCCCCNC(=O)c3ccc(-c4c5nc(c(-c6ccccc6)c6ccc([nH]6)c(-c6ccccc6)c6nc(c(-c7ccccc7)c7ccc4[nH]7)C=C6)C=C5)cc3)C2)c(C)c1
REMARK SMILES IDX 20 1 19 2 18 3 17 4 15 5 16 6 14 8 11 9 12 10 75 11 13 12
REMARK SMILES IDX 10 13 7 14 8 15 9 17 6 19 3 20 4 21 78 22 5 23 76 24 77 25
REMARK SMILES IDX 2 26 1 27 21 28 22 29 23 30 24 31 25 32 26 34 27 35 28 36
REMARK SMILES IDX 74 37 29 38 73 39 30 40 31 41 32 42 67 43 33 44 72 45 66 46
REMARK SMILES IDX 68 47 34 48 71 49 65 50 64 51 35 53 57 54 42 55 56 56 43 57
REMARK SMILES IDX 46 58 55 59 69 60 44 61 45 62 54 64 70 65 47 66 36 67 37 68
REMARK SMILES IDX 41 69 38 70 40 71 39 72 58 73 59 74 63 75 60 76 62 77 61 78
REMARK SMILES IDX 48 79 49 80 53 81 50 82 52 83 51 84
REMARK H PARENT 17 7 7 16 10 18 24 33 68 52 46 63
REMARK Flexibility Score: inf
ROOT
ATOM      1  C   UNL A   1      31.687  28.289  25.071  1.00  0.00     0.002 C 
ENDROOT
BRANCH   1   2
ATOM      2  C   UNL A   1      31.094  28.718  23.721  1.00  0.00     0.021 C 
BRANCH   2   3
ATOM      3  C   UNL A   1      30.666  27.575  22.787  1.00  0.00     0.116 C 
BRANCH   3   4
ATOM      4  N   UNL A   1      31.720  27.199  21.860  1.00  0.00    -0.356 N 
ATOM      5  C   UNL A   1      32.648  26.200  21.868  1.00  0.00     0.227 C 
ATOM      6  O   UNL A   1      33.374  26.130  20.868  1.00  0.00    -0.274 OA
ATOM      7  H   UNL A   1      31.775  27.782  21.068  1.00  0.00     0.163 HD
BRANCH   5   8
ATOM      8  C   UNL A   1      32.749  25.137  22.979  1.00  0.00     0.103 C 
ATOM      9  C   UNL A   1      34.421  24.036  24.429  1.00  0.00     0.107 C 
ATOM     10  C   UNL A   1      34.158  23.237  23.196  1.00  0.00    -0.006 C 
ATOM     11  C   UNL A   1      33.778  25.371  24.071  1.00  0.00     0.047 C 
ATOM     12  C   UNL A   1      33.224  23.815  22.428  1.00  0.00    -0.016 C 
BRANCH   9  13
ATOM     13  N   UNL A   1      35.846  24.142  24.683  1.00  0.00    -0.332 N 
ATOM     14  N   UNL A   1      36.195  22.501  26.370  1.00  0.00    -0.308 N 
ATOM     15  C   UNL A   1      36.630  23.539  25.612  1.00  0.00     0.319 C 
ATOM     16  H   UNL A   1      36.593  22.455  27.269  1.00  0.00     0.171 HD
ATOM     17  O   UNL A   1      37.728  24.039  25.863  1.00  0.00    -0.248 OA
ATOM     18  H   UNL A   1      36.325  24.755  24.079  1.00  0.00     0.165 HD
BRANCH  14  19
ATOM     19  C   UNL A   1      35.273  21.481  26.086  1.00  0.00     0.046 A 
ATOM     20  C   UNL A   1      33.331  19.672  25.170  1.00  0.00     0.119 A 
ATOM     21  C   UNL A   1      34.631  19.599  24.686  1.00  0.00     0.048 A 
ATOM     22  C   UNL A   1      33.040  20.571  26.200  1.00  0.00     0.052 A 
ATOM     23  C   UNL A   1      35.597  20.491  25.153  1.00  0.00     0.030 A 
ATOM     24  C   UNL A   1      34.010  21.461  26.702  1.00  0.00    -0.024 A 
ATOM     25  C   UNL A   1      33.571  22.405  27.785  1.00  0.00     0.047 C 
BRANCH  20  26
ATOM     26  O   UNL A   1      32.267  18.940  24.725  1.00  0.00    -0.497 OA
ATOM     27  C   UNL A   1      32.324  18.484  23.378  1.00  0.00     0.278 C 
ENDBRANCH  20  26
ENDBRANCH  14  19
ENDBRANCH   9  13
ENDBRANCH   5   8
ENDBRANCH   3   4
ENDBRANCH   2   3
ENDBRANCH   1   2
BRANCH   1  28
ATOM     28  C   UNL A   1      32.340  29.391  25.921  1.00  0.00     0.002 C 
BRANCH  28  29
ATOM     29  C   UNL A   1      33.605  28.984  26.679  1.00  0.00     0.021 C 
BRANCH  29  30
ATOM     30  C   UNL A   1      34.366  30.154  27.296  1.00  0.00     0.116 C 
BRANCH  30  31
ATOM     31  N   UNL A   1      33.585  31.386  27.358  1.00  0.00    -0.352 N 
ATOM     32  C   UNL A   1      33.848  32.552  28.057  1.00  0.00     0.251 C 
ATOM     33  H   UNL A   1      32.754  31.388  26.830  1.00  0.00     0.163 HD
ATOM     34  O   UNL A   1      33.103  33.515  27.975  1.00  0.00    -0.269 OA
BRANCH  32  35
ATOM     35  C   UNL A   1      35.118  32.652  28.813  1.00  0.00     0.039 A 
ATOM     36  C   UNL A   1      36.178  33.342  28.218  1.00  0.00     0.014 A 
ATOM     37  C   UNL A   1      35.317  31.895  29.966  1.00  0.00     0.014 A 
ATOM     38  C   UNL A   1      37.477  33.069  28.630  1.00  0.00     0.010 A 
ATOM     39  C   UNL A   1      36.610  31.563  30.326  1.00  0.00     0.010 A 
ATOM     40  C   UNL A   1      37.685  32.090  29.603  1.00  0.00    -0.014 A 
BRANCH  40  41
ATOM     41  C   UNL A   1      38.980  31.448  29.790  1.00  0.00     0.031 A 
ATOM     42  C   UNL A   1      39.268  30.123  29.220  1.00  0.00     0.074 A 
ATOM     43  C   UNL A   1      39.938  32.084  30.500  1.00  0.00     0.049 A 
ATOM     44  N   UNL A   1      40.097  29.280  29.738  1.00  0.00    -0.248 NA
ATOM     45  C   UNL A   1      38.591  29.625  28.032  1.00  0.00     0.031 C 
ATOM     46  C   UNL A   1      41.348  31.724  30.620  1.00  0.00     0.029 A 
ATOM     47  N   UNL A   1      39.743  33.068  31.470  1.00  0.00    -0.354 N 
ATOM     48  C   UNL A   1      40.305  28.295  28.804  1.00  0.00     0.074 A 
ATOM     49  C   UNL A   1      39.267  28.492  27.814  1.00  0.00     0.031 C 
ATOM     50  C   UNL A   1      41.831  32.257  31.753  1.00  0.00     0.029 A 
ATOM     51  C   UNL A   1      40.711  32.848  32.465  1.00  0.00     0.049 A 
ATOM     52  H   UNL A   1      39.062  33.778  31.457  1.00  0.00     0.167 HD
ATOM     53  C   UNL A   1      41.427  27.523  28.872  1.00  0.00     0.031 A 
ATOM     54  C   UNL A   1      40.348  32.545  33.744  1.00  0.00     0.031 A 
ATOM     55  C   UNL A   1      42.241  27.819  30.054  1.00  0.00     0.049 A 
ATOM     56  C   UNL A   1      40.877  31.223  34.252  1.00  0.00     0.074 A 
ATOM     57  C   UNL A   1      43.431  28.504  30.245  1.00  0.00     0.029 A 
ATOM     58  N   UNL A   1      41.706  27.617  31.321  1.00  0.00    -0.354 N 
ATOM     59  N   UNL A   1      41.416  30.297  33.510  1.00  0.00    -0.248 NA
ATOM     60  C   UNL A   1      40.751  30.811  35.646  1.00  0.00     0.031 C 
ATOM     61  C   UNL A   1      43.605  28.717  31.639  1.00  0.00     0.029 A 
ATOM     62  C   UNL A   1      42.526  28.155  32.295  1.00  0.00     0.049 A 
ATOM     63  H   UNL A   1      40.856  27.152  31.500  1.00  0.00     0.167 HD
ATOM     64  C   UNL A   1      41.667  29.179  34.270  1.00  0.00     0.074 A 
ATOM     65  C   UNL A   1      41.247  29.564  35.605  1.00  0.00     0.031 C 
ATOM     66  C   UNL A   1      42.162  28.032  33.707  1.00  0.00     0.031 A 
BRANCH  53  67
ATOM     67  C   UNL A   1      41.933  26.729  27.686  1.00  0.00    -0.014 A 
ATOM     68  C   UNL A   1      42.226  27.386  26.477  1.00  0.00     0.009 A 
ATOM     69  C   UNL A   1      42.078  25.332  27.672  1.00  0.00     0.009 A 
ATOM     70  C   UNL A   1      42.518  26.684  25.299  1.00  0.00     0.001 A 
ATOM     71  C   UNL A   1      42.324  24.619  26.490  1.00  0.00     0.001 A 
ATOM     72  C   UNL A   1      42.528  25.297  25.298  1.00  0.00     0.000 A 
ENDBRANCH  53  67
BRANCH  54  73
ATOM     73  C   UNL A   1      39.044  33.131  34.163  1.00  0.00    -0.014 A 
ATOM     74  C   UNL A   1      37.853  32.571  33.659  1.00  0.00     0.009 A 
ATOM     75  C   UNL A   1      38.964  33.994  35.265  1.00  0.00     0.009 A 
ATOM     76  C   UNL A   1      36.633  32.782  34.305  1.00  0.00     0.001 A 
ATOM     77  C   UNL A   1      37.737  34.216  35.900  1.00  0.00     0.001 A 
ATOM     78  C   UNL A   1      36.580  33.586  35.441  1.00  0.00     0.000 A 
ENDBRANCH  54  73
BRANCH  66  79
ATOM     79  C   UNL A   1      42.377  26.679  34.371  1.00  0.00    -0.014 A 
ATOM     80  C   UNL A   1      41.505  26.053  35.268  1.00  0.00     0.009 A 
ATOM     81  C   UNL A   1      43.548  25.946  34.052  1.00  0.00     0.009 A 
ATOM     82  C   UNL A   1      41.767  24.778  35.796  1.00  0.00     0.001 A 
ATOM     83  C   UNL A   1      43.809  24.669  34.558  1.00  0.00     0.001 A 
ATOM     84  C   UNL A   1      42.913  24.081  35.434  1.00  0.00     0.000 A 
ENDBRANCH  66  79
ENDBRANCH  40  41
ENDBRANCH  32  35
ENDBRANCH  30  31
ENDBRANCH  29  30
ENDBRANCH  28  29
ENDBRANCH   1  28
TORSDOF 16
ENDMDL
MODEL 3
REMARK VINA RESULT:     -12.0      3.147      8.941
REMARK SMILES COc1ccc(NC(=O)N[C@@H]2C=C[C@H](C(=O)NCCCCCCNC(=O)c3ccc(-c4c5nc(c(-c6ccccc6)c6ccc([nH]6)c(-c6ccccc6)c6nc(c(-c7ccccc7)c7ccc4[nH]7)C=C6)C=C5)cc3)C2)c(C)c1
REMARK SMILES IDX 20 1 19 2 18 3 17 4 15 5 16 6 14 8 11 9 12 10 75 11 13 12
REMARK SMILES IDX 10 13 7 14 8 15 9 17 6 19 3 20 4 21 78 22 5 23 76 24 77 25
REMARK SMILES IDX 2 26 1 27 21 28 22 29 23 30 24 31 25 32 26 34 27 35 28 36
REMARK SMILES IDX 74 37 29 38 73 39 30 40 31 41 32 42 67 43 33 44 72 45 66 46
REMARK SMILES IDX 68 47 34 48 71 49 65 50 64 51 35 53 57 54 42 55 56 56 43 57
REMARK SMILES IDX 46 58 55 59 69 60 44 61 45 62 54 64 70 65 47 66 36 67 37 68
REMARK SMILES IDX 41 69 38 70 40 71 39 72 58 73 59 74 63 75 60 76 62 77 61 78
REMARK SMILES IDX 48 79 49 80 53 81 50 82 52 83 51 84
REMARK H PARENT 17 7 7 16 10 18 24 33 68 52 46 63
REMARK Flexibility Score: inf
ROOT
ATOM      1  C   UNL A   1      34.973  20.588  25.011  1.00  0.00     0.002 C 
ENDROOT
BRANCH   1   2
ATOM      2  C   UNL A   1      33.942  21.287  25.909  1.00  0.00     0.021 C 
BRANCH   2   3
ATOM      3  C   UNL A   1      32.492  21.263  25.402  1.00  0.00     0.116 C 
BRANCH   3   4
ATOM      4  N   UNL A   1      31.559  21.799  26.379  1.00  0.00    -0.356 N 
ATOM      5  C   UNL A   1      31.036  23.043  26.575  1.00  0.00     0.227 C 
ATOM      6  O   UNL A   1      30.205  23.141  27.486  1.00  0.00    -0.274 OA
ATOM      7  H   UNL A   1      31.242  21.132  27.030  1.00  0.00     0.163 HD
BRANCH   5   8
ATOM      8  C   UNL A   1      31.348  24.252  25.672  1.00  0.00     0.103 C 
ATOM      9  C   UNL A   1      32.317  26.524  25.781  1.00  0.00     0.107 C 
ATOM     10  C   UNL A   1      30.830  26.558  25.919  1.00  0.00    -0.006 C 
ATOM     11  C   UNL A   1      32.608  25.041  25.981  1.00  0.00     0.047 C 
ATOM     12  C   UNL A   1      30.302  25.330  25.823  1.00  0.00    -0.016 C 
BRANCH   9  13
ATOM     13  N   UNL A   1      32.948  27.366  26.782  1.00  0.00    -0.332 N 
ATOM     14  N   UNL A   1      33.547  29.297  25.528  1.00  0.00    -0.308 N 
ATOM     15  C   UNL A   1      33.589  28.556  26.664  1.00  0.00     0.319 C 
ATOM     16  H   UNL A   1      34.355  29.832  25.357  1.00  0.00     0.171 HD
ATOM     17  O   UNL A   1      34.340  28.908  27.575  1.00  0.00    -0.248 OA
ATOM     18  H   UNL A   1      32.903  27.014  27.700  1.00  0.00     0.165 HD
BRANCH  14  19
ATOM     19  C   UNL A   1      32.543  29.430  24.555  1.00  0.00     0.046 A 
ATOM     20  C   UNL A   1      30.370  29.336  22.780  1.00  0.00     0.119 A 
ATOM     21  C   UNL A   1      30.221  29.926  24.029  1.00  0.00     0.048 A 
ATOM     22  C   UNL A   1      31.638  28.906  22.380  1.00  0.00     0.052 A 
ATOM     23  C   UNL A   1      31.307  29.983  24.904  1.00  0.00     0.030 A 
ATOM     24  C   UNL A   1      32.751  28.980  23.241  1.00  0.00    -0.024 A 
ATOM     25  C   UNL A   1      34.055  28.454  22.712  1.00  0.00     0.047 C 
BRANCH  20  26
ATOM     26  O   UNL A   1      29.372  29.115  21.873  1.00  0.00    -0.497 OA
ATOM     27  C   UNL A   1      28.397  30.142  21.733  1.00  0.00     0.278 C 
ENDBRANCH  20  26
ENDBRANCH  14  19
ENDBRANCH   9  13
ENDBRANCH   5   8
ENDBRANCH   3   4
ENDBRANCH   2   3
ENDBRANCH   1   2
BRANCH   1  28
ATOM     28  C   UNL A   1      36.135  21.449  24.492  1.00  0.00     0.002 C 
BRANCH  28  29
ATOM     29  C   UNL A   1      37.501  21.177  25.126  1.00  0.00     0.021 C 
BRANCH  29  30
ATOM     30  C   UNL A   1      38.152  22.405  25.756  1.00  0.00     0.116 C 
BRANCH  30  31
ATOM     31  N   UNL A   1      39.586  22.247  25.986  1.00  0.00    -0.352 N 
ATOM     32  C   UNL A   1      40.492  23.158  26.502  1.00  0.00     0.251 C 
ATOM     33  H   UNL A   1      39.960  21.370  25.741  1.00  0.00     0.163 HD
ATOM     34  O   UNL A   1      41.662  22.854  26.666  1.00  0.00    -0.269 OA
BRANCH  32  35
ATOM     35  C   UNL A   1      39.989  24.472  26.965  1.00  0.00     0.039 A 
ATOM     36  C   UNL A   1      40.423  25.612  26.281  1.00  0.00     0.014 A 
ATOM     37  C   UNL A   1      39.297  24.582  28.168  1.00  0.00     0.014 A 
ATOM     38  C   UNL A   1      40.386  26.841  26.930  1.00  0.00     0.010 A 
ATOM     39  C   UNL A   1      39.329  25.788  28.844  1.00  0.00     0.010 A 
ATOM     40  C   UNL A   1      39.946  26.895  28.253  1.00  0.00    -0.014 A 
BRANCH  40  41
ATOM     41  C   UNL A   1      40.260  28.016  29.129  1.00  0.00     0.031 A 
ATOM     42  C   UNL A   1      39.287  29.090  29.378  1.00  0.00     0.074 A 
ATOM     43  C   UNL A   1      41.470  28.069  29.728  1.00  0.00     0.049 A 
ATOM     44  N   UNL A   1      39.613  30.308  29.657  1.00  0.00    -0.248 NA
ATOM     45  C   UNL A   1      37.851  28.877  29.279  1.00  0.00     0.031 C 
ATOM     46  C   UNL A   1      41.901  28.970  30.793  1.00  0.00     0.029 A 
ATOM     47  N   UNL A   1      42.644  27.452  29.294  1.00  0.00    -0.354 N 
ATOM     48  C   UNL A   1      38.473  30.942  30.085  1.00  0.00     0.074 A 
ATOM     49  C   UNL A   1      37.391  30.049  29.726  1.00  0.00     0.031 C 
ATOM     50  C   UNL A   1      43.240  29.061  30.761  1.00  0.00     0.029 A 
ATOM     51  C   UNL A   1      43.695  28.338  29.586  1.00  0.00     0.049 A 
ATOM     52  H   UNL A   1      42.720  26.568  28.867  1.00  0.00     0.167 HD
ATOM     53  C   UNL A   1      38.569  32.069  30.846  1.00  0.00     0.031 A 
ATOM     54  C   UNL A   1      44.466  28.866  28.593  1.00  0.00     0.031 A 
ATOM     55  C   UNL A   1      39.956  32.510  31.022  1.00  0.00     0.049 A 
ATOM     56  C   UNL A   1      44.458  30.376  28.523  1.00  0.00     0.074 A 
ATOM     57  C   UNL A   1      40.848  32.446  32.081  1.00  0.00     0.029 A 
ATOM     58  N   UNL A   1      40.703  32.878  29.910  1.00  0.00    -0.354 N 
ATOM     59  N   UNL A   1      43.618  31.150  29.151  1.00  0.00    -0.248 NA
ATOM     60  C   UNL A   1      45.357  31.125  27.653  1.00  0.00     0.031 C 
ATOM     61  C   UNL A   1      42.143  32.774  31.595  1.00  0.00     0.029 A 
ATOM     62  C   UNL A   1      42.035  33.046  30.244  1.00  0.00     0.049 A 
ATOM     63  H   UNL A   1      40.334  33.004  29.006  1.00  0.00     0.167 HD
ATOM     64  C   UNL A   1      43.809  32.455  28.764  1.00  0.00     0.074 A 
ATOM     65  C   UNL A   1      44.924  32.384  27.838  1.00  0.00     0.031 C 
ATOM     66  C   UNL A   1      42.998  33.459  29.222  1.00  0.00     0.031 A 
BRANCH  53  67
ATOM     67  C   UNL A   1      37.418  32.575  31.689  1.00  0.00    -0.014 A 
ATOM     68  C   UNL A   1      36.492  33.480  31.139  1.00  0.00     0.009 A 
ATOM     69  C   UNL A   1      37.225  32.251  33.042  1.00  0.00     0.009 A 
ATOM     70  C   UNL A   1      35.520  34.119  31.921  1.00  0.00     0.001 A 
ATOM     71  C   UNL A   1      36.287  32.919  33.842  1.00  0.00     0.001 A 
ATOM     72  C   UNL A   1      35.443  33.866  33.283  1.00  0.00     0.000 A 
ENDBRANCH  53  67
BRANCH  54  73
ATOM     73  C   UNL A   1      44.616  27.982  27.403  1.00  0.00    -0.014 A 
ATOM     74  C   UNL A   1      45.297  26.756  27.548  1.00  0.00     0.009 A 
ATOM     75  C   UNL A   1      43.840  28.184  26.254  1.00  0.00     0.009 A 
ATOM     76  C   UNL A   1      45.119  25.724  26.623  1.00  0.00     0.001 A 
ATOM     77  C   UNL A   1      43.677  27.154  25.321  1.00  0.00     0.001 A 
ATOM     78  C   UNL A   1      44.289  25.916  25.522  1.00  0.00     0.000 A 
ENDBRANCH  54  73
BRANCH  66  79
ATOM     79  C   UNL A   1      42.990  34.923  28.804  1.00  0.00    -0.014 A 
ATOM     80  C   UNL A   1      42.702  35.412  27.525  1.00  0.00     0.009 A 
ATOM     81  C   UNL A   1      43.270  35.910  29.782  1.00  0.00     0.009 A 
ATOM     82  C   UNL A   1      42.674  36.789  27.243  1.00  0.00     0.001 A 
ATOM     83  C   UNL A   1      43.227  37.282  29.516  1.00  0.00     0.001 A 
ATOM     84  C   UNL A   1      42.925  37.724  28.239  1.00  0.00     0.000 A 
ENDBRANCH  66  79
ENDBRANCH  40  41
ENDBRANCH  32  35
ENDBRANCH  30  31
ENDBRANCH  29  30
ENDBRANCH  28  29
ENDBRANCH   1  28
TORSDOF 16
ENDMDL
