MODEL 1
REMARK VINA RESULT:     -10.7      0.000      0.000
REMARK SMILES CC[C@H](C)[C@@H](C(=O)NCCCCCCNC(=O)c1ccc(-c2c3nc(c(-c4ccccc4)c4ccc([nH]4)c(-c4ccccc4)c4nc(c(-c5ccccc5)c5ccc2[nH]5)C=C4)C=C3)cc1)N1C(=O)/C(=C/c2ccccc2OC)SC1=S
REMARK SMILES IDX 11 1 10 2 9 3 8 4 6 5 7 6 5 8 3 9 4 10 2 11 1 12 66 13 67 14
REMARK SMILES IDX 80 15 68 16 69 17 79 18 81 19 70 20 71 21 72 22 76 23 73 24
REMARK SMILES IDX 75 25 74 26 77 27 78 28 12 29 13 30 14 31 15 32 16 33 17 35
REMARK SMILES IDX 18 36 19 37 65 38 20 39 64 40 21 41 22 42 23 43 58 44 24 45
REMARK SMILES IDX 63 46 57 47 59 48 25 49 62 50 56 51 55 52 26 54 48 55 33 56
REMARK SMILES IDX 47 57 34 58 37 59 46 60 60 61 35 62 36 63 45 65 61 66 38 67
REMARK SMILES IDX 27 68 28 69 32 70 29 71 31 72 30 73 49 74 50 75 54 76 51 77
REMARK SMILES IDX 53 78 52 79 39 80 40 81 44 82 41 83 43 84 42 85
REMARK H PARENT 8 7 15 34 59 53 37 64
REMARK Flexibility Score: inf
ROOT
ATOM      1  C   UNL A   1      35.955  21.596  25.991  1.00  0.00     0.002 C 
ENDROOT
BRANCH   1   2
ATOM      2  C   UNL A   1      34.521  21.459  26.517  1.00  0.00     0.021 C 
BRANCH   2   3
ATOM      3  C   UNL A   1      33.933  22.731  27.127  1.00  0.00     0.116 C 
BRANCH   3   4
ATOM      4  N   UNL A   1      34.355  23.907  26.402  1.00  0.00    -0.354 N 
ATOM      5  C   UNL A   1      33.836  24.523  25.313  1.00  0.00     0.243 C 
ATOM      6  O   UNL A   1      34.086  25.734  25.267  1.00  0.00    -0.273 OA
ATOM      7  H   UNL A   1      35.163  24.337  26.765  1.00  0.00     0.163 HD
BRANCH   5   8
ATOM      8  C   UNL A   1      32.885  23.846  24.270  1.00  0.00     0.184 C 
BRANCH   8   9
ATOM      9  C   UNL A   1      33.331  23.195  22.910  1.00  0.00     0.018 C 
ATOM     10  C   UNL A   1      34.823  23.037  22.684  1.00  0.00     0.010 C 
BRANCH   9  11
ATOM     11  C   UNL A   1      32.559  21.852  22.697  1.00  0.00     0.002 C 
ATOM     12  C   UNL A   1      32.375  20.954  23.914  1.00  0.00     0.004 C 
ENDBRANCH   9  11
ENDBRANCH   8   9
BRANCH   8  13
ATOM     13  N   UNL A   1      31.811  24.843  23.981  1.00  0.00    -0.280 N 
ATOM     14  C   UNL A   1      32.005  25.741  22.943  1.00  0.00     0.266 C 
ATOM     15  C   UNL A   1      30.691  25.084  24.772  1.00  0.00     0.149 C 
ATOM     16  O   UNL A   1      32.921  25.746  22.140  1.00  0.00    -0.268 OA
ATOM     17  C   UNL A   1      30.998  26.828  23.056  1.00  0.00     0.081 C 
ATOM     18  S   UNL A   1      29.661  26.268  23.962  1.00  0.00    -0.054 SA
ATOM     19  S   UNL A   1      30.308  24.506  26.295  1.00  0.00    -0.052 S 
ATOM     20  C   UNL A   1      31.306  28.083  22.707  1.00  0.00     0.033 C 
BRANCH  20  21
ATOM     21  C   UNL A   1      30.485  29.283  22.920  1.00  0.00     0.018 A 
ATOM     22  C   UNL A   1      29.696  29.653  21.814  1.00  0.00     0.012 A 
ATOM     23  C   UNL A   1      30.416  30.060  24.091  1.00  0.00     0.126 A 
ATOM     24  C   UNL A   1      28.829  30.744  21.874  1.00  0.00     0.001 A 
ATOM     25  C   UNL A   1      29.525  31.145  24.142  1.00  0.00     0.047 A 
ATOM     26  C   UNL A   1      28.740  31.489  23.042  1.00  0.00     0.004 A 
BRANCH  23  27
ATOM     27  O   UNL A   1      31.065  29.857  25.278  1.00  0.00    -0.496 OA
ATOM     28  C   UNL A   1      32.485  29.850  25.275  1.00  0.00     0.278 C 
ENDBRANCH  23  27
ENDBRANCH  20  21
ENDBRANCH   8  13
ENDBRANCH   5   8
ENDBRANCH   3   4
ENDBRANCH   2   3
ENDBRANCH   1   2
BRANCH   1  29
ATOM     29  C   UNL A   1      36.290  20.731  24.775  1.00  0.00     0.002 C 
BRANCH  29  30
ATOM     30  C   UNL A   1      37.440  19.745  24.979  1.00  0.00     0.021 C 
BRANCH  30  31
ATOM     31  C   UNL A   1      38.705  20.345  25.585  1.00  0.00     0.116 C 
BRANCH  31  32
ATOM     32  N   UNL A   1      39.776  19.371  25.707  1.00  0.00    -0.352 N 
ATOM     33  C   UNL A   1      41.081  19.568  26.083  1.00  0.00     0.251 C 
ATOM     34  H   UNL A   1      39.533  18.442  25.490  1.00  0.00     0.163 HD
ATOM     35  O   UNL A   1      41.907  18.670  25.963  1.00  0.00    -0.269 OA
BRANCH  33  36
ATOM     36  C   UNL A   1      41.492  20.882  26.618  1.00  0.00     0.039 A 
ATOM     37  C   UNL A   1      42.020  21.832  25.741  1.00  0.00     0.014 A 
ATOM     38  C   UNL A   1      41.355  21.172  27.979  1.00  0.00     0.014 A 
ATOM     39  C   UNL A   1      42.364  23.097  26.221  1.00  0.00     0.010 A 
ATOM     40  C   UNL A   1      41.637  22.454  28.443  1.00  0.00     0.010 A 
ATOM     41  C   UNL A   1      42.149  23.426  27.570  1.00  0.00    -0.014 A 
BRANCH  41  42
ATOM     42  C   UNL A   1      42.469  24.779  28.089  1.00  0.00     0.031 A 
ATOM     43  C   UNL A   1      43.872  25.113  28.512  1.00  0.00     0.074 A 
ATOM     44  C   UNL A   1      41.485  25.689  28.231  1.00  0.00     0.049 A 
ATOM     45  N   UNL A   1      44.334  26.219  29.039  1.00  0.00    -0.248 NA
ATOM     46  C   UNL A   1      44.885  24.058  28.342  1.00  0.00     0.031 C 
ATOM     47  C   UNL A   1      40.076  25.477  27.889  1.00  0.00     0.029 A 
ATOM     48  N   UNL A   1      41.521  26.976  28.705  1.00  0.00    -0.354 N 
ATOM     49  C   UNL A   1      45.682  25.987  29.276  1.00  0.00     0.074 A 
ATOM     50  C   UNL A   1      45.955  24.622  28.882  1.00  0.00     0.031 C 
ATOM     51  C   UNL A   1      39.390  26.603  28.141  1.00  0.00     0.029 A 
ATOM     52  C   UNL A   1      40.299  27.601  28.697  1.00  0.00     0.049 A 
ATOM     53  H   UNL A   1      42.346  27.409  29.024  1.00  0.00     0.167 HD
ATOM     54  C   UNL A   1      46.616  26.839  29.761  1.00  0.00     0.031 A 
ATOM     55  C   UNL A   1      39.948  28.838  29.093  1.00  0.00     0.031 A 
ATOM     56  C   UNL A   1      46.351  28.200  30.141  1.00  0.00     0.049 A 
ATOM     57  C   UNL A   1      41.002  29.761  29.639  1.00  0.00     0.074 A 
ATOM     58  C   UNL A   1      47.241  29.158  30.596  1.00  0.00     0.029 A 
ATOM     59  N   UNL A   1      45.101  28.797  30.110  1.00  0.00    -0.354 N 
ATOM     60  N   UNL A   1      42.285  29.546  29.803  1.00  0.00    -0.248 NA
ATOM     61  C   UNL A   1      40.560  31.102  30.046  1.00  0.00     0.031 C 
ATOM     62  C   UNL A   1      46.520  30.323  30.881  1.00  0.00     0.029 A 
ATOM     63  C   UNL A   1      45.191  30.105  30.556  1.00  0.00     0.049 A 
ATOM     64  H   UNL A   1      44.272  28.356  29.814  1.00  0.00     0.167 HD
ATOM     65  C   UNL A   1      42.807  30.731  30.302  1.00  0.00     0.074 A 
ATOM     66  C   UNL A   1      41.705  31.666  30.403  1.00  0.00     0.031 C 
ATOM     67  C   UNL A   1      44.085  31.020  30.647  1.00  0.00     0.031 A 
BRANCH  54  68
ATOM     68  C   UNL A   1      48.018  26.316  29.912  1.00  0.00    -0.014 A 
ATOM     69  C   UNL A   1      48.937  26.388  28.852  1.00  0.00     0.009 A 
ATOM     70  C   UNL A   1      48.436  25.775  31.137  1.00  0.00     0.009 A 
ATOM     71  C   UNL A   1      50.235  25.897  29.007  1.00  0.00     0.001 A 
ATOM     72  C   UNL A   1      49.742  25.311  31.298  1.00  0.00     0.001 A 
ATOM     73  C   UNL A   1      50.638  25.364  30.231  1.00  0.00     0.000 A 
ENDBRANCH  54  68
BRANCH  55  74
ATOM     74  C   UNL A   1      38.537  29.288  28.975  1.00  0.00    -0.014 A 
ATOM     75  C   UNL A   1      37.669  29.203  30.075  1.00  0.00     0.009 A 
ATOM     76  C   UNL A   1      38.046  29.793  27.762  1.00  0.00     0.009 A 
ATOM     77  C   UNL A   1      36.333  29.590  29.954  1.00  0.00     0.001 A 
ATOM     78  C   UNL A   1      36.717  30.206  27.652  1.00  0.00     0.001 A 
ATOM     79  C   UNL A   1      35.859  30.094  28.745  1.00  0.00     0.000 A 
ENDBRANCH  55  74
BRANCH  67  80
ATOM     80  C   UNL A   1      44.366  32.415  31.131  1.00  0.00    -0.014 A 
ATOM     81  C   UNL A   1      44.695  33.444  30.236  1.00  0.00     0.009 A 
ATOM     82  C   UNL A   1      44.259  32.708  32.499  1.00  0.00     0.009 A 
ATOM     83  C   UNL A   1      44.943  34.734  30.708  1.00  0.00     0.001 A 
ATOM     84  C   UNL A   1      44.481  34.005  32.964  1.00  0.00     0.001 A 
ATOM     85  C   UNL A   1      44.832  35.015  32.069  1.00  0.00     0.000 A 
ENDBRANCH  67  80
ENDBRANCH  41  42
ENDBRANCH  33  36
ENDBRANCH  31  32
ENDBRANCH  30  31
ENDBRANCH  29  30
ENDBRANCH   1  29
TORSDOF 18
ENDMDL
MODEL 2
REMARK VINA RESULT:     -10.7      3.276      8.926
REMARK SMILES CC[C@H](C)[C@@H](C(=O)NCCCCCCNC(=O)c1ccc(-c2c3nc(c(-c4ccccc4)c4ccc([nH]4)c(-c4ccccc4)c4nc(c(-c5ccccc5)c5ccc2[nH]5)C=C4)C=C3)cc1)N1C(=O)/C(=C/c2ccccc2OC)SC1=S
REMARK SMILES IDX 11 1 10 2 9 3 8 4 6 5 7 6 5 8 3 9 4 10 2 11 1 12 66 13 67 14
REMARK SMILES IDX 80 15 68 16 69 17 79 18 81 19 70 20 71 21 72 22 76 23 73 24
REMARK SMILES IDX 75 25 74 26 77 27 78 28 12 29 13 30 14 31 15 32 16 33 17 35
REMARK SMILES IDX 18 36 19 37 65 38 20 39 64 40 21 41 22 42 23 43 58 44 24 45
REMARK SMILES IDX 63 46 57 47 59 48 25 49 62 50 56 51 55 52 26 54 48 55 33 56
REMARK SMILES IDX 47 57 34 58 37 59 46 60 60 61 35 62 36 63 45 65 61 66 38 67
REMARK SMILES IDX 27 68 28 69 32 70 29 71 31 72 30 73 49 74 50 75 54 76 51 77
REMARK SMILES IDX 53 78 52 79 39 80 40 81 44 82 41 83 43 84 42 85
REMARK H PARENT 8 7 15 34 59 53 37 64
REMARK Flexibility Score: inf
ROOT
ATOM      1  C   UNL A   1      34.553  30.250  28.038  1.00  0.00     0.002 C 
ENDROOT
BRANCH   1   2
ATOM      2  C   UNL A   1      34.552  29.243  26.881  1.00  0.00     0.021 C 
BRANCH   2   3
ATOM      3  C   UNL A   1      33.436  29.440  25.854  1.00  0.00     0.116 C 
BRANCH   3   4
ATOM      4  N   UNL A   1      33.936  29.328  24.504  1.00  0.00    -0.354 N 
ATOM      5  C   UNL A   1      33.408  28.752  23.397  1.00  0.00     0.243 C 
ATOM      6  O   UNL A   1      33.798  29.267  22.341  1.00  0.00    -0.273 OA
ATOM      7  H   UNL A   1      34.817  29.743  24.363  1.00  0.00     0.163 HD
BRANCH   5   8
ATOM      8  C   UNL A   1      32.299  27.648  23.405  1.00  0.00     0.184 C 
BRANCH   8   9
ATOM      9  C   UNL A   1      30.855  27.803  24.009  1.00  0.00     0.018 C 
ATOM     10  C   UNL A   1      30.220  29.178  23.918  1.00  0.00     0.010 C 
BRANCH   9  11
ATOM     11  C   UNL A   1      29.925  26.688  23.430  1.00  0.00     0.002 C 
ATOM     12  C   UNL A   1      28.468  26.693  23.876  1.00  0.00     0.004 C 
ENDBRANCH   9  11
ENDBRANCH   8   9
BRANCH   8  13
ATOM     13  N   UNL A   1      32.928  26.433  24.005  1.00  0.00    -0.280 N 
ATOM     14  C   UNL A   1      33.590  25.549  23.166  1.00  0.00     0.266 C 
ATOM     15  C   UNL A   1      32.766  25.997  25.317  1.00  0.00     0.149 C 
ATOM     16  O   UNL A   1      33.827  25.701  21.982  1.00  0.00    -0.268 OA
ATOM     17  C   UNL A   1      33.828  24.280  23.902  1.00  0.00     0.081 C 
ATOM     18  S   UNL A   1      33.793  24.585  25.584  1.00  0.00    -0.054 SA
ATOM     19  S   UNL A   1      31.734  26.551  26.512  1.00  0.00    -0.052 S 
ATOM     20  C   UNL A   1      33.790  23.104  23.263  1.00  0.00     0.033 C 
BRANCH  20  21
ATOM     21  C   UNL A   1      33.834  21.769  23.875  1.00  0.00     0.018 A 
ATOM     22  C   UNL A   1      32.635  21.038  23.766  1.00  0.00     0.012 A 
ATOM     23  C   UNL A   1      34.930  21.176  24.529  1.00  0.00     0.126 A 
ATOM     24  C   UNL A   1      32.530  19.737  24.257  1.00  0.00     0.001 A 
ATOM     25  C   UNL A   1      34.815  19.859  25.002  1.00  0.00     0.047 A 
ATOM     26  C   UNL A   1      33.625  19.144  24.873  1.00  0.00     0.004 A 
BRANCH  23  27
ATOM     27  O   UNL A   1      36.184  21.693  24.710  1.00  0.00    -0.496 OA
ATOM     28  C   UNL A   1      37.245  20.794  25.002  1.00  0.00     0.278 C 
ENDBRANCH  23  27
ENDBRANCH  20  21
ENDBRANCH   8  13
ENDBRANCH   5   8
ENDBRANCH   3   4
ENDBRANCH   2   3
ENDBRANCH   1   2
BRANCH   1  29
ATOM     29  C   UNL A   1      34.608  31.721  27.624  1.00  0.00     0.002 C 
BRANCH  29  30
ATOM     30  C   UNL A   1      33.378  32.546  28.002  1.00  0.00     0.021 C 
BRANCH  30  31
ATOM     31  C   UNL A   1      33.586  34.058  27.988  1.00  0.00     0.116 C 
BRANCH  31  32
ATOM     32  N   UNL A   1      33.176  34.684  29.232  1.00  0.00    -0.352 N 
ATOM     33  C   UNL A   1      33.654  34.473  30.501  1.00  0.00     0.251 C 
ATOM     34  H   UNL A   1      32.456  35.351  29.156  1.00  0.00     0.163 HD
ATOM     35  O   UNL A   1      33.077  34.952  31.473  1.00  0.00    -0.269 OA
BRANCH  33  36
ATOM     36  C   UNL A   1      34.862  33.647  30.694  1.00  0.00     0.039 A 
ATOM     37  C   UNL A   1      36.069  34.075  30.135  1.00  0.00     0.014 A 
ATOM     38  C   UNL A   1      34.803  32.456  31.424  1.00  0.00     0.014 A 
ATOM     39  C   UNL A   1      37.230  33.333  30.352  1.00  0.00     0.010 A 
ATOM     40  C   UNL A   1      35.973  31.753  31.694  1.00  0.00     0.010 A 
ATOM     41  C   UNL A   1      37.197  32.182  31.156  1.00  0.00    -0.014 A 
BRANCH  41  42
ATOM     42  C   UNL A   1      38.430  31.405  31.433  1.00  0.00     0.031 A 
ATOM     43  C   UNL A   1      39.335  31.805  32.565  1.00  0.00     0.074 A 
ATOM     44  C   UNL A   1      38.763  30.372  30.633  1.00  0.00     0.049 A 
ATOM     45  N   UNL A   1      40.481  31.285  32.929  1.00  0.00    -0.248 NA
ATOM     46  C   UNL A   1      38.910  32.955  33.380  1.00  0.00     0.031 C 
ATOM     47  C   UNL A   1      37.986  29.905  29.483  1.00  0.00     0.029 A 
ATOM     48  N   UNL A   1      39.847  29.532  30.666  1.00  0.00    -0.354 N 
ATOM     49  C   UNL A   1      40.917  32.052  34.001  1.00  0.00     0.074 A 
ATOM     50  C   UNL A   1      39.941  33.100  34.199  1.00  0.00     0.031 C 
ATOM     51  C   UNL A   1      38.606  28.847  28.936  1.00  0.00     0.029 A 
ATOM     52  C   UNL A   1      39.839  28.585  29.671  1.00  0.00     0.049 A 
ATOM     53  H   UNL A   1      40.563  29.601  31.338  1.00  0.00     0.167 HD
ATOM     54  C   UNL A   1      42.023  31.887  34.766  1.00  0.00     0.031 A 
ATOM     55  C   UNL A   1      40.727  27.616  29.382  1.00  0.00     0.031 A 
ATOM     56  C   UNL A   1      42.988  30.838  34.580  1.00  0.00     0.049 A 
ATOM     57  C   UNL A   1      41.952  27.462  30.240  1.00  0.00     0.074 A 
ATOM     58  C   UNL A   1      44.114  30.557  35.334  1.00  0.00     0.029 A 
ATOM     59  N   UNL A   1      42.939  29.895  33.565  1.00  0.00    -0.354 N 
ATOM     60  N   UNL A   1      42.321  28.159  31.287  1.00  0.00    -0.248 NA
ATOM     61  C   UNL A   1      42.879  26.379  29.881  1.00  0.00     0.031 C 
ATOM     62  C   UNL A   1      44.771  29.469  34.748  1.00  0.00     0.029 A 
ATOM     63  C   UNL A   1      44.026  29.043  33.661  1.00  0.00     0.049 A 
ATOM     64  H   UNL A   1      42.236  29.839  32.879  1.00  0.00     0.167 HD
ATOM     65  C   UNL A   1      43.504  27.582  31.729  1.00  0.00     0.074 A 
ATOM     66  C   UNL A   1      43.785  26.470  30.844  1.00  0.00     0.031 C 
ATOM     67  C   UNL A   1      44.288  27.941  32.774  1.00  0.00     0.031 A 
BRANCH  54  68
ATOM     68  C   UNL A   1      42.247  32.875  35.877  1.00  0.00    -0.014 A 
ATOM     69  C   UNL A   1      41.746  32.640  37.168  1.00  0.00     0.009 A 
ATOM     70  C   UNL A   1      42.997  34.037  35.641  1.00  0.00     0.009 A 
ATOM     71  C   UNL A   1      41.962  33.568  38.190  1.00  0.00     0.001 A 
ATOM     72  C   UNL A   1      43.236  34.948  36.671  1.00  0.00     0.001 A 
ATOM     73  C   UNL A   1      42.711  34.717  37.942  1.00  0.00     0.000 A 
ENDBRANCH  54  68
BRANCH  55  74
ATOM     74  C   UNL A   1      40.486  26.700  28.238  1.00  0.00    -0.014 A 
ATOM     75  C   UNL A   1      39.649  25.582  28.386  1.00  0.00     0.009 A 
ATOM     76  C   UNL A   1      41.098  26.929  26.996  1.00  0.00     0.009 A 
ATOM     77  C   UNL A   1      39.452  24.700  27.322  1.00  0.00     0.001 A 
ATOM     78  C   UNL A   1      40.877  26.060  25.926  1.00  0.00     0.001 A 
ATOM     79  C   UNL A   1      40.063  24.940  26.093  1.00  0.00     0.000 A 
ENDBRANCH  55  74
BRANCH  67  80
ATOM     80  C   UNL A   1      45.505  27.100  33.038  1.00  0.00    -0.014 A 
ATOM     81  C   UNL A   1      46.751  27.427  32.482  1.00  0.00     0.009 A 
ATOM     82  C   UNL A   1      45.408  25.988  33.888  1.00  0.00     0.009 A 
ATOM     83  C   UNL A   1      47.870  26.635  32.748  1.00  0.00     0.001 A 
ATOM     84  C   UNL A   1      46.534  25.215  34.174  1.00  0.00     0.001 A 
ATOM     85  C   UNL A   1      47.762  25.534  33.596  1.00  0.00     0.000 A 
ENDBRANCH  67  80
ENDBRANCH  41  42
ENDBRANCH  33  36
ENDBRANCH  31  32
ENDBRANCH  30  31
ENDBRANCH  29  30
ENDBRANCH   1  29
TORSDOF 18
ENDMDL
MODEL 3
REMARK VINA RESULT:     -10.5      3.124      8.975
REMARK SMILES CC[C@H](C)[C@@H](C(=O)NCCCCCCNC(=O)c1ccc(-c2c3nc(c(-c4ccccc4)c4ccc([nH]4)c(-c4ccccc4)c4nc(c(-c5ccccc5)c5ccc2[nH]5)C=C4)C=C3)cc1)N1C(=O)/C(=C/c2ccccc2OC)SC1=S
REMARK SMILES IDX 11 1 10 2 9 3 8 4 6 5 7 6 5 8 3 9 4 10 2 11 1 12 66 13 67 14
REMARK SMILES IDX 80 15 68 16 69 17 79 18 81 19 70 20 71 21 72 22 76 23 73 24
REMARK SMILES IDX 75 25 74 26 77 27 78 28 12 29 13 30 14 31 15 32 16 33 17 35
REMARK SMILES IDX 18 36 19 37 65 38 20 39 64 40 21 41 22 42 23 43 58 44 24 45
REMARK SMILES IDX 63 46 57 47 59 48 25 49 62 50 56 51 55 52 26 54 48 55 33 56
REMARK SMILES IDX 47 57 34 58 37 59 46 60 60 61 35 62 36 63 45 65 61 66 38 67
REMARK SMILES IDX 27 68 28 69 32 70 29 71 31 72 30 73 49 74 50 75 54 76 51 77
REMARK SMILES IDX 53 78 52 79 39 80 40 81 44 82 41 83 43 84 42 85
REMARK H PARENT 8 7 15 34 59 53 37 64
REMARK Flexibility Score: inf
ROOT
ATOM      1  C   UNL A   1      34.830  30.103  27.302  1.00  0.00     0.002 C 
ENDROOT
BRANCH   1   2
ATOM      2  C   UNL A   1      33.367  29.710  27.065  1.00  0.00     0.021 C 
BRANCH   2   3
ATOM      3  C   UNL A   1      32.856  29.949  25.643  1.00  0.00     0.116 C 
BRANCH   3   4
ATOM      4  N   UNL A   1      33.725  29.342  24.662  1.00  0.00    -0.354 N 
ATOM      5  C   UNL A   1      33.453  28.598  23.563  1.00  0.00     0.243 C 
ATOM      6  O   UNL A   1      34.321  28.685  22.684  1.00  0.00    -0.273 OA
ATOM      7  H   UNL A   1      34.684  29.497  24.820  1.00  0.00     0.163 HD
BRANCH   5   8
ATOM      8  C   UNL A   1      32.121  27.812  23.320  1.00  0.00     0.184 C 
BRANCH   8   9
ATOM      9  C   UNL A   1      30.753  28.080  24.049  1.00  0.00     0.018 C 
ATOM     10  C   UNL A   1      30.044  29.378  23.716  1.00  0.00     0.010 C 
BRANCH   9  11
ATOM     11  C   UNL A   1      29.819  26.839  23.875  1.00  0.00     0.002 C 
ATOM     12  C   UNL A   1      28.325  27.104  23.744  1.00  0.00     0.004 C 
ENDBRANCH   9  11
ENDBRANCH   8   9
BRANCH   8  13
ATOM     13  N   UNL A   1      32.460  26.365  23.477  1.00  0.00    -0.280 N 
ATOM     14  C   UNL A   1      32.860  25.912  24.724  1.00  0.00     0.266 C 
ATOM     15  C   UNL A   1      32.586  25.444  22.442  1.00  0.00     0.149 C 
ATOM     16  O   UNL A   1      32.863  26.542  25.767  1.00  0.00    -0.268 OA
ATOM     17  C   UNL A   1      33.462  24.562  24.571  1.00  0.00     0.081 C 
ATOM     18  S   UNL A   1      32.884  23.845  23.130  1.00  0.00    -0.054 SA
ATOM     19  S   UNL A   1      32.584  25.682  20.786  1.00  0.00    -0.052 S 
ATOM     20  C   UNL A   1      34.485  24.179  25.345  1.00  0.00     0.033 C 
BRANCH  20  21
ATOM     21  C   UNL A   1      35.288  22.957  25.201  1.00  0.00     0.018 A 
ATOM     22  C   UNL A   1      36.613  23.177  24.777  1.00  0.00     0.012 A 
ATOM     23  C   UNL A   1      34.868  21.637  25.446  1.00  0.00     0.126 A 
ATOM     24  C   UNL A   1      37.515  22.123  24.635  1.00  0.00     0.001 A 
ATOM     25  C   UNL A   1      35.791  20.587  25.317  1.00  0.00     0.047 A 
ATOM     26  C   UNL A   1      37.104  20.825  24.910  1.00  0.00     0.004 A 
BRANCH  23  27
ATOM     27  O   UNL A   1      33.647  21.210  25.894  1.00  0.00    -0.496 OA
ATOM     28  C   UNL A   1      32.800  20.522  24.984  1.00  0.00     0.278 C 
ENDBRANCH  23  27
ENDBRANCH  20  21
ENDBRANCH   8  13
ENDBRANCH   5   8
ENDBRANCH   3   4
ENDBRANCH   2   3
ENDBRANCH   1   2
BRANCH   1  29
ATOM     29  C   UNL A   1      35.043  31.482  27.927  1.00  0.00     0.002 C 
BRANCH  29  30
ATOM     30  C   UNL A   1      33.763  32.267  28.216  1.00  0.00     0.021 C 
BRANCH  30  31
ATOM     31  C   UNL A   1      33.920  33.785  28.206  1.00  0.00     0.116 C 
BRANCH  31  32
ATOM     32  N   UNL A   1      33.525  34.390  29.466  1.00  0.00    -0.352 N 
ATOM     33  C   UNL A   1      34.055  34.197  30.718  1.00  0.00     0.251 C 
ATOM     34  H   UNL A   1      32.774  35.024  29.416  1.00  0.00     0.163 HD
ATOM     35  O   UNL A   1      33.491  34.648  31.709  1.00  0.00    -0.269 OA
BRANCH  33  36
ATOM     36  C   UNL A   1      35.304  33.425  30.867  1.00  0.00     0.039 A 
ATOM     37  C   UNL A   1      36.468  33.900  30.258  1.00  0.00     0.014 A 
ATOM     38  C   UNL A   1      35.325  32.238  31.605  1.00  0.00     0.014 A 
ATOM     39  C   UNL A   1      37.668  33.210  30.432  1.00  0.00     0.010 A 
ATOM     40  C   UNL A   1      36.535  31.587  31.832  1.00  0.00     0.010 A 
ATOM     41  C   UNL A   1      37.716  32.064  31.243  1.00  0.00    -0.014 A 
BRANCH  41  42
ATOM     42  C   UNL A   1      38.992  31.342  31.475  1.00  0.00     0.031 A 
ATOM     43  C   UNL A   1      39.351  30.155  30.627  1.00  0.00     0.074 A 
ATOM     44  C   UNL A   1      39.800  31.722  32.485  1.00  0.00     0.049 A 
ATOM     45  N   UNL A   1      40.392  29.364  30.712  1.00  0.00    -0.248 NA
ATOM     46  C   UNL A   1      38.407  29.793  29.557  1.00  0.00     0.031 C 
ATOM     47  C   UNL A   1      39.547  32.837  33.401  1.00  0.00     0.029 A 
ATOM     48  N   UNL A   1      40.997  31.206  32.911  1.00  0.00    -0.354 N 
ATOM     49  C   UNL A   1      40.218  28.407  29.721  1.00  0.00     0.074 A 
ATOM     50  C   UNL A   1      38.953  28.685  29.079  1.00  0.00     0.031 C 
ATOM     51  C   UNL A   1      40.571  32.935  34.264  1.00  0.00     0.029 A 
ATOM     52  C   UNL A   1      41.531  31.871  33.988  1.00  0.00     0.049 A 
ATOM     53  H   UNL A   1      41.432  30.431  32.487  1.00  0.00     0.167 HD
ATOM     54  C   UNL A   1      41.048  27.398  29.363  1.00  0.00     0.031 A 
ATOM     55  C   UNL A   1      42.665  31.647  34.677  1.00  0.00     0.031 A 
ATOM     56  C   UNL A   1      42.312  27.128  29.991  1.00  0.00     0.049 A 
ATOM     57  C   UNL A   1      43.563  30.513  34.267  1.00  0.00     0.074 A 
ATOM     58  C   UNL A   1      43.248  26.160  29.667  1.00  0.00     0.029 A 
ATOM     59  N   UNL A   1      42.820  27.830  31.073  1.00  0.00    -0.354 N 
ATOM     60  N   UNL A   1      43.413  29.653  33.289  1.00  0.00    -0.248 NA
ATOM     61  C   UNL A   1      44.792  30.326  35.050  1.00  0.00     0.031 C 
ATOM     62  C   UNL A   1      44.302  26.249  30.582  1.00  0.00     0.029 A 
ATOM     63  C   UNL A   1      44.047  27.304  31.443  1.00  0.00     0.049 A 
ATOM     64  H   UNL A   1      42.375  28.589  31.513  1.00  0.00     0.167 HD
ATOM     65  C   UNL A   1      44.540  28.843  33.321  1.00  0.00     0.074 A 
ATOM     66  C   UNL A   1      45.371  29.322  34.407  1.00  0.00     0.031 C 
ATOM     67  C   UNL A   1      44.860  27.795  32.523  1.00  0.00     0.031 A 
BRANCH  54  68
ATOM     68  C   UNL A   1      40.605  26.506  28.237  1.00  0.00    -0.014 A 
ATOM     69  C   UNL A   1      41.087  26.691  26.931  1.00  0.00     0.009 A 
ATOM     70  C   UNL A   1      39.721  25.446  28.490  1.00  0.00     0.009 A 
ATOM     71  C   UNL A   1      40.666  25.854  25.895  1.00  0.00     0.001 A 
ATOM     72  C   UNL A   1      39.323  24.593  27.459  1.00  0.00     0.001 A 
ATOM     73  C   UNL A   1      39.788  24.804  26.161  1.00  0.00     0.000 A 
ENDBRANCH  54  68
BRANCH  55  74
ATOM     74  C   UNL A   1      43.031  32.526  35.818  1.00  0.00    -0.014 A 
ATOM     75  C   UNL A   1      42.605  32.215  37.119  1.00  0.00     0.009 A 
ATOM     76  C   UNL A   1      43.796  33.684  35.613  1.00  0.00     0.009 A 
ATOM     77  C   UNL A   1      42.916  33.060  38.186  1.00  0.00     0.001 A 
ATOM     78  C   UNL A   1      44.129  34.512  36.687  1.00  0.00     0.001 A 
ATOM     79  C   UNL A   1      43.679  34.205  37.971  1.00  0.00     0.000 A 
ENDBRANCH  55  74
BRANCH  67  80
ATOM     80  C   UNL A   1      46.179  27.121  32.773  1.00  0.00    -0.014 A 
ATOM     81  C   UNL A   1      47.356  27.572  32.158  1.00  0.00     0.009 A 
ATOM     82  C   UNL A   1      46.247  26.043  33.669  1.00  0.00     0.009 A 
ATOM     83  C   UNL A   1      48.571  26.934  32.411  1.00  0.00     0.001 A 
ATOM     84  C   UNL A   1      47.468  25.425  33.942  1.00  0.00     0.001 A 
ATOM     85  C   UNL A   1      48.628  25.865  33.305  1.00  0.00     0.000 A 
ENDBRANCH  67  80
ENDBRANCH  41  42
ENDBRANCH  33  36
ENDBRANCH  31  32
ENDBRANCH  30  31
ENDBRANCH  29  30
ENDBRANCH   1  29
TORSDOF 18
ENDMDL
