MODEL 1
REMARK VINA RESULT:     -11.6      0.000      0.000
REMARK SMILES O=C(NCCCCCCNC(=O)[C@@H]1C[N@@H+](CC(=O)c2ccc[nH]2)CC[NH2+]1)c1ccc(-c2c3nc(c(-c4ccccc4)c4ccc([nH]4)c(-c4ccccc4)c4nc(c(-c5ccccc5)c5ccc2[nH]5)C=C4)C=C3)cc1
REMARK SMILES IDX 7 1 6 2 5 3 4 4 3 5 1 6 2 7 27 9 28 10 74 11 29 12 73 13
REMARK SMILES IDX 30 14 31 15 32 16 67 17 33 18 72 19 66 20 68 21 34 22 71 23
REMARK SMILES IDX 65 24 64 25 35 27 57 28 42 29 56 30 43 31 46 32 55 33 69 34
REMARK SMILES IDX 44 35 45 36 54 38 70 39 47 40 36 41 37 42 41 43 38 44 40 45
REMARK SMILES IDX 39 46 58 47 59 48 63 49 60 50 62 51 61 52 48 53 49 54 53 55
REMARK SMILES IDX 50 56 52 57 51 58 8 59 9 60 10 61 11 62 12 64 13 65 14 66
REMARK SMILES IDX 26 67 15 68 25 69 24 72 16 74 17 75 18 76 19 77 20 78 23 79
REMARK SMILES IDX 21 80 22 81
REMARK H PARENT 3 8 68 26 46 37 10 63 26 70 26 71 15 73 23 82
REMARK Flexibility Score: inf
ROOT
ATOM      1  C   UNL A   1      32.255  27.858  25.866  1.00  0.00     0.002 C 
ENDROOT
BRANCH   1   2
ATOM      2  C   UNL A   1      33.524  28.718  25.798  1.00  0.00     0.002 C 
BRANCH   2   3
ATOM      3  C   UNL A   1      33.706  29.681  26.973  1.00  0.00     0.021 C 
BRANCH   3   4
ATOM      4  C   UNL A   1      34.960  29.403  27.793  1.00  0.00     0.116 C 
BRANCH   4   5
ATOM      5  N   UNL A   1      35.226  30.414  28.794  1.00  0.00    -0.352 N 
ATOM      6  O   UNL A   1      36.360  31.624  30.308  1.00  0.00    -0.269 OA
ATOM      7  C   UNL A   1      36.386  30.745  29.447  1.00  0.00     0.251 C 
ATOM      8  H   UNL A   1      34.444  30.954  29.050  1.00  0.00     0.163 HD
BRANCH   7   9
ATOM      9  C   UNL A   1      37.655  30.021  29.192  1.00  0.00     0.039 A 
ATOM     10  C   UNL A   1      38.348  29.340  30.196  1.00  0.00     0.014 A 
ATOM     11  C   UNL A   1      38.146  30.005  27.877  1.00  0.00     0.014 A 
ATOM     12  C   UNL A   1      39.556  28.721  29.913  1.00  0.00     0.010 A 
ATOM     13  C   UNL A   1      39.329  29.331  27.571  1.00  0.00     0.010 A 
ATOM     14  C   UNL A   1      40.026  28.678  28.595  1.00  0.00    -0.014 A 
BRANCH  14  15
ATOM     15  C   UNL A   1      41.062  27.660  28.310  1.00  0.00     0.031 A 
ATOM     16  C   UNL A   1      42.453  28.317  28.170  1.00  0.00     0.074 A 
ATOM     17  C   UNL A   1      40.653  26.374  28.100  1.00  0.00     0.049 A 
ATOM     18  N   UNL A   1      43.494  27.929  27.501  1.00  0.00    -0.248 NA
ATOM     19  C   UNL A   1      42.698  29.637  28.821  1.00  0.00     0.031 C 
ATOM     20  C   UNL A   1      39.273  25.882  28.309  1.00  0.00     0.029 A 
ATOM     21  N   UNL A   1      41.288  25.230  27.660  1.00  0.00    -0.354 N 
ATOM     22  C   UNL A   1      44.537  28.848  27.759  1.00  0.00     0.074 A 
ATOM     23  C   UNL A   1      43.963  29.921  28.508  1.00  0.00     0.031 C 
ATOM     24  C   UNL A   1      39.160  24.589  27.930  1.00  0.00     0.029 A 
ATOM     25  C   UNL A   1      40.442  24.112  27.444  1.00  0.00     0.049 A 
ATOM     26  H   UNL A   1      42.260  25.193  27.507  1.00  0.00     0.167 HD
ATOM     27  C   UNL A   1      45.842  28.625  27.428  1.00  0.00     0.031 A 
ATOM     28  C   UNL A   1      40.736  22.903  26.871  1.00  0.00     0.031 A 
ATOM     29  C   UNL A   1      45.967  27.434  26.664  1.00  0.00     0.049 A 
ATOM     30  C   UNL A   1      42.185  22.908  26.631  1.00  0.00     0.074 A 
ATOM     31  C   UNL A   1      45.646  27.124  25.370  1.00  0.00     0.029 A 
ATOM     32  N   UNL A   1      46.178  26.275  27.365  1.00  0.00    -0.354 N 
ATOM     33  N   UNL A   1      43.088  22.767  27.550  1.00  0.00    -0.248 NA
ATOM     34  C   UNL A   1      42.680  23.117  25.264  1.00  0.00     0.031 C 
ATOM     35  C   UNL A   1      45.199  25.788  25.453  1.00  0.00     0.029 A 
ATOM     36  C   UNL A   1      45.436  25.302  26.743  1.00  0.00     0.049 A 
ATOM     37  H   UNL A   1      46.750  26.162  28.159  1.00  0.00     0.167 HD
ATOM     38  C   UNL A   1      44.208  23.265  26.934  1.00  0.00     0.074 A 
ATOM     39  C   UNL A   1      43.988  23.131  25.511  1.00  0.00     0.031 C 
ATOM     40  C   UNL A   1      44.943  24.218  27.558  1.00  0.00     0.031 A 
BRANCH  27  41
ATOM     41  C   UNL A   1      47.107  29.279  27.909  1.00  0.00    -0.014 A 
ATOM     42  C   UNL A   1      47.776  30.150  27.014  1.00  0.00     0.009 A 
ATOM     43  C   UNL A   1      47.819  28.846  29.031  1.00  0.00     0.009 A 
ATOM     44  C   UNL A   1      49.122  30.480  27.173  1.00  0.00     0.001 A 
ATOM     45  C   UNL A   1      49.162  29.206  29.211  1.00  0.00     0.001 A 
ATOM     46  C   UNL A   1      49.822  29.992  28.266  1.00  0.00     0.000 A 
ENDBRANCH  27  41
BRANCH  28  47
ATOM     47  C   UNL A   1      40.015  21.667  26.390  1.00  0.00    -0.014 A 
ATOM     48  C   UNL A   1      38.766  21.627  25.770  1.00  0.00     0.009 A 
ATOM     49  C   UNL A   1      40.669  20.407  26.517  1.00  0.00     0.009 A 
ATOM     50  C   UNL A   1      38.254  20.421  25.238  1.00  0.00     0.001 A 
ATOM     51  C   UNL A   1      40.191  19.220  25.955  1.00  0.00     0.001 A 
ATOM     52  C   UNL A   1      38.978  19.231  25.298  1.00  0.00     0.000 A 
ENDBRANCH  28  47
BRANCH  40  53
ATOM     53  C   UNL A   1      44.766  24.272  29.069  1.00  0.00    -0.014 A 
ATOM     54  C   UNL A   1      44.338  23.135  29.769  1.00  0.00     0.009 A 
ATOM     55  C   UNL A   1      44.891  25.466  29.804  1.00  0.00     0.009 A 
ATOM     56  C   UNL A   1      44.030  23.193  31.137  1.00  0.00     0.001 A 
ATOM     57  C   UNL A   1      44.588  25.530  31.171  1.00  0.00     0.001 A 
ATOM     58  C   UNL A   1      44.152  24.390  31.838  1.00  0.00     0.000 A 
ENDBRANCH  40  53
ENDBRANCH  14  15
ENDBRANCH   7   9
ENDBRANCH   4   5
ENDBRANCH   3   4
ENDBRANCH   2   3
ENDBRANCH   1   2
BRANCH   1  59
ATOM     59  C   UNL A   1      32.446  26.393  25.450  1.00  0.00     0.021 C 
BRANCH  59  60
ATOM     60  C   UNL A   1      31.226  25.519  25.724  1.00  0.00     0.116 C 
BRANCH  60  61
ATOM     61  N   UNL A   1      31.443  24.637  26.835  1.00  0.00    -0.351 N 
ATOM     62  C   UNL A   1      32.093  23.458  26.923  1.00  0.00     0.284 C 
ATOM     63  H   UNL A   1      31.046  24.946  27.682  1.00  0.00     0.163 HD
ATOM     64  O   UNL A   1      32.138  22.967  28.061  1.00  0.00    -0.268 OA
BRANCH  62  65
ATOM     65  C   UNL A   1      32.748  22.713  25.751  1.00  0.00     0.328 C 
ATOM     66  C   UNL A   1      32.921  21.239  26.188  1.00  0.00     0.339 C 
ATOM     67  N   UNL A   1      34.019  23.237  25.181  1.00  0.00    -0.327 N 
ATOM     68  N   UNL A   1      33.387  20.324  25.138  1.00  0.00    -0.318 N 
ATOM     69  C   UNL A   1      34.359  22.404  24.003  1.00  0.00     0.323 C 
ATOM     70  H   UNL A   1      34.763  23.178  25.876  1.00  0.00     0.347 HD
ATOM     71  H   UNL A   1      33.913  24.215  24.910  1.00  0.00     0.347 HD
ATOM     72  C   UNL A   1      34.491  20.899  24.353  1.00  0.00     0.324 C 
ATOM     73  H   UNL A   1      33.800  19.519  25.611  1.00  0.00     0.348 HD
BRANCH  68  74
ATOM     74  C   UNL A   1      32.301  19.693  24.358  1.00  0.00     0.346 C 
BRANCH  74  75
ATOM     75  C   UNL A   1      32.695  18.505  23.470  1.00  0.00     0.232 C 
ATOM     76  O   UNL A   1      32.400  18.504  22.283  1.00  0.00    -0.286 OA
BRANCH  75  77
ATOM     77  C   UNL A   1      33.366  17.357  24.072  1.00  0.00     0.088 A 
ATOM     78  C   UNL A   1      34.692  17.085  24.357  1.00  0.00     0.031 A 
ATOM     79  N   UNL A   1      32.636  16.293  24.567  1.00  0.00    -0.359 N 
ATOM     80  C   UNL A   1      34.733  15.933  25.185  1.00  0.00     0.020 A 
ATOM     81  C   UNL A   1      33.445  15.466  25.297  1.00  0.00     0.083 A 
ATOM     82  H   UNL A   1      31.674  16.151  24.416  1.00  0.00     0.166 HD
ENDBRANCH  75  77
ENDBRANCH  74  75
ENDBRANCH  68  74
ENDBRANCH  62  65
ENDBRANCH  60  61
ENDBRANCH  59  60
ENDBRANCH   1  59
TORSDOF 16
ENDMDL
MODEL 2
REMARK VINA RESULT:     -11.4      1.813      2.757
REMARK SMILES O=C(NCCCCCCNC(=O)[C@@H]1C[N@@H+](CC(=O)c2ccc[nH]2)CC[NH2+]1)c1ccc(-c2c3nc(c(-c4ccccc4)c4ccc([nH]4)c(-c4ccccc4)c4nc(c(-c5ccccc5)c5ccc2[nH]5)C=C4)C=C3)cc1
REMARK SMILES IDX 7 1 6 2 5 3 4 4 3 5 1 6 2 7 27 9 28 10 74 11 29 12 73 13
REMARK SMILES IDX 30 14 31 15 32 16 67 17 33 18 72 19 66 20 68 21 34 22 71 23
REMARK SMILES IDX 65 24 64 25 35 27 57 28 42 29 56 30 43 31 46 32 55 33 69 34
REMARK SMILES IDX 44 35 45 36 54 38 70 39 47 40 36 41 37 42 41 43 38 44 40 45
REMARK SMILES IDX 39 46 58 47 59 48 63 49 60 50 62 51 61 52 48 53 49 54 53 55
REMARK SMILES IDX 50 56 52 57 51 58 8 59 9 60 10 61 11 62 12 64 13 65 14 66
REMARK SMILES IDX 26 67 15 68 25 69 24 72 16 74 17 75 18 76 19 77 20 78 23 79
REMARK SMILES IDX 21 80 22 81
REMARK H PARENT 3 8 68 26 46 37 10 63 26 70 26 71 15 73 23 82
REMARK Flexibility Score: inf
ROOT
ATOM      1  C   UNL A   1      32.526  28.891  24.319  1.00  0.00     0.002 C 
ENDROOT
BRANCH   1   2
ATOM      2  C   UNL A   1      32.994  28.170  25.590  1.00  0.00     0.002 C 
BRANCH   2   3
ATOM      3  C   UNL A   1      33.155  29.073  26.814  1.00  0.00     0.021 C 
BRANCH   3   4
ATOM      4  C   UNL A   1      34.601  29.211  27.277  1.00  0.00     0.116 C 
BRANCH   4   5
ATOM      5  N   UNL A   1      34.789  30.250  28.268  1.00  0.00    -0.352 N 
ATOM      6  O   UNL A   1      35.810  31.518  29.814  1.00  0.00    -0.269 OA
ATOM      7  C   UNL A   1      35.903  30.621  28.976  1.00  0.00     0.251 C 
ATOM      8  H   UNL A   1      33.982  30.778  28.467  1.00  0.00     0.163 HD
BRANCH   7   9
ATOM      9  C   UNL A   1      37.199  29.920  28.809  1.00  0.00     0.039 A 
ATOM     10  C   UNL A   1      37.790  29.175  29.833  1.00  0.00     0.014 A 
ATOM     11  C   UNL A   1      37.826  29.994  27.555  1.00  0.00     0.014 A 
ATOM     12  C   UNL A   1      39.027  28.580  29.639  1.00  0.00     0.010 A 
ATOM     13  C   UNL A   1      39.042  29.346  27.332  1.00  0.00     0.010 A 
ATOM     14  C   UNL A   1      39.634  28.628  28.378  1.00  0.00    -0.014 A 
BRANCH  14  15
ATOM     15  C   UNL A   1      40.705  27.634  28.137  1.00  0.00     0.031 A 
ATOM     16  C   UNL A   1      42.087  28.321  28.078  1.00  0.00     0.074 A 
ATOM     17  C   UNL A   1      40.334  26.343  27.892  1.00  0.00     0.049 A 
ATOM     18  N   UNL A   1      43.170  27.963  27.461  1.00  0.00    -0.248 NA
ATOM     19  C   UNL A   1      42.270  29.638  28.755  1.00  0.00     0.031 C 
ATOM     20  C   UNL A   1      38.956  25.820  28.022  1.00  0.00     0.029 A 
ATOM     21  N   UNL A   1      41.015  25.218  27.474  1.00  0.00    -0.354 N 
ATOM     22  C   UNL A   1      44.178  28.899  27.783  1.00  0.00     0.074 A 
ATOM     23  C   UNL A   1      43.543  29.952  28.512  1.00  0.00     0.031 C 
ATOM     24  C   UNL A   1      38.890  24.530  27.624  1.00  0.00     0.029 A 
ATOM     25  C   UNL A   1      40.205  24.085  27.201  1.00  0.00     0.049 A 
ATOM     26  H   UNL A   1      41.995  25.202  27.372  1.00  0.00     0.167 HD
ATOM     27  C   UNL A   1      45.503  28.708  27.520  1.00  0.00     0.031 A 
ATOM     28  C   UNL A   1      40.555  22.890  26.632  1.00  0.00     0.031 A 
ATOM     29  C   UNL A   1      45.693  27.529  26.750  1.00  0.00     0.049 A 
ATOM     30  C   UNL A   1      42.013  22.927  26.468  1.00  0.00     0.074 A 
ATOM     31  C   UNL A   1      45.447  27.228  25.438  1.00  0.00     0.029 A 
ATOM     32  N   UNL A   1      45.891  26.366  27.449  1.00  0.00    -0.354 N 
ATOM     33  N   UNL A   1      42.870  22.794  27.432  1.00  0.00    -0.248 NA
ATOM     34  C   UNL A   1      42.575  23.163  25.132  1.00  0.00     0.031 C 
ATOM     35  C   UNL A   1      45.024  25.882  25.482  1.00  0.00     0.029 A 
ATOM     36  C   UNL A   1      45.203  25.385  26.778  1.00  0.00     0.049 A 
ATOM     37  H   UNL A   1      46.423  26.255  28.270  1.00  0.00     0.167 HD
ATOM     38  C   UNL A   1      44.010  23.322  26.881  1.00  0.00     0.074 A 
ATOM     39  C   UNL A   1      43.868  23.200  25.447  1.00  0.00     0.031 C 
ATOM     40  C   UNL A   1      44.691  24.282  27.554  1.00  0.00     0.031 A 
BRANCH  27  41
ATOM     41  C   UNL A   1      46.727  29.381  28.073  1.00  0.00    -0.014 A 
ATOM     42  C   UNL A   1      47.251  28.890  29.294  1.00  0.00     0.009 A 
ATOM     43  C   UNL A   1      47.178  30.632  27.642  1.00  0.00     0.009 A 
ATOM     44  C   UNL A   1      48.096  29.656  30.097  1.00  0.00     0.001 A 
ATOM     45  C   UNL A   1      48.056  31.389  28.432  1.00  0.00     0.001 A 
ATOM     46  C   UNL A   1      48.485  30.918  29.672  1.00  0.00     0.000 A 
ENDBRANCH  27  41
BRANCH  28  47
ATOM     47  C   UNL A   1      39.886  21.645  26.100  1.00  0.00    -0.014 A 
ATOM     48  C   UNL A   1      40.393  20.347  26.152  1.00  0.00     0.009 A 
ATOM     49  C   UNL A   1      38.584  21.765  25.531  1.00  0.00     0.009 A 
ATOM     50  C   UNL A   1      39.611  19.241  25.744  1.00  0.00     0.001 A 
ATOM     51  C   UNL A   1      37.789  20.675  25.168  1.00  0.00     0.001 A 
ATOM     52  C   UNL A   1      38.303  19.401  25.288  1.00  0.00     0.000 A 
ENDBRANCH  28  47
BRANCH  40  53
ATOM     53  C   UNL A   1      44.434  24.314  29.054  1.00  0.00    -0.014 A 
ATOM     54  C   UNL A   1      44.205  25.536  29.704  1.00  0.00     0.009 A 
ATOM     55  C   UNL A   1      44.540  23.169  29.865  1.00  0.00     0.009 A 
ATOM     56  C   UNL A   1      44.107  25.611  31.101  1.00  0.00     0.001 A 
ATOM     57  C   UNL A   1      44.440  23.237  31.262  1.00  0.00     0.001 A 
ATOM     58  C   UNL A   1      44.227  24.464  31.881  1.00  0.00     0.000 A 
ENDBRANCH  40  53
ENDBRANCH  14  15
ENDBRANCH   7   9
ENDBRANCH   4   5
ENDBRANCH   3   4
ENDBRANCH   2   3
ENDBRANCH   1   2
BRANCH   1  59
ATOM     59  C   UNL A   1      31.028  28.754  24.014  1.00  0.00     0.021 C 
BRANCH  59  60
ATOM     60  C   UNL A   1      30.721  27.731  22.925  1.00  0.00     0.116 C 
BRANCH  60  61
ATOM     61  N   UNL A   1      31.875  27.452  22.118  1.00  0.00    -0.351 N 
ATOM     62  C   UNL A   1      32.583  26.318  21.936  1.00  0.00     0.284 C 
ATOM     63  H   UNL A   1      32.209  28.225  21.606  1.00  0.00     0.163 HD
ATOM     64  O   UNL A   1      33.512  26.405  21.119  1.00  0.00    -0.268 OA
BRANCH  62  65
ATOM     65  C   UNL A   1      32.327  24.984  22.652  1.00  0.00     0.328 C 
ATOM     66  C   UNL A   1      33.157  23.906  21.916  1.00  0.00     0.339 C 
ATOM     67  N   UNL A   1      30.925  24.521  22.839  1.00  0.00    -0.327 N 
ATOM     68  N   UNL A   1      33.171  22.582  22.553  1.00  0.00    -0.318 N 
ATOM     69  C   UNL A   1      30.967  23.282  23.651  1.00  0.00     0.323 C 
ATOM     70  H   UNL A   1      30.498  24.329  21.932  1.00  0.00     0.347 HD
ATOM     71  H   UNL A   1      30.370  25.238  23.307  1.00  0.00     0.347 HD
ATOM     72  C   UNL A   1      31.832  22.171  23.004  1.00  0.00     0.324 C 
ATOM     73  H   UNL A   1      33.415  21.909  21.826  1.00  0.00     0.348 HD
BRANCH  68  74
ATOM     74  C   UNL A   1      34.268  22.390  23.526  1.00  0.00     0.346 C 
BRANCH  74  75
ATOM     75  C   UNL A   1      34.049  21.318  24.602  1.00  0.00     0.232 C 
ATOM     76  O   UNL A   1      33.917  20.145  24.280  1.00  0.00    -0.286 OA
BRANCH  75  77
ATOM     77  C   UNL A   1      33.935  21.725  25.999  1.00  0.00     0.088 A 
ATOM     78  C   UNL A   1      34.850  22.216  26.913  1.00  0.00     0.031 A 
ATOM     79  N   UNL A   1      32.707  21.739  26.632  1.00  0.00    -0.359 N 
ATOM     80  C   UNL A   1      34.129  22.691  28.039  1.00  0.00     0.020 A 
ATOM     81  C   UNL A   1      32.805  22.382  27.836  1.00  0.00     0.083 A 
ATOM     82  H   UNL A   1      31.881  21.343  26.271  1.00  0.00     0.166 HD
ENDBRANCH  75  77
ENDBRANCH  74  75
ENDBRANCH  68  74
ENDBRANCH  62  65
ENDBRANCH  60  61
ENDBRANCH  59  60
ENDBRANCH   1  59
TORSDOF 16
ENDMDL
MODEL 3
REMARK VINA RESULT:     -11.4      3.930      9.519
REMARK SMILES O=C(NCCCCCCNC(=O)[C@@H]1C[N@@H+](CC(=O)c2ccc[nH]2)CC[NH2+]1)c1ccc(-c2c3nc(c(-c4ccccc4)c4ccc([nH]4)c(-c4ccccc4)c4nc(c(-c5ccccc5)c5ccc2[nH]5)C=C4)C=C3)cc1
REMARK SMILES IDX 7 1 6 2 5 3 4 4 3 5 1 6 2 7 27 9 28 10 74 11 29 12 73 13
REMARK SMILES IDX 30 14 31 15 32 16 67 17 33 18 72 19 66 20 68 21 34 22 71 23
REMARK SMILES IDX 65 24 64 25 35 27 57 28 42 29 56 30 43 31 46 32 55 33 69 34
REMARK SMILES IDX 44 35 45 36 54 38 70 39 47 40 36 41 37 42 41 43 38 44 40 45
REMARK SMILES IDX 39 46 58 47 59 48 63 49 60 50 62 51 61 52 48 53 49 54 53 55
REMARK SMILES IDX 50 56 52 57 51 58 8 59 9 60 10 61 11 62 12 64 13 65 14 66
REMARK SMILES IDX 26 67 15 68 25 69 24 72 16 74 17 75 18 76 19 77 20 78 23 79
REMARK SMILES IDX 21 80 22 81
REMARK H PARENT 3 8 68 26 46 37 10 63 26 70 26 71 15 73 23 82
REMARK Flexibility Score: inf
ROOT
ATOM      1  C   UNL A   1      35.550  21.519  25.852  1.00  0.00     0.002 C 
ENDROOT
BRANCH   1   2
ATOM      2  C   UNL A   1      36.867  21.856  25.141  1.00  0.00     0.002 C 
BRANCH   2   3
ATOM      3  C   UNL A   1      37.119  23.352  24.939  1.00  0.00     0.021 C 
BRANCH   3   4
ATOM      4  C   UNL A   1      37.811  24.013  26.126  1.00  0.00     0.116 C 
BRANCH   4   5
ATOM      5  N   UNL A   1      39.247  23.824  26.131  1.00  0.00    -0.352 N 
ATOM      6  O   UNL A   1      41.416  24.226  26.544  1.00  0.00    -0.269 OA
ATOM      7  C   UNL A   1      40.244  24.557  26.721  1.00  0.00     0.251 C 
ATOM      8  H   UNL A   1      39.559  23.039  25.626  1.00  0.00     0.163 HD
BRANCH   7   9
ATOM      9  C   UNL A   1      39.950  25.779  27.507  1.00  0.00     0.039 A 
ATOM     10  C   UNL A   1      39.269  25.744  28.727  1.00  0.00     0.014 A 
ATOM     11  C   UNL A   1      40.410  27.007  27.005  1.00  0.00     0.014 A 
ATOM     12  C   UNL A   1      38.977  26.922  29.398  1.00  0.00     0.010 A 
ATOM     13  C   UNL A   1      40.174  28.191  27.705  1.00  0.00     0.010 A 
ATOM     14  C   UNL A   1      39.466  28.141  28.911  1.00  0.00    -0.014 A 
BRANCH  14  15
ATOM     15  C   UNL A   1      39.487  29.262  29.878  1.00  0.00     0.031 A 
ATOM     16  C   UNL A   1      40.494  28.986  31.016  1.00  0.00     0.074 A 
ATOM     17  C   UNL A   1      38.580  30.269  29.707  1.00  0.00     0.049 A 
ATOM     18  N   UNL A   1      40.505  29.415  32.240  1.00  0.00    -0.248 NA
ATOM     19  C   UNL A   1      41.619  28.037  30.772  1.00  0.00     0.031 C 
ATOM     20  C   UNL A   1      37.694  30.418  28.532  1.00  0.00     0.029 A 
ATOM     21  N   UNL A   1      38.202  31.352  30.475  1.00  0.00    -0.354 N 
ATOM     22  C   UNL A   1      41.680  28.926  32.855  1.00  0.00     0.074 A 
ATOM     23  C   UNL A   1      42.280  28.016  31.930  1.00  0.00     0.031 C 
ATOM     24  C   UNL A   1      36.846  31.459  28.696  1.00  0.00     0.029 A 
ATOM     25  C   UNL A   1      37.093  32.088  29.980  1.00  0.00     0.049 A 
ATOM     26  H   UNL A   1      38.668  31.597  31.307  1.00  0.00     0.167 HD
ATOM     27  C   UNL A   1      42.151  29.375  34.054  1.00  0.00     0.031 A 
ATOM     28  C   UNL A   1      36.392  33.100  30.579  1.00  0.00     0.031 A 
ATOM     29  C   UNL A   1      41.223  30.269  34.652  1.00  0.00     0.049 A 
ATOM     30  C   UNL A   1      37.103  33.406  31.827  1.00  0.00     0.074 A 
ATOM     31  C   UNL A   1      40.012  30.078  35.262  1.00  0.00     0.029 A 
ATOM     32  N   UNL A   1      41.369  31.598  34.348  1.00  0.00    -0.354 N 
ATOM     33  N   UNL A   1      38.225  34.051  31.901  1.00  0.00    -0.248 NA
ATOM     34  C   UNL A   1      36.543  32.934  33.100  1.00  0.00     0.031 C 
ATOM     35  C   UNL A   1      39.264  31.209  34.871  1.00  0.00     0.029 A 
ATOM     36  C   UNL A   1      40.102  32.106  34.199  1.00  0.00     0.049 A 
ATOM     37  H   UNL A   1      42.215  32.092  34.255  1.00  0.00     0.167 HD
ATOM     38  C   UNL A   1      38.676  33.705  33.149  1.00  0.00     0.074 A 
ATOM     39  C   UNL A   1      37.509  33.341  33.922  1.00  0.00     0.031 C 
ATOM     40  C   UNL A   1      39.932  33.214  33.291  1.00  0.00     0.031 A 
BRANCH  27  41
ATOM     41  C   UNL A   1      43.508  29.255  34.689  1.00  0.00    -0.014 A 
ATOM     42  C   UNL A   1      44.561  30.025  34.137  1.00  0.00     0.009 A 
ATOM     43  C   UNL A   1      43.862  28.219  35.559  1.00  0.00     0.009 A 
ATOM     44  C   UNL A   1      45.902  29.706  34.354  1.00  0.00     0.001 A 
ATOM     45  C   UNL A   1      45.209  27.919  35.806  1.00  0.00     0.001 A 
ATOM     46  C   UNL A   1      46.226  28.638  35.178  1.00  0.00     0.000 A 
ENDBRANCH  27  41
BRANCH  28  47
ATOM     47  C   UNL A   1      35.129  33.897  30.353  1.00  0.00    -0.014 A 
ATOM     48  C   UNL A   1      34.460  34.672  31.300  1.00  0.00     0.009 A 
ATOM     49  C   UNL A   1      34.572  33.927  29.042  1.00  0.00     0.009 A 
ATOM     50  C   UNL A   1      33.362  35.485  30.934  1.00  0.00     0.001 A 
ATOM     51  C   UNL A   1      33.517  34.761  28.662  1.00  0.00     0.001 A 
ATOM     52  C   UNL A   1      32.916  35.557  29.614  1.00  0.00     0.000 A 
ENDBRANCH  28  47
BRANCH  40  53
ATOM     53  C   UNL A   1      40.888  33.574  32.162  1.00  0.00    -0.014 A 
ATOM     54  C   UNL A   1      41.646  34.752  32.229  1.00  0.00     0.009 A 
ATOM     55  C   UNL A   1      40.961  32.834  30.968  1.00  0.00     0.009 A 
ATOM     56  C   UNL A   1      42.426  35.179  31.145  1.00  0.00     0.001 A 
ATOM     57  C   UNL A   1      41.741  33.254  29.881  1.00  0.00     0.001 A 
ATOM     58  C   UNL A   1      42.472  34.433  29.970  1.00  0.00     0.000 A 
ENDBRANCH  40  53
ENDBRANCH  14  15
ENDBRANCH   7   9
ENDBRANCH   4   5
ENDBRANCH   3   4
ENDBRANCH   2   3
ENDBRANCH   1   2
BRANCH   1  59
ATOM     59  C   UNL A   1      34.587  20.639  25.044  1.00  0.00     0.021 C 
BRANCH  59  60
ATOM     60  C   UNL A   1      33.202  21.253  24.872  1.00  0.00     0.116 C 
BRANCH  60  61
ATOM     61  N   UNL A   1      32.664  21.711  26.121  1.00  0.00    -0.351 N 
ATOM     62  C   UNL A   1      31.988  22.833  26.443  1.00  0.00     0.284 C 
ATOM     63  H   UNL A   1      32.816  21.099  26.877  1.00  0.00     0.163 HD
ATOM     64  O   UNL A   1      31.617  22.902  27.623  1.00  0.00    -0.268 OA
BRANCH  62  65
ATOM     65  C   UNL A   1      31.667  23.986  25.480  1.00  0.00     0.328 C 
ATOM     66  C   UNL A   1      32.029  25.302  26.209  1.00  0.00     0.339 C 
ATOM     67  N   UNL A   1      30.305  24.078  24.890  1.00  0.00    -0.327 N 
ATOM     68  N   UNL A   1      31.943  26.518  25.389  1.00  0.00    -0.318 N 
ATOM     69  C   UNL A   1      30.310  25.200  23.921  1.00  0.00     0.323 C 
ATOM     70  H   UNL A   1      29.618  24.254  25.624  1.00  0.00     0.347 HD
ATOM     71  H   UNL A   1      30.056  23.204  24.425  1.00  0.00     0.347 HD
ATOM     72  C   UNL A   1      30.722  26.547  24.569  1.00  0.00     0.324 C 
ATOM     73  H   UNL A   1      31.839  27.301  26.034  1.00  0.00     0.348 HD
BRANCH  68  74
ATOM     74  C   UNL A   1      33.199  26.866  24.690  1.00  0.00     0.346 C 
BRANCH  74  75
ATOM     75  C   UNL A   1      33.398  28.346  24.336  1.00  0.00     0.232 C 
ATOM     76  O   UNL A   1      33.851  28.658  23.243  1.00  0.00    -0.286 OA
BRANCH  75  77
ATOM     77  C   UNL A   1      33.104  29.364  25.339  1.00  0.00     0.088 A 
ATOM     78  C   UNL A   1      31.958  30.077  25.647  1.00  0.00     0.031 A 
ATOM     79  N   UNL A   1      34.051  29.725  26.277  1.00  0.00    -0.359 N 
ATOM     80  C   UNL A   1      32.174  30.735  26.886  1.00  0.00     0.020 A 
ATOM     81  C   UNL A   1      33.479  30.498  27.251  1.00  0.00     0.083 A 
ATOM     82  H   UNL A   1      35.000  29.466  26.249  1.00  0.00     0.166 HD
ENDBRANCH  75  77
ENDBRANCH  74  75
ENDBRANCH  68  74
ENDBRANCH  62  65
ENDBRANCH  60  61
ENDBRANCH  59  60
ENDBRANCH   1  59
TORSDOF 16
ENDMDL
