MODEL 1
REMARK VINA RESULT:     -12.8      0.000      0.000
REMARK SMILES COc1ccc(-c2[nH]nc3nc(-c4ccc(C(F)(F)F)cc4)cc(C(=O)NCCCCCCNC(=O)c4ccc(-c5c6nc(c(-c7ccccc7)c7ccc([nH]7)c(-c7ccccc7)c7nc(c(-c8ccccc8)c8ccc5[nH]8)C=C7)C=C6)cc4)c23)cc1
REMARK SMILES IDX 30 1 29 2 28 3 27 4 25 5 26 6 24 8 7 9 8 10 85 11 9 12 10 14
REMARK SMILES IDX 11 15 23 16 12 17 6 18 3 19 4 20 87 21 5 22 86 23 2 24 1 25
REMARK SMILES IDX 13 26 14 27 22 28 15 29 21 30 16 31 17 32 18 33 19 34 20 35
REMARK SMILES IDX 31 36 32 37 33 38 34 39 35 40 36 42 37 43 38 44 84 45 39 46
REMARK SMILES IDX 83 47 40 48 41 49 42 50 77 51 43 52 82 53 76 54 78 55 44 56
REMARK SMILES IDX 81 57 75 58 74 59 45 61 67 62 52 63 66 64 53 65 56 66 65 67
REMARK SMILES IDX 79 68 54 69 55 70 64 72 80 73 57 74 46 75 47 76 51 77 48 78
REMARK SMILES IDX 50 79 49 80 68 81 69 82 73 83 70 84 72 85 71 86 58 87 59 88
REMARK SMILES IDX 63 89 60 90 62 91 61 92
REMARK H PARENT 27 7 8 13 34 41 78 60 56 71
REMARK Flexibility Score: inf
ROOT
ATOM      1  C   UNL A   1      33.382  30.474  27.355  1.00  0.00     0.002 C 
ENDROOT
BRANCH   1   2
ATOM      2  C   UNL A   1      34.069  29.303  26.637  1.00  0.00     0.021 C 
BRANCH   2   3
ATOM      3  C   UNL A   1      33.198  28.683  25.548  1.00  0.00     0.116 C 
BRANCH   3   4
ATOM      4  N   UNL A   1      32.461  27.544  26.045  1.00  0.00    -0.352 N 
ATOM      5  C   UNL A   1      32.531  26.185  25.911  1.00  0.00     0.252 C 
ATOM      6  O   UNL A   1      31.876  25.579  26.753  1.00  0.00    -0.269 OA
ATOM      7  H   UNL A   1      31.717  27.816  26.629  1.00  0.00     0.163 HD
BRANCH   5   8
ATOM      8  C   UNL A   1      33.361  25.456  24.923  1.00  0.00     0.055 A 
ATOM      9  C   UNL A   1      32.011  25.661  22.777  1.00  0.00     0.075 A 
ATOM     10  N   UNL A   1      32.175  25.016  21.573  1.00  0.00    -0.275 N 
ATOM     11  C   UNL A   1      33.027  25.167  23.582  1.00  0.00     0.059 A 
ATOM     12  N   UNL A   1      33.216  24.175  21.512  1.00  0.00    -0.154 NA
ATOM     13  H   UNL A   1      31.569  25.161  20.810  1.00  0.00     0.190 HD
ATOM     14  C   UNL A   1      33.761  24.261  22.724  1.00  0.00     0.182 A 
ATOM     15  N   UNL A   1      34.865  23.582  23.133  1.00  0.00    -0.226 NA
ATOM     16  C   UNL A   1      34.586  24.853  25.222  1.00  0.00     0.043 A 
ATOM     17  C   UNL A   1      35.237  23.908  24.391  1.00  0.00     0.074 A 
BRANCH   9  18
ATOM     18  C   UNL A   1      30.949  26.653  22.928  1.00  0.00     0.001 A 
ATOM     19  C   UNL A   1      28.860  28.534  23.053  1.00  0.00     0.118 A 
ATOM     20  C   UNL A   1      30.101  28.890  22.524  1.00  0.00     0.047 A 
ATOM     21  C   UNL A   1      28.666  27.240  23.535  1.00  0.00     0.047 A 
ATOM     22  C   UNL A   1      31.144  27.961  22.470  1.00  0.00     0.014 A 
ATOM     23  C   UNL A   1      29.711  26.308  23.488  1.00  0.00     0.014 A 
BRANCH  19  24
ATOM     24  O   UNL A   1      27.903  29.510  22.990  1.00  0.00    -0.497 OA
ATOM     25  C   UNL A   1      27.858  30.255  21.779  1.00  0.00     0.278 C 
ENDBRANCH  19  24
ENDBRANCH   9  18
BRANCH  17  26
ATOM     26  C   UNL A   1      36.371  23.168  24.976  1.00  0.00     0.000 A 
ATOM     27  C   UNL A   1      36.716  21.884  24.542  1.00  0.00     0.011 A 
ATOM     28  C   UNL A   1      37.213  23.801  25.914  1.00  0.00     0.011 A 
ATOM     29  C   UNL A   1      37.898  21.276  24.986  1.00  0.00     0.014 A 
ATOM     30  C   UNL A   1      38.389  23.196  26.360  1.00  0.00     0.014 A 
ATOM     31  C   UNL A   1      38.755  21.932  25.886  1.00  0.00     0.056 A 
BRANCH  31  32
ATOM     32  C   UNL A   1      40.052  21.286  26.314  1.00  0.00     0.416 C 
ATOM     33  F   UNL A   1      40.084  19.949  26.061  1.00  0.00    -0.166 F 
ATOM     34  F   UNL A   1      41.130  21.816  25.670  1.00  0.00    -0.166 F 
ATOM     35  F   UNL A   1      40.315  21.424  27.644  1.00  0.00    -0.166 F 
ENDBRANCH  31  32
ENDBRANCH  17  26
ENDBRANCH   5   8
ENDBRANCH   3   4
ENDBRANCH   2   3
ENDBRANCH   1   2
BRANCH   1  36
ATOM     36  C   UNL A   1      31.963  30.804  26.860  1.00  0.00     0.002 C 
BRANCH  36  37
ATOM     37  C   UNL A   1      31.563  32.287  26.915  1.00  0.00     0.021 C 
BRANCH  37  38
ATOM     38  C   UNL A   1      32.749  33.213  27.114  1.00  0.00     0.116 C 
BRANCH  38  39
ATOM     39  N   UNL A   1      32.447  34.266  28.072  1.00  0.00    -0.352 N 
ATOM     40  C   UNL A   1      33.074  34.543  29.265  1.00  0.00     0.251 C 
ATOM     41  H   UNL A   1      31.695  34.857  27.836  1.00  0.00     0.163 HD
ATOM     42  O   UNL A   1      32.512  35.200  30.127  1.00  0.00    -0.269 OA
BRANCH  40  43
ATOM     43  C   UNL A   1      34.438  34.032  29.490  1.00  0.00     0.039 A 
ATOM     44  C   UNL A   1      34.660  33.038  30.444  1.00  0.00     0.014 A 
ATOM     45  C   UNL A   1      35.499  34.564  28.756  1.00  0.00     0.014 A 
ATOM     46  C   UNL A   1      35.946  32.539  30.606  1.00  0.00     0.010 A 
ATOM     47  C   UNL A   1      36.749  33.994  28.833  1.00  0.00     0.010 A 
ATOM     48  C   UNL A   1      36.983  33.007  29.781  1.00  0.00    -0.014 A 
BRANCH  48  49
ATOM     49  C   UNL A   1      38.283  32.348  29.819  1.00  0.00     0.031 A 
ATOM     50  C   UNL A   1      38.266  30.948  29.317  1.00  0.00     0.074 A 
ATOM     51  C   UNL A   1      39.446  32.969  30.109  1.00  0.00     0.049 A 
ATOM     52  N   UNL A   1      38.449  29.874  30.010  1.00  0.00    -0.248 NA
ATOM     53  C   UNL A   1      37.862  30.697  27.924  1.00  0.00     0.031 C 
ATOM     54  C   UNL A   1      39.697  34.397  30.322  1.00  0.00     0.029 A 
ATOM     55  N   UNL A   1      40.698  32.437  30.164  1.00  0.00    -0.354 N 
ATOM     56  C   UNL A   1      38.373  28.813  29.114  1.00  0.00     0.074 A 
ATOM     57  C   UNL A   1      37.858  29.363  27.885  1.00  0.00     0.031 C 
ATOM     58  C   UNL A   1      41.026  34.638  30.231  1.00  0.00     0.029 A 
ATOM     59  C   UNL A   1      41.726  33.369  30.119  1.00  0.00     0.049 A 
ATOM     60  H   UNL A   1      40.861  31.468  30.233  1.00  0.00     0.167 HD
ATOM     61  C   UNL A   1      38.964  27.618  29.395  1.00  0.00     0.031 A 
ATOM     62  C   UNL A   1      43.049  33.113  29.958  1.00  0.00     0.031 A 
ATOM     63  C   UNL A   1      39.302  27.515  30.794  1.00  0.00     0.049 A 
ATOM     64  C   UNL A   1      43.272  31.697  30.338  1.00  0.00     0.074 A 
ATOM     65  C   UNL A   1      38.584  27.600  31.972  1.00  0.00     0.029 A 
ATOM     66  N   UNL A   1      40.617  27.721  31.142  1.00  0.00    -0.354 N 
ATOM     67  N   UNL A   1      43.151  31.260  31.559  1.00  0.00    -0.248 NA
ATOM     68  C   UNL A   1      43.157  30.688  29.297  1.00  0.00     0.031 C 
ATOM     69  C   UNL A   1      39.417  28.356  32.848  1.00  0.00     0.029 A 
ATOM     70  C   UNL A   1      40.624  28.600  32.193  1.00  0.00     0.049 A 
ATOM     71  H   UNL A   1      41.405  27.313  30.715  1.00  0.00     0.167 HD
ATOM     72  C   UNL A   1      42.491  30.047  31.431  1.00  0.00     0.074 A 
ATOM     73  C   UNL A   1      42.602  29.703  30.011  1.00  0.00     0.031 C 
ATOM     74  C   UNL A   1      41.665  29.578  32.412  1.00  0.00     0.031 A 
BRANCH  61  75
ATOM     75  C   UNL A   1      39.624  26.745  28.357  1.00  0.00    -0.014 A 
ATOM     76  C   UNL A   1      39.974  25.430  28.716  1.00  0.00     0.009 A 
ATOM     77  C   UNL A   1      40.184  27.243  27.166  1.00  0.00     0.009 A 
ATOM     78  C   UNL A   1      40.921  24.701  27.988  1.00  0.00     0.001 A 
ATOM     79  C   UNL A   1      41.097  26.501  26.412  1.00  0.00     0.001 A 
ATOM     80  C   UNL A   1      41.494  25.244  26.843  1.00  0.00     0.000 A 
ENDBRANCH  61  75
BRANCH  62  81
ATOM     81  C   UNL A   1      44.075  33.909  29.247  1.00  0.00    -0.014 A 
ATOM     82  C   UNL A   1      45.342  34.126  29.815  1.00  0.00     0.009 A 
ATOM     83  C   UNL A   1      43.914  34.225  27.884  1.00  0.00     0.009 A 
ATOM     84  C   UNL A   1      46.413  34.595  29.040  1.00  0.00     0.001 A 
ATOM     85  C   UNL A   1      44.982  34.698  27.112  1.00  0.00     0.001 A 
ATOM     86  C   UNL A   1      46.236  34.866  27.686  1.00  0.00     0.000 A 
ENDBRANCH  62  81
BRANCH  74  87
ATOM     87  C   UNL A   1      41.646  30.281  33.748  1.00  0.00    -0.014 A 
ATOM     88  C   UNL A   1      42.453  29.906  34.837  1.00  0.00     0.009 A 
ATOM     89  C   UNL A   1      40.915  31.475  33.847  1.00  0.00     0.009 A 
ATOM     90  C   UNL A   1      42.506  30.693  35.994  1.00  0.00     0.001 A 
ATOM     91  C   UNL A   1      40.986  32.272  34.991  1.00  0.00     0.001 A 
ATOM     92  C   UNL A   1      41.777  31.878  36.067  1.00  0.00     0.000 A 
ENDBRANCH  74  87
ENDBRANCH  48  49
ENDBRANCH  40  43
ENDBRANCH  38  39
ENDBRANCH  37  38
ENDBRANCH  36  37
ENDBRANCH   1  36
TORSDOF 17
ENDMDL
MODEL 2
REMARK VINA RESULT:     -12.7      3.967      8.250
REMARK SMILES COc1ccc(-c2[nH]nc3nc(-c4ccc(C(F)(F)F)cc4)cc(C(=O)NCCCCCCNC(=O)c4ccc(-c5c6nc(c(-c7ccccc7)c7ccc([nH]7)c(-c7ccccc7)c7nc(c(-c8ccccc8)c8ccc5[nH]8)C=C7)C=C6)cc4)c23)cc1
REMARK SMILES IDX 30 1 29 2 28 3 27 4 25 5 26 6 24 8 7 9 8 10 85 11 9 12 10 14
REMARK SMILES IDX 11 15 23 16 12 17 6 18 3 19 4 20 87 21 5 22 86 23 2 24 1 25
REMARK SMILES IDX 13 26 14 27 22 28 15 29 21 30 16 31 17 32 18 33 19 34 20 35
REMARK SMILES IDX 31 36 32 37 33 38 34 39 35 40 36 42 37 43 38 44 84 45 39 46
REMARK SMILES IDX 83 47 40 48 41 49 42 50 77 51 43 52 82 53 76 54 78 55 44 56
REMARK SMILES IDX 81 57 75 58 74 59 45 61 67 62 52 63 66 64 53 65 56 66 65 67
REMARK SMILES IDX 79 68 54 69 55 70 64 72 80 73 57 74 46 75 47 76 51 77 48 78
REMARK SMILES IDX 50 79 49 80 68 81 69 82 73 83 70 84 72 85 71 86 58 87 59 88
REMARK SMILES IDX 63 89 60 90 62 91 61 92
REMARK H PARENT 27 7 8 13 34 41 78 60 56 71
REMARK Flexibility Score: inf
ROOT
ATOM      1  C   UNL A   1      34.864  23.860  25.532  1.00  0.00     0.002 C 
ENDROOT
BRANCH   1   2
ATOM      2  C   UNL A   1      35.149  24.377  24.114  1.00  0.00     0.021 C 
BRANCH   2   3
ATOM      3  C   UNL A   1      34.420  25.680  23.801  1.00  0.00     0.116 C 
BRANCH   3   4
ATOM      4  N   UNL A   1      33.387  25.483  22.809  1.00  0.00    -0.352 N 
ATOM      5  C   UNL A   1      32.185  24.836  22.749  1.00  0.00     0.252 C 
ATOM      6  O   UNL A   1      31.497  25.178  21.792  1.00  0.00    -0.269 OA
ATOM      7  H   UNL A   1      33.607  25.929  21.960  1.00  0.00     0.163 HD
BRANCH   5   8
ATOM      8  C   UNL A   1      31.672  23.870  23.749  1.00  0.00     0.055 A 
ATOM      9  C   UNL A   1      30.235  25.319  25.265  1.00  0.00     0.075 A 
ATOM     10  N   UNL A   1      29.666  25.021  26.482  1.00  0.00    -0.275 N 
ATOM     11  C   UNL A   1      30.904  24.161  24.896  1.00  0.00     0.059 A 
ATOM     12  N   UNL A   1      29.878  23.773  26.922  1.00  0.00    -0.154 NA
ATOM     13  H   UNL A   1      29.141  25.678  26.994  1.00  0.00     0.190 HD
ATOM     14  C   UNL A   1      30.620  23.224  25.962  1.00  0.00     0.182 A 
ATOM     15  N   UNL A   1      31.078  21.944  25.967  1.00  0.00    -0.226 NA
ATOM     16  C   UNL A   1      31.972  22.504  23.742  1.00  0.00     0.043 A 
ATOM     17  C   UNL A   1      31.753  21.632  24.837  1.00  0.00     0.074 A 
BRANCH   9  18
ATOM     18  C   UNL A   1      30.006  26.629  24.661  1.00  0.00     0.001 A 
ATOM     19  C   UNL A   1      29.670  29.106  23.369  1.00  0.00     0.118 A 
ATOM     20  C   UNL A   1      30.777  28.880  24.187  1.00  0.00     0.047 A 
ATOM     21  C   UNL A   1      28.720  28.099  23.207  1.00  0.00     0.047 A 
ATOM     22  C   UNL A   1      30.942  27.655  24.839  1.00  0.00     0.014 A 
ATOM     23  C   UNL A   1      28.879  26.871  23.864  1.00  0.00     0.014 A 
BRANCH  19  24
ATOM     24  O   UNL A   1      29.657  30.319  22.735  1.00  0.00    -0.497 OA
ATOM     25  C   UNL A   1      28.522  31.138  22.992  1.00  0.00     0.278 C 
ENDBRANCH  19  24
ENDBRANCH   9  18
BRANCH  17  26
ATOM     26  C   UNL A   1      32.374  20.296  24.766  1.00  0.00     0.000 A 
ATOM     27  C   UNL A   1      32.768  19.603  25.916  1.00  0.00     0.011 A 
ATOM     28  C   UNL A   1      32.473  19.633  23.525  1.00  0.00     0.011 A 
ATOM     29  C   UNL A   1      33.190  18.269  25.834  1.00  0.00     0.014 A 
ATOM     30  C   UNL A   1      32.897  18.305  23.441  1.00  0.00     0.014 A 
ATOM     31  C   UNL A   1      33.243  17.602  24.600  1.00  0.00     0.056 A 
BRANCH  31  32
ATOM     32  C   UNL A   1      33.650  16.149  24.534  1.00  0.00     0.416 C 
ATOM     33  F   UNL A   1      34.607  15.827  25.446  1.00  0.00    -0.166 F 
ATOM     34  F   UNL A   1      32.603  15.309  24.776  1.00  0.00    -0.166 F 
ATOM     35  F   UNL A   1      34.146  15.776  23.321  1.00  0.00    -0.166 F 
ENDBRANCH  31  32
ENDBRANCH  17  26
ENDBRANCH   5   8
ENDBRANCH   3   4
ENDBRANCH   2   3
ENDBRANCH   1   2
BRANCH   1  36
ATOM     36  C   UNL A   1      35.486  22.492  25.868  1.00  0.00     0.002 C 
BRANCH  36  37
ATOM     37  C   UNL A   1      35.775  21.577  24.667  1.00  0.00     0.021 C 
BRANCH  37  38
ATOM     38  C   UNL A   1      37.255  21.470  24.347  1.00  0.00     0.116 C 
BRANCH  38  39
ATOM     39  N   UNL A   1      37.799  20.188  24.768  1.00  0.00    -0.352 N 
ATOM     40  C   UNL A   1      38.950  19.939  25.481  1.00  0.00     0.251 C 
ATOM     41  H   UNL A   1      37.276  19.395  24.510  1.00  0.00     0.163 HD
ATOM     42  O   UNL A   1      39.473  18.837  25.453  1.00  0.00    -0.269 OA
BRANCH  40  43
ATOM     43  C   UNL A   1      39.545  21.027  26.277  1.00  0.00     0.039 A 
ATOM     44  C   UNL A   1      40.676  20.779  27.057  1.00  0.00     0.014 A 
ATOM     45  C   UNL A   1      38.956  22.292  26.258  1.00  0.00     0.014 A 
ATOM     46  C   UNL A   1      41.247  21.831  27.763  1.00  0.00     0.010 A 
ATOM     47  C   UNL A   1      39.583  23.357  26.864  1.00  0.00     0.010 A 
ATOM     48  C   UNL A   1      40.707  23.123  27.645  1.00  0.00    -0.014 A 
BRANCH  48  49
ATOM     49  C   UNL A   1      41.418  24.255  28.228  1.00  0.00     0.031 A 
ATOM     50  C   UNL A   1      40.658  25.533  28.183  1.00  0.00     0.074 A 
ATOM     51  C   UNL A   1      42.579  24.159  28.909  1.00  0.00     0.049 A 
ATOM     52  N   UNL A   1      40.939  26.577  27.479  1.00  0.00    -0.248 NA
ATOM     53  C   UNL A   1      39.367  25.618  28.885  1.00  0.00     0.031 C 
ATOM     54  C   UNL A   1      43.308  22.956  29.318  1.00  0.00     0.029 A 
ATOM     55  N   UNL A   1      43.305  25.155  29.486  1.00  0.00    -0.354 N 
ATOM     56  C   UNL A   1      39.971  27.528  27.785  1.00  0.00     0.074 A 
ATOM     57  C   UNL A   1      38.950  26.834  28.528  1.00  0.00     0.031 C 
ATOM     58  C   UNL A   1      44.212  23.279  30.271  1.00  0.00     0.029 A 
ATOM     59  C   UNL A   1      44.238  24.725  30.420  1.00  0.00     0.049 A 
ATOM     60  H   UNL A   1      43.180  26.105  29.258  1.00  0.00     0.167 HD
ATOM     61  C   UNL A   1      40.213  28.856  27.598  1.00  0.00     0.031 A 
ATOM     62  C   UNL A   1      44.947  25.502  31.278  1.00  0.00     0.031 A 
ATOM     63  C   UNL A   1      41.361  29.068  26.750  1.00  0.00     0.049 A 
ATOM     64  C   UNL A   1      44.943  26.880  30.729  1.00  0.00     0.074 A 
ATOM     65  C   UNL A   1      41.701  28.679  25.468  1.00  0.00     0.029 A 
ATOM     66  N   UNL A   1      42.544  29.412  27.363  1.00  0.00    -0.354 N 
ATOM     67  N   UNL A   1      45.564  27.211  29.633  1.00  0.00    -0.248 NA
ATOM     68  C   UNL A   1      43.865  27.769  31.133  1.00  0.00     0.031 C 
ATOM     69  C   UNL A   1      43.077  28.317  25.555  1.00  0.00     0.029 A 
ATOM     70  C   UNL A   1      43.517  28.597  26.849  1.00  0.00     0.049 A 
ATOM     71  H   UNL A   1      42.666  30.113  28.044  1.00  0.00     0.167 HD
ATOM     72  C   UNL A   1      44.679  28.051  28.973  1.00  0.00     0.074 A 
ATOM     73  C   UNL A   1      43.689  28.430  29.984  1.00  0.00     0.031 C 
ATOM     74  C   UNL A   1      44.652  28.127  27.610  1.00  0.00     0.031 A 
BRANCH  61  75
ATOM     75  C   UNL A   1      39.699  29.938  28.516  1.00  0.00    -0.014 A 
ATOM     76  C   UNL A   1      40.435  30.229  29.680  1.00  0.00     0.009 A 
ATOM     77  C   UNL A   1      38.394  30.458  28.450  1.00  0.00     0.009 A 
ATOM     78  C   UNL A   1      39.856  30.901  30.762  1.00  0.00     0.001 A 
ATOM     79  C   UNL A   1      37.826  31.168  29.511  1.00  0.00     0.001 A 
ATOM     80  C   UNL A   1      38.544  31.358  30.682  1.00  0.00     0.000 A 
ENDBRANCH  61  75
BRANCH  62  81
ATOM     81  C   UNL A   1      45.387  25.205  32.661  1.00  0.00    -0.014 A 
ATOM     82  C   UNL A   1      44.462  24.812  33.644  1.00  0.00     0.009 A 
ATOM     83  C   UNL A   1      46.754  25.035  32.952  1.00  0.00     0.009 A 
ATOM     84  C   UNL A   1      44.888  24.230  34.847  1.00  0.00     0.001 A 
ATOM     85  C   UNL A   1      47.178  24.459  34.156  1.00  0.00     0.001 A 
ATOM     86  C   UNL A   1      46.245  24.041  35.096  1.00  0.00     0.000 A 
ENDBRANCH  62  81
BRANCH  74  87
ATOM     87  C   UNL A   1      45.751  27.457  26.819  1.00  0.00    -0.014 A 
ATOM     88  C   UNL A   1      45.730  26.100  26.453  1.00  0.00     0.009 A 
ATOM     89  C   UNL A   1      46.754  28.274  26.275  1.00  0.00     0.009 A 
ATOM     90  C   UNL A   1      46.699  25.576  25.588  1.00  0.00     0.001 A 
ATOM     91  C   UNL A   1      47.705  27.757  25.392  1.00  0.00     0.001 A 
ATOM     92  C   UNL A   1      47.681  26.407  25.054  1.00  0.00     0.000 A 
ENDBRANCH  74  87
ENDBRANCH  48  49
ENDBRANCH  40  43
ENDBRANCH  38  39
ENDBRANCH  37  38
ENDBRANCH  36  37
ENDBRANCH   1  36
TORSDOF 17
ENDMDL
MODEL 3
REMARK VINA RESULT:     -12.7      3.693      5.435
REMARK SMILES COc1ccc(-c2[nH]nc3nc(-c4ccc(C(F)(F)F)cc4)cc(C(=O)NCCCCCCNC(=O)c4ccc(-c5c6nc(c(-c7ccccc7)c7ccc([nH]7)c(-c7ccccc7)c7nc(c(-c8ccccc8)c8ccc5[nH]8)C=C7)C=C6)cc4)c23)cc1
REMARK SMILES IDX 30 1 29 2 28 3 27 4 25 5 26 6 24 8 7 9 8 10 85 11 9 12 10 14
REMARK SMILES IDX 11 15 23 16 12 17 6 18 3 19 4 20 87 21 5 22 86 23 2 24 1 25
REMARK SMILES IDX 13 26 14 27 22 28 15 29 21 30 16 31 17 32 18 33 19 34 20 35
REMARK SMILES IDX 31 36 32 37 33 38 34 39 35 40 36 42 37 43 38 44 84 45 39 46
REMARK SMILES IDX 83 47 40 48 41 49 42 50 77 51 43 52 82 53 76 54 78 55 44 56
REMARK SMILES IDX 81 57 75 58 74 59 45 61 67 62 52 63 66 64 53 65 56 66 65 67
REMARK SMILES IDX 79 68 54 69 55 70 64 72 80 73 57 74 46 75 47 76 51 77 48 78
REMARK SMILES IDX 50 79 49 80 68 81 69 82 73 83 70 84 72 85 71 86 58 87 59 88
REMARK SMILES IDX 63 89 60 90 62 91 61 92
REMARK H PARENT 27 7 8 13 34 41 78 60 56 71
REMARK Flexibility Score: inf
ROOT
ATOM      1  C   UNL A   1      33.859  26.786  25.430  1.00  0.00     0.002 C 
ENDROOT
BRANCH   1   2
ATOM      2  C   UNL A   1      33.820  27.504  24.073  1.00  0.00     0.021 C 
BRANCH   2   3
ATOM      3  C   UNL A   1      34.180  26.587  22.907  1.00  0.00     0.116 C 
BRANCH   3   4
ATOM      4  N   UNL A   1      33.047  26.371  22.036  1.00  0.00    -0.352 N 
ATOM      5  C   UNL A   1      31.873  25.674  22.095  1.00  0.00     0.252 C 
ATOM      6  O   UNL A   1      31.065  26.010  21.235  1.00  0.00    -0.269 OA
ATOM      7  H   UNL A   1      33.148  26.847  21.181  1.00  0.00     0.163 HD
BRANCH   5   8
ATOM      8  C   UNL A   1      31.520  24.661  23.117  1.00  0.00     0.055 A 
ATOM      9  C   UNL A   1      30.179  26.000  24.814  1.00  0.00     0.075 A 
ATOM     10  N   UNL A   1      29.758  25.646  26.075  1.00  0.00    -0.275 N 
ATOM     11  C   UNL A   1      30.863  24.887  24.346  1.00  0.00     0.059 A 
ATOM     12  N   UNL A   1      30.080  24.402  26.457  1.00  0.00    -0.154 NA
ATOM     13  H   UNL A   1      29.258  26.263  26.656  1.00  0.00     0.190 HD
ATOM     14  C   UNL A   1      30.743  23.914  25.411  1.00  0.00     0.182 A 
ATOM     15  N   UNL A   1      31.263  22.661  25.334  1.00  0.00    -0.226 NA
ATOM     16  C   UNL A   1      31.886  23.314  23.044  1.00  0.00     0.043 A 
ATOM     17  C   UNL A   1      31.829  22.408  24.132  1.00  0.00     0.074 A 
BRANCH   9  18
ATOM     18  C   UNL A   1      29.820  27.308  24.272  1.00  0.00     0.001 A 
ATOM     19  C   UNL A   1      29.232  29.794  23.092  1.00  0.00     0.118 A 
ATOM     20  C   UNL A   1      30.390  29.628  23.851  1.00  0.00     0.047 A 
ATOM     21  C   UNL A   1      28.356  28.720  22.934  1.00  0.00     0.047 A 
ATOM     22  C   UNL A   1      30.681  28.398  24.447  1.00  0.00     0.014 A 
ATOM     23  C   UNL A   1      28.641  27.486  23.535  1.00  0.00     0.014 A 
BRANCH  19  24
ATOM     24  O   UNL A   1      29.094  31.023  22.507  1.00  0.00    -0.497 OA
ATOM     25  C   UNL A   1      28.497  31.031  21.217  1.00  0.00     0.278 C 
ENDBRANCH  19  24
ENDBRANCH   9  18
BRANCH  17  26
ATOM     26  C   UNL A   1      32.507  21.110  23.961  1.00  0.00     0.000 A 
ATOM     27  C   UNL A   1      33.535  20.696  24.816  1.00  0.00     0.011 A 
ATOM     28  C   UNL A   1      32.042  20.197  22.991  1.00  0.00     0.011 A 
ATOM     29  C   UNL A   1      34.039  19.390  24.742  1.00  0.00     0.014 A 
ATOM     30  C   UNL A   1      32.546  18.897  22.914  1.00  0.00     0.014 A 
ATOM     31  C   UNL A   1      33.539  18.473  23.803  1.00  0.00     0.056 A 
BRANCH  31  32
ATOM     32  C   UNL A   1      34.055  17.054  23.772  1.00  0.00     0.416 C 
ATOM     33  F   UNL A   1      33.087  16.133  24.029  1.00  0.00    -0.166 F 
ATOM     34  F   UNL A   1      34.577  16.722  22.557  1.00  0.00    -0.166 F 
ATOM     35  F   UNL A   1      35.049  16.816  24.674  1.00  0.00    -0.166 F 
ENDBRANCH  31  32
ENDBRANCH  17  26
ENDBRANCH   5   8
ENDBRANCH   3   4
ENDBRANCH   2   3
ENDBRANCH   1   2
BRANCH   1  36
ATOM     36  C   UNL A   1      33.294  27.592  26.613  1.00  0.00     0.002 C 
BRANCH  36  37
ATOM     37  C   UNL A   1      33.865  29.008  26.791  1.00  0.00     0.021 C 
BRANCH  37  38
ATOM     38  C   UNL A   1      35.287  29.011  27.323  1.00  0.00     0.116 C 
BRANCH  38  39
ATOM     39  N   UNL A   1      35.409  29.843  28.511  1.00  0.00    -0.352 N 
ATOM     40  C   UNL A   1      36.417  29.855  29.448  1.00  0.00     0.251 C 
ATOM     41  H   UNL A   1      34.675  30.481  28.664  1.00  0.00     0.163 HD
ATOM     42  O   UNL A   1      36.228  30.324  30.559  1.00  0.00    -0.269 OA
BRANCH  40  43
ATOM     43  C   UNL A   1      37.729  29.288  29.091  1.00  0.00     0.039 A 
ATOM     44  C   UNL A   1      38.394  29.738  27.949  1.00  0.00     0.014 A 
ATOM     45  C   UNL A   1      38.286  28.289  29.892  1.00  0.00     0.014 A 
ATOM     46  C   UNL A   1      39.651  29.224  27.658  1.00  0.00     0.010 A 
ATOM     47  C   UNL A   1      39.574  27.862  29.670  1.00  0.00     0.010 A 
ATOM     48  C   UNL A   1      40.245  28.300  28.535  1.00  0.00    -0.014 A 
BRANCH  48  49
ATOM     49  C   UNL A   1      41.635  27.909  28.333  1.00  0.00     0.031 A 
ATOM     50  C   UNL A   1      41.800  26.614  27.619  1.00  0.00     0.074 A 
ATOM     51  C   UNL A   1      42.697  28.698  28.598  1.00  0.00     0.049 A 
ATOM     52  N   UNL A   1      42.260  25.512  28.108  1.00  0.00    -0.248 NA
ATOM     53  C   UNL A   1      41.269  26.484  26.252  1.00  0.00     0.031 C 
ATOM     54  C   UNL A   1      42.717  30.104  29.009  1.00  0.00     0.029 A 
ATOM     55  N   UNL A   1      44.020  28.418  28.438  1.00  0.00    -0.354 N 
ATOM     56  C   UNL A   1      42.256  24.590  27.067  1.00  0.00     0.074 A 
ATOM     57  C   UNL A   1      41.496  25.193  26.001  1.00  0.00     0.031 C 
ATOM     58  C   UNL A   1      43.959  30.610  28.823  1.00  0.00     0.029 A 
ATOM     59  C   UNL A   1      44.851  29.530  28.437  1.00  0.00     0.049 A 
ATOM     60  H   UNL A   1      44.359  27.499  28.334  1.00  0.00     0.167 HD
ATOM     61  C   UNL A   1      43.081  23.506  27.091  1.00  0.00     0.031 A 
ATOM     62  C   UNL A   1      46.166  29.561  28.103  1.00  0.00     0.031 A 
ATOM     63  C   UNL A   1      43.612  23.279  28.413  1.00  0.00     0.049 A 
ATOM     64  C   UNL A   1      46.684  28.176  28.227  1.00  0.00     0.074 A 
ATOM     65  C   UNL A   1      43.051  23.059  29.657  1.00  0.00     0.029 A 
ATOM     66  N   UNL A   1      44.905  23.687  28.653  1.00  0.00    -0.354 N 
ATOM     67  N   UNL A   1      46.804  27.561  29.368  1.00  0.00    -0.248 NA
ATOM     68  C   UNL A   1      46.614  27.317  27.055  1.00  0.00     0.031 C 
ATOM     69  C   UNL A   1      43.844  23.835  30.553  1.00  0.00     0.029 A 
ATOM     70  C   UNL A   1      44.893  24.397  29.824  1.00  0.00     0.049 A 
ATOM     71  H   UNL A   1      45.689  23.503  28.088  1.00  0.00     0.167 HD
ATOM     72  C   UNL A   1      46.358  26.271  29.115  1.00  0.00     0.074 A 
ATOM     73  C   UNL A   1      46.341  26.155  27.655  1.00  0.00     0.031 C 
ATOM     74  C   UNL A   1      45.764  25.520  30.089  1.00  0.00     0.031 A 
BRANCH  61  75
ATOM     75  C   UNL A   1      43.744  22.930  25.864  1.00  0.00    -0.014 A 
ATOM     76  C   UNL A   1      43.812  21.530  25.738  1.00  0.00     0.009 A 
ATOM     77  C   UNL A   1      44.558  23.681  24.996  1.00  0.00     0.009 A 
ATOM     78  C   UNL A   1      44.729  20.917  24.877  1.00  0.00     0.001 A 
ATOM     79  C   UNL A   1      45.444  23.073  24.103  1.00  0.00     0.001 A 
ATOM     80  C   UNL A   1      45.556  21.691  24.069  1.00  0.00     0.000 A 
ENDBRANCH  61  75
BRANCH  62  81
ATOM     81  C   UNL A   1      46.933  30.632  27.426  1.00  0.00    -0.014 A 
ATOM     82  C   UNL A   1      46.294  31.798  26.969  1.00  0.00     0.009 A 
ATOM     83  C   UNL A   1      48.340  30.640  27.475  1.00  0.00     0.009 A 
ATOM     84  C   UNL A   1      47.033  32.939  26.621  1.00  0.00     0.001 A 
ATOM     85  C   UNL A   1      49.077  31.777  27.122  1.00  0.00     0.001 A 
ATOM     86  C   UNL A   1      48.422  32.932  26.711  1.00  0.00     0.000 A 
ENDBRANCH  62  81
BRANCH  74  87
ATOM     87  C   UNL A   1      45.796  26.015  31.515  1.00  0.00    -0.014 A 
ATOM     88  C   UNL A   1      44.778  26.796  32.090  1.00  0.00     0.009 A 
ATOM     89  C   UNL A   1      46.806  25.522  32.355  1.00  0.00     0.009 A 
ATOM     90  C   UNL A   1      44.788  27.091  33.459  1.00  0.00     0.001 A 
ATOM     91  C   UNL A   1      46.803  25.796  33.724  1.00  0.00     0.001 A 
ATOM     92  C   UNL A   1      45.797  26.585  34.275  1.00  0.00     0.000 A 
ENDBRANCH  74  87
ENDBRANCH  48  49
ENDBRANCH  40  43
ENDBRANCH  38  39
ENDBRANCH  37  38
ENDBRANCH  36  37
ENDBRANCH   1  36
TORSDOF 17
ENDMDL
