MODEL 1
REMARK VINA RESULT:     -11.0      0.000      0.000
REMARK SMILES CCc1c(Cl)ccc2c1C=C(C(=O)NCCCCCCNC(=O)c1ccc(-c3c4nc(c(-c5ccccc5)c5ccc([nH]5)c(-c5ccccc5)c5nc(c(-c6ccccc6)c6ccc3[nH]6)C=C5)C=C4)cc1)[C@@H](C(F)(F)F)O2
REMARK SMILES IDX 18 1 17 2 16 3 15 4 14 5 12 6 13 7 11 9 3 10 4 11 9 12 5 13
REMARK SMILES IDX 6 14 8 15 10 16 7 17 77 18 72 19 2 20 1 21 73 22 74 23 75 24
REMARK SMILES IDX 76 25 19 26 20 27 21 28 22 29 23 31 24 32 25 33 71 34 26 35
REMARK SMILES IDX 70 36 27 37 28 38 29 39 64 40 30 41 69 42 63 43 65 44 31 45
REMARK SMILES IDX 68 46 62 47 61 48 32 50 54 51 39 52 53 53 40 54 43 55 52 56
REMARK SMILES IDX 66 57 41 58 42 59 51 61 67 62 44 63 33 64 34 65 38 66 35 67
REMARK SMILES IDX 37 68 36 69 55 70 56 71 60 72 57 73 59 74 58 75 45 76 46 77
REMARK SMILES IDX 50 78 47 79 49 80 48 81
REMARK H PARENT 14 8 21 30 65 49 43 60
REMARK Flexibility Score: inf
ROOT
ATOM      1  C   UNL A   1      36.241  19.939  25.039  1.00  0.00     0.002 C 
ENDROOT
BRANCH   1   2
ATOM      2  C   UNL A   1      34.801  20.467  25.076  1.00  0.00     0.002 C 
BRANCH   2   3
ATOM      3  C   UNL A   1      34.445  21.368  26.265  1.00  0.00     0.021 C 
BRANCH   3   4
ATOM      4  C   UNL A   1      34.251  22.841  25.917  1.00  0.00     0.116 C 
BRANCH   4   5
ATOM      5  N   UNL A   1      34.900  23.196  24.670  1.00  0.00    -0.352 N 
ATOM      6  C   UNL A   1      34.673  24.039  23.640  1.00  0.00     0.251 C 
ATOM      7  O   UNL A   1      35.554  24.044  22.772  1.00  0.00    -0.270 OA
ATOM      8  H   UNL A   1      35.731  22.684  24.539  1.00  0.00     0.163 HD
BRANCH   6   9
ATOM      9  C   UNL A   1      33.478  24.924  23.480  1.00  0.00     0.067 C 
ATOM     10  C   UNL A   1      32.420  28.247  24.855  1.00  0.00    -0.019 A 
ATOM     11  C   UNL A   1      31.354  29.151  24.649  1.00  0.00     0.045 A 
ATOM     12  C   UNL A   1      32.450  27.056  24.083  1.00  0.00     0.022 A 
ATOM     13  Cl  UNL A   1      31.242  30.661  25.488  1.00  0.00    -0.084 Cl
ATOM     14  C   UNL A   1      30.338  28.873  23.731  1.00  0.00     0.024 A 
ATOM     15  C   UNL A   1      31.419  26.796  23.173  1.00  0.00     0.128 A 
ATOM     16  C   UNL A   1      33.549  26.091  24.146  1.00  0.00     0.026 C 
ATOM     17  C   UNL A   1      30.370  27.695  22.995  1.00  0.00     0.048 A 
ATOM     18  O   UNL A   1      31.377  25.696  22.368  1.00  0.00    -0.475 OA
ATOM     19  C   UNL A   1      32.255  24.584  22.684  1.00  0.00     0.314 C 
BRANCH  10  20
ATOM     20  C   UNL A   1      33.513  28.560  25.861  1.00  0.00     0.034 C 
ATOM     21  C   UNL A   1      33.113  28.199  27.286  1.00  0.00     0.009 C 
ENDBRANCH  10  20
BRANCH  19  22
ATOM     22  C   UNL A   1      31.418  23.462  23.321  1.00  0.00     0.429 C 
ATOM     23  F   UNL A   1      30.101  23.638  23.045  1.00  0.00    -0.167 F 
ATOM     24  F   UNL A   1      31.743  22.237  22.849  1.00  0.00    -0.167 F 
ATOM     25  F   UNL A   1      31.548  23.419  24.666  1.00  0.00    -0.167 F 
ENDBRANCH  19  22
ENDBRANCH   6   9
ENDBRANCH   4   5
ENDBRANCH   3   4
ENDBRANCH   2   3
ENDBRANCH   1   2
BRANCH   1  26
ATOM     26  C   UNL A   1      37.312  20.944  24.614  1.00  0.00     0.021 C 
BRANCH  26  27
ATOM     27  C   UNL A   1      38.472  21.103  25.587  1.00  0.00     0.116 C 
BRANCH  27  28
ATOM     28  N   UNL A   1      39.371  19.961  25.585  1.00  0.00    -0.352 N 
ATOM     29  C   UNL A   1      40.691  19.907  25.961  1.00  0.00     0.251 C 
ATOM     30  H   UNL A   1      38.982  19.113  25.271  1.00  0.00     0.163 HD
ATOM     31  O   UNL A   1      41.357  18.892  25.779  1.00  0.00    -0.269 OA
BRANCH  29  32
ATOM     32  C   UNL A   1      41.317  21.106  26.555  1.00  0.00     0.039 A 
ATOM     33  C   UNL A   1      41.267  21.321  27.934  1.00  0.00     0.014 A 
ATOM     34  C   UNL A   1      41.904  22.052  25.710  1.00  0.00     0.014 A 
ATOM     35  C   UNL A   1      41.662  22.551  28.451  1.00  0.00     0.010 A 
ATOM     36  C   UNL A   1      42.365  23.258  26.242  1.00  0.00     0.010 A 
ATOM     37  C   UNL A   1      42.203  23.536  27.609  1.00  0.00    -0.014 A 
BRANCH  37  38
ATOM     38  C   UNL A   1      42.581  24.859  28.164  1.00  0.00     0.031 A 
ATOM     39  C   UNL A   1      41.542  25.932  28.357  1.00  0.00     0.074 A 
ATOM     40  C   UNL A   1      43.855  25.080  28.538  1.00  0.00     0.049 A 
ATOM     41  N   UNL A   1      41.697  27.155  28.797  1.00  0.00    -0.248 NA
ATOM     42  C   UNL A   1      40.152  25.589  28.018  1.00  0.00     0.031 C 
ATOM     43  C   UNL A   1      44.942  24.102  28.445  1.00  0.00     0.029 A 
ATOM     44  N   UNL A   1      44.448  26.186  29.091  1.00  0.00    -0.354 N 
ATOM     45  C   UNL A   1      40.433  27.730  28.770  1.00  0.00     0.074 A 
ATOM     46  C   UNL A   1      39.523  26.733  28.253  1.00  0.00     0.031 C 
ATOM     47  C   UNL A   1      46.055  24.636  28.967  1.00  0.00     0.029 A 
ATOM     48  C   UNL A   1      45.782  26.013  29.365  1.00  0.00     0.049 A 
ATOM     49  H   UNL A   1      43.964  27.023  29.272  1.00  0.00     0.167 HD
ATOM     50  C   UNL A   1      40.066  28.977  29.150  1.00  0.00     0.031 A 
ATOM     51  C   UNL A   1      46.694  26.871  29.862  1.00  0.00     0.031 A 
ATOM     52  C   UNL A   1      40.971  29.965  29.674  1.00  0.00     0.049 A 
ATOM     53  C   UNL A   1      46.276  28.272  30.199  1.00  0.00     0.074 A 
ATOM     54  C   UNL A   1      40.686  31.255  30.087  1.00  0.00     0.029 A 
ATOM     55  N   UNL A   1      42.330  29.773  29.859  1.00  0.00    -0.354 N 
ATOM     56  N   UNL A   1      45.081  28.808  30.144  1.00  0.00    -0.248 NA
ATOM     57  C   UNL A   1      47.330  29.191  30.651  1.00  0.00     0.031 C 
ATOM     58  C   UNL A   1      41.883  31.861  30.478  1.00  0.00     0.029 A 
ATOM     59  C   UNL A   1      42.902  30.929  30.360  1.00  0.00     0.049 A 
ATOM     60  H   UNL A   1      42.815  28.940  29.664  1.00  0.00     0.167 HD
ATOM     61  C   UNL A   1      45.236  30.121  30.566  1.00  0.00     0.074 A 
ATOM     62  C   UNL A   1      46.638  30.298  30.886  1.00  0.00     0.031 C 
ATOM     63  C   UNL A   1      44.298  31.091  30.674  1.00  0.00     0.031 A 
BRANCH  50  64
ATOM     64  C   UNL A   1      38.621  29.364  29.006  1.00  0.00    -0.014 A 
ATOM     65  C   UNL A   1      37.754  29.239  30.103  1.00  0.00     0.009 A 
ATOM     66  C   UNL A   1      38.096  29.756  27.764  1.00  0.00     0.009 A 
ATOM     67  C   UNL A   1      36.388  29.484  29.958  1.00  0.00     0.001 A 
ATOM     68  C   UNL A   1      36.732  30.022  27.629  1.00  0.00     0.001 A 
ATOM     69  C   UNL A   1      35.878  29.878  28.722  1.00  0.00     0.000 A 
ENDBRANCH  50  64
BRANCH  51  70
ATOM     70  C   UNL A   1      48.094  26.414  30.055  1.00  0.00    -0.014 A 
ATOM     71  C   UNL A   1      49.026  26.509  29.008  1.00  0.00     0.009 A 
ATOM     72  C   UNL A   1      48.490  25.830  31.266  1.00  0.00     0.009 A 
ATOM     73  C   UNL A   1      50.318  26.002  29.161  1.00  0.00     0.001 A 
ATOM     74  C   UNL A   1      49.792  25.348  31.425  1.00  0.00     0.001 A 
ATOM     75  C   UNL A   1      50.701  25.425  30.370  1.00  0.00     0.000 A 
ENDBRANCH  51  70
BRANCH  63  76
ATOM     76  C   UNL A   1      44.735  32.437  31.172  1.00  0.00    -0.014 A 
ATOM     77  C   UNL A   1      45.210  33.396  30.263  1.00  0.00     0.009 A 
ATOM     78  C   UNL A   1      44.784  32.714  32.546  1.00  0.00     0.009 A 
ATOM     79  C   UNL A   1      45.743  34.601  30.721  1.00  0.00     0.001 A 
ATOM     80  C   UNL A   1      45.297  33.930  32.999  1.00  0.00     0.001 A 
ATOM     81  C   UNL A   1      45.785  34.867  32.089  1.00  0.00     0.000 A 
ENDBRANCH  63  76
ENDBRANCH  37  38
ENDBRANCH  29  32
ENDBRANCH  27  28
ENDBRANCH  26  27
ENDBRANCH   1  26
TORSDOF 15
ENDMDL
MODEL 2
REMARK VINA RESULT:     -11.0      2.640      6.587
REMARK SMILES CCc1c(Cl)ccc2c1C=C(C(=O)NCCCCCCNC(=O)c1ccc(-c3c4nc(c(-c5ccccc5)c5ccc([nH]5)c(-c5ccccc5)c5nc(c(-c6ccccc6)c6ccc3[nH]6)C=C5)C=C4)cc1)[C@@H](C(F)(F)F)O2
REMARK SMILES IDX 18 1 17 2 16 3 15 4 14 5 12 6 13 7 11 9 3 10 4 11 9 12 5 13
REMARK SMILES IDX 6 14 8 15 10 16 7 17 77 18 72 19 2 20 1 21 73 22 74 23 75 24
REMARK SMILES IDX 76 25 19 26 20 27 21 28 22 29 23 31 24 32 25 33 71 34 26 35
REMARK SMILES IDX 70 36 27 37 28 38 29 39 64 40 30 41 69 42 63 43 65 44 31 45
REMARK SMILES IDX 68 46 62 47 61 48 32 50 54 51 39 52 53 53 40 54 43 55 52 56
REMARK SMILES IDX 66 57 41 58 42 59 51 61 67 62 44 63 33 64 34 65 38 66 35 67
REMARK SMILES IDX 37 68 36 69 55 70 56 71 60 72 57 73 59 74 58 75 45 76 46 77
REMARK SMILES IDX 50 78 47 79 49 80 48 81
REMARK H PARENT 14 8 21 30 65 49 43 60
REMARK Flexibility Score: inf
ROOT
ATOM      1  C   UNL A   1      41.425  21.464  26.170  1.00  0.00     0.002 C 
ENDROOT
BRANCH   1   2
ATOM      2  C   UNL A   1      40.092  22.011  26.695  1.00  0.00     0.002 C 
BRANCH   2   3
ATOM      3  C   UNL A   1      38.864  21.753  25.814  1.00  0.00     0.021 C 
BRANCH   3   4
ATOM      4  C   UNL A   1      37.773  22.816  25.907  1.00  0.00     0.116 C 
BRANCH   4   5
ATOM      5  N   UNL A   1      36.508  22.260  26.344  1.00  0.00    -0.352 N 
ATOM      6  C   UNL A   1      35.209  22.349  25.984  1.00  0.00     0.251 C 
ATOM      7  O   UNL A   1      34.442  21.633  26.637  1.00  0.00    -0.270 OA
ATOM      8  H   UNL A   1      36.628  21.652  27.109  1.00  0.00     0.163 HD
BRANCH   6   9
ATOM      9  C   UNL A   1      34.659  23.223  24.902  1.00  0.00     0.067 C 
ATOM     10  C   UNL A   1      33.649  26.823  24.640  1.00  0.00    -0.019 A 
ATOM     11  C   UNL A   1      33.225  27.698  23.615  1.00  0.00     0.045 A 
ATOM     12  C   UNL A   1      33.957  25.482  24.293  1.00  0.00     0.022 A 
ATOM     13  Cl  UNL A   1      32.878  29.369  23.905  1.00  0.00    -0.084 Cl
ATOM     14  C   UNL A   1      33.083  27.253  22.298  1.00  0.00     0.024 A 
ATOM     15  C   UNL A   1      33.802  25.057  22.968  1.00  0.00     0.128 A 
ATOM     16  C   UNL A   1      34.489  24.511  25.251  1.00  0.00     0.026 C 
ATOM     17  C   UNL A   1      33.369  25.933  21.975  1.00  0.00     0.048 A 
ATOM     18  O   UNL A   1      34.101  23.798  22.535  1.00  0.00    -0.475 OA
ATOM     19  C   UNL A   1      34.276  22.757  23.530  1.00  0.00     0.314 C 
BRANCH  10  20
ATOM     20  C   UNL A   1      33.792  27.319  26.067  1.00  0.00     0.034 C 
ATOM     21  C   UNL A   1      32.458  27.377  26.800  1.00  0.00     0.009 C 
ENDBRANCH  10  20
BRANCH  19  22
ATOM     22  C   UNL A   1      33.026  21.860  23.530  1.00  0.00     0.429 C 
ATOM     23  F   UNL A   1      32.499  21.784  22.282  1.00  0.00    -0.167 F 
ATOM     24  F   UNL A   1      33.297  20.589  23.905  1.00  0.00    -0.167 F 
ATOM     25  F   UNL A   1      32.057  22.321  24.352  1.00  0.00    -0.167 F 
ENDBRANCH  19  22
ENDBRANCH   6   9
ENDBRANCH   4   5
ENDBRANCH   3   4
ENDBRANCH   2   3
ENDBRANCH   1   2
BRANCH   1  26
ATOM     26  C   UNL A   1      41.543  19.940  26.103  1.00  0.00     0.021 C 
BRANCH  26  27
ATOM     27  C   UNL A   1      42.947  19.391  26.318  1.00  0.00     0.116 C 
BRANCH  27  28
ATOM     28  N   UNL A   1      43.588  18.981  25.080  1.00  0.00    -0.352 N 
ATOM     29  C   UNL A   1      44.392  19.719  24.245  1.00  0.00     0.251 C 
ATOM     30  H   UNL A   1      43.424  18.051  24.802  1.00  0.00     0.163 HD
ATOM     31  O   UNL A   1      44.756  19.270  23.162  1.00  0.00    -0.269 OA
BRANCH  29  32
ATOM     32  C   UNL A   1      44.784  21.084  24.649  1.00  0.00     0.039 A 
ATOM     33  C   UNL A   1      45.473  21.298  25.845  1.00  0.00     0.014 A 
ATOM     34  C   UNL A   1      44.400  22.163  23.848  1.00  0.00     0.014 A 
ATOM     35  C   UNL A   1      45.638  22.596  26.318  1.00  0.00     0.010 A 
ATOM     36  C   UNL A   1      44.631  23.467  24.293  1.00  0.00     0.010 A 
ATOM     37  C   UNL A   1      45.209  23.692  25.553  1.00  0.00    -0.014 A 
BRANCH  37  38
ATOM     38  C   UNL A   1      45.353  25.069  26.086  1.00  0.00     0.031 A 
ATOM     39  C   UNL A   1      46.678  25.781  26.019  1.00  0.00     0.074 A 
ATOM     40  C   UNL A   1      44.276  25.697  26.594  1.00  0.00     0.049 A 
ATOM     41  N   UNL A   1      46.994  26.971  26.464  1.00  0.00    -0.248 NA
ATOM     42  C   UNL A   1      47.789  25.072  25.364  1.00  0.00     0.031 C 
ATOM     43  C   UNL A   1      42.928  25.129  26.670  1.00  0.00     0.029 A 
ATOM     44  N   UNL A   1      44.137  26.957  27.120  1.00  0.00    -0.354 N 
ATOM     45  C   UNL A   1      48.339  27.144  26.161  1.00  0.00     0.074 A 
ATOM     46  C   UNL A   1      48.787  25.932  25.511  1.00  0.00     0.031 C 
ATOM     47  C   UNL A   1      42.092  26.052  27.167  1.00  0.00     0.029 A 
ATOM     48  C   UNL A   1      42.854  27.249  27.510  1.00  0.00     0.049 A 
ATOM     49  H   UNL A   1      44.886  27.588  27.210  1.00  0.00     0.167 HD
ATOM     50  C   UNL A   1      49.125  28.220  26.399  1.00  0.00     0.031 A 
ATOM     51  C   UNL A   1      42.345  28.349  28.098  1.00  0.00     0.031 A 
ATOM     52  C   UNL A   1      48.675  29.429  27.036  1.00  0.00     0.049 A 
ATOM     53  C   UNL A   1      43.257  29.495  28.423  1.00  0.00     0.074 A 
ATOM     54  C   UNL A   1      49.403  30.573  27.316  1.00  0.00     0.029 A 
ATOM     55  N   UNL A   1      47.385  29.651  27.488  1.00  0.00    -0.354 N 
ATOM     56  N   UNL A   1      44.532  29.633  28.152  1.00  0.00    -0.248 NA
ATOM     57  C   UNL A   1      42.667  30.631  29.145  1.00  0.00     0.031 C 
ATOM     58  C   UNL A   1      48.563  31.470  27.981  1.00  0.00     0.029 A 
ATOM     59  C   UNL A   1      47.300  30.905  28.065  1.00  0.00     0.049 A 
ATOM     60  H   UNL A   1      46.640  29.012  27.410  1.00  0.00     0.167 HD
ATOM     61  C   UNL A   1      44.894  30.873  28.659  1.00  0.00     0.074 A 
ATOM     62  C   UNL A   1      43.703  31.455  29.241  1.00  0.00     0.031 C 
ATOM     63  C   UNL A   1      46.109  31.471  28.642  1.00  0.00     0.031 A 
BRANCH  50  64
ATOM     64  C   UNL A   1      50.567  28.149  25.981  1.00  0.00    -0.014 A 
ATOM     65  C   UNL A   1      50.922  28.430  24.652  1.00  0.00     0.009 A 
ATOM     66  C   UNL A   1      51.559  27.709  26.872  1.00  0.00     0.009 A 
ATOM     67  C   UNL A   1      52.237  28.259  24.218  1.00  0.00     0.001 A 
ATOM     68  C   UNL A   1      52.878  27.561  26.440  1.00  0.00     0.001 A 
ATOM     69  C   UNL A   1      53.215  27.828  25.113  1.00  0.00     0.000 A 
ENDBRANCH  50  64
BRANCH  51  70
ATOM     70  C   UNL A   1      40.897  28.397  28.422  1.00  0.00    -0.014 A 
ATOM     71  C   UNL A   1      39.989  29.012  27.544  1.00  0.00     0.009 A 
ATOM     72  C   UNL A   1      40.422  27.878  29.636  1.00  0.00     0.009 A 
ATOM     73  C   UNL A   1      38.641  29.134  27.888  1.00  0.00     0.001 A 
ATOM     74  C   UNL A   1      39.069  27.977  29.965  1.00  0.00     0.001 A 
ATOM     75  C   UNL A   1      38.181  28.613  29.096  1.00  0.00     0.000 A 
ENDBRANCH  51  70
BRANCH  63  76
ATOM     76  C   UNL A   1      46.227  32.835  29.256  1.00  0.00    -0.014 A 
ATOM     77  C   UNL A   1      45.992  33.975  28.471  1.00  0.00     0.009 A 
ATOM     78  C   UNL A   1      46.680  32.994  30.574  1.00  0.00     0.009 A 
ATOM     79  C   UNL A   1      46.225  35.250  28.987  1.00  0.00     0.001 A 
ATOM     80  C   UNL A   1      46.891  34.272  31.094  1.00  0.00     0.001 A 
ATOM     81  C   UNL A   1      46.674  35.396  30.299  1.00  0.00     0.000 A 
ENDBRANCH  63  76
ENDBRANCH  37  38
ENDBRANCH  29  32
ENDBRANCH  27  28
ENDBRANCH  26  27
ENDBRANCH   1  26
TORSDOF 15
ENDMDL
MODEL 3
REMARK VINA RESULT:     -10.9      3.452      7.100
REMARK SMILES CCc1c(Cl)ccc2c1C=C(C(=O)NCCCCCCNC(=O)c1ccc(-c3c4nc(c(-c5ccccc5)c5ccc([nH]5)c(-c5ccccc5)c5nc(c(-c6ccccc6)c6ccc3[nH]6)C=C5)C=C4)cc1)[C@@H](C(F)(F)F)O2
REMARK SMILES IDX 18 1 17 2 16 3 15 4 14 5 12 6 13 7 11 9 3 10 4 11 9 12 5 13
REMARK SMILES IDX 6 14 8 15 10 16 7 17 77 18 72 19 2 20 1 21 73 22 74 23 75 24
REMARK SMILES IDX 76 25 19 26 20 27 21 28 22 29 23 31 24 32 25 33 71 34 26 35
REMARK SMILES IDX 70 36 27 37 28 38 29 39 64 40 30 41 69 42 63 43 65 44 31 45
REMARK SMILES IDX 68 46 62 47 61 48 32 50 54 51 39 52 53 53 40 54 43 55 52 56
REMARK SMILES IDX 66 57 41 58 42 59 51 61 67 62 44 63 33 64 34 65 38 66 35 67
REMARK SMILES IDX 37 68 36 69 55 70 56 71 60 72 57 73 59 74 58 75 45 76 46 77
REMARK SMILES IDX 50 78 47 79 49 80 48 81
REMARK H PARENT 14 8 21 30 65 49 43 60
REMARK Flexibility Score: inf
ROOT
ATOM      1  C   UNL A   1      40.144  22.182  27.218  1.00  0.00     0.002 C 
ENDROOT
BRANCH   1   2
ATOM      2  C   UNL A   1      39.720  23.634  26.959  1.00  0.00     0.002 C 
BRANCH   2   3
ATOM      3  C   UNL A   1      38.301  23.833  26.414  1.00  0.00     0.021 C 
BRANCH   3   4
ATOM      4  C   UNL A   1      37.746  22.653  25.623  1.00  0.00     0.116 C 
BRANCH   4   5
ATOM      5  N   UNL A   1      36.480  22.188  26.155  1.00  0.00    -0.352 N 
ATOM      6  C   UNL A   1      35.169  22.353  25.879  1.00  0.00     0.251 C 
ATOM      7  O   UNL A   1      34.403  21.701  26.598  1.00  0.00    -0.270 OA
ATOM      8  H   UNL A   1      36.613  21.589  26.925  1.00  0.00     0.163 HD
BRANCH   6   9
ATOM      9  C   UNL A   1      34.603  23.239  24.815  1.00  0.00     0.067 C 
ATOM     10  C   UNL A   1      33.612  26.848  24.599  1.00  0.00    -0.019 A 
ATOM     11  C   UNL A   1      33.174  27.733  23.589  1.00  0.00     0.045 A 
ATOM     12  C   UNL A   1      33.904  25.507  24.237  1.00  0.00     0.022 A 
ATOM     13  Cl  UNL A   1      32.845  29.404  23.899  1.00  0.00    -0.084 Cl
ATOM     14  C   UNL A   1      33.003  27.299  22.272  1.00  0.00     0.024 A 
ATOM     15  C   UNL A   1      33.720  25.093  22.911  1.00  0.00     0.128 A 
ATOM     16  C   UNL A   1      34.449  24.525  25.176  1.00  0.00     0.026 C 
ATOM     17  C   UNL A   1      33.274  25.979  21.934  1.00  0.00     0.048 A 
ATOM     18  O   UNL A   1      34.002  23.836  22.463  1.00  0.00    -0.475 OA
ATOM     19  C   UNL A   1      34.189  22.786  23.447  1.00  0.00     0.314 C 
BRANCH  10  20
ATOM     20  C   UNL A   1      33.787  27.332  26.027  1.00  0.00     0.034 C 
ATOM     21  C   UNL A   1      32.471  27.376  26.792  1.00  0.00     0.009 C 
ENDBRANCH  10  20
BRANCH  19  22
ATOM     22  C   UNL A   1      32.934  21.898  23.465  1.00  0.00     0.429 C 
ATOM     23  F   UNL A   1      32.023  22.382  24.346  1.00  0.00    -0.167 F 
ATOM     24  F   UNL A   1      32.311  21.851  22.264  1.00  0.00    -0.167 F 
ATOM     25  F   UNL A   1      33.206  20.623  23.822  1.00  0.00    -0.167 F 
ENDBRANCH  19  22
ENDBRANCH   6   9
ENDBRANCH   4   5
ENDBRANCH   3   4
ENDBRANCH   2   3
ENDBRANCH   1   2
BRANCH   1  26
ATOM     26  C   UNL A   1      41.079  21.562  26.178  1.00  0.00     0.021 C 
BRANCH  26  27
ATOM     27  C   UNL A   1      42.561  21.629  26.521  1.00  0.00     0.116 C 
BRANCH  27  28
ATOM     28  N   UNL A   1      43.356  22.243  25.470  1.00  0.00    -0.352 N 
ATOM     29  C   UNL A   1      43.777  23.547  25.364  1.00  0.00     0.251 C 
ATOM     30  H   UNL A   1      43.627  21.646  24.737  1.00  0.00     0.163 HD
ATOM     31  O   UNL A   1      44.335  23.947  24.347  1.00  0.00    -0.269 OA
BRANCH  29  32
ATOM     32  C   UNL A   1      43.513  24.478  26.479  1.00  0.00     0.039 A 
ATOM     33  C   UNL A   1      43.330  23.996  27.777  1.00  0.00     0.014 A 
ATOM     34  C   UNL A   1      43.387  25.843  26.205  1.00  0.00     0.014 A 
ATOM     35  C   UNL A   1      42.866  24.854  28.768  1.00  0.00     0.010 A 
ATOM     36  C   UNL A   1      42.990  26.715  27.221  1.00  0.00     0.010 A 
ATOM     37  C   UNL A   1      42.680  26.219  28.498  1.00  0.00    -0.014 A 
BRANCH  37  38
ATOM     38  C   UNL A   1      42.145  27.116  29.551  1.00  0.00     0.031 A 
ATOM     39  C   UNL A   1      42.894  27.312  30.843  1.00  0.00     0.074 A 
ATOM     40  C   UNL A   1      41.002  27.792  29.326  1.00  0.00     0.049 A 
ATOM     41  N   UNL A   1      42.560  28.030  31.885  1.00  0.00    -0.248 NA
ATOM     42  C   UNL A   1      44.184  26.617  30.982  1.00  0.00     0.031 C 
ATOM     43  C   UNL A   1      40.211  27.722  28.096  1.00  0.00     0.029 A 
ATOM     44  N   UNL A   1      40.320  28.685  30.112  1.00  0.00    -0.354 N 
ATOM     45  C   UNL A   1      43.585  27.860  32.807  1.00  0.00     0.074 A 
ATOM     46  C   UNL A   1      44.545  26.956  32.212  1.00  0.00     0.031 C 
ATOM     47  C   UNL A   1      39.179  28.573  28.191  1.00  0.00     0.029 A 
ATOM     48  C   UNL A   1      39.194  29.193  29.512  1.00  0.00     0.049 A 
ATOM     49  H   UNL A   1      40.608  28.937  31.018  1.00  0.00     0.167 HD
ATOM     50  C   UNL A   1      43.715  28.414  34.035  1.00  0.00     0.031 A 
ATOM     51  C   UNL A   1      38.262  30.048  29.977  1.00  0.00     0.031 A 
ATOM     52  C   UNL A   1      42.764  29.321  34.621  1.00  0.00     0.049 A 
ATOM     53  C   UNL A   1      38.390  30.584  31.372  1.00  0.00     0.074 A 
ATOM     54  C   UNL A   1      42.816  29.934  35.861  1.00  0.00     0.029 A 
ATOM     55  N   UNL A   1      41.596  29.746  34.009  1.00  0.00    -0.354 N 
ATOM     56  N   UNL A   1      39.353  30.394  32.240  1.00  0.00    -0.248 NA
ATOM     57  C   UNL A   1      37.298  31.440  31.859  1.00  0.00     0.031 C 
ATOM     58  C   UNL A   1      41.654  30.694  36.019  1.00  0.00     0.029 A 
ATOM     59  C   UNL A   1      40.908  30.596  34.855  1.00  0.00     0.049 A 
ATOM     60  H   UNL A   1      41.302  29.482  33.108  1.00  0.00     0.167 HD
ATOM     61  C   UNL A   1      38.991  31.114  33.370  1.00  0.00     0.074 A 
ATOM     62  C   UNL A   1      37.728  31.757  33.074  1.00  0.00     0.031 C 
ATOM     63  C   UNL A   1      39.651  31.228  34.548  1.00  0.00     0.031 A 
BRANCH  50  64
ATOM     64  C   UNL A   1      44.925  28.053  34.850  1.00  0.00    -0.014 A 
ATOM     65  C   UNL A   1      44.870  26.961  35.731  1.00  0.00     0.009 A 
ATOM     66  C   UNL A   1      46.081  28.849  34.824  1.00  0.00     0.009 A 
ATOM     67  C   UNL A   1      45.943  26.680  36.579  1.00  0.00     0.001 A 
ATOM     68  C   UNL A   1      47.161  28.550  35.657  1.00  0.00     0.001 A 
ATOM     69  C   UNL A   1      47.088  27.473  36.539  1.00  0.00     0.000 A 
ENDBRANCH  50  64
BRANCH  51  70
ATOM     70  C   UNL A   1      37.125  30.431  29.103  1.00  0.00    -0.014 A 
ATOM     71  C   UNL A   1      36.998  31.748  28.632  1.00  0.00     0.009 A 
ATOM     72  C   UNL A   1      36.131  29.496  28.780  1.00  0.00     0.009 A 
ATOM     73  C   UNL A   1      35.884  32.130  27.882  1.00  0.00     0.001 A 
ATOM     74  C   UNL A   1      35.031  29.874  28.005  1.00  0.00     0.001 A 
ATOM     75  C   UNL A   1      34.904  31.191  27.565  1.00  0.00     0.000 A 
ENDBRANCH  51  70
BRANCH  63  76
ATOM     76  C   UNL A   1      39.039  32.089  35.613  1.00  0.00    -0.014 A 
ATOM     77  C   UNL A   1      39.389  33.446  35.698  1.00  0.00     0.009 A 
ATOM     78  C   UNL A   1      38.209  31.534  36.598  1.00  0.00     0.009 A 
ATOM     79  C   UNL A   1      38.935  34.229  36.759  1.00  0.00     0.001 A 
ATOM     80  C   UNL A   1      37.738  32.326  37.647  1.00  0.00     0.001 A 
ATOM     81  C   UNL A   1      38.108  33.667  37.732  1.00  0.00     0.000 A 
ENDBRANCH  63  76
ENDBRANCH  37  38
ENDBRANCH  29  32
ENDBRANCH  27  28
ENDBRANCH  26  27
ENDBRANCH   1  26
TORSDOF 15
ENDMDL
