MODEL 1
REMARK VINA RESULT:     -11.3      0.000      0.000
REMARK SMILES O=C(NCCCCCCNC(=O)c1cnn(Cc2ccccc2)c1-n1cccc1)c1ccc(-c2c3nc(c(-c4ccccc4)c4ccc([nH]4)c(-c4ccccc4)c4nc(c(-c5ccccc5)c5ccc2[nH]5)C=C4)C=C3)cc1
REMARK SMILES IDX 6 1 5 2 4 3 3 4 1 5 2 6 30 8 31 9 77 10 32 11 76 12 33 13
REMARK SMILES IDX 34 14 35 15 70 16 36 17 75 18 69 19 71 20 37 21 74 22 68 23
REMARK SMILES IDX 67 24 38 26 60 27 45 28 59 29 46 30 49 31 58 32 72 33 47 34
REMARK SMILES IDX 48 35 57 37 73 38 50 39 39 40 40 41 44 42 41 43 43 44 42 45
REMARK SMILES IDX 61 46 62 47 66 48 63 49 65 50 64 51 51 52 52 53 56 54 53 55
REMARK SMILES IDX 55 56 54 57 7 58 8 59 9 60 10 61 11 62 12 64 13 65 14 66
REMARK SMILES IDX 24 67 15 68 16 69 25 70 26 71 29 72 27 73 28 74 17 75 18 76
REMARK SMILES IDX 19 77 23 78 20 79 22 80 21 81
REMARK H PARENT 3 7 71 25 49 36 10 63
REMARK Flexibility Score: inf
ROOT
ATOM      1  C   UNL A   1      31.693  29.119  25.343  1.00  0.00     0.002 C 
ENDROOT
BRANCH   1   2
ATOM      2  C   UNL A   1      32.834  30.079  25.707  1.00  0.00     0.021 C 
BRANCH   2   3
ATOM      3  C   UNL A   1      33.450  29.856  27.090  1.00  0.00     0.116 C 
BRANCH   3   4
ATOM      4  N   UNL A   1      33.930  31.079  27.701  1.00  0.00    -0.352 N 
ATOM      5  O   UNL A   1      35.097  32.630  28.746  1.00  0.00    -0.269 OA
ATOM      6  C   UNL A   1      35.047  31.445  28.403  1.00  0.00     0.251 C 
ATOM      7  H   UNL A   1      33.302  31.828  27.582  1.00  0.00     0.163 HD
BRANCH   6   8
ATOM      8  C   UNL A   1      36.181  30.546  28.782  1.00  0.00     0.039 A 
ATOM      9  C   UNL A   1      36.277  29.783  29.945  1.00  0.00     0.014 A 
ATOM     10  C   UNL A   1      37.252  30.472  27.866  1.00  0.00     0.014 A 
ATOM     11  C   UNL A   1      37.400  28.981  30.189  1.00  0.00     0.010 A 
ATOM     12  C   UNL A   1      38.374  29.667  28.104  1.00  0.00     0.010 A 
ATOM     13  C   UNL A   1      38.463  28.920  29.277  1.00  0.00    -0.014 A 
BRANCH  13  14
ATOM     14  C   UNL A   1      39.594  28.031  29.592  1.00  0.00     0.031 A 
ATOM     15  C   UNL A   1      40.203  28.114  30.953  1.00  0.00     0.074 A 
ATOM     16  C   UNL A   1      40.056  27.018  28.832  1.00  0.00     0.049 A 
ATOM     17  N   UNL A   1      41.444  28.335  31.266  1.00  0.00    -0.248 NA
ATOM     18  C   UNL A   1      39.327  27.831  32.099  1.00  0.00     0.031 C 
ATOM     19  C   UNL A   1      39.441  26.439  27.639  1.00  0.00     0.029 A 
ATOM     20  N   UNL A   1      41.168  26.232  29.037  1.00  0.00    -0.354 N 
ATOM     21  C   UNL A   1      41.538  28.106  32.634  1.00  0.00     0.074 A 
ATOM     22  C   UNL A   1      40.200  27.828  33.107  1.00  0.00     0.031 C 
ATOM     23  C   UNL A   1      40.086  25.293  27.326  1.00  0.00     0.029 A 
ATOM     24  C   UNL A   1      41.237  25.130  28.207  1.00  0.00     0.049 A 
ATOM     25  H   UNL A   1      41.851  26.437  29.715  1.00  0.00     0.167 HD
ATOM     26  C   UNL A   1      42.710  28.013  33.313  1.00  0.00     0.031 A 
ATOM     27  C   UNL A   1      42.151  24.133  28.207  1.00  0.00     0.031 A 
ATOM     28  C   UNL A   1      43.880  28.381  32.576  1.00  0.00     0.049 A 
ATOM     29  C   UNL A   1      43.394  24.533  28.906  1.00  0.00     0.074 A 
ATOM     30  C   UNL A   1      44.501  29.549  32.197  1.00  0.00     0.029 A 
ATOM     31  N   UNL A   1      44.545  27.355  31.960  1.00  0.00    -0.354 N 
ATOM     32  N   UNL A   1      44.246  25.402  28.447  1.00  0.00    -0.248 NA
ATOM     33  C   UNL A   1      43.699  24.014  30.238  1.00  0.00     0.031 C 
ATOM     34  C   UNL A   1      45.408  29.204  31.152  1.00  0.00     0.029 A 
ATOM     35  C   UNL A   1      45.252  27.846  30.888  1.00  0.00     0.049 A 
ATOM     36  H   UNL A   1      44.522  26.411  32.241  1.00  0.00     0.167 HD
ATOM     37  C   UNL A   1      44.976  25.801  29.549  1.00  0.00     0.074 A 
ATOM     38  C   UNL A   1      44.732  24.794  30.564  1.00  0.00     0.031 C 
ATOM     39  C   UNL A   1      45.411  27.085  29.667  1.00  0.00     0.031 A 
BRANCH  26  40
ATOM     40  C   UNL A   1      42.839  27.293  34.617  1.00  0.00    -0.014 A 
ATOM     41  C   UNL A   1      43.380  27.949  35.733  1.00  0.00     0.009 A 
ATOM     42  C   UNL A   1      42.651  25.900  34.695  1.00  0.00     0.009 A 
ATOM     43  C   UNL A   1      43.698  27.239  36.895  1.00  0.00     0.001 A 
ATOM     44  C   UNL A   1      42.952  25.194  35.863  1.00  0.00     0.001 A 
ATOM     45  C   UNL A   1      43.478  25.864  36.962  1.00  0.00     0.000 A 
ENDBRANCH  26  40
BRANCH  27  46
ATOM     46  C   UNL A   1      42.034  22.793  27.597  1.00  0.00    -0.014 A 
ATOM     47  C   UNL A   1      40.996  21.922  27.960  1.00  0.00     0.009 A 
ATOM     48  C   UNL A   1      42.856  22.427  26.517  1.00  0.00     0.009 A 
ATOM     49  C   UNL A   1      40.789  20.724  27.266  1.00  0.00     0.001 A 
ATOM     50  C   UNL A   1      42.657  21.225  25.832  1.00  0.00     0.001 A 
ATOM     51  C   UNL A   1      41.621  20.376  26.203  1.00  0.00     0.000 A 
ENDBRANCH  27  46
BRANCH  39  52
ATOM     52  C   UNL A   1      45.681  27.839  28.401  1.00  0.00    -0.014 A 
ATOM     53  C   UNL A   1      44.721  28.676  27.810  1.00  0.00     0.009 A 
ATOM     54  C   UNL A   1      46.957  27.763  27.826  1.00  0.00     0.009 A 
ATOM     55  C   UNL A   1      45.023  29.395  26.652  1.00  0.00     0.001 A 
ATOM     56  C   UNL A   1      47.264  28.495  26.676  1.00  0.00     0.001 A 
ATOM     57  C   UNL A   1      46.294  29.306  26.089  1.00  0.00     0.000 A 
ENDBRANCH  39  52
ENDBRANCH  13  14
ENDBRANCH   6   8
ENDBRANCH   3   4
ENDBRANCH   2   3
ENDBRANCH   1   2
BRANCH   1  58
ATOM     58  C   UNL A   1      30.661  29.652  24.345  1.00  0.00     0.002 C 
BRANCH  58  59
ATOM     59  C   UNL A   1      30.658  28.980  22.966  1.00  0.00     0.021 C 
BRANCH  59  60
ATOM     60  C   UNL A   1      30.808  27.459  22.983  1.00  0.00     0.116 C 
BRANCH  60  61
ATOM     61  N   UNL A   1      31.724  26.999  21.955  1.00  0.00    -0.352 N 
ATOM     62  C   UNL A   1      32.985  26.472  22.069  1.00  0.00     0.256 C 
ATOM     63  H   UNL A   1      31.388  27.079  21.033  1.00  0.00     0.163 HD
ATOM     64  O   UNL A   1      33.653  26.328  21.048  1.00  0.00    -0.269 OA
BRANCH  62  65
ATOM     65  C   UNL A   1      33.471  26.075  23.374  1.00  0.00     0.102 A 
ATOM     66  C   UNL A   1      33.987  26.927  24.374  1.00  0.00     0.151 A 
ATOM     67  C   UNL A   1      33.354  24.846  24.011  1.00  0.00     0.148 A 
ATOM     68  N   UNL A   1      34.223  26.301  25.524  1.00  0.00    -0.178 NA
ATOM     69  N   UNL A   1      33.874  25.012  25.277  1.00  0.00    -0.244 N 
BRANCH  67  70
ATOM     70  N   UNL A   1      32.834  23.661  23.483  1.00  0.00    -0.308 N 
ATOM     71  C   UNL A   1      31.740  22.964  23.965  1.00  0.00     0.093 A 
ATOM     72  C   UNL A   1      33.324  22.931  22.416  1.00  0.00     0.093 A 
ATOM     73  C   UNL A   1      31.518  21.851  23.184  1.00  0.00     0.020 A 
ATOM     74  C   UNL A   1      32.526  21.829  22.202  1.00  0.00     0.020 A 
ENDBRANCH  67  70
BRANCH  69  75
ATOM     75  C   UNL A   1      34.176  24.035  26.321  1.00  0.00     0.182 C 
BRANCH  75  76
ATOM     76  C   UNL A   1      35.378  23.178  25.997  1.00  0.00    -0.026 A 
ATOM     77  C   UNL A   1      36.678  23.693  26.103  1.00  0.00     0.005 A 
ATOM     78  C   UNL A   1      35.208  21.858  25.549  1.00  0.00     0.005 A 
ATOM     79  C   UNL A   1      37.780  22.910  25.750  1.00  0.00     0.000 A 
ATOM     80  C   UNL A   1      36.311  21.077  25.202  1.00  0.00     0.000 A 
ATOM     81  C   UNL A   1      37.596  21.605  25.297  1.00  0.00     0.000 A 
ENDBRANCH  75  76
ENDBRANCH  69  75
ENDBRANCH  62  65
ENDBRANCH  60  61
ENDBRANCH  59  60
ENDBRANCH  58  59
ENDBRANCH   1  58
TORSDOF 16
ENDMDL
MODEL 2
REMARK VINA RESULT:     -11.3      1.323      1.893
REMARK SMILES O=C(NCCCCCCNC(=O)c1cnn(Cc2ccccc2)c1-n1cccc1)c1ccc(-c2c3nc(c(-c4ccccc4)c4ccc([nH]4)c(-c4ccccc4)c4nc(c(-c5ccccc5)c5ccc2[nH]5)C=C4)C=C3)cc1
REMARK SMILES IDX 6 1 5 2 4 3 3 4 1 5 2 6 30 8 31 9 77 10 32 11 76 12 33 13
REMARK SMILES IDX 34 14 35 15 70 16 36 17 75 18 69 19 71 20 37 21 74 22 68 23
REMARK SMILES IDX 67 24 38 26 60 27 45 28 59 29 46 30 49 31 58 32 72 33 47 34
REMARK SMILES IDX 48 35 57 37 73 38 50 39 39 40 40 41 44 42 41 43 43 44 42 45
REMARK SMILES IDX 61 46 62 47 66 48 63 49 65 50 64 51 51 52 52 53 56 54 53 55
REMARK SMILES IDX 55 56 54 57 7 58 8 59 9 60 10 61 11 62 12 64 13 65 14 66
REMARK SMILES IDX 24 67 15 68 16 69 25 70 26 71 29 72 27 73 28 74 17 75 18 76
REMARK SMILES IDX 19 77 23 78 20 79 22 80 21 81
REMARK H PARENT 3 7 71 25 49 36 10 63
REMARK Flexibility Score: inf
ROOT
ATOM      1  C   UNL A   1      33.985  28.083  25.501  1.00  0.00     0.002 C 
ENDROOT
BRANCH   1   2
ATOM      2  C   UNL A   1      33.063  29.252  25.874  1.00  0.00     0.021 C 
BRANCH   2   3
ATOM      3  C   UNL A   1      33.189  29.739  27.319  1.00  0.00     0.116 C 
BRANCH   3   4
ATOM      4  N   UNL A   1      33.829  31.033  27.428  1.00  0.00    -0.352 N 
ATOM      5  O   UNL A   1      35.249  32.698  27.691  1.00  0.00    -0.269 OA
ATOM      6  C   UNL A   1      35.091  31.475  27.723  1.00  0.00     0.251 C 
ATOM      7  H   UNL A   1      33.208  31.775  27.246  1.00  0.00     0.163 HD
BRANCH   6   8
ATOM      8  C   UNL A   1      36.264  30.615  28.074  1.00  0.00     0.039 A 
ATOM      9  C   UNL A   1      37.336  30.300  27.240  1.00  0.00     0.014 A 
ATOM     10  C   UNL A   1      36.276  30.075  29.377  1.00  0.00     0.014 A 
ATOM     11  C   UNL A   1      38.377  29.474  27.686  1.00  0.00     0.010 A 
ATOM     12  C   UNL A   1      37.317  29.254  29.830  1.00  0.00     0.010 A 
ATOM     13  C   UNL A   1      38.375  28.936  28.980  1.00  0.00    -0.014 A 
BRANCH  13  14
ATOM     14  C   UNL A   1      39.520  28.102  29.384  1.00  0.00     0.031 A 
ATOM     15  C   UNL A   1      40.042  28.239  30.776  1.00  0.00     0.074 A 
ATOM     16  C   UNL A   1      40.069  27.093  28.676  1.00  0.00     0.049 A 
ATOM     17  N   UNL A   1      41.250  28.519  31.157  1.00  0.00    -0.248 NA
ATOM     18  C   UNL A   1      39.110  27.943  31.874  1.00  0.00     0.031 C 
ATOM     19  C   UNL A   1      39.551  26.465  27.462  1.00  0.00     0.029 A 
ATOM     20  N   UNL A   1      41.197  26.360  28.966  1.00  0.00    -0.354 N 
ATOM     21  C   UNL A   1      41.270  28.323  32.534  1.00  0.00     0.074 A 
ATOM     22  C   UNL A   1      39.919  27.998  32.932  1.00  0.00     0.031 C 
ATOM     23  C   UNL A   1      40.261  25.341  27.215  1.00  0.00     0.029 A 
ATOM     24  C   UNL A   1      41.362  25.245  28.167  1.00  0.00     0.049 A 
ATOM     25  H   UNL A   1      41.829  26.608  29.679  1.00  0.00     0.167 HD
ATOM     26  C   UNL A   1      42.402  28.293  33.284  1.00  0.00     0.031 A 
ATOM     27  C   UNL A   1      42.314  24.288  28.245  1.00  0.00     0.031 A 
ATOM     28  C   UNL A   1      43.599  28.694  32.610  1.00  0.00     0.049 A 
ATOM     29  C   UNL A   1      43.495  24.754  29.009  1.00  0.00     0.074 A 
ATOM     30  C   UNL A   1      44.193  29.880  32.242  1.00  0.00     0.029 A 
ATOM     31  N   UNL A   1      44.342  27.685  32.059  1.00  0.00    -0.354 N 
ATOM     32  N   UNL A   1      44.337  25.649  28.581  1.00  0.00    -0.248 NA
ATOM     33  C   UNL A   1      43.739  24.276  30.368  1.00  0.00     0.031 C 
ATOM     34  C   UNL A   1      45.175  29.551  31.262  1.00  0.00     0.029 A 
ATOM     35  C   UNL A   1      45.091  28.183  31.020  1.00  0.00     0.049 A 
ATOM     36  H   UNL A   1      44.340  26.747  32.360  1.00  0.00     0.167 HD
ATOM     37  C   UNL A   1      44.981  26.101  29.715  1.00  0.00     0.074 A 
ATOM     38  C   UNL A   1      44.717  25.106  30.737  1.00  0.00     0.031 C 
ATOM     39  C   UNL A   1      45.356  27.404  29.829  1.00  0.00     0.031 A 
BRANCH  26  40
ATOM     40  C   UNL A   1      42.480  27.606  34.610  1.00  0.00    -0.014 A 
ATOM     41  C   UNL A   1      43.095  28.244  35.697  1.00  0.00     0.009 A 
ATOM     42  C   UNL A   1      42.165  26.241  34.735  1.00  0.00     0.009 A 
ATOM     43  C   UNL A   1      43.360  27.546  36.880  1.00  0.00     0.001 A 
ATOM     44  C   UNL A   1      42.415  25.547  35.923  1.00  0.00     0.001 A 
ATOM     45  C   UNL A   1      43.014  26.201  36.994  1.00  0.00     0.000 A 
ENDBRANCH  26  40
BRANCH  27  46
ATOM     46  C   UNL A   1      42.289  22.931  27.661  1.00  0.00    -0.014 A 
ATOM     47  C   UNL A   1      41.397  21.957  28.133  1.00  0.00     0.009 A 
ATOM     48  C   UNL A   1      43.037  22.638  26.507  1.00  0.00     0.009 A 
ATOM     49  C   UNL A   1      41.259  20.731  27.472  1.00  0.00     0.001 A 
ATOM     50  C   UNL A   1      42.909  21.409  25.855  1.00  0.00     0.001 A 
ATOM     51  C   UNL A   1      42.016  20.457  26.335  1.00  0.00     0.000 A 
ENDBRANCH  27  46
BRANCH  39  52
ATOM     52  C   UNL A   1      45.671  28.142  28.564  1.00  0.00    -0.014 A 
ATOM     53  C   UNL A   1      44.716  28.926  27.898  1.00  0.00     0.009 A 
ATOM     54  C   UNL A   1      46.982  28.108  28.069  1.00  0.00     0.009 A 
ATOM     55  C   UNL A   1      45.058  29.632  26.743  1.00  0.00     0.001 A 
ATOM     56  C   UNL A   1      47.328  28.829  26.923  1.00  0.00     0.001 A 
ATOM     57  C   UNL A   1      46.364  29.586  26.259  1.00  0.00     0.000 A 
ENDBRANCH  39  52
ENDBRANCH  13  14
ENDBRANCH   6   8
ENDBRANCH   3   4
ENDBRANCH   2   3
ENDBRANCH   1   2
BRANCH   1  58
ATOM     58  C   UNL A   1      33.605  26.718  26.083  1.00  0.00     0.002 C 
BRANCH  58  59
ATOM     59  C   UNL A   1      32.105  26.405  26.124  1.00  0.00     0.021 C 
BRANCH  59  60
ATOM     60  C   UNL A   1      31.752  24.926  26.287  1.00  0.00     0.116 C 
BRANCH  60  61
ATOM     61  N   UNL A   1      30.816  24.483  25.270  1.00  0.00    -0.352 N 
ATOM     62  C   UNL A   1      31.017  24.229  23.937  1.00  0.00     0.256 C 
ATOM     63  H   UNL A   1      29.894  24.342  25.586  1.00  0.00     0.163 HD
ATOM     64  O   UNL A   1      30.035  24.045  23.222  1.00  0.00    -0.269 OA
BRANCH  62  65
ATOM     65  C   UNL A   1      32.370  24.155  23.427  1.00  0.00     0.102 A 
ATOM     66  C   UNL A   1      33.087  25.190  22.790  1.00  0.00     0.151 A 
ATOM     67  C   UNL A   1      33.322  23.161  23.622  1.00  0.00     0.148 A 
ATOM     68  N   UNL A   1      34.360  24.879  22.556  1.00  0.00    -0.178 NA
ATOM     69  N   UNL A   1      34.483  23.612  23.030  1.00  0.00    -0.244 N 
BRANCH  67  70
ATOM     70  N   UNL A   1      33.150  21.935  24.270  1.00  0.00    -0.308 N 
ATOM     71  C   UNL A   1      32.456  20.844  23.778  1.00  0.00     0.093 A 
ATOM     72  C   UNL A   1      33.593  21.582  25.531  1.00  0.00     0.093 A 
ATOM     73  C   UNL A   1      32.509  19.812  24.689  1.00  0.00     0.020 A 
ATOM     74  C   UNL A   1      33.229  20.282  25.804  1.00  0.00     0.020 A 
ENDBRANCH  67  70
BRANCH  69  75
ATOM     75  C   UNL A   1      35.748  22.930  22.766  1.00  0.00     0.182 C 
BRANCH  75  76
ATOM     76  C   UNL A   1      36.615  22.799  23.997  1.00  0.00    -0.026 A 
ATOM     77  C   UNL A   1      37.370  21.639  24.223  1.00  0.00     0.005 A 
ATOM     78  C   UNL A   1      36.650  23.825  24.954  1.00  0.00     0.005 A 
ATOM     79  C   UNL A   1      38.127  21.504  25.390  1.00  0.00     0.000 A 
ATOM     80  C   UNL A   1      37.411  23.690  26.116  1.00  0.00     0.000 A 
ATOM     81  C   UNL A   1      38.144  22.527  26.336  1.00  0.00     0.000 A 
ENDBRANCH  75  76
ENDBRANCH  69  75
ENDBRANCH  62  65
ENDBRANCH  60  61
ENDBRANCH  59  60
ENDBRANCH  58  59
ENDBRANCH   1  58
TORSDOF 16
ENDMDL
MODEL 3
REMARK VINA RESULT:     -11.2      1.479      2.677
REMARK SMILES O=C(NCCCCCCNC(=O)c1cnn(Cc2ccccc2)c1-n1cccc1)c1ccc(-c2c3nc(c(-c4ccccc4)c4ccc([nH]4)c(-c4ccccc4)c4nc(c(-c5ccccc5)c5ccc2[nH]5)C=C4)C=C3)cc1
REMARK SMILES IDX 6 1 5 2 4 3 3 4 1 5 2 6 30 8 31 9 77 10 32 11 76 12 33 13
REMARK SMILES IDX 34 14 35 15 70 16 36 17 75 18 69 19 71 20 37 21 74 22 68 23
REMARK SMILES IDX 67 24 38 26 60 27 45 28 59 29 46 30 49 31 58 32 72 33 47 34
REMARK SMILES IDX 48 35 57 37 73 38 50 39 39 40 40 41 44 42 41 43 43 44 42 45
REMARK SMILES IDX 61 46 62 47 66 48 63 49 65 50 64 51 51 52 52 53 56 54 53 55
REMARK SMILES IDX 55 56 54 57 7 58 8 59 9 60 10 61 11 62 12 64 13 65 14 66
REMARK SMILES IDX 24 67 15 68 16 69 25 70 26 71 29 72 27 73 28 74 17 75 18 76
REMARK SMILES IDX 19 77 23 78 20 79 22 80 21 81
REMARK H PARENT 3 7 71 25 49 36 10 63
REMARK Flexibility Score: inf
ROOT
ATOM      1  C   UNL A   1      33.436  28.745  27.102  1.00  0.00     0.002 C 
ENDROOT
BRANCH   1   2
ATOM      2  C   UNL A   1      33.146  30.167  27.600  1.00  0.00     0.021 C 
BRANCH   2   3
ATOM      3  C   UNL A   1      34.217  31.204  27.254  1.00  0.00     0.116 C 
BRANCH   3   4
ATOM      4  N   UNL A   1      34.527  32.089  28.358  1.00  0.00    -0.352 N 
ATOM      5  O   UNL A   1      35.420  33.091  30.106  1.00  0.00    -0.269 OA
ATOM      6  C   UNL A   1      35.482  32.127  29.338  1.00  0.00     0.251 C 
ATOM      7  H   UNL A   1      33.900  32.847  28.418  1.00  0.00     0.163 HD
BRANCH   6   8
ATOM      8  C   UNL A   1      36.565  31.117  29.551  1.00  0.00     0.039 A 
ATOM      9  C   UNL A   1      36.391  29.792  29.949  1.00  0.00     0.014 A 
ATOM     10  C   UNL A   1      37.885  31.559  29.323  1.00  0.00     0.014 A 
ATOM     11  C   UNL A   1      37.493  28.942  30.121  1.00  0.00     0.010 A 
ATOM     12  C   UNL A   1      38.988  30.711  29.488  1.00  0.00     0.010 A 
ATOM     13  C   UNL A   1      38.801  29.393  29.900  1.00  0.00    -0.014 A 
BRANCH  13  14
ATOM     14  C   UNL A   1      39.902  28.430  30.073  1.00  0.00     0.031 A 
ATOM     15  C   UNL A   1      40.612  28.392  31.386  1.00  0.00     0.074 A 
ATOM     16  C   UNL A   1      40.252  27.448  29.217  1.00  0.00     0.049 A 
ATOM     17  N   UNL A   1      41.882  28.531  31.617  1.00  0.00    -0.248 NA
ATOM     18  C   UNL A   1      39.807  28.077  32.575  1.00  0.00     0.031 C 
ATOM     19  C   UNL A   1      39.522  26.981  28.041  1.00  0.00     0.029 A 
ATOM     20  N   UNL A   1      41.332  26.596  29.288  1.00  0.00    -0.354 N 
ATOM     21  C   UNL A   1      42.062  28.207  32.957  1.00  0.00     0.074 A 
ATOM     22  C   UNL A   1      40.749  27.964  33.511  1.00  0.00     0.031 C 
ATOM     23  C   UNL A   1      40.080  25.828  27.608  1.00  0.00     0.029 A 
ATOM     24  C   UNL A   1      41.281  25.550  28.388  1.00  0.00     0.049 A 
ATOM     25  H   UNL A   1      42.073  26.722  29.924  1.00  0.00     0.167 HD
ATOM     26  C   UNL A   1      43.274  28.011  33.538  1.00  0.00     0.031 A 
ATOM     27  C   UNL A   1      42.137  24.512  28.256  1.00  0.00     0.031 A 
ATOM     28  C   UNL A   1      44.406  28.369  32.739  1.00  0.00     0.049 A 
ATOM     29  C   UNL A   1      43.448  24.802  28.883  1.00  0.00     0.074 A 
ATOM     30  C   UNL A   1      45.060  29.528  32.388  1.00  0.00     0.029 A 
ATOM     31  N   UNL A   1      44.968  27.355  32.011  1.00  0.00    -0.354 N 
ATOM     32  N   UNL A   1      44.310  25.657  28.416  1.00  0.00    -0.248 NA
ATOM     33  C   UNL A   1      43.820  24.181  30.153  1.00  0.00     0.031 C 
ATOM     34  C   UNL A   1      45.869  29.209  31.258  1.00  0.00     0.029 A 
ATOM     35  C   UNL A   1      45.621  27.880  30.921  1.00  0.00     0.049 A 
ATOM     36  H   UNL A   1      44.914  26.397  32.233  1.00  0.00     0.167 HD
ATOM     37  C   UNL A   1      45.138  25.945  29.482  1.00  0.00     0.074 A 
ATOM     38  C   UNL A   1      44.914  24.886  30.447  1.00  0.00     0.031 C 
ATOM     39  C   UNL A   1      45.650  27.195  29.647  1.00  0.00     0.031 A 
BRANCH  26  40
ATOM     40  C   UNL A   1      43.458  27.201  34.781  1.00  0.00    -0.014 A 
ATOM     41  C   UNL A   1      43.136  25.836  34.784  1.00  0.00     0.009 A 
ATOM     42  C   UNL A   1      43.722  27.822  36.016  1.00  0.00     0.009 A 
ATOM     43  C   UNL A   1      43.105  25.111  35.980  1.00  0.00     0.001 A 
ATOM     44  C   UNL A   1      43.708  27.094  37.209  1.00  0.00     0.001 A 
ATOM     45  C   UNL A   1      43.397  25.738  37.190  1.00  0.00     0.000 A 
ENDBRANCH  26  40
BRANCH  27  46
ATOM     46  C   UNL A   1      41.904  23.222  27.574  1.00  0.00    -0.014 A 
ATOM     47  C   UNL A   1      40.721  22.497  27.783  1.00  0.00     0.009 A 
ATOM     48  C   UNL A   1      42.783  22.777  26.571  1.00  0.00     0.009 A 
ATOM     49  C   UNL A   1      40.429  21.365  27.014  1.00  0.00     0.001 A 
ATOM     50  C   UNL A   1      42.497  21.639  25.813  1.00  0.00     0.001 A 
ATOM     51  C   UNL A   1      41.318  20.936  26.031  1.00  0.00     0.000 A 
ENDBRANCH  27  46
BRANCH  39  52
ATOM     52  C   UNL A   1      45.867  28.017  28.413  1.00  0.00    -0.014 A 
ATOM     53  C   UNL A   1      47.021  27.890  27.623  1.00  0.00     0.009 A 
ATOM     54  C   UNL A   1      44.854  28.891  27.994  1.00  0.00     0.009 A 
ATOM     55  C   UNL A   1      47.169  28.644  26.457  1.00  0.00     0.001 A 
ATOM     56  C   UNL A   1      44.996  29.633  26.819  1.00  0.00     0.001 A 
ATOM     57  C   UNL A   1      46.156  29.512  26.055  1.00  0.00     0.000 A 
ENDBRANCH  39  52
ENDBRANCH  13  14
ENDBRANCH   6   8
ENDBRANCH   3   4
ENDBRANCH   2   3
ENDBRANCH   1   2
BRANCH   1  58
ATOM     58  C   UNL A   1      32.310  28.068  26.314  1.00  0.00     0.002 C 
BRANCH  58  59
ATOM     59  C   UNL A   1      32.464  26.559  26.093  1.00  0.00     0.021 C 
BRANCH  59  60
ATOM     60  C   UNL A   1      33.836  26.111  25.588  1.00  0.00     0.116 C 
BRANCH  60  61
ATOM     61  N   UNL A   1      33.882  26.060  24.138  1.00  0.00    -0.352 N 
ATOM     62  C   UNL A   1      33.705  25.000  23.286  1.00  0.00     0.256 C 
ATOM     63  H   UNL A   1      34.071  26.920  23.698  1.00  0.00     0.163 HD
ATOM     64  O   UNL A   1      33.978  25.152  22.098  1.00  0.00    -0.269 OA
BRANCH  62  65
ATOM     65  C   UNL A   1      33.175  23.756  23.805  1.00  0.00     0.102 A 
ATOM     66  C   UNL A   1      31.877  23.244  23.597  1.00  0.00     0.151 A 
ATOM     67  C   UNL A   1      33.851  22.711  24.424  1.00  0.00     0.148 A 
ATOM     68  N   UNL A   1      31.717  22.012  24.075  1.00  0.00    -0.178 NA
ATOM     69  N   UNL A   1      32.923  21.711  24.623  1.00  0.00    -0.244 N 
BRANCH  67  70
ATOM     70  N   UNL A   1      35.197  22.672  24.797  1.00  0.00    -0.308 N 
ATOM     71  C   UNL A   1      36.242  22.193  24.027  1.00  0.00     0.093 A 
ATOM     72  C   UNL A   1      35.744  23.056  26.007  1.00  0.00     0.093 A 
ATOM     73  C   UNL A   1      37.426  22.324  24.720  1.00  0.00     0.020 A 
ATOM     74  C   UNL A   1      37.109  22.870  25.979  1.00  0.00     0.020 A 
ENDBRANCH  67  70
BRANCH  69  75
ATOM     75  C   UNL A   1      33.010  20.464  25.379  1.00  0.00     0.182 C 
BRANCH  75  76
ATOM     76  C   UNL A   1      33.334  19.269  24.511  1.00  0.00    -0.026 A 
ATOM     77  C   UNL A   1      32.464  18.868  23.487  1.00  0.00     0.005 A 
ATOM     78  C   UNL A   1      34.498  18.519  24.743  1.00  0.00     0.005 A 
ATOM     79  C   UNL A   1      32.745  17.730  22.726  1.00  0.00     0.000 A 
ATOM     80  C   UNL A   1      34.778  17.386  23.977  1.00  0.00     0.000 A 
ATOM     81  C   UNL A   1      33.900  16.989  22.973  1.00  0.00     0.000 A 
ENDBRANCH  75  76
ENDBRANCH  69  75
ENDBRANCH  62  65
ENDBRANCH  60  61
ENDBRANCH  59  60
ENDBRANCH  58  59
ENDBRANCH   1  58
TORSDOF 16
ENDMDL
