MODEL 1
REMARK VINA RESULT:     -11.1      0.000      0.000
REMARK SMILES Cc1ccc(/C=C/C(=O)N2C[C@@H](O)C[C@H]2C(=O)NCCCCCCNC(=O)c2ccc(-c3c4nc(c(-c5ccccc5)c5ccc([nH]5)c(-c5ccccc5)c5nc(c(-c6ccccc6)c6ccc3[nH]6)C=C5)C=C4)cc2)c(C)c1
REMARK SMILES IDX 21 1 20 2 19 3 18 4 16 5 17 6 15 8 10 9 11 10 12 11 14 12
REMARK SMILES IDX 8 13 9 14 7 15 6 16 5 17 1 18 2 19 3 20 78 21 4 22 76 23
REMARK SMILES IDX 77 24 13 25 22 27 23 28 24 29 25 30 26 31 27 33 28 34 29 35
REMARK SMILES IDX 75 36 30 37 74 38 31 39 32 40 33 41 68 42 34 43 73 44 67 45
REMARK SMILES IDX 69 46 35 47 72 48 66 49 65 50 36 52 58 53 43 54 57 55 44 56
REMARK SMILES IDX 47 57 56 58 70 59 45 60 46 61 55 63 71 64 48 65 37 66 38 67
REMARK SMILES IDX 42 68 39 69 41 70 40 71 59 72 60 73 64 74 61 75 63 76 62 77
REMARK SMILES IDX 49 78 50 79 54 80 51 81 53 82 52 83
REMARK H PARENT 18 7 13 26 25 32 69 51 47 62
REMARK Flexibility Score: inf
ROOT
ATOM      1  C   UNL A   1      32.876  29.462  25.769  1.00  0.00     0.002 C 
ENDROOT
BRANCH   1   2
ATOM      2  C   UNL A   1      32.949  28.305  26.770  1.00  0.00     0.021 C 
BRANCH   2   3
ATOM      3  C   UNL A   1      32.626  26.947  26.161  1.00  0.00     0.116 C 
BRANCH   3   4
ATOM      4  N   UNL A   1      33.807  26.148  25.938  1.00  0.00    -0.354 N 
ATOM      5  C   UNL A   1      33.981  25.038  25.164  1.00  0.00     0.242 C 
ATOM      6  O   UNL A   1      35.147  24.699  24.933  1.00  0.00    -0.273 OA
ATOM      7  H   UNL A   1      34.612  26.450  26.418  1.00  0.00     0.163 HD
BRANCH   5   8
ATOM      8  C   UNL A   1      32.810  24.366  24.413  1.00  0.00     0.177 C 
ATOM      9  N   UNL A   1      32.904  24.274  22.952  1.00  0.00    -0.324 N 
ATOM     10  C   UNL A   1      32.733  22.911  22.476  1.00  0.00     0.152 C 
ATOM     11  C   UNL A   1      32.203  22.130  23.674  1.00  0.00     0.136 C 
ATOM     12  C   UNL A   1      32.632  22.925  24.904  1.00  0.00     0.069 C 
BRANCH   9  13
ATOM     13  C   UNL A   1      32.884  25.430  22.206  1.00  0.00     0.247 C 
ATOM     14  O   UNL A   1      33.425  25.532  21.109  1.00  0.00    -0.270 OA
BRANCH  13  15
ATOM     15  C   UNL A   1      32.192  26.611  22.770  1.00  0.00     0.072 C 
ATOM     16  C   UNL A   1      31.099  27.063  22.136  1.00  0.00     0.014 C 
BRANCH  16  17
ATOM     17  C   UNL A   1      30.210  28.141  22.591  1.00  0.00    -0.023 A 
ATOM     18  C   UNL A   1      27.508  31.459  23.242  1.00  0.00     0.044 C 
ATOM     19  C   UNL A   1      28.480  30.331  23.054  1.00  0.00    -0.051 A 
ATOM     20  C   UNL A   1      29.681  30.518  22.371  1.00  0.00     0.004 A 
ATOM     21  C   UNL A   1      28.168  29.053  23.532  1.00  0.00     0.007 A 
ATOM     22  C   UNL A   1      30.533  29.435  22.142  1.00  0.00     0.008 A 
ATOM     23  C   UNL A   1      29.019  27.949  23.315  1.00  0.00    -0.044 A 
ATOM     24  C   UNL A   1      28.519  26.609  23.784  1.00  0.00     0.045 C 
ENDBRANCH  16  17
ENDBRANCH  13  15
ENDBRANCH   9  13
BRANCH  11  25
ATOM     25  O   UNL A   1      32.715  20.805  23.715  1.00  0.00    -0.391 OA
ATOM     26  H   UNL A   1      32.414  20.367  24.526  1.00  0.00     0.211 HD
ENDBRANCH  11  25
ENDBRANCH   5   8
ENDBRANCH   3   4
ENDBRANCH   2   3
ENDBRANCH   1   2
BRANCH   1  27
ATOM     27  C   UNL A   1      31.483  30.076  25.583  1.00  0.00     0.002 C 
BRANCH  27  28
ATOM     28  C   UNL A   1      31.301  31.473  26.183  1.00  0.00     0.021 C 
BRANCH  28  29
ATOM     29  C   UNL A   1      32.459  31.940  27.059  1.00  0.00     0.116 C 
BRANCH  29  30
ATOM     30  N   UNL A   1      32.324  33.338  27.433  1.00  0.00    -0.352 N 
ATOM     31  C   UNL A   1      33.102  34.102  28.265  1.00  0.00     0.251 C 
ATOM     32  H   UNL A   1      31.560  33.808  27.028  1.00  0.00     0.163 HD
ATOM     33  O   UNL A   1      32.708  35.200  28.639  1.00  0.00    -0.269 OA
BRANCH  31  34
ATOM     34  C   UNL A   1      34.412  33.595  28.724  1.00  0.00     0.039 A 
ATOM     35  C   UNL A   1      34.475  32.889  29.928  1.00  0.00     0.014 A 
ATOM     36  C   UNL A   1      35.576  33.838  27.990  1.00  0.00     0.014 A 
ATOM     37  C   UNL A   1      35.699  32.384  30.369  1.00  0.00     0.010 A 
ATOM     38  C   UNL A   1      36.781  33.269  28.391  1.00  0.00     0.010 A 
ATOM     39  C   UNL A   1      36.856  32.544  29.589  1.00  0.00    -0.014 A 
BRANCH  39  40
ATOM     40  C   UNL A   1      38.148  31.952  30.017  1.00  0.00     0.031 A 
ATOM     41  C   UNL A   1      39.055  32.693  30.957  1.00  0.00     0.074 A 
ATOM     42  C   UNL A   1      38.528  30.762  29.512  1.00  0.00     0.049 A 
ATOM     43  N   UNL A   1      40.224  32.338  31.429  1.00  0.00    -0.248 NA
ATOM     44  C   UNL A   1      38.603  34.018  31.409  1.00  0.00     0.031 C 
ATOM     45  C   UNL A   1      37.763  29.969  28.548  1.00  0.00     0.029 A 
ATOM     46  N   UNL A   1      39.656  30.015  29.738  1.00  0.00    -0.354 N 
ATOM     47  C   UNL A   1      40.649  33.395  32.222  1.00  0.00     0.074 A 
ATOM     48  C   UNL A   1      39.643  34.430  32.119  1.00  0.00     0.031 C 
ATOM     49  C   UNL A   1      38.432  28.835  28.286  1.00  0.00     0.029 A 
ATOM     50  C   UNL A   1      39.685  28.839  29.031  1.00  0.00     0.049 A 
ATOM     51  H   UNL A   1      40.376  30.296  30.348  1.00  0.00     0.167 HD
ATOM     52  C   UNL A   1      41.764  33.490  32.986  1.00  0.00     0.031 A 
ATOM     53  C   UNL A   1      40.618  27.870  28.985  1.00  0.00     0.031 A 
ATOM     54  C   UNL A   1      42.769  32.464  33.080  1.00  0.00     0.049 A 
ATOM     55  C   UNL A   1      41.851  27.997  29.833  1.00  0.00     0.074 A 
ATOM     56  C   UNL A   1      43.909  32.442  33.864  1.00  0.00     0.029 A 
ATOM     57  N   UNL A   1      42.758  31.281  32.356  1.00  0.00    -0.354 N 
ATOM     58  N   UNL A   1      42.200  28.970  30.641  1.00  0.00    -0.248 NA
ATOM     59  C   UNL A   1      42.810  26.886  29.774  1.00  0.00     0.031 C 
ATOM     60  C   UNL A   1      44.619  31.272  33.569  1.00  0.00     0.029 A 
ATOM     61  C   UNL A   1      43.887  30.534  32.651  1.00  0.00     0.049 A 
ATOM     62  H   UNL A   1      42.052  31.012  31.725  1.00  0.00     0.167 HD
ATOM     63  C   UNL A   1      43.409  28.579  31.201  1.00  0.00     0.074 A 
ATOM     64  C   UNL A   1      43.719  27.272  30.658  1.00  0.00     0.031 C 
ATOM     65  C   UNL A   1      44.193  29.244  32.087  1.00  0.00     0.031 A 
BRANCH  52  66
ATOM     66  C   UNL A   1      41.951  34.763  33.769  1.00  0.00    -0.014 A 
ATOM     67  C   UNL A   1      42.650  35.856  33.230  1.00  0.00     0.009 A 
ATOM     68  C   UNL A   1      41.418  34.875  35.063  1.00  0.00     0.009 A 
ATOM     69  C   UNL A   1      42.858  37.011  33.987  1.00  0.00     0.001 A 
ATOM     70  C   UNL A   1      41.596  36.045  35.805  1.00  0.00     0.001 A 
ATOM     71  C   UNL A   1      42.328  37.105  35.273  1.00  0.00     0.000 A 
ENDBRANCH  52  66
BRANCH  53  72
ATOM     72  C   UNL A   1      40.408  26.690  28.106  1.00  0.00    -0.014 A 
ATOM     73  C   UNL A   1      40.911  26.672  26.797  1.00  0.00     0.009 A 
ATOM     74  C   UNL A   1      39.721  25.563  28.585  1.00  0.00     0.009 A 
ATOM     75  C   UNL A   1      40.714  25.557  25.979  1.00  0.00     0.001 A 
ATOM     76  C   UNL A   1      39.551  24.438  27.775  1.00  0.00     0.001 A 
ATOM     77  C   UNL A   1      40.042  24.439  26.471  1.00  0.00     0.000 A 
ENDBRANCH  53  72
BRANCH  65  78
ATOM     78  C   UNL A   1      45.453  28.556  32.534  1.00  0.00    -0.014 A 
ATOM     79  C   UNL A   1      46.670  28.752  31.862  1.00  0.00     0.009 A 
ATOM     80  C   UNL A   1      45.427  27.718  33.659  1.00  0.00     0.009 A 
ATOM     81  C   UNL A   1      47.825  28.088  32.283  1.00  0.00     0.001 A 
ATOM     82  C   UNL A   1      46.590  27.082  34.098  1.00  0.00     0.001 A 
ATOM     83  C   UNL A   1      47.785  27.258  33.402  1.00  0.00     0.000 A 
ENDBRANCH  65  78
ENDBRANCH  39  40
ENDBRANCH  31  34
ENDBRANCH  29  30
ENDBRANCH  28  29
ENDBRANCH  27  28
ENDBRANCH   1  27
TORSDOF 17
ENDMDL
MODEL 2
REMARK VINA RESULT:     -11.0      3.346      8.928
REMARK SMILES Cc1ccc(/C=C/C(=O)N2C[C@@H](O)C[C@H]2C(=O)NCCCCCCNC(=O)c2ccc(-c3c4nc(c(-c5ccccc5)c5ccc([nH]5)c(-c5ccccc5)c5nc(c(-c6ccccc6)c6ccc3[nH]6)C=C5)C=C4)cc2)c(C)c1
REMARK SMILES IDX 21 1 20 2 19 3 18 4 16 5 17 6 15 8 10 9 11 10 12 11 14 12
REMARK SMILES IDX 8 13 9 14 7 15 6 16 5 17 1 18 2 19 3 20 78 21 4 22 76 23
REMARK SMILES IDX 77 24 13 25 22 27 23 28 24 29 25 30 26 31 27 33 28 34 29 35
REMARK SMILES IDX 75 36 30 37 74 38 31 39 32 40 33 41 68 42 34 43 73 44 67 45
REMARK SMILES IDX 69 46 35 47 72 48 66 49 65 50 36 52 58 53 43 54 57 55 44 56
REMARK SMILES IDX 47 57 56 58 70 59 45 60 46 61 55 63 71 64 48 65 37 66 38 67
REMARK SMILES IDX 42 68 39 69 41 70 40 71 59 72 60 73 64 74 61 75 63 76 62 77
REMARK SMILES IDX 49 78 50 79 54 80 51 81 53 82 52 83
REMARK H PARENT 18 7 13 26 25 32 69 51 47 62
REMARK Flexibility Score: inf
ROOT
ATOM      1  C   UNL A   1      36.148  21.953  25.130  1.00  0.00     0.002 C 
ENDROOT
BRANCH   1   2
ATOM      2  C   UNL A   1      36.125  22.711  23.799  1.00  0.00     0.021 C 
BRANCH   2   3
ATOM      3  C   UNL A   1      34.893  23.587  23.615  1.00  0.00     0.116 C 
BRANCH   3   4
ATOM      4  N   UNL A   1      34.753  24.571  24.662  1.00  0.00    -0.354 N 
ATOM      5  C   UNL A   1      33.653  25.266  25.070  1.00  0.00     0.242 C 
ATOM      6  O   UNL A   1      33.737  25.849  26.157  1.00  0.00    -0.273 OA
ATOM      7  H   UNL A   1      35.580  24.771  25.158  1.00  0.00     0.163 HD
BRANCH   5   8
ATOM      8  C   UNL A   1      32.292  25.152  24.349  1.00  0.00     0.177 C 
ATOM      9  N   UNL A   1      31.091  25.026  25.182  1.00  0.00    -0.324 N 
ATOM     10  C   UNL A   1      30.094  26.034  24.862  1.00  0.00     0.152 C 
ATOM     11  C   UNL A   1      30.557  26.657  23.549  1.00  0.00     0.136 C 
ATOM     12  C   UNL A   1      32.057  26.390  23.476  1.00  0.00     0.069 C 
BRANCH   9  13
ATOM     13  C   UNL A   1      30.923  23.894  25.947  1.00  0.00     0.247 C 
ATOM     14  O   UNL A   1      30.663  23.926  27.146  1.00  0.00    -0.270 OA
BRANCH  13  15
ATOM     15  C   UNL A   1      31.085  22.579  25.288  1.00  0.00     0.072 C 
ATOM     16  C   UNL A   1      32.252  21.934  25.448  1.00  0.00     0.014 C 
BRANCH  16  17
ATOM     17  C   UNL A   1      32.571  20.579  24.977  1.00  0.00    -0.023 A 
ATOM     18  C   UNL A   1      32.977  16.381  24.007  1.00  0.00     0.044 C 
ATOM     19  C   UNL A   1      32.891  17.839  24.353  1.00  0.00    -0.051 A 
ATOM     20  C   UNL A   1      33.013  18.277  25.671  1.00  0.00     0.004 A 
ATOM     21  C   UNL A   1      32.644  18.782  23.349  1.00  0.00     0.007 A 
ATOM     22  C   UNL A   1      32.852  19.630  25.977  1.00  0.00     0.008 A 
ATOM     23  C   UNL A   1      32.484  20.153  23.639  1.00  0.00    -0.044 A 
ATOM     24  C   UNL A   1      32.114  21.048  22.486  1.00  0.00     0.045 C 
ENDBRANCH  16  17
ENDBRANCH  13  15
ENDBRANCH   9  13
BRANCH  11  25
ATOM     25  O   UNL A   1      30.279  28.049  23.492  1.00  0.00    -0.391 OA
ATOM     26  H   UNL A   1      29.367  28.208  23.780  1.00  0.00     0.211 HD
ENDBRANCH  11  25
ENDBRANCH   5   8
ENDBRANCH   3   4
ENDBRANCH   2   3
ENDBRANCH   1   2
BRANCH   1  27
ATOM     27  C   UNL A   1      36.224  20.426  25.009  1.00  0.00     0.002 C 
BRANCH  27  28
ATOM     28  C   UNL A   1      37.610  19.866  24.675  1.00  0.00     0.021 C 
BRANCH  28  29
ATOM     29  C   UNL A   1      38.732  20.387  25.567  1.00  0.00     0.116 C 
BRANCH  29  30
ATOM     30  N   UNL A   1      39.787  19.401  25.738  1.00  0.00    -0.352 N 
ATOM     31  C   UNL A   1      41.097  19.574  26.105  1.00  0.00     0.251 C 
ATOM     32  H   UNL A   1      39.521  18.469  25.565  1.00  0.00     0.163 HD
ATOM     33  O   UNL A   1      41.897  18.654  25.981  1.00  0.00    -0.269 OA
BRANCH  31  34
ATOM     34  C   UNL A   1      41.549  20.875  26.641  1.00  0.00     0.039 A 
ATOM     35  C   UNL A   1      42.083  21.816  25.758  1.00  0.00     0.014 A 
ATOM     36  C   UNL A   1      41.474  21.157  28.009  1.00  0.00     0.014 A 
ATOM     37  C   UNL A   1      42.497  23.059  26.240  1.00  0.00     0.010 A 
ATOM     38  C   UNL A   1      41.815  22.423  28.476  1.00  0.00     0.010 A 
ATOM     39  C   UNL A   1      42.338  23.383  27.598  1.00  0.00    -0.014 A 
BRANCH  39  40
ATOM     40  C   UNL A   1      42.712  24.726  28.107  1.00  0.00     0.031 A 
ATOM     41  C   UNL A   1      41.670  25.790  28.297  1.00  0.00     0.074 A 
ATOM     42  C   UNL A   1      44.008  25.002  28.350  1.00  0.00     0.049 A 
ATOM     43  N   UNL A   1      41.814  27.021  28.720  1.00  0.00    -0.248 NA
ATOM     44  C   UNL A   1      40.287  25.435  27.943  1.00  0.00     0.031 C 
ATOM     45  C   UNL A   1      45.122  24.072  28.151  1.00  0.00     0.029 A 
ATOM     46  N   UNL A   1      44.607  26.145  28.811  1.00  0.00    -0.354 N 
ATOM     47  C   UNL A   1      40.547  27.587  28.674  1.00  0.00     0.074 A 
ATOM     48  C   UNL A   1      39.658  26.587  28.124  1.00  0.00     0.031 C 
ATOM     49  C   UNL A   1      46.265  24.675  28.514  1.00  0.00     0.029 A 
ATOM     50  C   UNL A   1      45.970  26.041  28.933  1.00  0.00     0.049 A 
ATOM     51  H   UNL A   1      44.107  26.964  29.034  1.00  0.00     0.167 HD
ATOM     52  C   UNL A   1      40.152  28.820  29.074  1.00  0.00     0.031 A 
ATOM     53  C   UNL A   1      46.884  26.944  29.335  1.00  0.00     0.031 A 
ATOM     54  C   UNL A   1      41.039  29.818  29.611  1.00  0.00     0.049 A 
ATOM     55  C   UNL A   1      46.427  28.308  29.766  1.00  0.00     0.074 A 
ATOM     56  C   UNL A   1      40.731  31.079  30.092  1.00  0.00     0.029 A 
ATOM     57  N   UNL A   1      42.413  29.671  29.729  1.00  0.00    -0.354 N 
ATOM     58  N   UNL A   1      45.212  28.801  29.793  1.00  0.00    -0.248 NA
ATOM     59  C   UNL A   1      47.466  29.233  30.239  1.00  0.00     0.031 C 
ATOM     60  C   UNL A   1      41.926  31.716  30.444  1.00  0.00     0.029 A 
ATOM     61  C   UNL A   1      42.972  30.828  30.246  1.00  0.00     0.049 A 
ATOM     62  H   UNL A   1      42.918  28.862  29.480  1.00  0.00     0.167 HD
ATOM     63  C   UNL A   1      45.338  30.087  30.302  1.00  0.00     0.074 A 
ATOM     64  C   UNL A   1      46.744  30.286  30.592  1.00  0.00     0.031 C 
ATOM     65  C   UNL A   1      44.375  31.020  30.510  1.00  0.00     0.031 A 
BRANCH  52  66
ATOM     66  C   UNL A   1      38.691  29.153  28.926  1.00  0.00    -0.014 A 
ATOM     67  C   UNL A   1      38.170  29.632  27.713  1.00  0.00     0.009 A 
ATOM     68  C   UNL A   1      37.820  28.980  30.013  1.00  0.00     0.009 A 
ATOM     69  C   UNL A   1      36.822  29.982  27.606  1.00  0.00     0.001 A 
ATOM     70  C   UNL A   1      36.464  29.298  29.894  1.00  0.00     0.001 A 
ATOM     71  C   UNL A   1      35.970  29.812  28.697  1.00  0.00     0.000 A 
ENDBRANCH  52  66
BRANCH  53  72
ATOM     72  C   UNL A   1      48.323  26.572  29.355  1.00  0.00    -0.014 A 
ATOM     73  C   UNL A   1      49.143  26.822  28.245  1.00  0.00     0.009 A 
ATOM     74  C   UNL A   1      48.888  25.988  30.499  1.00  0.00     0.009 A 
ATOM     75  C   UNL A   1      50.496  26.475  28.273  1.00  0.00     0.001 A 
ATOM     76  C   UNL A   1      50.247  25.670  30.536  1.00  0.00     0.001 A 
ATOM     77  C   UNL A   1      51.048  25.907  29.421  1.00  0.00     0.000 A 
ENDBRANCH  53  72
BRANCH  65  78
ATOM     78  C   UNL A   1      44.813  32.334  31.096  1.00  0.00    -0.014 A 
ATOM     79  C   UNL A   1      44.872  32.531  32.485  1.00  0.00     0.009 A 
ATOM     80  C   UNL A   1      45.195  33.382  30.245  1.00  0.00     0.009 A 
ATOM     81  C   UNL A   1      45.264  33.766  33.007  1.00  0.00     0.001 A 
ATOM     82  C   UNL A   1      45.618  34.605  30.770  1.00  0.00     0.001 A 
ATOM     83  C   UNL A   1      45.641  34.799  32.150  1.00  0.00     0.000 A 
ENDBRANCH  65  78
ENDBRANCH  39  40
ENDBRANCH  31  34
ENDBRANCH  29  30
ENDBRANCH  28  29
ENDBRANCH  27  28
ENDBRANCH   1  27
TORSDOF 17
ENDMDL
MODEL 3
REMARK VINA RESULT:     -11.0      0.560      5.876
REMARK SMILES Cc1ccc(/C=C/C(=O)N2C[C@@H](O)C[C@H]2C(=O)NCCCCCCNC(=O)c2ccc(-c3c4nc(c(-c5ccccc5)c5ccc([nH]5)c(-c5ccccc5)c5nc(c(-c6ccccc6)c6ccc3[nH]6)C=C5)C=C4)cc2)c(C)c1
REMARK SMILES IDX 21 1 20 2 19 3 18 4 16 5 17 6 15 8 10 9 11 10 12 11 14 12
REMARK SMILES IDX 8 13 9 14 7 15 6 16 5 17 1 18 2 19 3 20 78 21 4 22 76 23
REMARK SMILES IDX 77 24 13 25 22 27 23 28 24 29 25 30 26 31 27 33 28 34 29 35
REMARK SMILES IDX 75 36 30 37 74 38 31 39 32 40 33 41 68 42 34 43 73 44 67 45
REMARK SMILES IDX 69 46 35 47 72 48 66 49 65 50 36 52 58 53 43 54 57 55 44 56
REMARK SMILES IDX 47 57 56 58 70 59 45 60 46 61 55 63 71 64 48 65 37 66 38 67
REMARK SMILES IDX 42 68 39 69 41 70 40 71 59 72 60 73 64 74 61 75 63 76 62 77
REMARK SMILES IDX 49 78 50 79 54 80 51 81 53 82 52 83
REMARK H PARENT 18 7 13 26 25 32 69 51 47 62
REMARK Flexibility Score: inf
ROOT
ATOM      1  C   UNL A   1      32.402  29.535  25.726  1.00  0.00     0.002 C 
ENDROOT
BRANCH   1   2
ATOM      2  C   UNL A   1      32.277  28.426  26.776  1.00  0.00     0.021 C 
BRANCH   2   3
ATOM      3  C   UNL A   1      32.087  27.038  26.179  1.00  0.00     0.116 C 
BRANCH   3   4
ATOM      4  N   UNL A   1      33.317  26.286  26.124  1.00  0.00    -0.354 N 
ATOM      5  C   UNL A   1      33.644  25.193  25.376  1.00  0.00     0.242 C 
ATOM      6  O   UNL A   1      34.844  24.901  25.315  1.00  0.00    -0.273 OA
ATOM      7  H   UNL A   1      34.031  26.612  26.718  1.00  0.00     0.163 HD
BRANCH   5   8
ATOM      8  C   UNL A   1      32.622  24.487  24.458  1.00  0.00     0.177 C 
ATOM      9  N   UNL A   1      32.943  24.393  23.031  1.00  0.00    -0.324 N 
ATOM     10  C   UNL A   1      32.884  23.024  22.544  1.00  0.00     0.152 C 
ATOM     11  C   UNL A   1      32.196  22.232  23.652  1.00  0.00     0.136 C 
ATOM     12  C   UNL A   1      32.408  23.043  24.927  1.00  0.00     0.069 C 
BRANCH   9  13
ATOM     13  C   UNL A   1      33.009  25.545  22.281  1.00  0.00     0.247 C 
ATOM     14  O   UNL A   1      33.656  25.636  21.242  1.00  0.00    -0.270 OA
BRANCH  13  15
ATOM     15  C   UNL A   1      32.278  26.736  22.771  1.00  0.00     0.072 C 
ATOM     16  C   UNL A   1      31.168  27.107  22.113  1.00  0.00     0.014 C 
BRANCH  16  17
ATOM     17  C   UNL A   1      30.244  28.182  22.502  1.00  0.00    -0.023 A 
ATOM     18  C   UNL A   1      27.424  31.435  22.948  1.00  0.00     0.044 C 
ATOM     19  C   UNL A   1      28.436  30.333  22.829  1.00  0.00    -0.051 A 
ATOM     20  C   UNL A   1      29.621  30.515  22.118  1.00  0.00     0.004 A 
ATOM     21  C   UNL A   1      28.179  29.083  23.403  1.00  0.00     0.007 A 
ATOM     22  C   UNL A   1      30.511  29.451  21.955  1.00  0.00     0.008 A 
ATOM     23  C   UNL A   1      29.069  27.998  23.255  1.00  0.00    -0.044 A 
ATOM     24  C   UNL A   1      28.626  26.679  23.827  1.00  0.00     0.045 C 
ENDBRANCH  16  17
ENDBRANCH  13  15
ENDBRANCH   9  13
BRANCH  11  25
ATOM     25  O   UNL A   1      32.729  20.922  23.781  1.00  0.00    -0.391 OA
ATOM     26  H   UNL A   1      33.090  20.635  22.929  1.00  0.00     0.211 HD
ENDBRANCH  11  25
ENDBRANCH   5   8
ENDBRANCH   3   4
ENDBRANCH   2   3
ENDBRANCH   1   2
BRANCH   1  27
ATOM     27  C   UNL A   1      31.107  30.304  25.435  1.00  0.00     0.002 C 
BRANCH  27  28
ATOM     28  C   UNL A   1      31.050  31.725  26.004  1.00  0.00     0.021 C 
BRANCH  28  29
ATOM     29  C   UNL A   1      32.229  32.094  26.899  1.00  0.00     0.116 C 
BRANCH  29  30
ATOM     30  N   UNL A   1      32.194  33.494  27.286  1.00  0.00    -0.352 N 
ATOM     31  C   UNL A   1      33.000  34.183  28.156  1.00  0.00     0.251 C 
ATOM     32  H   UNL A   1      31.486  34.029  26.861  1.00  0.00     0.163 HD
ATOM     33  O   UNL A   1      32.684  35.306  28.530  1.00  0.00    -0.269 OA
BRANCH  31  34
ATOM     34  C   UNL A   1      34.247  33.566  28.655  1.00  0.00     0.039 A 
ATOM     35  C   UNL A   1      35.435  33.789  27.954  1.00  0.00     0.014 A 
ATOM     36  C   UNL A   1      34.244  32.750  29.790  1.00  0.00     0.014 A 
ATOM     37  C   UNL A   1      36.627  33.233  28.420  1.00  0.00     0.010 A 
ATOM     38  C   UNL A   1      35.444  32.260  30.297  1.00  0.00     0.010 A 
ATOM     39  C   UNL A   1      36.646  32.490  29.611  1.00  0.00    -0.014 A 
BRANCH  39  40
ATOM     40  C   UNL A   1      37.920  31.952  30.151  1.00  0.00     0.031 A 
ATOM     41  C   UNL A   1      38.491  30.666  29.625  1.00  0.00     0.074 A 
ATOM     42  C   UNL A   1      38.537  32.601  31.156  1.00  0.00     0.049 A 
ATOM     43  N   UNL A   1      39.584  30.040  29.983  1.00  0.00    -0.248 NA
ATOM     44  C   UNL A   1      37.723  29.979  28.575  1.00  0.00     0.031 C 
ATOM     45  C   UNL A   1      38.055  33.829  31.792  1.00  0.00     0.029 A 
ATOM     46  N   UNL A   1      39.701  32.316  31.823  1.00  0.00    -0.354 N 
ATOM     47  C   UNL A   1      39.629  28.886  29.214  1.00  0.00     0.074 A 
ATOM     48  C   UNL A   1      38.423  28.866  28.413  1.00  0.00     0.031 C 
ATOM     49  C   UNL A   1      38.930  34.205  32.738  1.00  0.00     0.029 A 
ATOM     50  C   UNL A   1      40.011  33.228  32.801  1.00  0.00     0.049 A 
ATOM     51  H   UNL A   1      40.261  31.532  31.619  1.00  0.00     0.167 HD
ATOM     52  C   UNL A   1      40.595  27.938  29.158  1.00  0.00     0.031 A 
ATOM     53  C   UNL A   1      41.048  33.273  33.658  1.00  0.00     0.031 A 
ATOM     54  C   UNL A   1      41.789  27.953  29.962  1.00  0.00     0.049 A 
ATOM     55  C   UNL A   1      42.105  32.207  33.587  1.00  0.00     0.074 A 
ATOM     56  C   UNL A   1      42.852  27.068  29.946  1.00  0.00     0.029 A 
ATOM     57  N   UNL A   1      42.072  28.900  30.935  1.00  0.00    -0.354 N 
ATOM     58  N   UNL A   1      42.173  31.164  32.796  1.00  0.00    -0.248 NA
ATOM     59  C   UNL A   1      43.235  32.337  34.515  1.00  0.00     0.031 C 
ATOM     60  C   UNL A   1      43.750  27.445  30.951  1.00  0.00     0.029 A 
ATOM     61  C   UNL A   1      43.279  28.604  31.548  1.00  0.00     0.049 A 
ATOM     62  H   UNL A   1      41.499  29.669  31.159  1.00  0.00     0.167 HD
ATOM     63  C   UNL A   1      43.361  30.522  33.117  1.00  0.00     0.074 A 
ATOM     64  C   UNL A   1      43.992  31.309  34.158  1.00  0.00     0.031 C 
ATOM     65  C   UNL A   1      43.884  29.384  32.597  1.00  0.00     0.031 A 
BRANCH  52  66
ATOM     66  C   UNL A   1      40.381  26.797  28.199  1.00  0.00    -0.014 A 
ATOM     67  C   UNL A   1      39.672  25.646  28.579  1.00  0.00     0.009 A 
ATOM     68  C   UNL A   1      40.893  26.874  26.894  1.00  0.00     0.009 A 
ATOM     69  C   UNL A   1      39.524  24.576  27.693  1.00  0.00     0.001 A 
ATOM     70  C   UNL A   1      40.714  25.818  25.998  1.00  0.00     0.001 A 
ATOM     71  C   UNL A   1      40.043  24.664  26.402  1.00  0.00     0.000 A 
ENDBRANCH  52  66
BRANCH  53  72
ATOM     72  C   UNL A   1      41.135  34.377  34.648  1.00  0.00    -0.014 A 
ATOM     73  C   UNL A   1      40.541  34.255  35.913  1.00  0.00     0.009 A 
ATOM     74  C   UNL A   1      41.837  35.553  34.339  1.00  0.00     0.009 A 
ATOM     75  C   UNL A   1      40.631  35.295  36.840  1.00  0.00     0.001 A 
ATOM     76  C   UNL A   1      41.951  36.579  35.279  1.00  0.00     0.001 A 
ATOM     77  C   UNL A   1      41.343  36.453  36.525  1.00  0.00     0.000 A 
ENDBRANCH  53  72
BRANCH  65  78
ATOM     78  C   UNL A   1      45.213  28.933  33.139  1.00  0.00    -0.014 A 
ATOM     79  C   UNL A   1      45.297  28.063  34.238  1.00  0.00     0.009 A 
ATOM     80  C   UNL A   1      46.398  29.368  32.525  1.00  0.00     0.009 A 
ATOM     81  C   UNL A   1      46.542  27.672  34.736  1.00  0.00     0.001 A 
ATOM     82  C   UNL A   1      47.640  28.949  33.005  1.00  0.00     0.001 A 
ATOM     83  C   UNL A   1      47.712  28.111  34.117  1.00  0.00     0.000 A 
ENDBRANCH  65  78
ENDBRANCH  39  40
ENDBRANCH  31  34
ENDBRANCH  29  30
ENDBRANCH  28  29
ENDBRANCH  27  28
ENDBRANCH   1  27
TORSDOF 17
ENDMDL
