MODEL 1
REMARK VINA RESULT:     -11.8      0.000      0.000
REMARK SMILES CN(CC(=O)NCCCCCCNC(=O)c1ccc(-c2c3nc(c(-c4ccccc4)c4ccc([nH]4)c(-c4ccccc4)c4nc(c(-c5ccccc5)c5ccc2[nH]5)C=C4)C=C3)cc1)c1ncc(-c2nnnn2-c2ccccc2)c(-c2ccc(Cl)cc2)n1
REMARK SMILES IDX 8 1 7 2 6 3 4 4 5 5 3 7 2 8 1 9 64 10 65 11 87 12 66 13
REMARK SMILES IDX 79 14 67 15 80 16 81 17 86 18 82 19 85 20 83 21 84 22 68 23
REMARK SMILES IDX 69 24 72 25 70 26 71 27 73 28 74 29 78 30 75 31 77 32 76 33
REMARK SMILES IDX 9 34 10 35 11 36 12 37 13 38 14 39 15 41 16 42 17 43 63 44
REMARK SMILES IDX 18 45 62 46 19 47 20 48 21 49 56 50 22 51 61 52 55 53 57 54
REMARK SMILES IDX 23 55 60 56 54 57 53 58 24 60 46 61 31 62 45 63 32 64 35 65
REMARK SMILES IDX 44 66 58 67 33 68 34 69 43 71 59 72 36 73 25 74 26 75 30 76
REMARK SMILES IDX 27 77 29 78 28 79 47 80 48 81 52 82 49 83 51 84 50 85 37 86
REMARK SMILES IDX 38 87 42 88 39 89 41 90 40 91
REMARK H PARENT 6 6 13 40 57 59 35 70
REMARK Flexibility Score: inf
ROOT
ATOM      1  C   UNL A   1      31.584  28.429  27.354  1.00  0.00     0.021 C 
ENDROOT
BRANCH   1   2
ATOM      2  C   UNL A   1      31.732  27.360  26.274  1.00  0.00     0.116 C 
BRANCH   2   3
ATOM      3  N   UNL A   1      30.720  27.498  25.252  1.00  0.00    -0.355 N 
ATOM      4  C   UNL A   1      30.823  28.101  24.028  1.00  0.00     0.239 C 
ATOM      5  O   UNL A   1      29.824  28.104  23.302  1.00  0.00    -0.273 OA
ATOM      6  H   UNL A   1      29.841  27.109  25.464  1.00  0.00     0.163 HD
BRANCH   4   7
ATOM      7  C   UNL A   1      32.182  28.614  23.537  1.00  0.00     0.219 C 
BRANCH   7   8
ATOM      8  N   UNL A   1      32.844  27.765  22.543  1.00  0.00    -0.335 N 
ATOM      9  C   UNL A   1      34.000  28.256  21.824  1.00  0.00     0.147 C 
BRANCH   8  10
ATOM     10  C   UNL A   1      32.734  26.402  22.713  1.00  0.00     0.226 A 
ATOM     11  N   UNL A   1      31.558  25.824  22.459  1.00  0.00    -0.221 NA
ATOM     12  N   UNL A   1      33.805  25.701  23.116  1.00  0.00    -0.212 NA
ATOM     13  C   UNL A   1      31.477  24.487  22.585  1.00  0.00     0.129 A 
ATOM     14  C   UNL A   1      33.689  24.360  23.286  1.00  0.00     0.087 A 
ATOM     15  C   UNL A   1      32.527  23.679  22.973  1.00  0.00     0.066 A 
BRANCH  14  16
ATOM     16  C   UNL A   1      34.889  23.724  23.857  1.00  0.00     0.001 A 
ATOM     17  C   UNL A   1      35.337  24.108  25.135  1.00  0.00     0.012 A 
ATOM     18  C   UNL A   1      35.606  22.723  23.178  1.00  0.00     0.012 A 
ATOM     19  C   UNL A   1      36.444  23.492  25.729  1.00  0.00     0.021 A 
ATOM     20  C   UNL A   1      36.712  22.105  23.771  1.00  0.00     0.021 A 
ATOM     21  C   UNL A   1      37.122  22.489  25.045  1.00  0.00     0.041 A 
ATOM     22  Cl  UNL A   1      38.476  21.720  25.775  1.00  0.00    -0.084 Cl
ENDBRANCH  14  16
BRANCH  15  23
ATOM     23  C   UNL A   1      32.362  22.237  23.043  1.00  0.00     0.190 A 
ATOM     24  N   UNL A   1      32.142  21.424  22.027  1.00  0.00    -0.108 NA
ATOM     25  N   UNL A   1      32.554  21.458  24.178  1.00  0.00    -0.193 N 
ATOM     26  N   UNL A   1      32.305  20.152  22.507  1.00  0.00    -0.023 NA
ATOM     27  N   UNL A   1      32.628  20.165  23.791  1.00  0.00    -0.040 NA
BRANCH  25  28
ATOM     28  C   UNL A   1      32.691  21.843  25.532  1.00  0.00     0.069 A 
ATOM     29  C   UNL A   1      33.650  21.205  26.329  1.00  0.00     0.028 A 
ATOM     30  C   UNL A   1      31.893  22.859  26.077  1.00  0.00     0.028 A 
ATOM     31  C   UNL A   1      33.848  21.629  27.644  1.00  0.00     0.002 A 
ATOM     32  C   UNL A   1      32.077  23.254  27.403  1.00  0.00     0.002 A 
ATOM     33  C   UNL A   1      33.064  22.651  28.179  1.00  0.00     0.000 A 
ENDBRANCH  25  28
ENDBRANCH  15  23
ENDBRANCH   8  10
ENDBRANCH   7   8
ENDBRANCH   4   7
ENDBRANCH   2   3
ENDBRANCH   1   2
BRANCH   1  34
ATOM     34  C   UNL A   1      32.346  29.725  27.049  1.00  0.00     0.002 C 
BRANCH  34  35
ATOM     35  C   UNL A   1      31.554  30.771  26.254  1.00  0.00     0.002 C 
BRANCH  35  36
ATOM     36  C   UNL A   1      31.398  32.124  26.950  1.00  0.00     0.021 C 
BRANCH  36  37
ATOM     37  C   UNL A   1      32.714  32.829  27.247  1.00  0.00     0.116 C 
BRANCH  37  38
ATOM     38  N   UNL A   1      32.511  34.149  27.825  1.00  0.00    -0.352 N 
ATOM     39  C   UNL A   1      33.208  34.765  28.832  1.00  0.00     0.251 C 
ATOM     40  H   UNL A   1      31.770  34.671  27.440  1.00  0.00     0.163 HD
ATOM     41  O   UNL A   1      32.790  35.802  29.340  1.00  0.00    -0.269 OA
BRANCH  39  42
ATOM     42  C   UNL A   1      34.465  34.159  29.318  1.00  0.00     0.039 A 
ATOM     43  C   UNL A   1      34.442  33.365  30.467  1.00  0.00     0.014 A 
ATOM     44  C   UNL A   1      35.660  34.367  28.625  1.00  0.00     0.014 A 
ATOM     45  C   UNL A   1      35.612  32.728  30.887  1.00  0.00     0.010 A 
ATOM     46  C   UNL A   1      36.803  33.671  29.000  1.00  0.00     0.010 A 
ATOM     47  C   UNL A   1      36.793  32.850  30.139  1.00  0.00    -0.014 A 
BRANCH  47  48
ATOM     48  C   UNL A   1      38.045  32.157  30.536  1.00  0.00     0.031 A 
ATOM     49  C   UNL A   1      38.982  32.817  31.512  1.00  0.00     0.074 A 
ATOM     50  C   UNL A   1      38.375  30.979  29.971  1.00  0.00     0.049 A 
ATOM     51  N   UNL A   1      40.179  32.446  31.888  1.00  0.00    -0.248 NA
ATOM     52  C   UNL A   1      38.523  34.075  32.125  1.00  0.00     0.031 C 
ATOM     53  C   UNL A   1      37.565  30.244  28.997  1.00  0.00     0.029 A 
ATOM     54  N   UNL A   1      39.495  30.198  30.126  1.00  0.00    -0.354 N 
ATOM     55  C   UNL A   1      40.617  33.427  32.769  1.00  0.00     0.074 A 
ATOM     56  C   UNL A   1      39.586  34.439  32.827  1.00  0.00     0.031 C 
ATOM     57  C   UNL A   1      38.206  29.114  28.655  1.00  0.00     0.029 A 
ATOM     58  C   UNL A   1      39.492  29.068  29.343  1.00  0.00     0.049 A 
ATOM     59  H   UNL A   1      40.229  30.426  30.740  1.00  0.00     0.167 HD
ATOM     60  C   UNL A   1      41.765  33.472  33.484  1.00  0.00     0.031 A 
ATOM     61  C   UNL A   1      40.430  28.113  29.185  1.00  0.00     0.031 A 
ATOM     62  C   UNL A   1      42.787  32.462  33.437  1.00  0.00     0.049 A 
ATOM     63  C   UNL A   1      41.716  28.212  29.962  1.00  0.00     0.074 A 
ATOM     64  C   UNL A   1      43.975  32.405  34.145  1.00  0.00     0.029 A 
ATOM     65  N   UNL A   1      42.736  31.328  32.642  1.00  0.00    -0.354 N 
ATOM     66  N   UNL A   1      42.096  29.126  30.822  1.00  0.00    -0.248 NA
ATOM     67  C   UNL A   1      42.700  27.138  29.754  1.00  0.00     0.031 C 
ATOM     68  C   UNL A   1      44.666  31.259  33.743  1.00  0.00     0.029 A 
ATOM     69  C   UNL A   1      43.879  30.571  32.835  1.00  0.00     0.049 A 
ATOM     70  H   UNL A   1      41.999  31.096  32.033  1.00  0.00     0.167 HD
ATOM     71  C   UNL A   1      43.337  28.713  31.289  1.00  0.00     0.074 A 
ATOM     72  C   UNL A   1      43.643  27.463  30.626  1.00  0.00     0.031 C 
ATOM     73  C   UNL A   1      44.153  29.315  32.188  1.00  0.00     0.031 A 
BRANCH  60  74
ATOM     74  C   UNL A   1      41.974  34.651  34.393  1.00  0.00    -0.014 A 
ATOM     75  C   UNL A   1      41.658  34.576  35.759  1.00  0.00     0.009 A 
ATOM     76  C   UNL A   1      42.552  35.829  33.893  1.00  0.00     0.009 A 
ATOM     77  C   UNL A   1      41.890  35.666  36.600  1.00  0.00     0.001 A 
ATOM     78  C   UNL A   1      42.811  36.906  34.743  1.00  0.00     0.001 A 
ATOM     79  C   UNL A   1      42.473  36.826  36.093  1.00  0.00     0.000 A 
ENDBRANCH  60  74
BRANCH  61  80
ATOM     80  C   UNL A   1      40.206  26.980  28.246  1.00  0.00    -0.014 A 
ATOM     81  C   UNL A   1      39.502  25.837  28.659  1.00  0.00     0.009 A 
ATOM     82  C   UNL A   1      40.742  27.010  26.949  1.00  0.00     0.009 A 
ATOM     83  C   UNL A   1      39.385  24.732  27.813  1.00  0.00     0.001 A 
ATOM     84  C   UNL A   1      40.591  25.918  26.092  1.00  0.00     0.001 A 
ATOM     85  C   UNL A   1      39.928  24.774  26.529  1.00  0.00     0.000 A 
ENDBRANCH  61  80
BRANCH  73  86
ATOM     86  C   UNL A   1      45.418  28.599  32.569  1.00  0.00    -0.014 A 
ATOM     87  C   UNL A   1      45.419  27.546  33.496  1.00  0.00     0.009 A 
ATOM     88  C   UNL A   1      46.623  28.951  31.937  1.00  0.00     0.009 A 
ATOM     89  C   UNL A   1      46.606  26.880  33.804  1.00  0.00     0.001 A 
ATOM     90  C   UNL A   1      47.801  28.262  32.224  1.00  0.00     0.001 A 
ATOM     91  C   UNL A   1      47.794  27.233  33.164  1.00  0.00     0.000 A 
ENDBRANCH  73  86
ENDBRANCH  47  48
ENDBRANCH  39  42
ENDBRANCH  37  38
ENDBRANCH  36  37
ENDBRANCH  35  36
ENDBRANCH  34  35
ENDBRANCH   1  34
TORSDOF 18
ENDMDL
MODEL 2
REMARK VINA RESULT:     -11.7      2.160      2.961
REMARK SMILES CN(CC(=O)NCCCCCCNC(=O)c1ccc(-c2c3nc(c(-c4ccccc4)c4ccc([nH]4)c(-c4ccccc4)c4nc(c(-c5ccccc5)c5ccc2[nH]5)C=C4)C=C3)cc1)c1ncc(-c2nnnn2-c2ccccc2)c(-c2ccc(Cl)cc2)n1
REMARK SMILES IDX 8 1 7 2 6 3 4 4 5 5 3 7 2 8 1 9 64 10 65 11 87 12 66 13
REMARK SMILES IDX 79 14 67 15 80 16 81 17 86 18 82 19 85 20 83 21 84 22 68 23
REMARK SMILES IDX 69 24 72 25 70 26 71 27 73 28 74 29 78 30 75 31 77 32 76 33
REMARK SMILES IDX 9 34 10 35 11 36 12 37 13 38 14 39 15 41 16 42 17 43 63 44
REMARK SMILES IDX 18 45 62 46 19 47 20 48 21 49 56 50 22 51 61 52 55 53 57 54
REMARK SMILES IDX 23 55 60 56 54 57 53 58 24 60 46 61 31 62 45 63 32 64 35 65
REMARK SMILES IDX 44 66 58 67 33 68 34 69 43 71 59 72 36 73 25 74 26 75 30 76
REMARK SMILES IDX 27 77 29 78 28 79 47 80 48 81 52 82 49 83 51 84 50 85 37 86
REMARK SMILES IDX 38 87 42 88 39 89 41 90 40 91
REMARK H PARENT 6 6 13 40 57 59 35 70
REMARK Flexibility Score: inf
ROOT
ATOM      1  C   UNL A   1      33.307  31.871  28.018  1.00  0.00     0.021 C 
ENDROOT
BRANCH   1   2
ATOM      2  C   UNL A   1      33.346  30.555  27.245  1.00  0.00     0.116 C 
BRANCH   2   3
ATOM      3  N   UNL A   1      32.205  30.424  26.368  1.00  0.00    -0.355 N 
ATOM      4  C   UNL A   1      32.106  29.720  25.200  1.00  0.00     0.239 C 
ATOM      5  O   UNL A   1      31.025  29.742  24.603  1.00  0.00    -0.273 OA
ATOM      6  H   UNL A   1      31.392  30.905  26.647  1.00  0.00     0.163 HD
BRANCH   4   7
ATOM      7  C   UNL A   1      33.262  28.821  24.744  1.00  0.00     0.219 C 
BRANCH   7   8
ATOM      8  N   UNL A   1      33.088  28.204  23.426  1.00  0.00    -0.335 N 
ATOM      9  C   UNL A   1      33.644  28.835  22.249  1.00  0.00     0.147 C 
BRANCH   8  10
ATOM     10  C   UNL A   1      32.922  26.835  23.395  1.00  0.00     0.226 A 
ATOM     11  N   UNL A   1      31.716  26.349  23.094  1.00  0.00    -0.221 NA
ATOM     12  N   UNL A   1      33.971  26.040  23.657  1.00  0.00    -0.212 NA
ATOM     13  C   UNL A   1      31.580  25.013  23.022  1.00  0.00     0.129 A 
ATOM     14  C   UNL A   1      33.800  24.694  23.629  1.00  0.00     0.087 A 
ATOM     15  C   UNL A   1      32.602  24.115  23.254  1.00  0.00     0.066 A 
BRANCH  14  16
ATOM     16  C   UNL A   1      34.985  23.933  24.063  1.00  0.00     0.001 A 
ATOM     17  C   UNL A   1      35.513  24.144  25.350  1.00  0.00     0.012 A 
ATOM     18  C   UNL A   1      35.608  22.978  23.241  1.00  0.00     0.012 A 
ATOM     19  C   UNL A   1      36.607  23.406  25.813  1.00  0.00     0.021 A 
ATOM     20  C   UNL A   1      36.701  22.237  23.703  1.00  0.00     0.021 A 
ATOM     21  C   UNL A   1      37.192  22.450  24.988  1.00  0.00     0.041 A 
ATOM     22  Cl  UNL A   1      38.529  21.531  25.557  1.00  0.00    -0.084 Cl
ENDBRANCH  14  16
BRANCH  15  23
ATOM     23  C   UNL A   1      32.376  22.686  23.113  1.00  0.00     0.190 A 
ATOM     24  N   UNL A   1      32.120  22.041  21.991  1.00  0.00    -0.108 NA
ATOM     25  N   UNL A   1      32.537  21.742  24.120  1.00  0.00    -0.193 N 
ATOM     26  N   UNL A   1      32.230  20.706  22.279  1.00  0.00    -0.023 NA
ATOM     27  N   UNL A   1      32.555  20.517  23.548  1.00  0.00    -0.040 NA
BRANCH  25  28
ATOM     28  C   UNL A   1      32.692  21.918  25.515  1.00  0.00     0.069 A 
ATOM     29  C   UNL A   1      33.702  21.216  26.184  1.00  0.00     0.028 A 
ATOM     30  C   UNL A   1      31.861  22.794  26.228  1.00  0.00     0.028 A 
ATOM     31  C   UNL A   1      33.916  21.441  27.545  1.00  0.00     0.002 A 
ATOM     32  C   UNL A   1      32.061  22.987  27.596  1.00  0.00     0.002 A 
ATOM     33  C   UNL A   1      33.098  22.324  28.248  1.00  0.00     0.000 A 
ENDBRANCH  25  28
ENDBRANCH  15  23
ENDBRANCH   8  10
ENDBRANCH   7   8
ENDBRANCH   4   7
ENDBRANCH   2   3
ENDBRANCH   1   2
BRANCH   1  34
ATOM     34  C   UNL A   1      34.665  32.580  28.100  1.00  0.00     0.002 C 
BRANCH  34  35
ATOM     35  C   UNL A   1      34.595  34.097  28.307  1.00  0.00     0.002 C 
BRANCH  35  36
ATOM     36  C   UNL A   1      33.365  34.586  29.073  1.00  0.00     0.021 C 
BRANCH  36  37
ATOM     37  C   UNL A   1      33.411  36.061  29.451  1.00  0.00     0.116 C 
BRANCH  37  38
ATOM     38  N   UNL A   1      32.526  36.369  30.564  1.00  0.00    -0.352 N 
ATOM     39  C   UNL A   1      32.563  35.894  31.850  1.00  0.00     0.251 C 
ATOM     40  H   UNL A   1      31.800  37.005  30.367  1.00  0.00     0.163 HD
ATOM     41  O   UNL A   1      31.628  36.099  32.621  1.00  0.00    -0.269 OA
BRANCH  39  42
ATOM     42  C   UNL A   1      33.733  35.114  32.300  1.00  0.00     0.039 A 
ATOM     43  C   UNL A   1      33.555  33.794  32.722  1.00  0.00     0.014 A 
ATOM     44  C   UNL A   1      35.008  35.687  32.288  1.00  0.00     0.014 A 
ATOM     45  C   UNL A   1      34.667  33.028  33.077  1.00  0.00     0.010 A 
ATOM     46  C   UNL A   1      36.119  34.899  32.565  1.00  0.00     0.010 A 
ATOM     47  C   UNL A   1      35.960  33.564  32.970  1.00  0.00    -0.014 A 
BRANCH  47  48
ATOM     48  C   UNL A   1      37.167  32.766  33.302  1.00  0.00     0.031 A 
ATOM     49  C   UNL A   1      37.897  33.024  34.594  1.00  0.00     0.074 A 
ATOM     50  C   UNL A   1      37.648  31.867  32.421  1.00  0.00     0.049 A 
ATOM     51  N   UNL A   1      39.036  32.534  35.012  1.00  0.00    -0.248 NA
ATOM     52  C   UNL A   1      37.276  33.981  35.525  1.00  0.00     0.031 C 
ATOM     53  C   UNL A   1      37.048  31.536  31.126  1.00  0.00     0.029 A 
ATOM     54  N   UNL A   1      38.769  31.074  32.477  1.00  0.00    -0.354 N 
ATOM     55  C   UNL A   1      39.271  33.130  36.245  1.00  0.00     0.074 A 
ATOM     56  C   UNL A   1      38.190  34.062  36.481  1.00  0.00     0.031 C 
ATOM     57  C   UNL A   1      37.797  30.601  30.520  1.00  0.00     0.029 A 
ATOM     58  C   UNL A   1      38.955  30.301  31.356  1.00  0.00     0.049 A 
ATOM     59  H   UNL A   1      39.381  31.061  33.248  1.00  0.00     0.167 HD
ATOM     60  C   UNL A   1      40.284  32.907  37.114  1.00  0.00     0.031 A 
ATOM     61  C   UNL A   1      39.957  29.460  31.031  1.00  0.00     0.031 A 
ATOM     62  C   UNL A   1      41.353  31.974  36.886  1.00  0.00     0.049 A 
ATOM     63  C   UNL A   1      41.092  29.264  32.001  1.00  0.00     0.074 A 
ATOM     64  C   UNL A   1      42.413  31.658  37.719  1.00  0.00     0.029 A 
ATOM     65  N   UNL A   1      41.494  31.201  35.744  1.00  0.00    -0.354 N 
ATOM     66  N   UNL A   1      41.278  29.805  33.180  1.00  0.00    -0.248 NA
ATOM     67  C   UNL A   1      42.154  28.330  31.595  1.00  0.00     0.031 C 
ATOM     68  C   UNL A   1      43.221  30.728  37.061  1.00  0.00     0.029 A 
ATOM     69  C   UNL A   1      42.631  30.417  35.847  1.00  0.00     0.049 A 
ATOM     70  H   UNL A   1      40.880  31.209  34.976  1.00  0.00     0.167 HD
ATOM     71  C   UNL A   1      42.448  29.243  33.674  1.00  0.00     0.074 A 
ATOM     72  C   UNL A   1      42.925  28.313  32.674  1.00  0.00     0.031 C 
ATOM     73  C   UNL A   1      43.074  29.476  34.854  1.00  0.00     0.031 A 
BRANCH  60  74
ATOM     74  C   UNL A   1      40.279  33.679  38.403  1.00  0.00    -0.014 A 
ATOM     75  C   UNL A   1      40.927  34.920  38.507  1.00  0.00     0.009 A 
ATOM     76  C   UNL A   1      39.566  33.191  39.510  1.00  0.00     0.009 A 
ATOM     77  C   UNL A   1      40.885  35.644  39.700  1.00  0.00     0.001 A 
ATOM     78  C   UNL A   1      39.500  33.931  40.693  1.00  0.00     0.001 A 
ATOM     79  C   UNL A   1      40.165  35.152  40.789  1.00  0.00     0.000 A 
ENDBRANCH  60  74
BRANCH  61  80
ATOM     80  C   UNL A   1      39.950  28.741  29.728  1.00  0.00    -0.014 A 
ATOM     81  C   UNL A   1      40.295  29.407  28.541  1.00  0.00     0.009 A 
ATOM     82  C   UNL A   1      39.547  27.398  29.655  1.00  0.00     0.009 A 
ATOM     83  C   UNL A   1      40.187  28.761  27.307  1.00  0.00     0.001 A 
ATOM     84  C   UNL A   1      39.475  26.743  28.424  1.00  0.00     0.001 A 
ATOM     85  C   UNL A   1      39.778  27.429  27.250  1.00  0.00     0.000 A 
ENDBRANCH  61  80
BRANCH  73  86
ATOM     86  C   UNL A   1      44.298  28.662  35.165  1.00  0.00    -0.014 A 
ATOM     87  C   UNL A   1      45.586  29.114  34.842  1.00  0.00     0.009 A 
ATOM     88  C   UNL A   1      44.155  27.444  35.852  1.00  0.00     0.009 A 
ATOM     89  C   UNL A   1      46.705  28.348  35.174  1.00  0.00     0.001 A 
ATOM     90  C   UNL A   1      45.277  26.697  36.210  1.00  0.00     0.001 A 
ATOM     91  C   UNL A   1      46.551  27.145  35.863  1.00  0.00     0.000 A 
ENDBRANCH  73  86
ENDBRANCH  47  48
ENDBRANCH  39  42
ENDBRANCH  37  38
ENDBRANCH  36  37
ENDBRANCH  35  36
ENDBRANCH  34  35
ENDBRANCH   1  34
TORSDOF 18
ENDMDL
MODEL 3
REMARK VINA RESULT:     -11.6      1.158      5.617
REMARK SMILES CN(CC(=O)NCCCCCCNC(=O)c1ccc(-c2c3nc(c(-c4ccccc4)c4ccc([nH]4)c(-c4ccccc4)c4nc(c(-c5ccccc5)c5ccc2[nH]5)C=C4)C=C3)cc1)c1ncc(-c2nnnn2-c2ccccc2)c(-c2ccc(Cl)cc2)n1
REMARK SMILES IDX 8 1 7 2 6 3 4 4 5 5 3 7 2 8 1 9 64 10 65 11 87 12 66 13
REMARK SMILES IDX 79 14 67 15 80 16 81 17 86 18 82 19 85 20 83 21 84 22 68 23
REMARK SMILES IDX 69 24 72 25 70 26 71 27 73 28 74 29 78 30 75 31 77 32 76 33
REMARK SMILES IDX 9 34 10 35 11 36 12 37 13 38 14 39 15 41 16 42 17 43 63 44
REMARK SMILES IDX 18 45 62 46 19 47 20 48 21 49 56 50 22 51 61 52 55 53 57 54
REMARK SMILES IDX 23 55 60 56 54 57 53 58 24 60 46 61 31 62 45 63 32 64 35 65
REMARK SMILES IDX 44 66 58 67 33 68 34 69 43 71 59 72 36 73 25 74 26 75 30 76
REMARK SMILES IDX 27 77 29 78 28 79 47 80 48 81 52 82 49 83 51 84 50 85 37 86
REMARK SMILES IDX 38 87 42 88 39 89 41 90 40 91
REMARK H PARENT 6 6 13 40 57 59 35 70
REMARK Flexibility Score: inf
ROOT
ATOM      1  C   UNL A   1      31.751  28.348  27.358  1.00  0.00     0.021 C 
ENDROOT
BRANCH   1   2
ATOM      2  C   UNL A   1      32.015  27.415  26.178  1.00  0.00     0.116 C 
BRANCH   2   3
ATOM      3  N   UNL A   1      30.867  27.332  25.305  1.00  0.00    -0.355 N 
ATOM      4  C   UNL A   1      30.690  27.901  24.074  1.00  0.00     0.239 C 
ATOM      5  O   UNL A   1      29.620  27.697  23.492  1.00  0.00    -0.273 OA
ATOM      6  H   UNL A   1      30.112  26.796  25.640  1.00  0.00     0.163 HD
BRANCH   4   7
ATOM      7  C   UNL A   1      31.851  28.638  23.395  1.00  0.00     0.219 C 
BRANCH   7   8
ATOM      8  N   UNL A   1      32.691  27.809  22.526  1.00  0.00    -0.335 N 
ATOM      9  C   UNL A   1      33.919  28.342  21.978  1.00  0.00     0.147 C 
BRANCH   8  10
ATOM     10  C   UNL A   1      32.614  26.443  22.702  1.00  0.00     0.226 A 
ATOM     11  N   UNL A   1      31.452  25.836  22.458  1.00  0.00    -0.221 NA
ATOM     12  N   UNL A   1      33.705  25.771  23.102  1.00  0.00    -0.212 NA
ATOM     13  C   UNL A   1      31.404  24.498  22.589  1.00  0.00     0.129 A 
ATOM     14  C   UNL A   1      33.622  24.427  23.277  1.00  0.00     0.087 A 
ATOM     15  C   UNL A   1      32.475  23.717  22.974  1.00  0.00     0.066 A 
BRANCH  14  16
ATOM     16  C   UNL A   1      34.841  23.824  23.844  1.00  0.00     0.001 A 
ATOM     17  C   UNL A   1      35.304  24.245  25.105  1.00  0.00     0.012 A 
ATOM     18  C   UNL A   1      35.561  22.817  23.178  1.00  0.00     0.012 A 
ATOM     19  C   UNL A   1      36.429  23.660  25.695  1.00  0.00     0.021 A 
ATOM     20  C   UNL A   1      36.686  22.230  23.767  1.00  0.00     0.021 A 
ATOM     21  C   UNL A   1      37.112  22.650  25.024  1.00  0.00     0.041 A 
ATOM     22  Cl  UNL A   1      38.488  21.920  25.751  1.00  0.00    -0.084 Cl
ENDBRANCH  14  16
BRANCH  15  23
ATOM     23  C   UNL A   1      32.346  22.272  23.051  1.00  0.00     0.190 A 
ATOM     24  N   UNL A   1      32.109  21.453  22.044  1.00  0.00    -0.108 NA
ATOM     25  N   UNL A   1      32.595  21.499  24.179  1.00  0.00    -0.193 N 
ATOM     26  N   UNL A   1      32.319  20.185  22.519  1.00  0.00    -0.023 NA
ATOM     27  N   UNL A   1      32.685  20.208  23.791  1.00  0.00    -0.040 NA
BRANCH  25  28
ATOM     28  C   UNL A   1      32.770  21.890  25.528  1.00  0.00     0.069 A 
ATOM     29  C   UNL A   1      31.907  22.844  26.079  1.00  0.00     0.028 A 
ATOM     30  C   UNL A   1      33.782  21.324  26.316  1.00  0.00     0.028 A 
ATOM     31  C   UNL A   1      32.019  23.180  27.429  1.00  0.00     0.002 A 
ATOM     32  C   UNL A   1      33.908  21.691  27.657  1.00  0.00     0.002 A 
ATOM     33  C   UNL A   1      33.017  22.604  28.216  1.00  0.00     0.000 A 
ENDBRANCH  25  28
ENDBRANCH  15  23
ENDBRANCH   8  10
ENDBRANCH   7   8
ENDBRANCH   4   7
ENDBRANCH   2   3
ENDBRANCH   1   2
BRANCH   1  34
ATOM     34  C   UNL A   1      32.387  29.735  27.203  1.00  0.00     0.002 C 
BRANCH  34  35
ATOM     35  C   UNL A   1      31.654  30.682  26.245  1.00  0.00     0.002 C 
BRANCH  35  36
ATOM     36  C   UNL A   1      31.399  32.085  26.796  1.00  0.00     0.021 C 
BRANCH  36  37
ATOM     37  C   UNL A   1      32.642  32.779  27.337  1.00  0.00     0.116 C 
BRANCH  37  38
ATOM     38  N   UNL A   1      32.391  34.173  27.670  1.00  0.00    -0.352 N 
ATOM     39  C   UNL A   1      33.012  34.960  28.605  1.00  0.00     0.251 C 
ATOM     40  H   UNL A   1      31.675  34.610  27.154  1.00  0.00     0.163 HD
ATOM     41  O   UNL A   1      32.553  36.060  28.902  1.00  0.00    -0.269 OA
BRANCH  39  42
ATOM     42  C   UNL A   1      34.235  34.466  29.270  1.00  0.00     0.039 A 
ATOM     43  C   UNL A   1      34.147  33.941  30.561  1.00  0.00     0.014 A 
ATOM     44  C   UNL A   1      35.464  34.511  28.606  1.00  0.00     0.014 A 
ATOM     45  C   UNL A   1      35.285  33.404  31.165  1.00  0.00     0.010 A 
ATOM     46  C   UNL A   1      36.577  33.905  29.177  1.00  0.00     0.010 A 
ATOM     47  C   UNL A   1      36.501  33.352  30.465  1.00  0.00    -0.014 A 
BRANCH  47  48
ATOM     48  C   UNL A   1      37.721  32.753  31.063  1.00  0.00     0.031 A 
ATOM     49  C   UNL A   1      38.333  31.529  30.435  1.00  0.00     0.074 A 
ATOM     50  C   UNL A   1      38.236  33.258  32.201  1.00  0.00     0.049 A 
ATOM     51  N   UNL A   1      39.313  30.779  30.869  1.00  0.00    -0.248 NA
ATOM     52  C   UNL A   1      37.745  31.073  29.163  1.00  0.00     0.031 C 
ATOM     53  C   UNL A   1      37.727  34.428  32.921  1.00  0.00     0.029 A 
ATOM     54  N   UNL A   1      39.299  32.838  32.963  1.00  0.00    -0.354 N 
ATOM     55  C   UNL A   1      39.450  29.761  29.933  1.00  0.00     0.074 A 
ATOM     56  C   UNL A   1      38.416  29.953  28.940  1.00  0.00     0.031 C 
ATOM     57  C   UNL A   1      38.486  34.639  34.009  1.00  0.00     0.029 A 
ATOM     58  C   UNL A   1      39.502  33.595  34.093  1.00  0.00     0.049 A 
ATOM     59  H   UNL A   1      39.862  32.067  32.723  1.00  0.00     0.167 HD
ATOM     60  C   UNL A   1      40.367  28.767  29.891  1.00  0.00     0.031 A 
ATOM     61  C   UNL A   1      40.394  33.450  35.092  1.00  0.00     0.031 A 
ATOM     62  C   UNL A   1      41.402  28.581  30.871  1.00  0.00     0.049 A 
ATOM     63  C   UNL A   1      41.376  32.310  35.039  1.00  0.00     0.074 A 
ATOM     64  C   UNL A   1      42.396  27.618  30.901  1.00  0.00     0.029 A 
ATOM     65  N   UNL A   1      41.581  29.379  31.990  1.00  0.00    -0.354 N 
ATOM     66  N   UNL A   1      41.518  31.380  34.126  1.00  0.00    -0.248 NA
ATOM     67  C   UNL A   1      42.330  32.205  36.154  1.00  0.00     0.031 C 
ATOM     68  C   UNL A   1      43.148  27.805  32.064  1.00  0.00     0.029 A 
ATOM     69  C   UNL A   1      42.662  28.922  32.723  1.00  0.00     0.049 A 
ATOM     70  H   UNL A   1      41.022  30.153  32.227  1.00  0.00     0.167 HD
ATOM     71  C   UNL A   1      42.602  30.613  34.532  1.00  0.00     0.074 A 
ATOM     72  C   UNL A   1      43.088  31.189  35.767  1.00  0.00     0.031 C 
ATOM     73  C   UNL A   1      43.149  29.526  33.935  1.00  0.00     0.031 A 
BRANCH  60  74
ATOM     74  C   UNL A   1      40.303  27.807  28.736  1.00  0.00    -0.014 A 
ATOM     75  C   UNL A   1      40.985  28.070  27.537  1.00  0.00     0.009 A 
ATOM     76  C   UNL A   1      39.603  26.597  28.868  1.00  0.00     0.009 A 
ATOM     77  C   UNL A   1      40.946  27.153  26.485  1.00  0.00     0.001 A 
ATOM     78  C   UNL A   1      39.591  25.668  27.825  1.00  0.00     0.001 A 
ATOM     79  C   UNL A   1      40.256  25.950  26.633  1.00  0.00     0.000 A 
ENDBRANCH  60  74
BRANCH  61  80
ATOM     80  C   UNL A   1      40.406  34.397  36.241  1.00  0.00    -0.014 A 
ATOM     81  C   UNL A   1      39.643  34.136  37.391  1.00  0.00     0.009 A 
ATOM     82  C   UNL A   1      41.137  35.593  36.173  1.00  0.00     0.009 A 
ATOM     83  C   UNL A   1      39.572  35.075  38.423  1.00  0.00     0.001 A 
ATOM     84  C   UNL A   1      41.093  36.514  37.222  1.00  0.00     0.001 A 
ATOM     85  C   UNL A   1      40.298  36.262  38.338  1.00  0.00     0.000 A 
ENDBRANCH  61  80
BRANCH  73  86
ATOM     86  C   UNL A   1      44.379  28.932  34.561  1.00  0.00    -0.014 A 
ATOM     87  C   UNL A   1      45.665  29.386  34.234  1.00  0.00     0.009 A 
ATOM     88  C   UNL A   1      44.236  27.939  35.545  1.00  0.00     0.009 A 
ATOM     89  C   UNL A   1      46.786  28.834  34.858  1.00  0.00     0.001 A 
ATOM     90  C   UNL A   1      45.356  27.413  36.189  1.00  0.00     0.001 A 
ATOM     91  C   UNL A   1      46.631  27.855  35.838  1.00  0.00     0.000 A 
ENDBRANCH  73  86
ENDBRANCH  47  48
ENDBRANCH  39  42
ENDBRANCH  37  38
ENDBRANCH  36  37
ENDBRANCH  35  36
ENDBRANCH  34  35
ENDBRANCH   1  34
TORSDOF 18
ENDMDL
