MODEL 1
REMARK VINA RESULT:     -10.9      0.000      0.000
REMARK SMILES Cc1ccc2n[nH]cc2c1C(=O)NCCCCCCNC(=O)c1ccc(-c2c3nc(c(-c4ccccc4)c4ccc([nH]4)c(-c4ccccc4)c4nc(c(-c5ccccc5)c5ccc2[nH]5)C=C4)C=C3)cc1
REMARK SMILES IDX 17 1 16 2 15 3 14 4 13 5 11 6 12 7 10 9 1 10 2 11 3 12 4 13
REMARK SMILES IDX 9 14 5 15 8 16 6 17 7 18 18 20 19 21 20 22 21 23 22 25 23 26
REMARK SMILES IDX 24 27 70 28 25 29 69 30 26 31 27 32 28 33 63 34 29 35 68 36
REMARK SMILES IDX 62 37 64 38 30 39 67 40 61 41 60 42 31 44 53 45 38 46 52 47
REMARK SMILES IDX 39 48 42 49 51 50 65 51 40 52 41 53 50 55 66 56 43 57 32 58
REMARK SMILES IDX 33 59 37 60 34 61 36 62 35 63 54 64 55 65 59 66 56 67 58 68
REMARK SMILES IDX 57 69 44 70 45 71 49 72 46 73 48 74 47 75
REMARK H PARENT 13 8 7 19 20 24 64 43 42 54
REMARK Flexibility Score: inf
ROOT
ATOM      1  C   UNL A   1      31.849  28.159  26.345  1.00  0.00     0.002 C 
ENDROOT
BRANCH   1   2
ATOM      2  C   UNL A   1      33.187  27.423  26.462  1.00  0.00     0.002 C 
BRANCH   2   3
ATOM      3  C   UNL A   1      33.109  25.931  26.127  1.00  0.00     0.021 C 
BRANCH   3   4
ATOM      4  C   UNL A   1      34.399  25.376  25.508  1.00  0.00     0.116 C 
BRANCH   4   5
ATOM      5  N   UNL A   1      34.168  25.013  24.132  1.00  0.00    -0.352 N 
ATOM      6  C   UNL A   1      33.373  25.399  23.094  1.00  0.00     0.252 C 
ATOM      7  O   UNL A   1      33.482  24.624  22.134  1.00  0.00    -0.269 OA
ATOM      8  H   UNL A   1      34.756  24.270  23.864  1.00  0.00     0.163 HD
BRANCH   6   9
ATOM      9  C   UNL A   1      32.452  26.586  22.971  1.00  0.00     0.053 A 
ATOM     10  C   UNL A   1      34.030  28.576  22.371  1.00  0.00     0.045 C 
ATOM     11  C   UNL A   1      32.687  27.975  22.680  1.00  0.00    -0.038 A 
ATOM     12  C   UNL A   1      31.636  28.980  22.671  1.00  0.00     0.006 A 
ATOM     13  C   UNL A   1      30.293  28.751  22.994  1.00  0.00     0.031 A 
ATOM     14  C   UNL A   1      31.070  26.404  23.279  1.00  0.00     0.033 A 
ATOM     15  C   UNL A   1      30.031  27.419  23.309  1.00  0.00     0.093 A 
ATOM     16  C   UNL A   1      30.414  25.242  23.609  1.00  0.00     0.114 A 
ATOM     17  N   UNL A   1      28.856  26.882  23.673  1.00  0.00    -0.176 NA
ATOM     18  N   UNL A   1      29.123  25.584  23.864  1.00  0.00    -0.284 N 
ATOM     19  H   UNL A   1      28.445  24.937  24.164  1.00  0.00     0.189 HD
ENDBRANCH   6   9
ENDBRANCH   4   5
ENDBRANCH   3   4
ENDBRANCH   2   3
ENDBRANCH   1   2
BRANCH   1  20
ATOM     20  C   UNL A   1      31.861  29.613  26.833  1.00  0.00     0.021 C 
BRANCH  20  21
ATOM     21  C   UNL A   1      33.192  30.335  26.622  1.00  0.00     0.116 C 
BRANCH  21  22
ATOM     22  N   UNL A   1      33.437  31.389  27.584  1.00  0.00    -0.352 N 
ATOM     23  C   UNL A   1      34.498  31.759  28.360  1.00  0.00     0.251 C 
ATOM     24  H   UNL A   1      32.656  31.977  27.708  1.00  0.00     0.163 HD
ATOM     25  O   UNL A   1      34.334  32.764  29.061  1.00  0.00    -0.269 OA
BRANCH  23  26
ATOM     26  C   UNL A   1      35.786  31.020  28.469  1.00  0.00     0.039 A 
ATOM     27  C   UNL A   1      35.972  29.662  28.217  1.00  0.00     0.014 A 
ATOM     28  C   UNL A   1      36.894  31.781  28.893  1.00  0.00     0.014 A 
ATOM     29  C   UNL A   1      37.199  29.059  28.485  1.00  0.00     0.010 A 
ATOM     30  C   UNL A   1      38.128  31.190  29.137  1.00  0.00     0.010 A 
ATOM     31  C   UNL A   1      38.267  29.817  28.975  1.00  0.00    -0.014 A 
BRANCH  31  32
ATOM     32  C   UNL A   1      39.545  29.142  29.182  1.00  0.00     0.031 A 
ATOM     33  C   UNL A   1      39.835  28.770  30.595  1.00  0.00     0.074 A 
ATOM     34  C   UNL A   1      40.386  28.785  28.191  1.00  0.00     0.049 A 
ATOM     35  N   UNL A   1      40.811  29.180  31.336  1.00  0.00    -0.248 NA
ATOM     36  C   UNL A   1      38.866  27.916  31.298  1.00  0.00     0.031 C 
ATOM     37  C   UNL A   1      40.154  28.807  26.746  1.00  0.00     0.029 A 
ATOM     38  N   UNL A   1      41.624  28.222  28.293  1.00  0.00    -0.354 N 
ATOM     39  C   UNL A   1      40.666  28.541  32.566  1.00  0.00     0.074 A 
ATOM     40  C   UNL A   1      39.399  27.856  32.520  1.00  0.00     0.031 C 
ATOM     41  C   UNL A   1      41.107  28.068  26.130  1.00  0.00     0.029 A 
ATOM     42  C   UNL A   1      42.093  27.655  27.115  1.00  0.00     0.049 A 
ATOM     43  H   UNL A   1      42.141  28.216  29.131  1.00  0.00     0.167 HD
ATOM     44  C   UNL A   1      41.671  28.500  33.484  1.00  0.00     0.031 A 
ATOM     45  C   UNL A   1      43.182  26.859  26.980  1.00  0.00     0.031 A 
ATOM     46  C   UNL A   1      42.690  29.474  33.205  1.00  0.00     0.049 A 
ATOM     47  C   UNL A   1      44.058  27.083  28.151  1.00  0.00     0.074 A 
ATOM     48  C   UNL A   1      42.718  30.853  33.160  1.00  0.00     0.029 A 
ATOM     49  N   UNL A   1      43.818  29.048  32.546  1.00  0.00    -0.354 N 
ATOM     50  N   UNL A   1      44.712  28.187  28.362  1.00  0.00    -0.248 NA
ATOM     51  C   UNL A   1      43.884  26.225  29.311  1.00  0.00     0.031 C 
ATOM     52  C   UNL A   1      43.578  31.164  32.070  1.00  0.00     0.029 A 
ATOM     53  C   UNL A   1      44.085  29.966  31.564  1.00  0.00     0.049 A 
ATOM     54  H   UNL A   1      44.337  28.235  32.743  1.00  0.00     0.167 HD
ATOM     55  C   UNL A   1      44.634  28.380  29.732  1.00  0.00     0.074 A 
ATOM     56  C   UNL A   1      44.209  27.091  30.273  1.00  0.00     0.031 C 
ATOM     57  C   UNL A   1      44.646  29.635  30.271  1.00  0.00     0.031 A 
BRANCH  44  58
ATOM     58  C   UNL A   1      41.884  27.379  34.465  1.00  0.00    -0.014 A 
ATOM     59  C   UNL A   1      42.646  26.235  34.171  1.00  0.00     0.009 A 
ATOM     60  C   UNL A   1      41.534  27.575  35.815  1.00  0.00     0.009 A 
ATOM     61  C   UNL A   1      43.050  25.337  35.164  1.00  0.00     0.001 A 
ATOM     62  C   UNL A   1      41.970  26.700  36.819  1.00  0.00     0.001 A 
ATOM     63  C   UNL A   1      42.732  25.583  36.492  1.00  0.00     0.000 A 
ENDBRANCH  44  58
BRANCH  45  64
ATOM     64  C   UNL A   1      43.366  25.682  26.101  1.00  0.00    -0.014 A 
ATOM     65  C   UNL A   1      42.468  24.604  26.174  1.00  0.00     0.009 A 
ATOM     66  C   UNL A   1      44.584  25.477  25.432  1.00  0.00     0.009 A 
ATOM     67  C   UNL A   1      42.797  23.349  25.648  1.00  0.00     0.001 A 
ATOM     68  C   UNL A   1      44.915  24.220  24.908  1.00  0.00     0.001 A 
ATOM     69  C   UNL A   1      44.030  23.152  25.034  1.00  0.00     0.000 A 
ENDBRANCH  45  64
BRANCH  57  70
ATOM     70  C   UNL A   1      44.997  30.807  29.378  1.00  0.00    -0.014 A 
ATOM     71  C   UNL A   1      46.285  31.356  29.490  1.00  0.00     0.009 A 
ATOM     72  C   UNL A   1      44.055  31.488  28.586  1.00  0.00     0.009 A 
ATOM     73  C   UNL A   1      46.618  32.551  28.849  1.00  0.00     0.001 A 
ATOM     74  C   UNL A   1      44.399  32.668  27.917  1.00  0.00     0.001 A 
ATOM     75  C   UNL A   1      45.676  33.205  28.059  1.00  0.00     0.000 A 
ENDBRANCH  57  70
ENDBRANCH  31  32
ENDBRANCH  23  26
ENDBRANCH  21  22
ENDBRANCH  20  21
ENDBRANCH   1  20
TORSDOF 13
ENDMDL
MODEL 2
REMARK VINA RESULT:     -10.8      1.865      2.770
REMARK SMILES Cc1ccc2n[nH]cc2c1C(=O)NCCCCCCNC(=O)c1ccc(-c2c3nc(c(-c4ccccc4)c4ccc([nH]4)c(-c4ccccc4)c4nc(c(-c5ccccc5)c5ccc2[nH]5)C=C4)C=C3)cc1
REMARK SMILES IDX 17 1 16 2 15 3 14 4 13 5 11 6 12 7 10 9 1 10 2 11 3 12 4 13
REMARK SMILES IDX 9 14 5 15 8 16 6 17 7 18 18 20 19 21 20 22 21 23 22 25 23 26
REMARK SMILES IDX 24 27 70 28 25 29 69 30 26 31 27 32 28 33 63 34 29 35 68 36
REMARK SMILES IDX 62 37 64 38 30 39 67 40 61 41 60 42 31 44 53 45 38 46 52 47
REMARK SMILES IDX 39 48 42 49 51 50 65 51 40 52 41 53 50 55 66 56 43 57 32 58
REMARK SMILES IDX 33 59 37 60 34 61 36 62 35 63 54 64 55 65 59 66 56 67 58 68
REMARK SMILES IDX 57 69 44 70 45 71 49 72 46 73 48 74 47 75
REMARK H PARENT 13 8 7 19 20 24 64 43 42 54
REMARK Flexibility Score: inf
ROOT
ATOM      1  C   UNL A   1      35.961  31.045  27.702  1.00  0.00     0.002 C 
ENDROOT
BRANCH   1   2
ATOM      2  C   UNL A   1      35.665  29.548  27.574  1.00  0.00     0.002 C 
BRANCH   2   3
ATOM      3  C   UNL A   1      34.173  29.212  27.502  1.00  0.00     0.021 C 
BRANCH   3   4
ATOM      4  C   UNL A   1      33.587  29.332  26.088  1.00  0.00     0.116 C 
BRANCH   4   5
ATOM      5  N   UNL A   1      33.761  28.090  25.377  1.00  0.00    -0.352 N 
ATOM      6  C   UNL A   1      32.995  27.169  24.726  1.00  0.00     0.252 C 
ATOM      7  O   UNL A   1      33.661  26.174  24.410  1.00  0.00    -0.269 OA
ATOM      8  H   UNL A   1      34.712  27.831  25.355  1.00  0.00     0.163 HD
BRANCH   6   9
ATOM      9  C   UNL A   1      31.536  27.217  24.352  1.00  0.00     0.053 A 
ATOM     10  C   UNL A   1      30.445  25.286  25.728  1.00  0.00     0.045 C 
ATOM     11  C   UNL A   1      30.403  26.420  24.741  1.00  0.00    -0.038 A 
ATOM     12  C   UNL A   1      29.067  26.608  24.199  1.00  0.00     0.006 A 
ATOM     13  C   UNL A   1      28.718  27.530  23.206  1.00  0.00     0.031 A 
ATOM     14  C   UNL A   1      31.124  28.149  23.351  1.00  0.00     0.033 A 
ATOM     15  C   UNL A   1      29.797  28.305  22.783  1.00  0.00     0.093 A 
ATOM     16  C   UNL A   1      31.880  29.099  22.707  1.00  0.00     0.114 A 
ATOM     17  N   UNL A   1      29.796  29.261  21.840  1.00  0.00    -0.176 NA
ATOM     18  N   UNL A   1      31.059  29.701  21.805  1.00  0.00    -0.284 N 
ATOM     19  H   UNL A   1      31.367  30.398  21.182  1.00  0.00     0.189 HD
ENDBRANCH   6   9
ENDBRANCH   4   5
ENDBRANCH   3   4
ENDBRANCH   2   3
ENDBRANCH   1   2
BRANCH   1  20
ATOM     20  C   UNL A   1      34.749  31.923  28.036  1.00  0.00     0.021 C 
BRANCH  20  21
ATOM     21  C   UNL A   1      35.079  33.151  28.885  1.00  0.00     0.116 C 
BRANCH  21  22
ATOM     22  N   UNL A   1      34.800  32.971  30.295  1.00  0.00    -0.352 N 
ATOM     23  C   UNL A   1      35.419  32.327  31.326  1.00  0.00     0.251 C 
ATOM     24  H   UNL A   1      33.968  33.419  30.575  1.00  0.00     0.163 HD
ATOM     25  O   UNL A   1      34.875  32.422  32.432  1.00  0.00    -0.269 OA
BRANCH  23  26
ATOM     26  C   UNL A   1      36.641  31.484  31.207  1.00  0.00     0.039 A 
ATOM     27  C   UNL A   1      37.947  31.952  31.078  1.00  0.00     0.014 A 
ATOM     28  C   UNL A   1      36.425  30.091  31.198  1.00  0.00     0.014 A 
ATOM     29  C   UNL A   1      38.993  31.063  30.838  1.00  0.00     0.010 A 
ATOM     30  C   UNL A   1      37.468  29.197  30.986  1.00  0.00     0.010 A 
ATOM     31  C   UNL A   1      38.748  29.688  30.760  1.00  0.00    -0.014 A 
BRANCH  31  32
ATOM     32  C   UNL A   1      39.891  28.801  30.566  1.00  0.00     0.031 A 
ATOM     33  C   UNL A   1      40.701  28.546  31.790  1.00  0.00     0.074 A 
ATOM     34  C   UNL A   1      40.176  28.171  29.409  1.00  0.00     0.049 A 
ATOM     35  N   UNL A   1      41.944  28.836  31.990  1.00  0.00    -0.248 NA
ATOM     36  C   UNL A   1      40.018  27.989  32.968  1.00  0.00     0.031 C 
ATOM     37  C   UNL A   1      39.358  28.070  28.199  1.00  0.00     0.029 A 
ATOM     38  N   UNL A   1      41.254  27.387  29.115  1.00  0.00    -0.354 N 
ATOM     39  C   UNL A   1      42.250  28.386  33.273  1.00  0.00     0.074 A 
ATOM     40  C   UNL A   1      41.005  27.967  33.864  1.00  0.00     0.031 C 
ATOM     41  C   UNL A   1      39.852  27.090  27.407  1.00  0.00     0.029 A 
ATOM     42  C   UNL A   1      41.098  26.606  27.978  1.00  0.00     0.049 A 
ATOM     43  H   UNL A   1      42.072  27.377  29.664  1.00  0.00     0.167 HD
ATOM     44  C   UNL A   1      43.535  28.253  33.705  1.00  0.00     0.031 A 
ATOM     45  C   UNL A   1      41.911  25.598  27.574  1.00  0.00     0.031 A 
ATOM     46  C   UNL A   1      44.458  28.965  32.866  1.00  0.00     0.049 A 
ATOM     47  C   UNL A   1      43.222  25.778  28.236  1.00  0.00     0.074 A 
ATOM     48  C   UNL A   1      44.647  30.296  32.554  1.00  0.00     0.029 A 
ATOM     49  N   UNL A   1      45.133  28.249  31.907  1.00  0.00    -0.354 N 
ATOM     50  N   UNL A   1      44.045  26.746  27.957  1.00  0.00    -0.248 NA
ATOM     51  C   UNL A   1      43.445  25.112  29.508  1.00  0.00     0.031 C 
ATOM     52  C   UNL A   1      44.997  30.301  31.175  1.00  0.00     0.029 A 
ATOM     53  C   UNL A   1      45.078  28.975  30.745  1.00  0.00     0.049 A 
ATOM     54  H   UNL A   1      45.573  27.378  32.030  1.00  0.00     0.167 HD
ATOM     55  C   UNL A   1      44.581  27.109  29.182  1.00  0.00     0.074 A 
ATOM     56  C   UNL A   1      44.259  26.002  30.080  1.00  0.00     0.031 C 
ATOM     57  C   UNL A   1      44.987  28.390  29.424  1.00  0.00     0.031 A 
BRANCH  44  58
ATOM     58  C   UNL A   1      43.993  27.234  34.714  1.00  0.00    -0.014 A 
ATOM     59  C   UNL A   1      44.013  27.479  36.098  1.00  0.00     0.009 A 
ATOM     60  C   UNL A   1      44.171  25.899  34.306  1.00  0.00     0.009 A 
ATOM     61  C   UNL A   1      44.188  26.452  37.030  1.00  0.00     0.001 A 
ATOM     62  C   UNL A   1      44.307  24.861  35.237  1.00  0.00     0.001 A 
ATOM     63  C   UNL A   1      44.310  25.138  36.600  1.00  0.00     0.000 A 
ENDBRANCH  44  58
BRANCH  45  64
ATOM     64  C   UNL A   1      41.546  24.315  26.934  1.00  0.00    -0.014 A 
ATOM     65  C   UNL A   1      40.491  23.545  27.453  1.00  0.00     0.009 A 
ATOM     66  C   UNL A   1      42.425  23.696  26.028  1.00  0.00     0.009 A 
ATOM     67  C   UNL A   1      40.350  22.192  27.125  1.00  0.00     0.001 A 
ATOM     68  C   UNL A   1      42.285  22.340  25.702  1.00  0.00     0.001 A 
ATOM     69  C   UNL A   1      41.260  21.584  26.265  1.00  0.00     0.000 A 
ENDBRANCH  45  64
BRANCH  57  70
ATOM     70  C   UNL A   1      45.078  29.357  28.262  1.00  0.00    -0.014 A 
ATOM     71  C   UNL A   1      46.346  29.604  27.710  1.00  0.00     0.009 A 
ATOM     72  C   UNL A   1      44.003  30.154  27.829  1.00  0.00     0.009 A 
ATOM     73  C   UNL A   1      46.540  30.622  26.774  1.00  0.00     0.001 A 
ATOM     74  C   UNL A   1      44.192  31.152  26.866  1.00  0.00     0.001 A 
ATOM     75  C   UNL A   1      45.462  31.393  26.349  1.00  0.00     0.000 A 
ENDBRANCH  57  70
ENDBRANCH  31  32
ENDBRANCH  23  26
ENDBRANCH  21  22
ENDBRANCH  20  21
ENDBRANCH   1  20
TORSDOF 13
ENDMDL
MODEL 3
REMARK VINA RESULT:     -10.8      1.174      2.166
REMARK SMILES Cc1ccc2n[nH]cc2c1C(=O)NCCCCCCNC(=O)c1ccc(-c2c3nc(c(-c4ccccc4)c4ccc([nH]4)c(-c4ccccc4)c4nc(c(-c5ccccc5)c5ccc2[nH]5)C=C4)C=C3)cc1
REMARK SMILES IDX 17 1 16 2 15 3 14 4 13 5 11 6 12 7 10 9 1 10 2 11 3 12 4 13
REMARK SMILES IDX 9 14 5 15 8 16 6 17 7 18 18 20 19 21 20 22 21 23 22 25 23 26
REMARK SMILES IDX 24 27 70 28 25 29 69 30 26 31 27 32 28 33 63 34 29 35 68 36
REMARK SMILES IDX 62 37 64 38 30 39 67 40 61 41 60 42 31 44 53 45 38 46 52 47
REMARK SMILES IDX 39 48 42 49 51 50 65 51 40 52 41 53 50 55 66 56 43 57 32 58
REMARK SMILES IDX 33 59 37 60 34 61 36 62 35 63 54 64 55 65 59 66 56 67 58 68
REMARK SMILES IDX 57 69 44 70 45 71 49 72 46 73 48 74 47 75
REMARK H PARENT 13 8 7 19 20 24 64 43 42 54
REMARK Flexibility Score: inf
ROOT
ATOM      1  C   UNL A   1      31.990  28.784  27.615  1.00  0.00     0.002 C 
ENDROOT
BRANCH   1   2
ATOM      2  C   UNL A   1      32.114  27.552  26.713  1.00  0.00     0.002 C 
BRANCH   2   3
ATOM      3  C   UNL A   1      31.980  27.857  25.219  1.00  0.00     0.021 C 
BRANCH   3   4
ATOM      4  C   UNL A   1      33.289  27.676  24.438  1.00  0.00     0.116 C 
BRANCH   4   5
ATOM      5  N   UNL A   1      33.239  26.455  23.673  1.00  0.00    -0.352 N 
ATOM      6  C   UNL A   1      33.338  25.112  23.885  1.00  0.00     0.252 C 
ATOM      7  O   UNL A   1      33.369  24.490  22.814  1.00  0.00    -0.269 OA
ATOM      8  H   UNL A   1      33.089  26.647  22.718  1.00  0.00     0.163 HD
BRANCH   6   9
ATOM      9  C   UNL A   1      33.393  24.339  25.178  1.00  0.00     0.053 A 
ATOM     10  C   UNL A   1      35.930  23.842  25.534  1.00  0.00     0.045 C 
ATOM     11  C   UNL A   1      34.479  23.757  25.919  1.00  0.00    -0.038 A 
ATOM     12  C   UNL A   1      34.294  22.985  27.139  1.00  0.00     0.006 A 
ATOM     13  C   UNL A   1      33.060  22.663  27.713  1.00  0.00     0.031 A 
ATOM     14  C   UNL A   1      32.161  23.994  25.812  1.00  0.00     0.033 A 
ATOM     15  C   UNL A   1      31.979  23.188  27.007  1.00  0.00     0.093 A 
ATOM     16  C   UNL A   1      30.883  24.342  25.443  1.00  0.00     0.114 A 
ATOM     17  N   UNL A   1      30.674  23.047  27.287  1.00  0.00    -0.176 NA
ATOM     18  N   UNL A   1      30.046  23.731  26.323  1.00  0.00    -0.284 N 
ATOM     19  H   UNL A   1      29.066  23.786  26.257  1.00  0.00     0.189 HD
ENDBRANCH   6   9
ENDBRANCH   4   5
ENDBRANCH   3   4
ENDBRANCH   2   3
ENDBRANCH   1   2
BRANCH   1  20
ATOM     20  C   UNL A   1      31.974  30.130  26.880  1.00  0.00     0.021 C 
BRANCH  20  21
ATOM     21  C   UNL A   1      33.346  30.793  26.755  1.00  0.00     0.116 C 
BRANCH  21  22
ATOM     22  N   UNL A   1      33.618  31.760  27.798  1.00  0.00    -0.352 N 
ATOM     23  C   UNL A   1      34.679  32.025  28.615  1.00  0.00     0.251 C 
ATOM     24  H   UNL A   1      32.860  32.370  27.955  1.00  0.00     0.163 HD
ATOM     25  O   UNL A   1      34.545  32.980  29.388  1.00  0.00    -0.269 OA
BRANCH  23  26
ATOM     26  C   UNL A   1      35.933  31.226  28.685  1.00  0.00     0.039 A 
ATOM     27  C   UNL A   1      36.053  29.866  28.405  1.00  0.00     0.014 A 
ATOM     28  C   UNL A   1      37.083  31.926  29.103  1.00  0.00     0.014 A 
ATOM     29  C   UNL A   1      37.255  29.202  28.638  1.00  0.00     0.010 A 
ATOM     30  C   UNL A   1      38.293  31.275  29.313  1.00  0.00     0.010 A 
ATOM     31  C   UNL A   1      38.365  29.900  29.123  1.00  0.00    -0.014 A 
BRANCH  31  32
ATOM     32  C   UNL A   1      39.614  29.164  29.293  1.00  0.00     0.031 A 
ATOM     33  C   UNL A   1      39.934  28.790  30.699  1.00  0.00     0.074 A 
ATOM     34  C   UNL A   1      40.401  28.755  28.278  1.00  0.00     0.049 A 
ATOM     35  N   UNL A   1      40.954  29.156  31.402  1.00  0.00    -0.248 NA
ATOM     36  C   UNL A   1      38.948  27.992  31.445  1.00  0.00     0.031 C 
ATOM     37  C   UNL A   1      40.120  28.776  26.841  1.00  0.00     0.029 A 
ATOM     38  N   UNL A   1      41.612  28.131  28.343  1.00  0.00    -0.354 N 
ATOM     39  C   UNL A   1      40.820  28.537  32.643  1.00  0.00     0.074 A 
ATOM     40  C   UNL A   1      39.519  27.917  32.648  1.00  0.00     0.031 C 
ATOM     41  C   UNL A   1      41.013  27.984  26.201  1.00  0.00     0.029 A 
ATOM     42  C   UNL A   1      42.010  27.531  27.156  1.00  0.00     0.049 A 
ATOM     43  H   UNL A   1      42.157  28.107  29.164  1.00  0.00     0.167 HD
ATOM     44  C   UNL A   1      41.853  28.454  33.526  1.00  0.00     0.031 A 
ATOM     45  C   UNL A   1      43.052  26.679  26.993  1.00  0.00     0.031 A 
ATOM     46  C   UNL A   1      42.910  29.372  33.202  1.00  0.00     0.049 A 
ATOM     47  C   UNL A   1      43.979  26.869  28.131  1.00  0.00     0.074 A 
ATOM     48  C   UNL A   1      43.005  30.748  33.141  1.00  0.00     0.029 A 
ATOM     49  N   UNL A   1      43.991  28.883  32.510  1.00  0.00    -0.354 N 
ATOM     50  N   UNL A   1      44.695  27.940  28.307  1.00  0.00    -0.248 NA
ATOM     51  C   UNL A   1      43.803  26.031  29.305  1.00  0.00     0.031 C 
ATOM     52  C   UNL A   1      43.841  31.005  32.019  1.00  0.00     0.029 A 
ATOM     53  C   UNL A   1      44.270  29.778  31.509  1.00  0.00     0.049 A 
ATOM     54  H   UNL A   1      44.475  28.048  32.697  1.00  0.00     0.167 HD
ATOM     55  C   UNL A   1      44.674  28.150  29.677  1.00  0.00     0.074 A 
ATOM     56  C   UNL A   1      44.204  26.889  30.246  1.00  0.00     0.031 C 
ATOM     57  C   UNL A   1      44.768  29.407  30.201  1.00  0.00     0.031 A 
BRANCH  44  58
ATOM     58  C   UNL A   1      42.044  27.333  34.512  1.00  0.00    -0.014 A 
ATOM     59  C   UNL A   1      42.768  26.165  34.216  1.00  0.00     0.009 A 
ATOM     60  C   UNL A   1      41.714  27.546  35.864  1.00  0.00     0.009 A 
ATOM     61  C   UNL A   1      43.156  25.261  35.210  1.00  0.00     0.001 A 
ATOM     62  C   UNL A   1      42.135  26.665  36.868  1.00  0.00     0.001 A 
ATOM     63  C   UNL A   1      42.860  25.524  36.540  1.00  0.00     0.000 A 
ENDBRANCH  44  58
BRANCH  45  64
ATOM     64  C   UNL A   1      43.146  25.487  26.121  1.00  0.00    -0.014 A 
ATOM     65  C   UNL A   1      42.316  24.377  26.356  1.00  0.00     0.009 A 
ATOM     66  C   UNL A   1      44.253  25.309  25.274  1.00  0.00     0.009 A 
ATOM     67  C   UNL A   1      42.612  23.122  25.812  1.00  0.00     0.001 A 
ATOM     68  C   UNL A   1      44.550  24.052  24.731  1.00  0.00     0.001 A 
ATOM     69  C   UNL A   1      43.741  22.955  25.016  1.00  0.00     0.000 A 
ENDBRANCH  45  64
BRANCH  57  70
ATOM     70  C   UNL A   1      45.146  30.552  29.284  1.00  0.00    -0.014 A 
ATOM     71  C   UNL A   1      46.468  31.024  29.333  1.00  0.00     0.009 A 
ATOM     72  C   UNL A   1      44.211  31.283  28.530  1.00  0.00     0.009 A 
ATOM     73  C   UNL A   1      46.841  32.195  28.668  1.00  0.00     0.001 A 
ATOM     74  C   UNL A   1      44.593  32.438  27.837  1.00  0.00     0.001 A 
ATOM     75  C   UNL A   1      45.904  32.899  27.917  1.00  0.00     0.000 A 
ENDBRANCH  57  70
ENDBRANCH  31  32
ENDBRANCH  23  26
ENDBRANCH  21  22
ENDBRANCH  20  21
ENDBRANCH   1  20
TORSDOF 13
ENDMDL
