MODEL 1
REMARK VINA RESULT:     -11.7      0.000      0.000
REMARK SMILES COc1ccc(OC)c(-c2cc(C(=O)NCCCCCCNC(=O)c3ccc(-c4c5nc(c(-c6ccccc6)c6ccc([nH]6)c(-c6ccccc6)c6nc(c(-c7ccccc7)c7ccc4[nH]7)C=C6)C=C5)cc3)c3ccc(C)c(C)c3n2)c1
REMARK SMILES IDX 18 1 17 2 16 3 15 4 13 5 14 6 12 8 10 9 11 10 81 11 80 12
REMARK SMILES IDX 73 13 78 14 74 15 76 16 79 17 75 18 77 19 9 20 3 21 4 22
REMARK SMILES IDX 82 23 5 24 6 25 2 26 1 27 7 28 8 29 19 30 20 31 21 32 22 33
REMARK SMILES IDX 23 34 24 36 25 37 26 38 72 39 27 40 71 41 28 42 29 43 30 44
REMARK SMILES IDX 65 45 31 46 70 47 64 48 66 49 32 50 69 51 63 52 62 53 33 55
REMARK SMILES IDX 55 56 40 57 54 58 41 59 44 60 53 61 67 62 42 63 43 64 52 66
REMARK SMILES IDX 68 67 45 68 34 69 35 70 39 71 36 72 38 73 37 74 56 75 57 76
REMARK SMILES IDX 61 77 58 78 60 79 59 80 46 81 47 82 51 83 48 84 50 85 49 86
REMARK H PARENT 15 7 22 35 66 54 44 65
REMARK Flexibility Score: inf
ROOT
ATOM      1  C   UNL A   1      31.396  29.074  25.206  1.00  0.00     0.002 C 
ENDROOT
BRANCH   1   2
ATOM      2  C   UNL A   1      31.401  28.680  23.721  1.00  0.00     0.021 C 
BRANCH   2   3
ATOM      3  C   UNL A   1      32.810  28.578  23.132  1.00  0.00     0.116 C 
BRANCH   3   4
ATOM      4  N   UNL A   1      32.782  27.635  22.031  1.00  0.00    -0.352 N 
ATOM      5  C   UNL A   1      33.185  26.342  21.853  1.00  0.00     0.252 C 
ATOM      6  O   UNL A   1      33.153  25.933  20.695  1.00  0.00    -0.269 OA
ATOM      7  H   UNL A   1      32.375  28.016  21.220  1.00  0.00     0.163 HD
BRANCH   5   8
ATOM      8  C   UNL A   1      33.557  25.454  22.987  1.00  0.00     0.051 A 
ATOM      9  C   UNL A   1      35.045  23.988  24.089  1.00  0.00     0.076 A 
ATOM     10  C   UNL A   1      34.777  24.772  22.989  1.00  0.00     0.043 A 
ATOM     11  N   UNL A   1      34.436  24.304  25.246  1.00  0.00    -0.247 NA
ATOM     12  C   UNL A   1      33.125  24.512  25.152  1.00  0.00     0.075 A 
ATOM     13  C   UNL A   1      32.603  25.071  23.976  1.00  0.00     0.013 A 
ATOM     14  C   UNL A   1      32.288  23.967  26.136  1.00  0.00    -0.022 A 
ATOM     15  C   UNL A   1      31.198  25.046  23.813  1.00  0.00     0.011 A 
ATOM     16  C   UNL A   1      30.922  23.776  25.857  1.00  0.00    -0.046 A 
ATOM     17  C   UNL A   1      32.891  23.422  27.409  1.00  0.00     0.047 C 
ATOM     18  C   UNL A   1      30.383  24.347  24.703  1.00  0.00     0.004 A 
ATOM     19  C   UNL A   1      30.081  22.820  26.660  1.00  0.00     0.044 C 
BRANCH   9  20
ATOM     20  C   UNL A   1      35.086  22.495  23.964  1.00  0.00     0.046 A 
ATOM     21  C   UNL A   1      33.616  20.658  24.589  1.00  0.00     0.119 A 
ATOM     22  C   UNL A   1      34.649  20.071  25.309  1.00  0.00     0.050 A 
ATOM     23  C   UNL A   1      33.837  21.834  23.878  1.00  0.00     0.060 A 
ATOM     24  C   UNL A   1      35.934  20.613  25.237  1.00  0.00     0.051 A 
ATOM     25  C   UNL A   1      36.169  21.778  24.503  1.00  0.00     0.128 A 
BRANCH  21  26
ATOM     26  O   UNL A   1      32.390  20.054  24.588  1.00  0.00    -0.497 OA
ATOM     27  C   UNL A   1      32.488  18.653  24.850  1.00  0.00     0.278 C 
ENDBRANCH  21  26
BRANCH  25  28
ATOM     28  O   UNL A   1      37.470  22.208  24.455  1.00  0.00    -0.496 OA
ATOM     29  C   UNL A   1      38.075  22.236  25.749  1.00  0.00     0.278 C 
ENDBRANCH  25  28
ENDBRANCH   9  20
ENDBRANCH   5   8
ENDBRANCH   3   4
ENDBRANCH   2   3
ENDBRANCH   1   2
BRANCH   1  30
ATOM     30  C   UNL A   1      31.487  27.888  26.174  1.00  0.00     0.002 C 
BRANCH  30  31
ATOM     31  C   UNL A   1      32.231  28.197  27.473  1.00  0.00     0.021 C 
BRANCH  31  32
ATOM     32  C   UNL A   1      33.597  28.833  27.253  1.00  0.00     0.116 C 
BRANCH  32  33
ATOM     33  N   UNL A   1      33.624  30.215  27.706  1.00  0.00    -0.352 N 
ATOM     34  C   UNL A   1      34.619  30.863  28.392  1.00  0.00     0.251 C 
ATOM     35  H   UNL A   1      32.828  30.753  27.493  1.00  0.00     0.163 HD
ATOM     36  O   UNL A   1      34.426  31.962  28.903  1.00  0.00    -0.269 OA
BRANCH  34  37
ATOM     37  C   UNL A   1      35.929  30.200  28.521  1.00  0.00     0.039 A 
ATOM     38  C   UNL A   1      36.817  30.221  27.445  1.00  0.00     0.014 A 
ATOM     39  C   UNL A   1      36.291  29.612  29.737  1.00  0.00     0.014 A 
ATOM     40  C   UNL A   1      38.101  29.703  27.609  1.00  0.00     0.010 A 
ATOM     41  C   UNL A   1      37.595  29.173  29.923  1.00  0.00     0.010 A 
ATOM     42  C   UNL A   1      38.511  29.211  28.859  1.00  0.00    -0.014 A 
BRANCH  42  43
ATOM     43  C   UNL A   1      39.893  28.726  29.086  1.00  0.00     0.031 A 
ATOM     44  C   UNL A   1      40.941  29.670  29.603  1.00  0.00     0.074 A 
ATOM     45  C   UNL A   1      40.226  27.469  28.740  1.00  0.00     0.049 A 
ATOM     46  N   UNL A   1      42.224  29.469  29.772  1.00  0.00    -0.248 NA
ATOM     47  C   UNL A   1      40.493  31.030  29.943  1.00  0.00     0.031 C 
ATOM     48  C   UNL A   1      39.311  26.471  28.184  1.00  0.00     0.029 A 
ATOM     49  N   UNL A   1      41.435  26.821  28.791  1.00  0.00    -0.354 N 
ATOM     50  C   UNL A   1      42.736  30.680  30.219  1.00  0.00     0.074 A 
ATOM     51  C   UNL A   1      41.640  31.624  30.234  1.00  0.00     0.031 C 
ATOM     52  C   UNL A   1      39.986  25.333  27.959  1.00  0.00     0.029 A 
ATOM     53  C   UNL A   1      41.389  25.535  28.311  1.00  0.00     0.049 A 
ATOM     54  H   UNL A   1      42.256  27.239  29.137  1.00  0.00     0.167 HD
ATOM     55  C   UNL A   1      44.000  30.976  30.603  1.00  0.00     0.031 A 
ATOM     56  C   UNL A   1      42.367  24.625  28.155  1.00  0.00     0.031 A 
ATOM     57  C   UNL A   1      45.090  30.037  30.579  1.00  0.00     0.049 A 
ATOM     58  C   UNL A   1      43.769  24.978  28.566  1.00  0.00     0.074 A 
ATOM     59  C   UNL A   1      46.397  30.220  30.993  1.00  0.00     0.029 A 
ATOM     60  N   UNL A   1      44.997  28.737  30.105  1.00  0.00    -0.354 N 
ATOM     61  N   UNL A   1      44.227  26.105  29.054  1.00  0.00    -0.248 NA
ATOM     62  C   UNL A   1      44.785  23.926  28.419  1.00  0.00     0.031 C 
ATOM     63  C   UNL A   1      47.111  29.050  30.711  1.00  0.00     0.029 A 
ATOM     64  C   UNL A   1      46.232  28.114  30.187  1.00  0.00     0.049 A 
ATOM     65  H   UNL A   1      44.176  28.317  29.760  1.00  0.00     0.167 HD
ATOM     66  C   UNL A   1      45.578  25.893  29.296  1.00  0.00     0.074 A 
ATOM     67  C   UNL A   1      45.861  24.524  28.915  1.00  0.00     0.031 C 
ATOM     68  C   UNL A   1      46.501  26.753  29.794  1.00  0.00     0.031 A 
BRANCH  55  69
ATOM     69  C   UNL A   1      44.264  32.386  31.061  1.00  0.00    -0.014 A 
ATOM     70  C   UNL A   1      44.110  32.761  32.407  1.00  0.00     0.009 A 
ATOM     71  C   UNL A   1      44.662  33.360  30.132  1.00  0.00     0.009 A 
ATOM     72  C   UNL A   1      44.291  34.088  32.800  1.00  0.00     0.001 A 
ATOM     73  C   UNL A   1      44.879  34.679  30.534  1.00  0.00     0.001 A 
ATOM     74  C   UNL A   1      44.678  35.045  31.864  1.00  0.00     0.000 A 
ENDBRANCH  55  69
BRANCH  56  75
ATOM     75  C   UNL A   1      42.045  23.291  27.586  1.00  0.00    -0.014 A 
ATOM     76  C   UNL A   1      41.487  22.286  28.390  1.00  0.00     0.009 A 
ATOM     77  C   UNL A   1      42.264  23.026  26.224  1.00  0.00     0.009 A 
ATOM     78  C   UNL A   1      41.173  21.038  27.846  1.00  0.00     0.001 A 
ATOM     79  C   UNL A   1      41.922  21.788  25.677  1.00  0.00     0.001 A 
ATOM     80  C   UNL A   1      41.383  20.792  26.490  1.00  0.00     0.000 A 
ENDBRANCH  56  75
BRANCH  68  81
ATOM     81  C   UNL A   1      47.897  26.231  29.988  1.00  0.00    -0.014 A 
ATOM     82  C   UNL A   1      48.362  25.825  31.249  1.00  0.00     0.009 A 
ATOM     83  C   UNL A   1      48.747  26.100  28.877  1.00  0.00     0.009 A 
ATOM     84  C   UNL A   1      49.659  25.331  31.398  1.00  0.00     0.001 A 
ATOM     85  C   UNL A   1      50.032  25.576  29.024  1.00  0.00     0.001 A 
ATOM     86  C   UNL A   1      50.490  25.201  30.286  1.00  0.00     0.000 A 
ENDBRANCH  68  81
ENDBRANCH  42  43
ENDBRANCH  34  37
ENDBRANCH  32  33
ENDBRANCH  31  32
ENDBRANCH  30  31
ENDBRANCH   1  30
TORSDOF 16
ENDMDL
MODEL 2
REMARK VINA RESULT:     -10.9      3.046      8.044
REMARK SMILES COc1ccc(OC)c(-c2cc(C(=O)NCCCCCCNC(=O)c3ccc(-c4c5nc(c(-c6ccccc6)c6ccc([nH]6)c(-c6ccccc6)c6nc(c(-c7ccccc7)c7ccc4[nH]7)C=C6)C=C5)cc3)c3ccc(C)c(C)c3n2)c1
REMARK SMILES IDX 18 1 17 2 16 3 15 4 13 5 14 6 12 8 10 9 11 10 81 11 80 12
REMARK SMILES IDX 73 13 78 14 74 15 76 16 79 17 75 18 77 19 9 20 3 21 4 22
REMARK SMILES IDX 82 23 5 24 6 25 2 26 1 27 7 28 8 29 19 30 20 31 21 32 22 33
REMARK SMILES IDX 23 34 24 36 25 37 26 38 72 39 27 40 71 41 28 42 29 43 30 44
REMARK SMILES IDX 65 45 31 46 70 47 64 48 66 49 32 50 69 51 63 52 62 53 33 55
REMARK SMILES IDX 55 56 40 57 54 58 41 59 44 60 53 61 67 62 42 63 43 64 52 66
REMARK SMILES IDX 68 67 45 68 34 69 35 70 39 71 36 72 38 73 37 74 56 75 57 76
REMARK SMILES IDX 61 77 58 78 60 79 59 80 46 81 47 82 51 83 48 84 50 85 49 86
REMARK H PARENT 15 7 22 35 66 54 44 65
REMARK Flexibility Score: inf
ROOT
ATOM      1  C   UNL A   1      41.302  22.170  26.562  1.00  0.00     0.002 C 
ENDROOT
BRANCH   1   2
ATOM      2  C   UNL A   1      39.861  22.626  26.841  1.00  0.00     0.021 C 
BRANCH   2   3
ATOM      3  C   UNL A   1      38.813  21.779  26.115  1.00  0.00     0.116 C 
BRANCH   3   4
ATOM      4  N   UNL A   1      38.285  22.549  25.006  1.00  0.00    -0.352 N 
ATOM      5  C   UNL A   1      37.046  22.742  24.465  1.00  0.00     0.252 C 
ATOM      6  O   UNL A   1      37.026  23.342  23.392  1.00  0.00    -0.269 OA
ATOM      7  H   UNL A   1      38.985  23.055  24.532  1.00  0.00     0.163 HD
BRANCH   5   8
ATOM      8  C   UNL A   1      35.794  22.335  25.158  1.00  0.00     0.051 A 
ATOM      9  C   UNL A   1      34.324  20.704  26.027  1.00  0.00     0.076 A 
ATOM     10  C   UNL A   1      35.495  20.986  25.359  1.00  0.00     0.043 A 
ATOM     11  N   UNL A   1      33.837  21.644  26.857  1.00  0.00    -0.247 NA
ATOM     12  C   UNL A   1      33.777  22.870  26.344  1.00  0.00     0.075 A 
ATOM     13  C   UNL A   1      34.750  23.273  25.417  1.00  0.00     0.013 A 
ATOM     14  C   UNL A   1      32.628  23.638  26.577  1.00  0.00    -0.022 A 
ATOM     15  C   UNL A   1      34.516  24.477  24.712  1.00  0.00     0.011 A 
ATOM     16  C   UNL A   1      32.328  24.715  25.723  1.00  0.00    -0.046 A 
ATOM     17  C   UNL A   1      31.632  23.192  27.622  1.00  0.00     0.047 C 
ATOM     18  C   UNL A   1      33.295  25.143  24.813  1.00  0.00     0.004 A 
ATOM     19  C   UNL A   1      30.938  25.286  25.634  1.00  0.00     0.044 C 
BRANCH   9  20
ATOM     20  C   UNL A   1      33.178  20.061  25.309  1.00  0.00     0.046 A 
ATOM     21  C   UNL A   1      32.457  17.775  24.884  1.00  0.00     0.119 A 
ATOM     22  C   UNL A   1      32.449  18.027  23.518  1.00  0.00     0.050 A 
ATOM     23  C   UNL A   1      32.768  18.791  25.782  1.00  0.00     0.060 A 
ATOM     24  C   UNL A   1      32.659  19.327  23.056  1.00  0.00     0.051 A 
ATOM     25  C   UNL A   1      32.946  20.358  23.954  1.00  0.00     0.128 A 
BRANCH  21  26
ATOM     26  O   UNL A   1      32.146  16.518  25.322  1.00  0.00    -0.497 OA
ATOM     27  C   UNL A   1      33.187  15.582  25.035  1.00  0.00     0.278 C 
ENDBRANCH  21  26
BRANCH  25  28
ATOM     28  O   UNL A   1      33.093  21.608  23.410  1.00  0.00    -0.496 OA
ATOM     29  C   UNL A   1      31.837  22.191  23.056  1.00  0.00     0.278 C 
ENDBRANCH  25  28
ENDBRANCH   9  20
ENDBRANCH   5   8
ENDBRANCH   3   4
ENDBRANCH   2   3
ENDBRANCH   1   2
BRANCH   1  30
ATOM     30  C   UNL A   1      41.867  21.192  27.599  1.00  0.00     0.002 C 
BRANCH  30  31
ATOM     31  C   UNL A   1      42.251  19.828  27.027  1.00  0.00     0.021 C 
BRANCH  31  32
ATOM     32  C   UNL A   1      42.246  19.785  25.505  1.00  0.00     0.116 C 
BRANCH  32  33
ATOM     33  N   UNL A   1      43.406  19.076  24.985  1.00  0.00    -0.352 N 
ATOM     34  C   UNL A   1      44.606  19.598  24.578  1.00  0.00     0.251 C 
ATOM     35  H   UNL A   1      43.316  18.098  24.916  1.00  0.00     0.163 HD
ATOM     36  O   UNL A   1      45.417  18.916  23.957  1.00  0.00    -0.269 OA
BRANCH  34  37
ATOM     37  C   UNL A   1      44.899  21.009  24.885  1.00  0.00     0.039 A 
ATOM     38  C   UNL A   1      44.551  21.997  23.964  1.00  0.00     0.014 A 
ATOM     39  C   UNL A   1      45.465  21.347  26.118  1.00  0.00     0.014 A 
ATOM     40  C   UNL A   1      44.714  23.339  24.307  1.00  0.00     0.010 A 
ATOM     41  C   UNL A   1      45.550  22.682  26.489  1.00  0.00     0.010 A 
ATOM     42  C   UNL A   1      45.179  23.690  25.585  1.00  0.00    -0.014 A 
BRANCH  42  43
ATOM     43  C   UNL A   1      45.289  25.107  26.007  1.00  0.00     0.031 A 
ATOM     44  C   UNL A   1      46.621  25.800  25.964  1.00  0.00     0.074 A 
ATOM     45  C   UNL A   1      44.214  25.738  26.516  1.00  0.00     0.049 A 
ATOM     46  N   UNL A   1      46.945  26.997  26.383  1.00  0.00    -0.248 NA
ATOM     47  C   UNL A   1      47.746  25.032  25.406  1.00  0.00     0.031 C 
ATOM     48  C   UNL A   1      42.877  25.159  26.656  1.00  0.00     0.029 A 
ATOM     49  N   UNL A   1      44.084  27.004  27.028  1.00  0.00    -0.354 N 
ATOM     50  C   UNL A   1      48.310  27.116  26.157  1.00  0.00     0.074 A 
ATOM     51  C   UNL A   1      48.763  25.850  25.624  1.00  0.00     0.031 C 
ATOM     52  C   UNL A   1      42.058  26.072  27.200  1.00  0.00     0.029 A 
ATOM     53  C   UNL A   1      42.821  27.282  27.491  1.00  0.00     0.049 A 
ATOM     54  H   UNL A   1      44.825  27.652  27.060  1.00  0.00     0.167 HD
ATOM     55  C   UNL A   1      49.111  28.189  26.354  1.00  0.00     0.031 A 
ATOM     56  C   UNL A   1      42.335  28.379  28.099  1.00  0.00     0.031 A 
ATOM     57  C   UNL A   1      48.659  29.444  26.893  1.00  0.00     0.049 A 
ATOM     58  C   UNL A   1      43.244  29.553  28.329  1.00  0.00     0.074 A 
ATOM     59  C   UNL A   1      49.377  30.610  27.087  1.00  0.00     0.029 A 
ATOM     60  N   UNL A   1      47.366  29.692  27.332  1.00  0.00    -0.354 N 
ATOM     61  N   UNL A   1      44.518  29.679  28.046  1.00  0.00    -0.248 NA
ATOM     62  C   UNL A   1      42.644  30.742  28.951  1.00  0.00     0.031 C 
ATOM     63  C   UNL A   1      48.535  31.543  27.702  1.00  0.00     0.029 A 
ATOM     64  C   UNL A   1      47.273  30.983  27.825  1.00  0.00     0.049 A 
ATOM     65  H   UNL A   1      46.624  29.046  27.299  1.00  0.00     0.167 HD
ATOM     66  C   UNL A   1      44.867  30.967  28.430  1.00  0.00     0.074 A 
ATOM     67  C   UNL A   1      43.666  31.587  28.953  1.00  0.00     0.031 C 
ATOM     68  C   UNL A   1      46.073  31.583  28.352  1.00  0.00     0.031 A 
BRANCH  55  69
ATOM     69  C   UNL A   1      50.566  28.031  26.001  1.00  0.00    -0.014 A 
ATOM     70  C   UNL A   1      51.039  28.300  24.705  1.00  0.00     0.009 A 
ATOM     71  C   UNL A   1      51.479  27.595  26.974  1.00  0.00     0.009 A 
ATOM     72  C   UNL A   1      52.378  28.081  24.378  1.00  0.00     0.001 A 
ATOM     73  C   UNL A   1      52.825  27.412  26.654  1.00  0.00     0.001 A 
ATOM     74  C   UNL A   1      53.271  27.639  25.353  1.00  0.00     0.000 A 
ENDBRANCH  55  69
BRANCH  56  75
ATOM     75  C   UNL A   1      40.911  28.414  28.523  1.00  0.00    -0.014 A 
ATOM     76  C   UNL A   1      39.924  28.938  27.676  1.00  0.00     0.009 A 
ATOM     77  C   UNL A   1      40.528  27.889  29.768  1.00  0.00     0.009 A 
ATOM     78  C   UNL A   1      38.585  28.955  28.075  1.00  0.00     0.001 A 
ATOM     79  C   UNL A   1      39.185  27.880  30.152  1.00  0.00     0.001 A 
ATOM     80  C   UNL A   1      38.216  28.419  29.307  1.00  0.00     0.000 A 
ENDBRANCH  56  75
BRANCH  68  81
ATOM     81  C   UNL A   1      46.148  33.013  28.813  1.00  0.00    -0.014 A 
ATOM     82  C   UNL A   1      45.903  34.081  27.936  1.00  0.00     0.009 A 
ATOM     83  C   UNL A   1      46.425  33.291  30.161  1.00  0.00     0.009 A 
ATOM     84  C   UNL A   1      45.967  35.399  28.393  1.00  0.00     0.001 A 
ATOM     85  C   UNL A   1      46.456  34.607  30.622  1.00  0.00     0.001 A 
ATOM     86  C   UNL A   1      46.236  35.661  29.736  1.00  0.00     0.000 A 
ENDBRANCH  68  81
ENDBRANCH  42  43
ENDBRANCH  34  37
ENDBRANCH  32  33
ENDBRANCH  31  32
ENDBRANCH  30  31
ENDBRANCH   1  30
TORSDOF 16
ENDMDL
MODEL 3
REMARK VINA RESULT:     -10.8      4.341      6.410
REMARK SMILES COc1ccc(OC)c(-c2cc(C(=O)NCCCCCCNC(=O)c3ccc(-c4c5nc(c(-c6ccccc6)c6ccc([nH]6)c(-c6ccccc6)c6nc(c(-c7ccccc7)c7ccc4[nH]7)C=C6)C=C5)cc3)c3ccc(C)c(C)c3n2)c1
REMARK SMILES IDX 18 1 17 2 16 3 15 4 13 5 14 6 12 8 10 9 11 10 81 11 80 12
REMARK SMILES IDX 73 13 78 14 74 15 76 16 79 17 75 18 77 19 9 20 3 21 4 22
REMARK SMILES IDX 82 23 5 24 6 25 2 26 1 27 7 28 8 29 19 30 20 31 21 32 22 33
REMARK SMILES IDX 23 34 24 36 25 37 26 38 72 39 27 40 71 41 28 42 29 43 30 44
REMARK SMILES IDX 65 45 31 46 70 47 64 48 66 49 32 50 69 51 63 52 62 53 33 55
REMARK SMILES IDX 55 56 40 57 54 58 41 59 44 60 53 61 67 62 42 63 43 64 52 66
REMARK SMILES IDX 68 67 45 68 34 69 35 70 39 71 36 72 38 73 37 74 56 75 57 76
REMARK SMILES IDX 61 77 58 78 60 79 59 80 46 81 47 82 51 83 48 84 50 85 49 86
REMARK H PARENT 15 7 22 35 66 54 44 65
REMARK Flexibility Score: inf
ROOT
ATOM      1  C   UNL A   1      33.664  32.167  27.632  1.00  0.00     0.002 C 
ENDROOT
BRANCH   1   2
ATOM      2  C   UNL A   1      34.375  30.818  27.827  1.00  0.00     0.021 C 
BRANCH   2   3
ATOM      3  C   UNL A   1      33.811  29.709  26.936  1.00  0.00     0.116 C 
BRANCH   3   4
ATOM      4  N   UNL A   1      32.631  30.215  26.261  1.00  0.00    -0.352 N 
ATOM      5  C   UNL A   1      31.653  29.669  25.480  1.00  0.00     0.252 C 
ATOM      6  O   UNL A   1      30.901  30.474  24.935  1.00  0.00    -0.269 OA
ATOM      7  H   UNL A   1      32.504  31.182  26.401  1.00  0.00     0.163 HD
BRANCH   5   8
ATOM      8  C   UNL A   1      31.447  28.201  25.360  1.00  0.00     0.051 A 
ATOM      9  C   UNL A   1      31.096  26.058  26.289  1.00  0.00     0.076 A 
ATOM     10  C   UNL A   1      31.302  27.404  26.498  1.00  0.00     0.043 A 
ATOM     11  N   UNL A   1      30.551  25.684  25.118  1.00  0.00    -0.247 NA
ATOM     12  C   UNL A   1      31.111  26.225  24.039  1.00  0.00     0.075 A 
ATOM     13  C   UNL A   1      31.636  27.523  24.118  1.00  0.00     0.013 A 
ATOM     14  C   UNL A   1      31.355  25.405  22.928  1.00  0.00    -0.022 A 
ATOM     15  C   UNL A   1      32.438  27.966  23.040  1.00  0.00     0.011 A 
ATOM     16  C   UNL A   1      32.313  25.795  21.974  1.00  0.00    -0.046 A 
ATOM     17  C   UNL A   1      30.727  24.033  22.863  1.00  0.00     0.047 C 
ATOM     18  C   UNL A   1      32.826  27.092  22.026  1.00  0.00     0.004 A 
ATOM     19  C   UNL A   1      32.934  24.800  21.030  1.00  0.00     0.044 C 
BRANCH   9  20
ATOM     20  C   UNL A   1      32.151  25.063  26.664  1.00  0.00     0.046 A 
ATOM     21  C   UNL A   1      34.222  24.265  25.664  1.00  0.00     0.119 A 
ATOM     22  C   UNL A   1      33.752  22.958  25.724  1.00  0.00     0.050 A 
ATOM     23  C   UNL A   1      33.456  25.309  26.173  1.00  0.00     0.060 A 
ATOM     24  C   UNL A   1      32.553  22.687  26.386  1.00  0.00     0.051 A 
ATOM     25  C   UNL A   1      31.792  23.728  26.924  1.00  0.00     0.128 A 
BRANCH  21  26
ATOM     26  O   UNL A   1      35.447  24.498  25.104  1.00  0.00    -0.497 OA
ATOM     27  C   UNL A   1      35.600  23.815  23.858  1.00  0.00     0.278 C 
ENDBRANCH  21  26
BRANCH  25  28
ATOM     28  O   UNL A   1      30.653  23.359  27.593  1.00  0.00    -0.496 OA
ATOM     29  C   UNL A   1      29.784  22.568  26.779  1.00  0.00     0.278 C 
ENDBRANCH  25  28
ENDBRANCH   9  20
ENDBRANCH   5   8
ENDBRANCH   3   4
ENDBRANCH   2   3
ENDBRANCH   1   2
BRANCH   1  30
ATOM     30  C   UNL A   1      34.041  33.234  28.666  1.00  0.00     0.002 C 
BRANCH  30  31
ATOM     31  C   UNL A   1      33.027  34.370  28.790  1.00  0.00     0.021 C 
BRANCH  31  32
ATOM     32  C   UNL A   1      33.599  35.627  29.430  1.00  0.00     0.116 C 
BRANCH  32  33
ATOM     33  N   UNL A   1      32.733  36.136  30.482  1.00  0.00    -0.352 N 
ATOM     34  C   UNL A   1      32.750  35.828  31.818  1.00  0.00     0.251 C 
ATOM     35  H   UNL A   1      32.047  36.784  30.198  1.00  0.00     0.163 HD
ATOM     36  O   UNL A   1      31.827  36.159  32.557  1.00  0.00    -0.269 OA
BRANCH  34  37
ATOM     37  C   UNL A   1      33.896  35.069  32.348  1.00  0.00     0.039 A 
ATOM     38  C   UNL A   1      33.713  33.746  32.753  1.00  0.00     0.014 A 
ATOM     39  C   UNL A   1      35.163  35.660  32.384  1.00  0.00     0.014 A 
ATOM     40  C   UNL A   1      34.820  32.991  33.139  1.00  0.00     0.010 A 
ATOM     41  C   UNL A   1      36.272  34.882  32.687  1.00  0.00     0.010 A 
ATOM     42  C   UNL A   1      36.110  33.542  33.072  1.00  0.00    -0.014 A 
BRANCH  42  43
ATOM     43  C   UNL A   1      37.314  32.740  33.399  1.00  0.00     0.031 A 
ATOM     44  C   UNL A   1      38.065  33.003  34.673  1.00  0.00     0.074 A 
ATOM     45  C   UNL A   1      37.782  31.844  32.509  1.00  0.00     0.049 A 
ATOM     46  N   UNL A   1      39.192  32.483  35.090  1.00  0.00    -0.248 NA
ATOM     47  C   UNL A   1      37.491  34.008  35.581  1.00  0.00     0.031 C 
ATOM     48  C   UNL A   1      37.169  31.532  31.217  1.00  0.00     0.029 A 
ATOM     49  N   UNL A   1      38.895  31.043  32.552  1.00  0.00    -0.354 N 
ATOM     50  C   UNL A   1      39.468  33.111  36.297  1.00  0.00     0.074 A 
ATOM     51  C   UNL A   1      38.427  34.092  36.512  1.00  0.00     0.031 C 
ATOM     52  C   UNL A   1      37.905  30.596  30.597  1.00  0.00     0.029 A 
ATOM     53  C   UNL A   1      39.063  30.277  31.426  1.00  0.00     0.049 A 
ATOM     54  H   UNL A   1      39.514  31.021  33.318  1.00  0.00     0.167 HD
ATOM     55  C   UNL A   1      40.484  32.878  37.161  1.00  0.00     0.031 A 
ATOM     56  C   UNL A   1      40.049  29.425  31.088  1.00  0.00     0.031 A 
ATOM     57  C   UNL A   1      41.522  31.908  36.940  1.00  0.00     0.049 A 
ATOM     58  C   UNL A   1      41.180  29.194  32.049  1.00  0.00     0.074 A 
ATOM     59  C   UNL A   1      42.570  31.558  37.773  1.00  0.00     0.029 A 
ATOM     60  N   UNL A   1      41.647  31.135  35.794  1.00  0.00    -0.354 N 
ATOM     61  N   UNL A   1      41.393  29.743  33.221  1.00  0.00    -0.248 NA
ATOM     62  C   UNL A   1      42.200  28.215  31.648  1.00  0.00     0.031 C 
ATOM     63  C   UNL A   1      43.364  30.620  37.104  1.00  0.00     0.029 A 
ATOM     64  C   UNL A   1      42.772  30.332  35.884  1.00  0.00     0.049 A 
ATOM     65  H   UNL A   1      41.028  31.155  35.028  1.00  0.00     0.167 HD
ATOM     66  C   UNL A   1      42.556  29.161  33.708  1.00  0.00     0.074 A 
ATOM     67  C   UNL A   1      42.993  28.204  32.711  1.00  0.00     0.031 C 
ATOM     68  C   UNL A   1      43.200  29.392  34.879  1.00  0.00     0.031 A 
BRANCH  55  69
ATOM     69  C   UNL A   1      40.523  33.713  38.414  1.00  0.00    -0.014 A 
ATOM     70  C   UNL A   1      41.216  34.936  38.458  1.00  0.00     0.009 A 
ATOM     71  C   UNL A   1      39.866  33.268  39.571  1.00  0.00     0.009 A 
ATOM     72  C   UNL A   1      41.298  35.662  39.647  1.00  0.00     0.001 A 
ATOM     73  C   UNL A   1      39.919  34.015  40.749  1.00  0.00     0.001 A 
ATOM     74  C   UNL A   1      40.648  35.202  40.792  1.00  0.00     0.000 A 
ENDBRANCH  55  69
BRANCH  56  75
ATOM     75  C   UNL A   1      39.997  28.725  29.778  1.00  0.00    -0.014 A 
ATOM     76  C   UNL A   1      39.457  27.434  29.678  1.00  0.00     0.009 A 
ATOM     77  C   UNL A   1      40.459  29.360  28.614  1.00  0.00     0.009 A 
ATOM     78  C   UNL A   1      39.399  26.787  28.441  1.00  0.00     0.001 A 
ATOM     79  C   UNL A   1      40.371  28.722  27.375  1.00  0.00     0.001 A 
ATOM     80  C   UNL A   1      39.847  27.433  27.290  1.00  0.00     0.000 A 
ENDBRANCH  56  75
BRANCH  68  81
ATOM     81  C   UNL A   1      44.430  28.575  35.162  1.00  0.00    -0.014 A 
ATOM     82  C   UNL A   1      44.352  27.325  35.796  1.00  0.00     0.009 A 
ATOM     83  C   UNL A   1      45.685  29.046  34.745  1.00  0.00     0.009 A 
ATOM     84  C   UNL A   1      45.509  26.580  36.035  1.00  0.00     0.001 A 
ATOM     85  C   UNL A   1      46.836  28.286  34.956  1.00  0.00     0.001 A 
ATOM     86  C   UNL A   1      46.748  27.058  35.610  1.00  0.00     0.000 A 
ENDBRANCH  68  81
ENDBRANCH  42  43
ENDBRANCH  34  37
ENDBRANCH  32  33
ENDBRANCH  31  32
ENDBRANCH  30  31
ENDBRANCH   1  30
TORSDOF 16
ENDMDL
