MODEL 1
REMARK VINA RESULT:     -11.6      0.000      0.000
REMARK SMILES O=C(CCC(=O)N1Cc2[nH]cnc2C[C@H]1C(=O)NCc1ccccc1)NCCCCCCNC(=O)c1ccc(-c2c3nc(c(-c4ccccc4)c4ccc([nH]4)c(-c4ccccc4)c4nc(c(-c5ccccc5)c5ccc2[nH]5)C=C4)C=C3)cc1
REMARK SMILES IDX 27 1 26 2 1 3 2 4 3 6 4 7 5 8 6 9 7 10 8 11 15 12 9 13 14 14
REMARK SMILES IDX 10 15 13 16 11 17 12 19 16 20 17 21 18 22 19 24 20 25 21 26
REMARK SMILES IDX 25 27 22 28 24 29 23 30 28 31 29 32 30 33 31 34 32 35 33 36
REMARK SMILES IDX 34 37 35 39 36 40 37 41 83 42 38 43 82 44 39 45 40 46 41 47
REMARK SMILES IDX 76 48 42 49 81 50 75 51 77 52 43 53 80 54 74 55 73 56 44 58
REMARK SMILES IDX 66 59 51 60 65 61 52 62 55 63 64 64 78 65 53 66 54 67 63 69
REMARK SMILES IDX 79 70 56 71 45 72 46 73 50 74 47 75 49 76 48 77 67 78 68 79
REMARK SMILES IDX 72 80 69 81 71 82 70 83 57 84 58 85 62 86 59 87 61 88 60 89
REMARK H PARENT 26 5 10 18 18 23 33 38 77 57 55 68
REMARK Flexibility Score: inf
ROOT
ATOM      1  C   UNL A   1      38.044  22.902  25.688  1.00  0.00     0.116 C 
ENDROOT
BRANCH   1   2
ATOM      2  N   UNL A   1      36.873  22.043  25.889  1.00  0.00    -0.356 N 
ATOM      3  O   UNL A   1      36.012  22.470  23.796  1.00  0.00    -0.275 OA
ATOM      4  C   UNL A   1      35.997  21.798  24.825  1.00  0.00     0.220 C 
ATOM      5  H   UNL A   1      36.702  21.641  26.770  1.00  0.00     0.163 HD
BRANCH   4   6
ATOM      6  C   UNL A   1      35.088  20.553  24.958  1.00  0.00     0.110 C 
BRANCH   6   7
ATOM      7  C   UNL A   1      33.899  20.763  25.941  1.00  0.00     0.110 C 
BRANCH   7   8
ATOM      8  C   UNL A   1      32.490  21.048  25.344  1.00  0.00     0.224 C 
ATOM      9  O   UNL A   1      31.716  20.112  25.134  1.00  0.00    -0.275 OA
BRANCH   8  10
ATOM     10  N   UNL A   1      32.111  22.364  25.089  1.00  0.00    -0.324 N 
ATOM     11  C   UNL A   1      32.118  22.928  23.711  1.00  0.00     0.176 C 
ATOM     12  C   UNL A   1      32.049  23.337  26.182  1.00  0.00     0.180 C 
ATOM     13  C   UNL A   1      32.874  24.223  23.735  1.00  0.00     0.058 A 
ATOM     14  C   UNL A   1      33.333  24.163  26.152  1.00  0.00     0.093 C 
ATOM     15  N   UNL A   1      33.057  25.153  22.749  1.00  0.00    -0.347 N 
ATOM     16  C   UNL A   1      33.451  24.793  24.842  1.00  0.00     0.066 A 
ATOM     17  C   UNL A   1      33.758  26.200  23.307  1.00  0.00     0.197 A 
ATOM     18  H   UNL A   1      32.747  25.089  21.817  1.00  0.00     0.167 HD
ATOM     19  N   UNL A   1      34.002  26.005  24.585  1.00  0.00    -0.242 NA
BRANCH  12  20
ATOM     20  C   UNL A   1      30.656  23.777  26.679  1.00  0.00     0.243 C 
ATOM     21  O   UNL A   1      30.036  23.034  27.454  1.00  0.00    -0.273 OA
ATOM     22  N   UNL A   1      29.977  24.884  26.326  1.00  0.00    -0.350 N 
ATOM     23  H   UNL A   1      29.287  25.158  26.974  1.00  0.00     0.163 HD
BRANCH  22  24
ATOM     24  C   UNL A   1      30.075  25.737  25.176  1.00  0.00     0.151 C 
BRANCH  24  25
ATOM     25  C   UNL A   1      30.722  27.064  25.484  1.00  0.00    -0.029 A 
ATOM     26  C   UNL A   1      30.769  28.034  24.473  1.00  0.00     0.005 A 
ATOM     27  C   UNL A   1      31.289  27.369  26.732  1.00  0.00     0.005 A 
ATOM     28  C   UNL A   1      31.363  29.275  24.705  1.00  0.00     0.000 A 
ATOM     29  C   UNL A   1      31.872  28.614  26.967  1.00  0.00     0.000 A 
ATOM     30  C   UNL A   1      31.908  29.566  25.954  1.00  0.00     0.000 A 
ENDBRANCH  24  25
ENDBRANCH  22  24
ENDBRANCH  12  20
ENDBRANCH   8  10
ENDBRANCH   7   8
ENDBRANCH   6   7
ENDBRANCH   4   6
ENDBRANCH   1   2
BRANCH   1  31
ATOM     31  C   UNL A   1      39.074  23.034  26.836  1.00  0.00     0.021 C 
BRANCH  31  32
ATOM     32  C   UNL A   1      40.107  21.921  27.155  1.00  0.00     0.002 C 
BRANCH  32  33
ATOM     33  C   UNL A   1      41.039  21.431  26.030  1.00  0.00     0.002 C 
BRANCH  33  34
ATOM     34  C   UNL A   1      41.703  20.058  26.092  1.00  0.00     0.021 C 
BRANCH  34  35
ATOM     35  C   UNL A   1      43.228  20.038  26.165  1.00  0.00     0.116 C 
BRANCH  35  36
ATOM     36  N   UNL A   1      43.924  19.406  25.034  1.00  0.00    -0.352 N 
ATOM     37  C   UNL A   1      44.563  20.066  23.985  1.00  0.00     0.251 C 
ATOM     38  H   UNL A   1      43.941  18.423  25.017  1.00  0.00     0.163 HD
ATOM     39  O   UNL A   1      44.812  19.541  22.919  1.00  0.00    -0.269 OA
BRANCH  37  40
ATOM     40  C   UNL A   1      44.969  21.453  24.272  1.00  0.00     0.039 A 
ATOM     41  C   UNL A   1      44.183  22.537  23.872  1.00  0.00     0.014 A 
ATOM     42  C   UNL A   1      45.923  21.569  25.273  1.00  0.00     0.014 A 
ATOM     43  C   UNL A   1      44.255  23.723  24.608  1.00  0.00     0.010 A 
ATOM     44  C   UNL A   1      45.870  22.685  26.077  1.00  0.00     0.010 A 
ATOM     45  C   UNL A   1      45.048  23.778  25.766  1.00  0.00    -0.014 A 
BRANCH  45  46
ATOM     46  C   UNL A   1      44.917  24.889  26.725  1.00  0.00     0.031 A 
ATOM     47  C   UNL A   1      45.960  25.973  26.726  1.00  0.00     0.074 A 
ATOM     48  C   UNL A   1      43.797  25.134  27.440  1.00  0.00     0.049 A 
ATOM     49  N   UNL A   1      46.744  26.308  27.701  1.00  0.00    -0.248 NA
ATOM     50  C   UNL A   1      46.147  26.790  25.517  1.00  0.00     0.031 C 
ATOM     51  C   UNL A   1      42.510  24.428  27.425  1.00  0.00     0.029 A 
ATOM     52  N   UNL A   1      43.538  26.198  28.251  1.00  0.00    -0.354 N 
ATOM     53  C   UNL A   1      47.426  27.459  27.302  1.00  0.00     0.074 A 
ATOM     54  C   UNL A   1      47.083  27.660  25.914  1.00  0.00     0.031 C 
ATOM     55  C   UNL A   1      41.549  25.228  27.931  1.00  0.00     0.029 A 
ATOM     56  C   UNL A   1      42.194  26.384  28.517  1.00  0.00     0.049 A 
ATOM     57  H   UNL A   1      44.244  26.781  28.613  1.00  0.00     0.167 HD
ATOM     58  C   UNL A   1      48.099  28.257  28.185  1.00  0.00     0.031 A 
ATOM     59  C   UNL A   1      41.624  27.404  29.193  1.00  0.00     0.031 A 
ATOM     60  C   UNL A   1      48.258  27.632  29.472  1.00  0.00     0.049 A 
ATOM     61  C   UNL A   1      42.662  27.981  30.073  1.00  0.00     0.074 A 
ATOM     62  C   UNL A   1      48.825  26.461  29.931  1.00  0.00     0.029 A 
ATOM     63  N   UNL A   1      47.458  28.073  30.500  1.00  0.00    -0.354 N 
ATOM     64  N   UNL A   1      43.202  27.323  31.061  1.00  0.00    -0.248 NA
ATOM     65  C   UNL A   1      43.413  29.135  29.611  1.00  0.00     0.031 C 
ATOM     66  C   UNL A   1      47.920  25.997  30.934  1.00  0.00     0.029 A 
ATOM     67  C   UNL A   1      46.904  26.948  31.053  1.00  0.00     0.049 A 
ATOM     68  H   UNL A   1      47.314  29.006  30.782  1.00  0.00     0.167 HD
ATOM     69  C   UNL A   1      44.537  27.699  31.051  1.00  0.00     0.074 A 
ATOM     70  C   UNL A   1      44.577  28.906  30.226  1.00  0.00     0.031 C 
ATOM     71  C   UNL A   1      45.523  26.848  31.471  1.00  0.00     0.031 A 
BRANCH  58  72
ATOM     72  C   UNL A   1      48.350  29.738  28.017  1.00  0.00    -0.014 A 
ATOM     73  C   UNL A   1      47.263  30.631  28.111  1.00  0.00     0.009 A 
ATOM     74  C   UNL A   1      49.549  30.256  27.500  1.00  0.00     0.009 A 
ATOM     75  C   UNL A   1      47.353  31.952  27.653  1.00  0.00     0.001 A 
ATOM     76  C   UNL A   1      49.655  31.588  27.078  1.00  0.00     0.001 A 
ATOM     77  C   UNL A   1      48.551  32.428  27.130  1.00  0.00     0.000 A 
ENDBRANCH  58  72
BRANCH  59  78
ATOM     78  C   UNL A   1      40.295  27.994  28.956  1.00  0.00    -0.014 A 
ATOM     79  C   UNL A   1      39.355  28.110  29.986  1.00  0.00     0.009 A 
ATOM     80  C   UNL A   1      40.028  28.655  27.740  1.00  0.00     0.009 A 
ATOM     81  C   UNL A   1      38.199  28.882  29.812  1.00  0.00     0.001 A 
ATOM     82  C   UNL A   1      38.874  29.421  27.565  1.00  0.00     0.001 A 
ATOM     83  C   UNL A   1      37.965  29.545  28.607  1.00  0.00     0.000 A 
ENDBRANCH  59  78
BRANCH  71  84
ATOM     84  C   UNL A   1      45.125  25.549  32.136  1.00  0.00    -0.014 A 
ATOM     85  C   UNL A   1      45.059  25.405  33.534  1.00  0.00     0.009 A 
ATOM     86  C   UNL A   1      44.619  24.508  31.343  1.00  0.00     0.009 A 
ATOM     87  C   UNL A   1      44.534  24.248  34.118  1.00  0.00     0.001 A 
ATOM     88  C   UNL A   1      44.076  23.360  31.926  1.00  0.00     0.001 A 
ATOM     89  C   UNL A   1      44.037  23.228  33.312  1.00  0.00     0.000 A 
ENDBRANCH  71  84
ENDBRANCH  45  46
ENDBRANCH  37  40
ENDBRANCH  35  36
ENDBRANCH  34  35
ENDBRANCH  33  34
ENDBRANCH  32  33
ENDBRANCH  31  32
ENDBRANCH   1  31
TORSDOF 19
ENDMDL
MODEL 2
REMARK VINA RESULT:     -11.4      4.922     10.257
REMARK SMILES O=C(CCC(=O)N1Cc2[nH]cnc2C[C@H]1C(=O)NCc1ccccc1)NCCCCCCNC(=O)c1ccc(-c2c3nc(c(-c4ccccc4)c4ccc([nH]4)c(-c4ccccc4)c4nc(c(-c5ccccc5)c5ccc2[nH]5)C=C4)C=C3)cc1
REMARK SMILES IDX 27 1 26 2 1 3 2 4 3 6 4 7 5 8 6 9 7 10 8 11 15 12 9 13 14 14
REMARK SMILES IDX 10 15 13 16 11 17 12 19 16 20 17 21 18 22 19 24 20 25 21 26
REMARK SMILES IDX 25 27 22 28 24 29 23 30 28 31 29 32 30 33 31 34 32 35 33 36
REMARK SMILES IDX 34 37 35 39 36 40 37 41 83 42 38 43 82 44 39 45 40 46 41 47
REMARK SMILES IDX 76 48 42 49 81 50 75 51 77 52 43 53 80 54 74 55 73 56 44 58
REMARK SMILES IDX 66 59 51 60 65 61 52 62 55 63 64 64 78 65 53 66 54 67 63 69
REMARK SMILES IDX 79 70 56 71 45 72 46 73 50 74 47 75 49 76 48 77 67 78 68 79
REMARK SMILES IDX 72 80 69 81 71 82 70 83 57 84 58 85 62 86 59 87 61 88 60 89
REMARK H PARENT 26 5 10 18 18 23 33 38 77 57 55 68
REMARK Flexibility Score: inf
ROOT
ATOM      1  C   UNL A   1      33.564  29.142  27.179  1.00  0.00     0.116 C 
ENDROOT
BRANCH   1   2
ATOM      2  N   UNL A   1      33.682  28.782  25.763  1.00  0.00    -0.356 N 
ATOM      3  O   UNL A   1      31.555  27.907  25.652  1.00  0.00    -0.275 OA
ATOM      4  C   UNL A   1      32.566  28.295  25.072  1.00  0.00     0.220 C 
ATOM      5  H   UNL A   1      34.544  28.883  25.299  1.00  0.00     0.163 HD
BRANCH   4   6
ATOM      6  C   UNL A   1      32.623  28.386  23.529  1.00  0.00     0.110 C 
BRANCH   6   7
ATOM      7  C   UNL A   1      31.982  27.158  22.816  1.00  0.00     0.110 C 
BRANCH   7   8
ATOM      8  C   UNL A   1      32.890  25.937  22.493  1.00  0.00     0.224 C 
ATOM      9  O   UNL A   1      33.722  26.019  21.587  1.00  0.00    -0.275 OA
BRANCH   8  10
ATOM     10  N   UNL A   1      32.774  24.778  23.258  1.00  0.00    -0.324 N 
ATOM     11  C   UNL A   1      31.469  24.081  23.432  1.00  0.00     0.176 C 
ATOM     12  C   UNL A   1      33.829  24.413  24.205  1.00  0.00     0.180 C 
ATOM     13  C   UNL A   1      31.248  23.853  24.897  1.00  0.00     0.058 A 
ATOM     14  C   UNL A   1      33.385  24.853  25.599  1.00  0.00     0.093 C 
ATOM     15  N   UNL A   1      30.258  23.163  25.541  1.00  0.00    -0.347 N 
ATOM     16  C   UNL A   1      32.109  24.215  25.903  1.00  0.00     0.066 A 
ATOM     17  C   UNL A   1      30.559  23.184  26.884  1.00  0.00     0.197 A 
ATOM     18  H   UNL A   1      29.477  22.732  25.123  1.00  0.00     0.167 HD
ATOM     19  N   UNL A   1      31.688  23.813  27.128  1.00  0.00    -0.242 NA
BRANCH  12  20
ATOM     20  C   UNL A   1      34.752  23.232  23.839  1.00  0.00     0.243 C 
ATOM     21  O   UNL A   1      35.705  23.434  23.071  1.00  0.00    -0.273 OA
ATOM     22  N   UNL A   1      34.624  21.948  24.220  1.00  0.00    -0.350 N 
ATOM     23  H   UNL A   1      35.459  21.428  24.172  1.00  0.00     0.163 HD
BRANCH  22  24
ATOM     24  C   UNL A   1      33.490  21.200  24.683  1.00  0.00     0.151 C 
BRANCH  24  25
ATOM     25  C   UNL A   1      33.528  19.754  24.257  1.00  0.00    -0.029 A 
ATOM     26  C   UNL A   1      32.484  19.264  23.460  1.00  0.00     0.005 A 
ATOM     27  C   UNL A   1      34.555  18.871  24.632  1.00  0.00     0.005 A 
ATOM     28  C   UNL A   1      32.470  17.932  23.046  1.00  0.00     0.000 A 
ATOM     29  C   UNL A   1      34.546  17.543  24.208  1.00  0.00     0.000 A 
ATOM     30  C   UNL A   1      33.504  17.075  23.415  1.00  0.00     0.000 A 
ENDBRANCH  24  25
ENDBRANCH  22  24
ENDBRANCH  12  20
ENDBRANCH   8  10
ENDBRANCH   7   8
ENDBRANCH   6   7
ENDBRANCH   4   6
ENDBRANCH   1   2
BRANCH   1  31
ATOM     31  C   UNL A   1      33.525  30.641  27.565  1.00  0.00     0.021 C 
BRANCH  31  32
ATOM     32  C   UNL A   1      34.720  31.351  28.252  1.00  0.00     0.002 C 
BRANCH  32  33
ATOM     33  C   UNL A   1      34.917  32.862  28.019  1.00  0.00     0.002 C 
BRANCH  33  34
ATOM     34  C   UNL A   1      33.890  33.880  28.509  1.00  0.00     0.021 C 
BRANCH  34  35
ATOM     35  C   UNL A   1      34.408  34.994  29.415  1.00  0.00     0.116 C 
BRANCH  35  36
ATOM     36  N   UNL A   1      33.423  35.608  30.319  1.00  0.00    -0.352 N 
ATOM     37  C   UNL A   1      33.132  35.203  31.620  1.00  0.00     0.251 C 
ATOM     38  H   UNL A   1      32.922  36.379  29.970  1.00  0.00     0.163 HD
ATOM     39  O   UNL A   1      32.102  35.492  32.195  1.00  0.00    -0.269 OA
BRANCH  37  40
ATOM     40  C   UNL A   1      34.193  34.428  32.288  1.00  0.00     0.039 A 
ATOM     41  C   UNL A   1      34.307  33.047  32.104  1.00  0.00     0.014 A 
ATOM     42  C   UNL A   1      35.251  35.196  32.750  1.00  0.00     0.014 A 
ATOM     43  C   UNL A   1      35.567  32.456  32.241  1.00  0.00     0.010 A 
ATOM     44  C   UNL A   1      36.505  34.629  32.730  1.00  0.00     0.010 A 
ATOM     45  C   UNL A   1      36.692  33.262  32.483  1.00  0.00    -0.014 A 
BRANCH  45  46
ATOM     46  C   UNL A   1      38.056  32.726  32.334  1.00  0.00     0.031 A 
ATOM     47  C   UNL A   1      38.912  32.567  33.561  1.00  0.00     0.074 A 
ATOM     48  C   UNL A   1      38.511  32.137  31.205  1.00  0.00     0.049 A 
ATOM     49  N   UNL A   1      40.046  33.140  33.808  1.00  0.00    -0.248 NA
ATOM     50  C   UNL A   1      38.470  31.659  34.631  1.00  0.00     0.031 C 
ATOM     51  C   UNL A   1      37.807  31.874  29.945  1.00  0.00     0.029 A 
ATOM     52  N   UNL A   1      39.703  31.506  31.014  1.00  0.00    -0.354 N 
ATOM     53  C   UNL A   1      40.545  32.576  34.983  1.00  0.00     0.074 A 
ATOM     54  C   UNL A   1      39.491  31.732  35.494  1.00  0.00     0.031 C 
ATOM     55  C   UNL A   1      38.452  30.906  29.261  1.00  0.00     0.029 A 
ATOM     56  C   UNL A   1      39.721  30.667  29.915  1.00  0.00     0.049 A 
ATOM     57  H   UNL A   1      40.481  31.636  31.604  1.00  0.00     0.167 HD
ATOM     58  C   UNL A   1      41.849  32.717  35.370  1.00  0.00     0.031 A 
ATOM     59  C   UNL A   1      40.713  29.834  29.534  1.00  0.00     0.031 A 
ATOM     60  C   UNL A   1      42.539  33.720  34.603  1.00  0.00     0.049 A 
ATOM     61  C   UNL A   1      41.968  30.351  30.118  1.00  0.00     0.074 A 
ATOM     62  C   UNL A   1      42.354  35.065  34.353  1.00  0.00     0.029 A 
ATOM     63  N   UNL A   1      43.424  33.293  33.641  1.00  0.00    -0.354 N 
ATOM     64  N   UNL A   1      42.489  31.498  29.782  1.00  0.00    -0.248 NA
ATOM     65  C   UNL A   1      42.434  29.803  31.380  1.00  0.00     0.031 C 
ATOM     66  C   UNL A   1      42.677  35.218  32.970  1.00  0.00     0.029 A 
ATOM     67  C   UNL A   1      43.090  33.971  32.497  1.00  0.00     0.049 A 
ATOM     68  H   UNL A   1      44.150  32.637  33.752  1.00  0.00     0.167 HD
ATOM     69  C   UNL A   1      42.993  32.020  30.964  1.00  0.00     0.074 A 
ATOM     70  C   UNL A   1      43.046  30.881  31.880  1.00  0.00     0.031 C 
ATOM     71  C   UNL A   1      43.055  33.369  31.183  1.00  0.00     0.031 A 
BRANCH  58  72
ATOM     72  C   UNL A   1      42.622  31.741  36.226  1.00  0.00    -0.014 A 
ATOM     73  C   UNL A   1      43.007  32.128  37.526  1.00  0.00     0.009 A 
ATOM     74  C   UNL A   1      43.222  30.580  35.711  1.00  0.00     0.009 A 
ATOM     75  C   UNL A   1      43.984  31.427  38.244  1.00  0.00     0.001 A 
ATOM     76  C   UNL A   1      44.169  29.852  36.442  1.00  0.00     0.001 A 
ATOM     77  C   UNL A   1      44.570  30.290  37.697  1.00  0.00     0.000 A 
ENDBRANCH  58  72
BRANCH  59  78
ATOM     78  C   UNL A   1      40.570  28.534  28.857  1.00  0.00    -0.014 A 
ATOM     79  C   UNL A   1      40.044  27.419  29.520  1.00  0.00     0.009 A 
ATOM     80  C   UNL A   1      40.753  28.447  27.462  1.00  0.00     0.009 A 
ATOM     81  C   UNL A   1      39.691  26.266  28.806  1.00  0.00     0.001 A 
ATOM     82  C   UNL A   1      40.405  27.296  26.751  1.00  0.00     0.001 A 
ATOM     83  C   UNL A   1      39.862  26.209  27.423  1.00  0.00     0.000 A 
ENDBRANCH  59  78
BRANCH  71  84
ATOM     84  C   UNL A   1      42.745  34.304  30.035  1.00  0.00    -0.014 A 
ATOM     85  C   UNL A   1      41.429  34.620  29.652  1.00  0.00     0.009 A 
ATOM     86  C   UNL A   1      43.793  35.033  29.452  1.00  0.00     0.009 A 
ATOM     87  C   UNL A   1      41.171  35.609  28.697  1.00  0.00     0.001 A 
ATOM     88  C   UNL A   1      43.535  36.035  28.512  1.00  0.00     0.001 A 
ATOM     89  C   UNL A   1      42.226  36.320  28.132  1.00  0.00     0.000 A 
ENDBRANCH  71  84
ENDBRANCH  45  46
ENDBRANCH  37  40
ENDBRANCH  35  36
ENDBRANCH  34  35
ENDBRANCH  33  34
ENDBRANCH  32  33
ENDBRANCH  31  32
ENDBRANCH   1  31
TORSDOF 19
ENDMDL
MODEL 3
REMARK VINA RESULT:     -11.2      2.872      4.239
REMARK SMILES O=C(CCC(=O)N1Cc2[nH]cnc2C[C@H]1C(=O)NCc1ccccc1)NCCCCCCNC(=O)c1ccc(-c2c3nc(c(-c4ccccc4)c4ccc([nH]4)c(-c4ccccc4)c4nc(c(-c5ccccc5)c5ccc2[nH]5)C=C4)C=C3)cc1
REMARK SMILES IDX 27 1 26 2 1 3 2 4 3 6 4 7 5 8 6 9 7 10 8 11 15 12 9 13 14 14
REMARK SMILES IDX 10 15 13 16 11 17 12 19 16 20 17 21 18 22 19 24 20 25 21 26
REMARK SMILES IDX 25 27 22 28 24 29 23 30 28 31 29 32 30 33 31 34 32 35 33 36
REMARK SMILES IDX 34 37 35 39 36 40 37 41 83 42 38 43 82 44 39 45 40 46 41 47
REMARK SMILES IDX 76 48 42 49 81 50 75 51 77 52 43 53 80 54 74 55 73 56 44 58
REMARK SMILES IDX 66 59 51 60 65 61 52 62 55 63 64 64 78 65 53 66 54 67 63 69
REMARK SMILES IDX 79 70 56 71 45 72 46 73 50 74 47 75 49 76 48 77 67 78 68 79
REMARK SMILES IDX 72 80 69 81 71 82 70 83 57 84 58 85 62 86 59 87 61 88 60 89
REMARK H PARENT 26 5 10 18 18 23 33 38 77 57 55 68
REMARK Flexibility Score: inf
ROOT
ATOM      1  C   UNL A   1      37.908  23.769  25.991  1.00  0.00     0.116 C 
ENDROOT
BRANCH   1   2
ATOM      2  N   UNL A   1      37.075  22.565  26.062  1.00  0.00    -0.356 N 
ATOM      3  O   UNL A   1      36.780  22.449  23.781  1.00  0.00    -0.275 OA
ATOM      4  C   UNL A   1      36.681  21.918  24.885  1.00  0.00     0.220 C 
ATOM      5  H   UNL A   1      36.792  22.213  26.936  1.00  0.00     0.163 HD
BRANCH   4   6
ATOM      6  C   UNL A   1      36.230  20.446  25.030  1.00  0.00     0.110 C 
BRANCH   6   7
ATOM      7  C   UNL A   1      34.682  20.278  25.066  1.00  0.00     0.110 C 
BRANCH   7   8
ATOM      8  C   UNL A   1      33.860  21.216  25.997  1.00  0.00     0.224 C 
ATOM      9  O   UNL A   1      33.918  21.065  27.219  1.00  0.00    -0.275 OA
BRANCH   8  10
ATOM     10  N   UNL A   1      33.096  22.237  25.435  1.00  0.00    -0.324 N 
ATOM     11  C   UNL A   1      32.521  22.124  24.067  1.00  0.00     0.176 C 
ATOM     12  C   UNL A   1      33.138  23.585  26.006  1.00  0.00     0.180 C 
ATOM     13  C   UNL A   1      32.888  23.357  23.298  1.00  0.00     0.058 A 
ATOM     14  C   UNL A   1      34.090  24.427  25.160  1.00  0.00     0.093 C 
ATOM     15  N   UNL A   1      32.505  23.762  22.048  1.00  0.00    -0.347 N 
ATOM     16  C   UNL A   1      33.620  24.413  23.779  1.00  0.00     0.066 A 
ATOM     17  C   UNL A   1      33.055  25.007  21.840  1.00  0.00     0.197 A 
ATOM     18  H   UNL A   1      31.942  23.258  21.416  1.00  0.00     0.167 HD
ATOM     19  N   UNL A   1      33.732  25.428  22.886  1.00  0.00    -0.242 NA
BRANCH  12  20
ATOM     20  C   UNL A   1      31.911  24.069  26.808  1.00  0.00     0.243 C 
ATOM     21  O   UNL A   1      31.338  23.270  27.564  1.00  0.00    -0.273 OA
ATOM     22  N   UNL A   1      31.327  25.279  26.753  1.00  0.00    -0.350 N 
ATOM     23  H   UNL A   1      30.793  25.506  27.549  1.00  0.00     0.163 HD
BRANCH  22  24
ATOM     24  C   UNL A   1      31.342  26.300  25.744  1.00  0.00     0.151 C 
BRANCH  24  25
ATOM     25  C   UNL A   1      32.104  27.531  26.166  1.00  0.00    -0.029 A 
ATOM     26  C   UNL A   1      33.407  27.708  25.679  1.00  0.00     0.005 A 
ATOM     27  C   UNL A   1      31.575  28.502  27.032  1.00  0.00     0.005 A 
ATOM     28  C   UNL A   1      34.157  28.826  26.045  1.00  0.00     0.000 A 
ATOM     29  C   UNL A   1      32.321  29.625  27.388  1.00  0.00     0.000 A 
ATOM     30  C   UNL A   1      33.611  29.786  26.894  1.00  0.00     0.000 A 
ENDBRANCH  24  25
ENDBRANCH  22  24
ENDBRANCH  12  20
ENDBRANCH   8  10
ENDBRANCH   7   8
ENDBRANCH   6   7
ENDBRANCH   4   6
ENDBRANCH   1   2
BRANCH   1  31
ATOM     31  C   UNL A   1      38.871  24.078  27.163  1.00  0.00     0.021 C 
BRANCH  31  32
ATOM     32  C   UNL A   1      40.030  23.125  27.556  1.00  0.00     0.002 C 
BRANCH  32  33
ATOM     33  C   UNL A   1      40.255  21.848  26.722  1.00  0.00     0.002 C 
BRANCH  33  34
ATOM     34  C   UNL A   1      41.432  21.727  25.758  1.00  0.00     0.021 C 
BRANCH  34  35
ATOM     35  C   UNL A   1      42.828  21.797  26.370  1.00  0.00     0.116 C 
BRANCH  35  36
ATOM     36  N   UNL A   1      43.812  22.622  25.653  1.00  0.00    -0.352 N 
ATOM     37  C   UNL A   1      43.738  23.998  25.442  1.00  0.00     0.251 C 
ATOM     38  H   UNL A   1      44.599  22.157  25.287  1.00  0.00     0.163 HD
ATOM     39  O   UNL A   1      44.360  24.575  24.573  1.00  0.00    -0.269 OA
BRANCH  37  40
ATOM     40  C   UNL A   1      42.879  24.732  26.389  1.00  0.00     0.039 A 
ATOM     41  C   UNL A   1      43.207  24.822  27.745  1.00  0.00     0.014 A 
ATOM     42  C   UNL A   1      42.000  25.619  25.786  1.00  0.00     0.014 A 
ATOM     43  C   UNL A   1      42.756  25.930  28.468  1.00  0.00     0.010 A 
ATOM     44  C   UNL A   1      41.694  26.774  26.467  1.00  0.00     0.010 A 
ATOM     45  C   UNL A   1      42.055  26.954  27.810  1.00  0.00    -0.014 A 
BRANCH  45  46
ATOM     46  C   UNL A   1      41.831  28.259  28.458  1.00  0.00     0.031 A 
ATOM     47  C   UNL A   1      42.806  29.375  28.199  1.00  0.00     0.074 A 
ATOM     48  C   UNL A   1      40.678  28.602  29.074  1.00  0.00     0.049 A 
ATOM     49  N   UNL A   1      43.541  29.993  29.068  1.00  0.00    -0.248 NA
ATOM     50  C   UNL A   1      42.979  29.874  26.826  1.00  0.00     0.031 C 
ATOM     51  C   UNL A   1      39.436  27.832  29.220  1.00  0.00     0.029 A 
ATOM     52  N   UNL A   1      40.333  29.816  29.588  1.00  0.00    -0.354 N 
ATOM     53  C   UNL A   1      44.164  31.049  28.402  1.00  0.00     0.074 A 
ATOM     54  C   UNL A   1      43.849  30.874  27.004  1.00  0.00     0.031 C 
ATOM     55  C   UNL A   1      38.415  28.669  29.496  1.00  0.00     0.029 A 
ATOM     56  C   UNL A   1      38.973  29.974  29.782  1.00  0.00     0.049 A 
ATOM     57  H   UNL A   1      40.992  30.515  29.801  1.00  0.00     0.167 HD
ATOM     58  C   UNL A   1      44.763  32.085  29.064  1.00  0.00     0.031 A 
ATOM     59  C   UNL A   1      38.324  31.092  30.172  1.00  0.00     0.031 A 
ATOM     60  C   UNL A   1      44.922  31.813  30.468  1.00  0.00     0.049 A 
ATOM     61  C   UNL A   1      39.300  31.936  30.893  1.00  0.00     0.074 A 
ATOM     62  C   UNL A   1      45.544  30.833  31.215  1.00  0.00     0.029 A 
ATOM     63  N   UNL A   1      44.068  32.444  31.343  1.00  0.00    -0.354 N 
ATOM     64  N   UNL A   1      39.850  31.583  32.021  1.00  0.00    -0.248 NA
ATOM     65  C   UNL A   1      39.994  32.985  30.165  1.00  0.00     0.031 C 
ATOM     66  C   UNL A   1      44.641  30.577  32.291  1.00  0.00     0.029 A 
ATOM     67  C   UNL A   1      43.567  31.459  32.154  1.00  0.00     0.049 A 
ATOM     68  H   UNL A   1      43.860  33.406  31.380  1.00  0.00     0.167 HD
ATOM     69  C   UNL A   1      41.160  32.030  31.933  1.00  0.00     0.074 A 
ATOM     70  C   UNL A   1      41.152  32.993  30.833  1.00  0.00     0.031 C 
ATOM     71  C   UNL A   1      42.183  31.378  32.566  1.00  0.00     0.031 A 
BRANCH  58  72
ATOM     72  C   UNL A   1      44.930  33.489  28.533  1.00  0.00    -0.014 A 
ATOM     73  C   UNL A   1      46.180  34.128  28.668  1.00  0.00     0.009 A 
ATOM     74  C   UNL A   1      43.845  34.301  28.162  1.00  0.00     0.009 A 
ATOM     75  C   UNL A   1      46.322  35.511  28.503  1.00  0.00     0.001 A 
ATOM     76  C   UNL A   1      43.991  35.679  27.957  1.00  0.00     0.001 A 
ATOM     77  C   UNL A   1      45.224  36.289  28.153  1.00  0.00     0.000 A 
ENDBRANCH  58  72
BRANCH  59  78
ATOM     78  C   UNL A   1      36.970  31.516  29.779  1.00  0.00    -0.014 A 
ATOM     79  C   UNL A   1      35.988  31.802  30.734  1.00  0.00     0.009 A 
ATOM     80  C   UNL A   1      36.704  31.856  28.437  1.00  0.00     0.009 A 
ATOM     81  C   UNL A   1      34.792  32.429  30.361  1.00  0.00     0.001 A 
ATOM     82  C   UNL A   1      35.510  32.479  28.064  1.00  0.00     0.001 A 
ATOM     83  C   UNL A   1      34.559  32.776  29.031  1.00  0.00     0.000 A 
ENDBRANCH  59  78
BRANCH  71  84
ATOM     84  C   UNL A   1      41.845  30.263  33.531  1.00  0.00    -0.014 A 
ATOM     85  C   UNL A   1      41.497  28.969  33.101  1.00  0.00     0.009 A 
ATOM     86  C   UNL A   1      42.067  30.463  34.902  1.00  0.00     0.009 A 
ATOM     87  C   UNL A   1      41.348  27.919  34.013  1.00  0.00     0.001 A 
ATOM     88  C   UNL A   1      41.938  29.409  35.812  1.00  0.00     0.001 A 
ATOM     89  C   UNL A   1      41.575  28.140  35.369  1.00  0.00     0.000 A 
ENDBRANCH  71  84
ENDBRANCH  45  46
ENDBRANCH  37  40
ENDBRANCH  35  36
ENDBRANCH  34  35
ENDBRANCH  33  34
ENDBRANCH  32  33
ENDBRANCH  31  32
ENDBRANCH   1  31
TORSDOF 19
ENDMDL
