MODEL 1
REMARK VINA RESULT:     -11.2      0.000      0.000
REMARK SMILES Cc1cc(Cl)c2c(c1)C=C(C(=O)NCCCCCCNC(=O)c1ccc(-c3c4nc(c(-c5ccccc5)c5ccc([nH]5)c(-c5ccccc5)c5nc(c(-c6ccccc6)c6ccc3[nH]6)C=C5)C=C4)cc1)[C@@H](C(F)(F)F)O2
REMARK SMILES IDX 17 1 16 2 15 3 14 4 13 5 11 6 12 7 10 9 1 10 2 11 3 12 8 13
REMARK SMILES IDX 4 14 7 15 5 16 6 17 9 18 76 19 71 20 72 21 73 22 74 23 75 24
REMARK SMILES IDX 18 25 19 26 20 27 21 28 22 30 23 31 24 32 70 33 25 34 69 35
REMARK SMILES IDX 26 36 27 37 28 38 63 39 29 40 68 41 62 42 64 43 30 44 67 45
REMARK SMILES IDX 61 46 60 47 31 49 53 50 38 51 52 52 39 53 42 54 51 55 65 56
REMARK SMILES IDX 40 57 41 58 50 60 66 61 43 62 32 63 33 64 37 65 34 66 36 67
REMARK SMILES IDX 35 68 54 69 55 70 59 71 56 72 58 73 57 74 44 75 45 76 49 77
REMARK SMILES IDX 46 78 48 79 47 80
REMARK H PARENT 13 8 20 29 64 48 42 59
REMARK Flexibility Score: inf
ROOT
ATOM      1  C   UNL A   1      32.970  28.958  24.796  1.00  0.00     0.002 C 
ENDROOT
BRANCH   1   2
ATOM      2  C   UNL A   1      31.444  28.785  24.779  1.00  0.00     0.002 C 
BRANCH   2   3
ATOM      3  C   UNL A   1      30.801  28.849  23.391  1.00  0.00     0.021 C 
BRANCH   3   4
ATOM      4  C   UNL A   1      30.485  27.479  22.802  1.00  0.00     0.116 C 
BRANCH   4   5
ATOM      5  N   UNL A   1      31.538  27.015  21.920  1.00  0.00    -0.352 N 
ATOM      6  C   UNL A   1      32.565  26.136  21.982  1.00  0.00     0.251 C 
ATOM      7  O   UNL A   1      33.228  26.025  20.946  1.00  0.00    -0.270 OA
ATOM      8  H   UNL A   1      31.495  27.456  21.041  1.00  0.00     0.163 HD
BRANCH   6   9
ATOM      9  C   UNL A   1      32.936  25.328  23.185  1.00  0.00     0.067 C 
ATOM     10  C   UNL A   1      37.927  22.857  25.882  1.00  0.00     0.044 C 
ATOM     11  C   UNL A   1      36.483  23.237  25.752  1.00  0.00    -0.049 A 
ATOM     12  C   UNL A   1      35.562  22.901  26.750  1.00  0.00     0.028 A 
ATOM     13  C   UNL A   1      36.042  23.942  24.622  1.00  0.00     0.015 A 
ATOM     14  C   UNL A   1      34.223  23.268  26.621  1.00  0.00     0.084 A 
ATOM     15  C   UNL A   1      34.698  24.311  24.490  1.00  0.00     0.019 A 
ATOM     16  Cl  UNL A   1      33.126  22.840  27.887  1.00  0.00    -0.080 Cl
ATOM     17  C   UNL A   1      33.789  23.966  25.491  1.00  0.00     0.146 A 
ATOM     18  C   UNL A   1      34.251  25.095  23.345  1.00  0.00     0.025 C 
ATOM     19  O   UNL A   1      32.476  24.334  25.435  1.00  0.00    -0.474 OA
ATOM     20  C   UNL A   1      31.944  24.761  24.159  1.00  0.00     0.314 C 
BRANCH  20  21
ATOM     21  C   UNL A   1      31.104  23.617  23.562  1.00  0.00     0.429 C 
ATOM     22  F   UNL A   1      30.676  22.781  24.541  1.00  0.00    -0.167 F 
ATOM     23  F   UNL A   1      29.991  24.058  22.928  1.00  0.00    -0.167 F 
ATOM     24  F   UNL A   1      31.799  22.879  22.668  1.00  0.00    -0.167 F 
ENDBRANCH  20  21
ENDBRANCH   6   9
ENDBRANCH   4   5
ENDBRANCH   3   4
ENDBRANCH   2   3
ENDBRANCH   1   2
BRANCH   1  25
ATOM     25  C   UNL A   1      33.714  28.072  25.798  1.00  0.00     0.021 C 
BRANCH  25  26
ATOM     26  C   UNL A   1      33.470  28.436  27.258  1.00  0.00     0.116 C 
BRANCH  26  27
ATOM     27  N   UNL A   1      33.442  29.875  27.457  1.00  0.00    -0.352 N 
ATOM     28  C   UNL A   1      34.386  30.687  28.030  1.00  0.00     0.251 C 
ATOM     29  H   UNL A   1      32.630  30.331  27.137  1.00  0.00     0.163 HD
ATOM     30  O   UNL A   1      34.114  31.846  28.326  1.00  0.00    -0.269 OA
BRANCH  28  31
ATOM     31  C   UNL A   1      35.732  30.149  28.302  1.00  0.00     0.039 A 
ATOM     32  C   UNL A   1      36.693  30.187  27.290  1.00  0.00     0.014 A 
ATOM     33  C   UNL A   1      36.040  29.609  29.554  1.00  0.00     0.014 A 
ATOM     34  C   UNL A   1      37.982  29.724  27.552  1.00  0.00     0.010 A 
ATOM     35  C   UNL A   1      37.343  29.220  29.836  1.00  0.00     0.010 A 
ATOM     36  C   UNL A   1      38.323  29.261  28.834  1.00  0.00    -0.014 A 
BRANCH  36  37
ATOM     37  C   UNL A   1      39.696  28.790  29.131  1.00  0.00     0.031 A 
ATOM     38  C   UNL A   1      40.648  29.679  29.879  1.00  0.00     0.074 A 
ATOM     39  C   UNL A   1      40.092  27.575  28.706  1.00  0.00     0.049 A 
ATOM     40  N   UNL A   1      41.889  29.449  30.228  1.00  0.00    -0.248 NA
ATOM     41  C   UNL A   1      40.151  31.008  30.275  1.00  0.00     0.031 C 
ATOM     42  C   UNL A   1      39.265  26.632  27.950  1.00  0.00     0.029 A 
ATOM     43  N   UNL A   1      41.288  26.920  28.859  1.00  0.00    -0.354 N 
ATOM     44  C   UNL A   1      42.315  30.599  30.880  1.00  0.00     0.074 A 
ATOM     45  C   UNL A   1      41.227  31.549  30.824  1.00  0.00     0.031 C 
ATOM     46  C   UNL A   1      39.963  25.504  27.744  1.00  0.00     0.029 A 
ATOM     47  C   UNL A   1      41.297  25.659  28.315  1.00  0.00     0.049 A 
ATOM     48  H   UNL A   1      42.065  27.317  29.315  1.00  0.00     0.167 HD
ATOM     49  C   UNL A   1      43.497  30.832  31.497  1.00  0.00     0.031 A 
ATOM     50  C   UNL A   1      42.272  24.729  28.285  1.00  0.00     0.031 A 
ATOM     51  C   UNL A   1      44.575  29.883  31.557  1.00  0.00     0.049 A 
ATOM     52  C   UNL A   1      43.594  25.032  28.935  1.00  0.00     0.074 A 
ATOM     53  C   UNL A   1      45.798  30.013  32.188  1.00  0.00     0.029 A 
ATOM     54  N   UNL A   1      44.557  28.631  30.963  1.00  0.00    -0.354 N 
ATOM     55  N   UNL A   1      43.962  26.103  29.596  1.00  0.00    -0.248 NA
ATOM     56  C   UNL A   1      44.631  23.995  28.843  1.00  0.00     0.031 C 
ATOM     57  C   UNL A   1      46.544  28.860  31.931  1.00  0.00     0.029 A 
ATOM     58  C   UNL A   1      45.761  27.987  31.190  1.00  0.00     0.049 A 
ATOM     59  H   UNL A   1      43.801  28.254  30.457  1.00  0.00     0.167 HD
ATOM     60  C   UNL A   1      45.264  25.861  30.015  1.00  0.00     0.074 A 
ATOM     61  C   UNL A   1      45.613  24.535  29.552  1.00  0.00     0.031 C 
ATOM     62  C   UNL A   1      46.093  26.668  30.720  1.00  0.00     0.031 A 
BRANCH  49  63
ATOM     63  C   UNL A   1      43.682  32.164  32.166  1.00  0.00    -0.014 A 
ATOM     64  C   UNL A   1      44.183  33.266  31.454  1.00  0.00     0.009 A 
ATOM     65  C   UNL A   1      43.295  32.338  33.504  1.00  0.00     0.009 A 
ATOM     66  C   UNL A   1      44.316  34.509  32.075  1.00  0.00     0.001 A 
ATOM     67  C   UNL A   1      43.403  33.590  34.114  1.00  0.00     0.001 A 
ATOM     68  C   UNL A   1      43.919  34.672  33.402  1.00  0.00     0.000 A 
ENDBRANCH  49  63
BRANCH  50  69
ATOM     69  C   UNL A   1      42.022  23.414  27.639  1.00  0.00    -0.014 A 
ATOM     70  C   UNL A   1      41.406  22.377  28.358  1.00  0.00     0.009 A 
ATOM     71  C   UNL A   1      42.382  23.189  26.302  1.00  0.00     0.009 A 
ATOM     72  C   UNL A   1      41.172  21.139  27.756  1.00  0.00     0.001 A 
ATOM     73  C   UNL A   1      42.121  21.959  25.693  1.00  0.00     0.001 A 
ATOM     74  C   UNL A   1      41.523  20.933  26.422  1.00  0.00     0.000 A 
ENDBRANCH  50  69
BRANCH  62  75
ATOM     75  C   UNL A   1      47.461  26.140  31.052  1.00  0.00    -0.014 A 
ATOM     76  C   UNL A   1      48.513  26.224  30.127  1.00  0.00     0.009 A 
ATOM     77  C   UNL A   1      47.720  25.635  32.336  1.00  0.00     0.009 A 
ATOM     78  C   UNL A   1      49.794  25.795  30.477  1.00  0.00     0.001 A 
ATOM     79  C   UNL A   1      49.009  25.236  32.692  1.00  0.00     0.001 A 
ATOM     80  C   UNL A   1      50.043  25.311  31.761  1.00  0.00     0.000 A 
ENDBRANCH  62  75
ENDBRANCH  36  37
ENDBRANCH  28  31
ENDBRANCH  26  27
ENDBRANCH  25  26
ENDBRANCH   1  25
TORSDOF 14
ENDMDL
MODEL 2
REMARK VINA RESULT:     -11.1      2.604      7.408
REMARK SMILES Cc1cc(Cl)c2c(c1)C=C(C(=O)NCCCCCCNC(=O)c1ccc(-c3c4nc(c(-c5ccccc5)c5ccc([nH]5)c(-c5ccccc5)c5nc(c(-c6ccccc6)c6ccc3[nH]6)C=C5)C=C4)cc1)[C@@H](C(F)(F)F)O2
REMARK SMILES IDX 17 1 16 2 15 3 14 4 13 5 11 6 12 7 10 9 1 10 2 11 3 12 8 13
REMARK SMILES IDX 4 14 7 15 5 16 6 17 9 18 76 19 71 20 72 21 73 22 74 23 75 24
REMARK SMILES IDX 18 25 19 26 20 27 21 28 22 30 23 31 24 32 70 33 25 34 69 35
REMARK SMILES IDX 26 36 27 37 28 38 63 39 29 40 68 41 62 42 64 43 30 44 67 45
REMARK SMILES IDX 61 46 60 47 31 49 53 50 38 51 52 52 39 53 42 54 51 55 65 56
REMARK SMILES IDX 40 57 41 58 50 60 66 61 43 62 32 63 33 64 37 65 34 66 36 67
REMARK SMILES IDX 35 68 54 69 55 70 59 71 56 72 58 73 57 74 44 75 45 76 49 77
REMARK SMILES IDX 46 78 48 79 47 80
REMARK H PARENT 13 8 20 29 64 48 42 59
REMARK Flexibility Score: inf
ROOT
ATOM      1  C   UNL A   1      35.384  21.941  25.913  1.00  0.00     0.002 C 
ENDROOT
BRANCH   1   2
ATOM      2  C   UNL A   1      34.613  21.607  24.628  1.00  0.00     0.002 C 
BRANCH   2   3
ATOM      3  C   UNL A   1      33.472  20.600  24.801  1.00  0.00     0.021 C 
BRANCH   3   4
ATOM      4  C   UNL A   1      32.088  21.210  24.612  1.00  0.00     0.116 C 
BRANCH   4   5
ATOM      5  N   UNL A   1      31.605  21.839  25.826  1.00  0.00    -0.352 N 
ATOM      6  C   UNL A   1      31.535  23.093  26.330  1.00  0.00     0.251 C 
ATOM      7  O   UNL A   1      30.998  23.186  27.439  1.00  0.00    -0.270 OA
ATOM      8  H   UNL A   1      31.226  21.178  26.451  1.00  0.00     0.163 HD
BRANCH   6   9
ATOM      9  C   UNL A   1      32.055  24.323  25.657  1.00  0.00     0.067 C 
ATOM     10  C   UNL A   1      34.254  29.932  27.069  1.00  0.00     0.044 C 
ATOM     11  C   UNL A   1      33.891  28.784  26.176  1.00  0.00    -0.049 A 
ATOM     12  C   UNL A   1      34.102  28.858  24.796  1.00  0.00     0.028 A 
ATOM     13  C   UNL A   1      33.338  27.616  26.724  1.00  0.00     0.015 A 
ATOM     14  C   UNL A   1      33.768  27.780  23.976  1.00  0.00     0.084 A 
ATOM     15  C   UNL A   1      33.003  26.533  25.904  1.00  0.00     0.019 A 
ATOM     16  Cl  UNL A   1      34.058  27.915  22.278  1.00  0.00    -0.080 Cl
ATOM     17  C   UNL A   1      33.213  26.621  24.527  1.00  0.00     0.146 A 
ATOM     18  C   UNL A   1      32.483  25.298  26.479  1.00  0.00     0.025 C 
ATOM     19  O   UNL A   1      32.943  25.583  23.685  1.00  0.00    -0.474 OA
ATOM     20  C   UNL A   1      32.087  24.520  24.169  1.00  0.00     0.314 C 
BRANCH  20  21
ATOM     21  C   UNL A   1      30.684  24.694  23.558  1.00  0.00     0.429 C 
ATOM     22  F   UNL A   1      30.193  23.497  23.149  1.00  0.00    -0.167 F 
ATOM     23  F   UNL A   1      29.785  25.188  24.442  1.00  0.00    -0.167 F 
ATOM     24  F   UNL A   1      30.684  25.523  22.491  1.00  0.00    -0.167 F 
ENDBRANCH  20  21
ENDBRANCH   6   9
ENDBRANCH   4   5
ENDBRANCH   3   4
ENDBRANCH   2   3
ENDBRANCH   1   2
BRANCH   1  25
ATOM     25  C   UNL A   1      35.804  23.406  26.059  1.00  0.00     0.021 C 
BRANCH  25  26
ATOM     26  C   UNL A   1      37.070  23.773  25.295  1.00  0.00     0.116 C 
BRANCH  26  27
ATOM     27  N   UNL A   1      38.139  22.818  25.533  1.00  0.00    -0.352 N 
ATOM     28  C   UNL A   1      39.366  23.020  26.109  1.00  0.00     0.251 C 
ATOM     29  H   UNL A   1      37.958  21.897  25.238  1.00  0.00     0.163 HD
ATOM     30  O   UNL A   1      40.240  22.163  26.032  1.00  0.00    -0.269 OA
BRANCH  28  31
ATOM     31  C   UNL A   1      39.633  24.288  26.815  1.00  0.00     0.039 A 
ATOM     32  C   UNL A   1      39.151  24.455  28.114  1.00  0.00     0.014 A 
ATOM     33  C   UNL A   1      40.357  25.308  26.189  1.00  0.00     0.014 A 
ATOM     34  C   UNL A   1      39.437  25.631  28.805  1.00  0.00     0.010 A 
ATOM     35  C   UNL A   1      40.706  26.445  26.907  1.00  0.00     0.010 A 
ATOM     36  C   UNL A   1      40.238  26.623  28.216  1.00  0.00    -0.014 A 
BRANCH  36  37
ATOM     37  C   UNL A   1      40.571  27.867  28.951  1.00  0.00     0.031 A 
ATOM     38  C   UNL A   1      39.571  28.986  29.021  1.00  0.00     0.074 A 
ATOM     39  C   UNL A   1      41.780  27.997  29.531  1.00  0.00     0.049 A 
ATOM     40  N   UNL A   1      39.678  30.150  29.610  1.00  0.00    -0.248 NA
ATOM     41  C   UNL A   1      38.287  28.781  28.328  1.00  0.00     0.031 C 
ATOM     42  C   UNL A   1      42.841  26.989  29.510  1.00  0.00     0.029 A 
ATOM     43  N   UNL A   1      42.314  29.028  30.261  1.00  0.00    -0.354 N 
ATOM     44  C   UNL A   1      38.483  30.810  29.357  1.00  0.00     0.074 A 
ATOM     45  C   UNL A   1      37.689  29.948  28.511  1.00  0.00     0.031 C 
ATOM     46  C   UNL A   1      43.882  27.433  30.232  1.00  0.00     0.029 A 
ATOM     47  C   UNL A   1      43.578  28.770  30.731  1.00  0.00     0.049 A 
ATOM     48  H   UNL A   1      41.836  29.871  30.432  1.00  0.00     0.167 HD
ATOM     49  C   UNL A   1      38.070  32.016  29.814  1.00  0.00     0.031 A 
ATOM     50  C   UNL A   1      44.400  29.527  31.485  1.00  0.00     0.031 A 
ATOM     51  C   UNL A   1      38.858  32.869  30.660  1.00  0.00     0.049 A 
ATOM     52  C   UNL A   1      43.936  30.884  31.939  1.00  0.00     0.074 A 
ATOM     53  C   UNL A   1      38.513  34.093  31.204  1.00  0.00     0.029 A 
ATOM     54  N   UNL A   1      40.146  32.586  31.084  1.00  0.00    -0.354 N 
ATOM     55  N   UNL A   1      42.780  31.470  31.737  1.00  0.00    -0.248 NA
ATOM     56  C   UNL A   1      44.886  31.678  32.730  1.00  0.00     0.031 C 
ATOM     57  C   UNL A   1      39.615  34.579  31.913  1.00  0.00     0.029 A 
ATOM     58  C   UNL A   1      40.623  33.628  31.861  1.00  0.00     0.049 A 
ATOM     59  H   UNL A   1      40.648  31.768  30.866  1.00  0.00     0.167 HD
ATOM     60  C   UNL A   1      42.856  32.692  32.393  1.00  0.00     0.074 A 
ATOM     61  C   UNL A   1      44.163  32.753  33.014  1.00  0.00     0.031 C 
ATOM     62  C   UNL A   1      41.926  33.674  32.471  1.00  0.00     0.031 A 
BRANCH  49  63
ATOM     63  C   UNL A   1      36.698  32.479  29.414  1.00  0.00    -0.014 A 
ATOM     64  C   UNL A   1      35.584  32.227  30.232  1.00  0.00     0.009 A 
ATOM     65  C   UNL A   1      36.522  33.228  28.241  1.00  0.00     0.009 A 
ATOM     66  C   UNL A   1      34.320  32.694  29.870  1.00  0.00     0.001 A 
ATOM     67  C   UNL A   1      35.261  33.719  27.897  1.00  0.00     0.001 A 
ATOM     68  C   UNL A   1      34.160  33.446  28.707  1.00  0.00     0.000 A 
ENDBRANCH  49  63
BRANCH  50  69
ATOM     69  C   UNL A   1      45.734  29.004  31.881  1.00  0.00    -0.014 A 
ATOM     70  C   UNL A   1      46.855  29.234  31.068  1.00  0.00     0.009 A 
ATOM     71  C   UNL A   1      45.900  28.285  33.074  1.00  0.00     0.009 A 
ATOM     72  C   UNL A   1      48.110  28.742  31.434  1.00  0.00     0.001 A 
ATOM     73  C   UNL A   1      47.161  27.818  33.452  1.00  0.00     0.001 A 
ATOM     74  C   UNL A   1      48.263  28.040  32.629  1.00  0.00     0.000 A 
ENDBRANCH  50  69
BRANCH  62  75
ATOM     75  C   UNL A   1      42.274  34.900  33.268  1.00  0.00    -0.014 A 
ATOM     76  C   UNL A   1      43.037  35.935  32.708  1.00  0.00     0.009 A 
ATOM     77  C   UNL A   1      41.755  35.059  34.563  1.00  0.00     0.009 A 
ATOM     78  C   UNL A   1      43.290  37.098  33.437  1.00  0.00     0.001 A 
ATOM     79  C   UNL A   1      41.984  36.236  35.277  1.00  0.00     0.001 A 
ATOM     80  C   UNL A   1      42.755  37.251  34.716  1.00  0.00     0.000 A 
ENDBRANCH  62  75
ENDBRANCH  36  37
ENDBRANCH  28  31
ENDBRANCH  26  27
ENDBRANCH  25  26
ENDBRANCH   1  25
TORSDOF 14
ENDMDL
MODEL 3
REMARK VINA RESULT:     -11.1      2.547      7.486
REMARK SMILES Cc1cc(Cl)c2c(c1)C=C(C(=O)NCCCCCCNC(=O)c1ccc(-c3c4nc(c(-c5ccccc5)c5ccc([nH]5)c(-c5ccccc5)c5nc(c(-c6ccccc6)c6ccc3[nH]6)C=C5)C=C4)cc1)[C@@H](C(F)(F)F)O2
REMARK SMILES IDX 17 1 16 2 15 3 14 4 13 5 11 6 12 7 10 9 1 10 2 11 3 12 8 13
REMARK SMILES IDX 4 14 7 15 5 16 6 17 9 18 76 19 71 20 72 21 73 22 74 23 75 24
REMARK SMILES IDX 18 25 19 26 20 27 21 28 22 30 23 31 24 32 70 33 25 34 69 35
REMARK SMILES IDX 26 36 27 37 28 38 63 39 29 40 68 41 62 42 64 43 30 44 67 45
REMARK SMILES IDX 61 46 60 47 31 49 53 50 38 51 52 52 39 53 42 54 51 55 65 56
REMARK SMILES IDX 40 57 41 58 50 60 66 61 43 62 32 63 33 64 37 65 34 66 36 67
REMARK SMILES IDX 35 68 54 69 55 70 59 71 56 72 58 73 57 74 44 75 45 76 49 77
REMARK SMILES IDX 46 78 48 79 47 80
REMARK H PARENT 13 8 20 29 64 48 42 59
REMARK Flexibility Score: inf
ROOT
ATOM      1  C   UNL A   1      35.161  22.204  25.913  1.00  0.00     0.002 C 
ENDROOT
BRANCH   1   2
ATOM      2  C   UNL A   1      34.724  20.956  25.132  1.00  0.00     0.002 C 
BRANCH   2   3
ATOM      3  C   UNL A   1      33.330  20.428  25.483  1.00  0.00     0.021 C 
BRANCH   3   4
ATOM      4  C   UNL A   1      32.197  21.267  24.903  1.00  0.00     0.116 C 
BRANCH   4   5
ATOM      5  N   UNL A   1      31.433  21.933  25.941  1.00  0.00    -0.352 N 
ATOM      6  C   UNL A   1      31.201  23.207  26.336  1.00  0.00     0.251 C 
ATOM      7  O   UNL A   1      30.431  23.329  27.294  1.00  0.00    -0.270 OA
ATOM      8  H   UNL A   1      30.955  21.287  26.510  1.00  0.00     0.163 HD
BRANCH   6   9
ATOM      9  C   UNL A   1      31.803  24.425  25.713  1.00  0.00     0.067 C 
ATOM     10  C   UNL A   1      33.981  29.990  27.321  1.00  0.00     0.044 C 
ATOM     11  C   UNL A   1      33.676  28.848  26.398  1.00  0.00    -0.049 A 
ATOM     12  C   UNL A   1      34.009  28.918  25.041  1.00  0.00     0.028 A 
ATOM     13  C   UNL A   1      33.053  27.693  26.893  1.00  0.00     0.015 A 
ATOM     14  C   UNL A   1      33.728  27.847  24.194  1.00  0.00     0.084 A 
ATOM     15  C   UNL A   1      32.770  26.616  26.045  1.00  0.00     0.019 A 
ATOM     16  Cl  UNL A   1      34.169  27.975  22.528  1.00  0.00    -0.080 Cl
ATOM     17  C   UNL A   1      33.103  26.700  24.692  1.00  0.00     0.146 A 
ATOM     18  C   UNL A   1      32.176  25.392  26.570  1.00  0.00     0.025 C 
ATOM     19  O   UNL A   1      32.887  25.666  23.828  1.00  0.00    -0.474 OA
ATOM     20  C   UNL A   1      31.971  24.621  24.233  1.00  0.00     0.314 C 
BRANCH  20  21
ATOM     21  C   UNL A   1      30.631  24.823  23.501  1.00  0.00     0.429 C 
ATOM     22  F   UNL A   1      29.734  25.436  24.313  1.00  0.00    -0.167 F 
ATOM     23  F   UNL A   1      30.746  25.609  22.404  1.00  0.00    -0.167 F 
ATOM     24  F   UNL A   1      30.085  23.656  23.094  1.00  0.00    -0.167 F 
ENDBRANCH  20  21
ENDBRANCH   6   9
ENDBRANCH   4   5
ENDBRANCH   3   4
ENDBRANCH   2   3
ENDBRANCH   1   2
BRANCH   1  25
ATOM     25  C   UNL A   1      35.467  23.434  25.055  1.00  0.00     0.021 C 
BRANCH  25  26
ATOM     26  C   UNL A   1      36.925  23.876  25.092  1.00  0.00     0.116 C 
BRANCH  26  27
ATOM     27  N   UNL A   1      37.811  22.780  25.445  1.00  0.00    -0.352 N 
ATOM     28  C   UNL A   1      39.021  22.819  26.087  1.00  0.00     0.251 C 
ATOM     29  H   UNL A   1      37.500  21.883  25.185  1.00  0.00     0.163 HD
ATOM     30  O   UNL A   1      39.748  21.831  26.108  1.00  0.00    -0.269 OA
BRANCH  28  31
ATOM     31  C   UNL A   1      39.451  24.069  26.743  1.00  0.00     0.039 A 
ATOM     32  C   UNL A   1      40.182  25.003  26.008  1.00  0.00     0.014 A 
ATOM     33  C   UNL A   1      39.131  24.311  28.083  1.00  0.00     0.014 A 
ATOM     34  C   UNL A   1      40.552  26.207  26.606  1.00  0.00     0.010 A 
ATOM     35  C   UNL A   1      39.435  25.541  28.652  1.00  0.00     0.010 A 
ATOM     36  C   UNL A   1      40.160  26.495  27.923  1.00  0.00    -0.014 A 
BRANCH  36  37
ATOM     37  C   UNL A   1      40.526  27.781  28.561  1.00  0.00     0.031 A 
ATOM     38  C   UNL A   1      41.929  28.002  29.052  1.00  0.00     0.074 A 
ATOM     39  C   UNL A   1      39.591  28.738  28.720  1.00  0.00     0.049 A 
ATOM     40  N   UNL A   1      42.439  29.054  29.641  1.00  0.00    -0.248 NA
ATOM     41  C   UNL A   1      42.881  26.892  28.876  1.00  0.00     0.031 C 
ATOM     42  C   UNL A   1      38.191  28.630  28.305  1.00  0.00     0.029 A 
ATOM     43  N   UNL A   1      39.681  29.995  29.263  1.00  0.00    -0.354 N 
ATOM     44  C   UNL A   1      43.764  28.732  29.902  1.00  0.00     0.074 A 
ATOM     45  C   UNL A   1      43.965  27.368  29.469  1.00  0.00     0.031 C 
ATOM     46  C   UNL A   1      37.565  29.789  28.569  1.00  0.00     0.029 A 
ATOM     47  C   UNL A   1      38.506  30.703  29.207  1.00  0.00     0.049 A 
ATOM     48  H   UNL A   1      40.510  30.353  29.656  1.00  0.00     0.167 HD
ATOM     49  C   UNL A   1      44.736  29.513  30.429  1.00  0.00     0.031 A 
ATOM     50  C   UNL A   1      38.221  31.954  29.620  1.00  0.00     0.031 A 
ATOM     51  C   UNL A   1      44.536  30.872  30.853  1.00  0.00     0.049 A 
ATOM     52  C   UNL A   1      39.307  32.784  30.248  1.00  0.00     0.074 A 
ATOM     53  C   UNL A   1      45.467  31.756  31.367  1.00  0.00     0.029 A 
ATOM     54  N   UNL A   1      43.322  31.540  30.812  1.00  0.00    -0.354 N 
ATOM     55  N   UNL A   1      40.569  32.484  30.437  1.00  0.00    -0.248 NA
ATOM     56  C   UNL A   1      38.930  34.127  30.710  1.00  0.00     0.031 C 
ATOM     57  C   UNL A   1      44.804  32.944  31.689  1.00  0.00     0.029 A 
ATOM     58  C   UNL A   1      43.474  32.819  31.318  1.00  0.00     0.049 A 
ATOM     59  H   UNL A   1      42.479  31.162  30.472  1.00  0.00     0.167 HD
ATOM     60  C   UNL A   1      41.142  33.606  31.021  1.00  0.00     0.074 A 
ATOM     61  C   UNL A   1      40.094  34.599  31.136  1.00  0.00     0.031 C 
ATOM     62  C   UNL A   1      42.421  33.794  31.426  1.00  0.00     0.031 A 
BRANCH  49  63
ATOM     63  C   UNL A   1      46.109  28.919  30.567  1.00  0.00    -0.014 A 
ATOM     64  C   UNL A   1      47.055  29.040  29.536  1.00  0.00     0.009 A 
ATOM     65  C   UNL A   1      46.484  28.285  31.762  1.00  0.00     0.009 A 
ATOM     66  C   UNL A   1      48.340  28.516  29.689  1.00  0.00     0.001 A 
ATOM     67  C   UNL A   1      47.779  27.789  31.923  1.00  0.00     0.001 A 
ATOM     68  C   UNL A   1      48.703  27.899  30.885  1.00  0.00     0.000 A 
ENDBRANCH  49  63
BRANCH  50  69
ATOM     69  C   UNL A   1      36.854  32.504  29.427  1.00  0.00    -0.014 A 
ATOM     70  C   UNL A   1      36.503  33.122  28.216  1.00  0.00     0.009 A 
ATOM     71  C   UNL A   1      35.888  32.405  30.440  1.00  0.00     0.009 A 
ATOM     72  C   UNL A   1      35.221  33.643  28.031  1.00  0.00     0.001 A 
ATOM     73  C   UNL A   1      34.597  32.901  30.242  1.00  0.00     0.001 A 
ATOM     74  C   UNL A   1      34.267  33.526  29.042  1.00  0.00     0.000 A 
ENDBRANCH  50  69
BRANCH  62  75
ATOM     75  C   UNL A   1      42.773  35.129  32.020  1.00  0.00    -0.014 A 
ATOM     76  C   UNL A   1      42.485  35.424  33.361  1.00  0.00     0.009 A 
ATOM     77  C   UNL A   1      43.483  36.068  31.253  1.00  0.00     0.009 A 
ATOM     78  C   UNL A   1      42.884  36.640  33.917  1.00  0.00     0.001 A 
ATOM     79  C   UNL A   1      43.906  37.270  31.821  1.00  0.00     0.001 A 
ATOM     80  C   UNL A   1      43.602  37.557  33.150  1.00  0.00     0.000 A 
ENDBRANCH  62  75
ENDBRANCH  36  37
ENDBRANCH  28  31
ENDBRANCH  26  27
ENDBRANCH  25  26
ENDBRANCH   1  25
TORSDOF 14
ENDMDL
