MODEL 1
REMARK VINA RESULT:     -11.3      0.000      0.000
REMARK SMILES O=C(NCCCCCCNC(=O)c1cccc(Nc2ccnc3ccc(F)cc23)c1)c1ccc(-c2c3nc(c(-c4ccccc4)c4ccc([nH]4)c(-c4ccccc4)c4nc(c(-c5ccccc5)c5ccc2[nH]5)C=C4)C=C3)cc1
REMARK SMILES IDX 6 1 5 2 4 3 3 4 1 5 2 6 31 8 32 9 78 10 33 11 77 12 34 13
REMARK SMILES IDX 35 14 36 15 71 16 37 17 76 18 70 19 72 20 38 21 75 22 69 23
REMARK SMILES IDX 68 24 39 26 61 27 46 28 60 29 47 30 50 31 59 32 73 33 48 34
REMARK SMILES IDX 49 35 58 37 74 38 51 39 40 40 41 41 45 42 42 43 44 44 43 45
REMARK SMILES IDX 62 46 63 47 67 48 64 49 66 50 65 51 52 52 53 53 57 54 54 55
REMARK SMILES IDX 56 56 55 57 7 58 8 59 9 60 10 61 11 62 12 64 13 65 14 66
REMARK SMILES IDX 30 67 15 68 17 69 16 70 18 71 19 73 20 74 29 75 21 76 23 77
REMARK SMILES IDX 28 78 22 79 24 80 26 81 25 82 27 83
REMARK H PARENT 3 7 72 25 50 36 10 63 18 72
REMARK Flexibility Score: inf
ROOT
ATOM      1  C   UNL A   1      33.933  26.364  25.865  1.00  0.00     0.002 C 
ENDROOT
BRANCH   1   2
ATOM      2  C   UNL A   1      33.414  27.692  26.418  1.00  0.00     0.021 C 
BRANCH   2   3
ATOM      3  C   UNL A   1      34.014  28.948  25.794  1.00  0.00     0.116 C 
BRANCH   3   4
ATOM      4  N   UNL A   1      33.731  30.157  26.554  1.00  0.00    -0.352 N 
ATOM      5  O   UNL A   1      33.950  31.687  28.198  1.00  0.00    -0.269 OA
ATOM      6  C   UNL A   1      34.426  30.728  27.595  1.00  0.00     0.251 C 
ATOM      7  H   UNL A   1      32.917  30.639  26.282  1.00  0.00     0.163 HD
BRANCH   6   8
ATOM      8  C   UNL A   1      35.736  30.179  28.015  1.00  0.00     0.039 A 
ATOM      9  C   UNL A   1      35.889  29.537  29.244  1.00  0.00     0.014 A 
ATOM     10  C   UNL A   1      36.828  30.291  27.148  1.00  0.00     0.014 A 
ATOM     11  C   UNL A   1      37.155  29.149  29.673  1.00  0.00     0.010 A 
ATOM     12  C   UNL A   1      38.087  29.825  27.545  1.00  0.00     0.010 A 
ATOM     13  C   UNL A   1      38.268  29.285  28.827  1.00  0.00    -0.014 A 
BRANCH  13  14
ATOM     14  C   UNL A   1      39.601  28.819  29.290  1.00  0.00     0.031 A 
ATOM     15  C   UNL A   1      40.407  29.618  30.278  1.00  0.00     0.074 A 
ATOM     16  C   UNL A   1      40.076  27.644  28.835  1.00  0.00     0.049 A 
ATOM     17  N   UNL A   1      41.565  29.332  30.820  1.00  0.00    -0.248 NA
ATOM     18  C   UNL A   1      39.845  30.907  30.711  1.00  0.00     0.031 C 
ATOM     19  C   UNL A   1      39.393  26.775  27.875  1.00  0.00     0.029 A 
ATOM     20  N   UNL A   1      41.230  26.967  29.136  1.00  0.00    -0.354 N 
ATOM     21  C   UNL A   1      41.882  30.411  31.637  1.00  0.00     0.074 A 
ATOM     22  C   UNL A   1      40.805  31.369  31.501  1.00  0.00     0.031 C 
ATOM     23  C   UNL A   1      40.113  25.656  27.707  1.00  0.00     0.029 A 
ATOM     24  C   UNL A   1      41.334  25.755  28.498  1.00  0.00     0.049 A 
ATOM     25  H   UNL A   1      41.916  27.315  29.749  1.00  0.00     0.167 HD
ATOM     26  C   UNL A   1      42.967  30.586  32.431  1.00  0.00     0.031 A 
ATOM     27  C   UNL A   1      42.307  24.826  28.535  1.00  0.00     0.031 A 
ATOM     28  C   UNL A   1      44.041  29.635  32.563  1.00  0.00     0.049 A 
ATOM     29  C   UNL A   1      43.515  25.061  29.393  1.00  0.00     0.074 A 
ATOM     30  C   UNL A   1      45.163  29.708  33.371  1.00  0.00     0.029 A 
ATOM     31  N   UNL A   1      44.131  28.442  31.862  1.00  0.00    -0.354 N 
ATOM     32  N   UNL A   1      43.777  26.068  30.190  1.00  0.00    -0.248 NA
ATOM     33  C   UNL A   1      44.559  24.029  29.355  1.00  0.00     0.031 C 
ATOM     34  C   UNL A   1      45.959  28.585  33.117  1.00  0.00     0.029 A 
ATOM     35  C   UNL A   1      45.304  27.784  32.195  1.00  0.00     0.049 A 
ATOM     36  H   UNL A   1      43.461  28.112  31.220  1.00  0.00     0.167 HD
ATOM     37  C   UNL A   1      45.007  25.781  30.766  1.00  0.00     0.074 A 
ATOM     38  C   UNL A   1      45.429  24.500  30.238  1.00  0.00     0.031 C 
ATOM     39  C   UNL A   1      45.719  26.515  31.656  1.00  0.00     0.031 A 
BRANCH  26  40
ATOM     40  C   UNL A   1      43.062  31.880  33.193  1.00  0.00    -0.014 A 
ATOM     41  C   UNL A   1      42.528  32.013  34.485  1.00  0.00     0.009 A 
ATOM     42  C   UNL A   1      43.721  32.979  32.617  1.00  0.00     0.009 A 
ATOM     43  C   UNL A   1      42.615  33.230  35.166  1.00  0.00     0.001 A 
ATOM     44  C   UNL A   1      43.831  34.185  33.311  1.00  0.00     0.001 A 
ATOM     45  C   UNL A   1      43.269  34.314  34.579  1.00  0.00     0.000 A 
ENDBRANCH  26  40
BRANCH  27  46
ATOM     46  C   UNL A   1      42.164  23.583  27.736  1.00  0.00    -0.014 A 
ATOM     47  C   UNL A   1      42.663  23.518  26.427  1.00  0.00     0.009 A 
ATOM     48  C   UNL A   1      41.555  22.446  28.290  1.00  0.00     0.009 A 
ATOM     49  C   UNL A   1      42.544  22.341  25.683  1.00  0.00     0.001 A 
ATOM     50  C   UNL A   1      41.462  21.263  27.555  1.00  0.00     0.001 A 
ATOM     51  C   UNL A   1      41.951  21.213  26.250  1.00  0.00     0.000 A 
ENDBRANCH  27  46
BRANCH  39  52
ATOM     52  C   UNL A   1      47.015  25.928  32.139  1.00  0.00    -0.014 A 
ATOM     53  C   UNL A   1      48.214  26.127  31.438  1.00  0.00     0.009 A 
ATOM     54  C   UNL A   1      47.038  25.184  33.329  1.00  0.00     0.009 A 
ATOM     55  C   UNL A   1      49.404  25.560  31.900  1.00  0.00     0.001 A 
ATOM     56  C   UNL A   1      48.234  24.643  33.803  1.00  0.00     0.001 A 
ATOM     57  C   UNL A   1      49.414  24.823  33.083  1.00  0.00     0.000 A 
ENDBRANCH  39  52
ENDBRANCH  13  14
ENDBRANCH   6   8
ENDBRANCH   3   4
ENDBRANCH   2   3
ENDBRANCH   1   2
BRANCH   1  58
ATOM     58  C   UNL A   1      33.012  25.153  26.043  1.00  0.00     0.002 C 
BRANCH  58  59
ATOM     59  C   UNL A   1      31.644  25.413  26.687  1.00  0.00     0.021 C 
BRANCH  59  60
ATOM     60  C   UNL A   1      30.429  24.825  25.968  1.00  0.00     0.116 C 
BRANCH  60  61
ATOM     61  N   UNL A   1      29.550  25.820  25.375  1.00  0.00    -0.352 N 
ATOM     62  C   UNL A   1      29.599  26.352  24.110  1.00  0.00     0.251 C 
ATOM     63  H   UNL A   1      28.827  26.154  25.955  1.00  0.00     0.163 HD
ATOM     64  O   UNL A   1      28.648  26.973  23.644  1.00  0.00    -0.269 OA
BRANCH  62  65
ATOM     65  C   UNL A   1      30.842  26.233  23.329  1.00  0.00     0.041 A 
ATOM     66  C   UNL A   1      31.582  27.401  23.120  1.00  0.00     0.014 A 
ATOM     67  C   UNL A   1      31.264  24.997  22.813  1.00  0.00     0.039 A 
ATOM     68  C   UNL A   1      32.774  27.337  22.414  1.00  0.00     0.003 A 
ATOM     69  C   UNL A   1      32.481  24.923  22.125  1.00  0.00     0.039 A 
ATOM     70  C   UNL A   1      33.220  26.107  21.937  1.00  0.00     0.026 A 
BRANCH  69  71
ATOM     71  N   UNL A   1      33.064  23.690  21.765  1.00  0.00    -0.355 N 
ATOM     72  H   UNL A   1      33.396  23.593  20.843  1.00  0.00     0.167 HD
BRANCH  71  73
ATOM     73  C   UNL A   1      33.204  22.581  22.638  1.00  0.00     0.050 A 
ATOM     74  C   UNL A   1      32.227  21.578  22.585  1.00  0.00     0.047 A 
ATOM     75  C   UNL A   1      34.221  22.489  23.620  1.00  0.00     0.027 A 
ATOM     76  C   UNL A   1      32.270  20.545  23.492  1.00  0.00     0.114 A 
ATOM     77  C   UNL A   1      34.174  21.366  24.490  1.00  0.00     0.072 A 
ATOM     78  C   UNL A   1      35.238  23.451  23.820  1.00  0.00     0.051 A 
ATOM     79  N   UNL A   1      33.224  20.424  24.429  1.00  0.00    -0.256 NA
ATOM     80  C   UNL A   1      35.138  21.224  25.477  1.00  0.00     0.032 A 
ATOM     81  C   UNL A   1      36.182  23.278  24.829  1.00  0.00     0.124 A 
ATOM     82  C   UNL A   1      36.149  22.167  25.654  1.00  0.00     0.041 A 
ATOM     83  F   UNL A   1      37.135  24.201  25.012  1.00  0.00    -0.207 F 
ENDBRANCH  71  73
ENDBRANCH  69  71
ENDBRANCH  62  65
ENDBRANCH  60  61
ENDBRANCH  59  60
ENDBRANCH  58  59
ENDBRANCH   1  58
TORSDOF 15
ENDMDL
MODEL 2
REMARK VINA RESULT:     -11.3      1.709      6.182
REMARK SMILES O=C(NCCCCCCNC(=O)c1cccc(Nc2ccnc3ccc(F)cc23)c1)c1ccc(-c2c3nc(c(-c4ccccc4)c4ccc([nH]4)c(-c4ccccc4)c4nc(c(-c5ccccc5)c5ccc2[nH]5)C=C4)C=C3)cc1
REMARK SMILES IDX 6 1 5 2 4 3 3 4 1 5 2 6 31 8 32 9 78 10 33 11 77 12 34 13
REMARK SMILES IDX 35 14 36 15 71 16 37 17 76 18 70 19 72 20 38 21 75 22 69 23
REMARK SMILES IDX 68 24 39 26 61 27 46 28 60 29 47 30 50 31 59 32 73 33 48 34
REMARK SMILES IDX 49 35 58 37 74 38 51 39 40 40 41 41 45 42 42 43 44 44 43 45
REMARK SMILES IDX 62 46 63 47 67 48 64 49 66 50 65 51 52 52 53 53 57 54 54 55
REMARK SMILES IDX 56 56 55 57 7 58 8 59 9 60 10 61 11 62 12 64 13 65 14 66
REMARK SMILES IDX 30 67 15 68 17 69 16 70 18 71 19 73 20 74 29 75 21 76 23 77
REMARK SMILES IDX 28 78 22 79 24 80 26 81 25 82 27 83
REMARK H PARENT 3 7 72 25 50 36 10 63 18 72
REMARK Flexibility Score: inf
ROOT
ATOM      1  C   UNL A   1      31.617  28.021  25.796  1.00  0.00     0.002 C 
ENDROOT
BRANCH   1   2
ATOM      2  C   UNL A   1      32.308  28.014  27.160  1.00  0.00     0.021 C 
BRANCH   2   3
ATOM      3  C   UNL A   1      33.682  28.676  27.208  1.00  0.00     0.116 C 
BRANCH   3   4
ATOM      4  N   UNL A   1      33.642  30.041  27.714  1.00  0.00    -0.352 N 
ATOM      5  O   UNL A   1      34.331  31.868  28.843  1.00  0.00    -0.269 OA
ATOM      6  C   UNL A   1      34.605  30.764  28.377  1.00  0.00     0.251 C 
ATOM      7  H   UNL A   1      32.794  30.518  27.557  1.00  0.00     0.163 HD
BRANCH   6   8
ATOM      8  C   UNL A   1      35.966  30.213  28.560  1.00  0.00     0.039 A 
ATOM      9  C   UNL A   1      36.354  29.632  29.768  1.00  0.00     0.014 A 
ATOM     10  C   UNL A   1      36.867  30.260  27.490  1.00  0.00     0.014 A 
ATOM     11  C   UNL A   1      37.676  29.241  29.959  1.00  0.00     0.010 A 
ATOM     12  C   UNL A   1      38.175  29.791  27.657  1.00  0.00     0.010 A 
ATOM     13  C   UNL A   1      38.602  29.313  28.905  1.00  0.00    -0.014 A 
BRANCH  13  14
ATOM     14  C   UNL A   1      39.996  28.846  29.121  1.00  0.00     0.031 A 
ATOM     15  C   UNL A   1      40.433  27.472  28.693  1.00  0.00     0.074 A 
ATOM     16  C   UNL A   1      40.885  29.686  29.684  1.00  0.00     0.049 A 
ATOM     17  N   UNL A   1      41.622  26.925  28.766  1.00  0.00    -0.248 NA
ATOM     18  C   UNL A   1      39.405  26.594  28.113  1.00  0.00     0.031 C 
ATOM     19  C   UNL A   1      40.587  31.044  30.145  1.00  0.00     0.029 A 
ATOM     20  N   UNL A   1      42.223  29.532  29.946  1.00  0.00    -0.354 N 
ATOM     21  C   UNL A   1      41.481  25.637  28.265  1.00  0.00     0.074 A 
ATOM     22  C   UNL A   1      40.087  25.474  27.914  1.00  0.00     0.031 C 
ATOM     23  C   UNL A   1      41.718  31.617  30.579  1.00  0.00     0.029 A 
ATOM     24  C   UNL A   1      42.806  30.650  30.487  1.00  0.00     0.049 A 
ATOM     25  H   UNL A   1      42.716  28.700  29.762  1.00  0.00     0.167 HD
ATOM     26  C   UNL A   1      42.428  24.678  28.108  1.00  0.00     0.031 A 
ATOM     27  C   UNL A   1      44.075  30.877  30.875  1.00  0.00     0.031 A 
ATOM     28  C   UNL A   1      43.815  24.837  28.462  1.00  0.00     0.049 A 
ATOM     29  C   UNL A   1      45.094  29.786  30.725  1.00  0.00     0.074 A 
ATOM     30  C   UNL A   1      44.854  23.936  28.304  1.00  0.00     0.029 A 
ATOM     31  N   UNL A   1      44.354  25.970  29.053  1.00  0.00    -0.354 N 
ATOM     32  N   UNL A   1      44.952  28.589  30.211  1.00  0.00    -0.248 NA
ATOM     33  C   UNL A   1      46.449  30.082  31.208  1.00  0.00     0.031 C 
ATOM     34  C   UNL A   1      46.011  24.503  28.852  1.00  0.00     0.029 A 
ATOM     35  C   UNL A   1      45.705  25.780  29.295  1.00  0.00     0.049 A 
ATOM     36  H   UNL A   1      43.851  26.788  29.270  1.00  0.00     0.167 HD
ATOM     37  C   UNL A   1      46.204  27.995  30.289  1.00  0.00     0.074 A 
ATOM     38  C   UNL A   1      47.094  28.970  30.885  1.00  0.00     0.031 C 
ATOM     39  C   UNL A   1      46.580  26.753  29.898  1.00  0.00     0.031 A 
BRANCH  26  40
ATOM     40  C   UNL A   1      41.980  23.350  27.560  1.00  0.00    -0.014 A 
ATOM     41  C   UNL A   1      42.044  23.063  26.186  1.00  0.00     0.009 A 
ATOM     42  C   UNL A   1      41.508  22.359  28.436  1.00  0.00     0.009 A 
ATOM     43  C   UNL A   1      41.607  21.828  25.700  1.00  0.00     0.001 A 
ATOM     44  C   UNL A   1      41.098  21.117  27.950  1.00  0.00     0.001 A 
ATOM     45  C   UNL A   1      41.137  20.856  26.583  1.00  0.00     0.000 A 
ENDBRANCH  26  40
BRANCH  27  46
ATOM     46  C   UNL A   1      44.445  32.200  31.436  1.00  0.00    -0.014 A 
ATOM     47  C   UNL A   1      44.920  33.220  30.599  1.00  0.00     0.009 A 
ATOM     48  C   UNL A   1      44.297  32.459  32.808  1.00  0.00     0.009 A 
ATOM     49  C   UNL A   1      45.251  34.471  31.126  1.00  0.00     0.001 A 
ATOM     50  C   UNL A   1      44.602  33.718  33.328  1.00  0.00     0.001 A 
ATOM     51  C   UNL A   1      45.085  34.721  32.489  1.00  0.00     0.000 A 
ENDBRANCH  27  46
BRANCH  39  52
ATOM     52  C   UNL A   1      48.028  26.393  30.072  1.00  0.00    -0.014 A 
ATOM     53  C   UNL A   1      48.497  25.801  31.255  1.00  0.00     0.009 A 
ATOM     54  C   UNL A   1      48.933  26.631  29.025  1.00  0.00     0.009 A 
ATOM     55  C   UNL A   1      49.850  25.488  31.399  1.00  0.00     0.001 A 
ATOM     56  C   UNL A   1      50.279  26.291  29.162  1.00  0.00     0.001 A 
ATOM     57  C   UNL A   1      50.739  25.729  30.352  1.00  0.00     0.000 A 
ENDBRANCH  39  52
ENDBRANCH  13  14
ENDBRANCH   6   8
ENDBRANCH   3   4
ENDBRANCH   2   3
ENDBRANCH   1   2
BRANCH   1  58
ATOM     58  C   UNL A   1      31.846  29.263  24.929  1.00  0.00     0.002 C 
BRANCH  58  59
ATOM     59  C   UNL A   1      32.310  29.022  23.487  1.00  0.00     0.021 C 
BRANCH  59  60
ATOM     60  C   UNL A   1      33.717  28.448  23.309  1.00  0.00     0.116 C 
BRANCH  60  61
ATOM     61  N   UNL A   1      33.869  27.599  22.140  1.00  0.00    -0.352 N 
ATOM     62  C   UNL A   1      33.194  26.442  21.835  1.00  0.00     0.251 C 
ATOM     63  H   UNL A   1      34.542  27.890  21.483  1.00  0.00     0.163 HD
ATOM     64  O   UNL A   1      33.218  25.972  20.701  1.00  0.00    -0.269 OA
BRANCH  62  65
ATOM     65  C   UNL A   1      32.485  25.721  22.906  1.00  0.00     0.041 A 
ATOM     66  C   UNL A   1      31.087  25.760  22.888  1.00  0.00     0.014 A 
ATOM     67  C   UNL A   1      33.186  25.028  23.906  1.00  0.00     0.039 A 
ATOM     68  C   UNL A   1      30.373  25.075  23.860  1.00  0.00     0.003 A 
ATOM     69  C   UNL A   1      32.468  24.311  24.871  1.00  0.00     0.039 A 
ATOM     70  C   UNL A   1      31.061  24.349  24.829  1.00  0.00     0.026 A 
BRANCH  69  71
ATOM     71  N   UNL A   1      33.100  23.429  25.772  1.00  0.00    -0.355 N 
ATOM     72  H   UNL A   1      33.095  23.668  26.727  1.00  0.00     0.167 HD
BRANCH  71  73
ATOM     73  C   UNL A   1      33.742  22.221  25.398  1.00  0.00     0.050 A 
ATOM     74  C   UNL A   1      32.938  21.097  25.165  1.00  0.00     0.047 A 
ATOM     75  C   UNL A   1      35.150  22.072  25.344  1.00  0.00     0.027 A 
ATOM     76  C   UNL A   1      33.532  19.883  24.909  1.00  0.00     0.114 A 
ATOM     77  C   UNL A   1      35.649  20.774  25.051  1.00  0.00     0.072 A 
ATOM     78  C   UNL A   1      36.080  23.105  25.606  1.00  0.00     0.051 A 
ATOM     79  N   UNL A   1      34.862  19.711  24.843  1.00  0.00    -0.256 NA
ATOM     80  C   UNL A   1      37.019  20.565  24.992  1.00  0.00     0.032 A 
ATOM     81  C   UNL A   1      37.448  22.852  25.547  1.00  0.00     0.124 A 
ATOM     82  C   UNL A   1      37.928  21.592  25.232  1.00  0.00     0.041 A 
ATOM     83  F   UNL A   1      38.317  23.838  25.806  1.00  0.00    -0.207 F 
ENDBRANCH  71  73
ENDBRANCH  69  71
ENDBRANCH  62  65
ENDBRANCH  60  61
ENDBRANCH  59  60
ENDBRANCH  58  59
ENDBRANCH   1  58
TORSDOF 15
ENDMDL
MODEL 3
REMARK VINA RESULT:     -11.0      0.676      5.812
REMARK SMILES O=C(NCCCCCCNC(=O)c1cccc(Nc2ccnc3ccc(F)cc23)c1)c1ccc(-c2c3nc(c(-c4ccccc4)c4ccc([nH]4)c(-c4ccccc4)c4nc(c(-c5ccccc5)c5ccc2[nH]5)C=C4)C=C3)cc1
REMARK SMILES IDX 6 1 5 2 4 3 3 4 1 5 2 6 31 8 32 9 78 10 33 11 77 12 34 13
REMARK SMILES IDX 35 14 36 15 71 16 37 17 76 18 70 19 72 20 38 21 75 22 69 23
REMARK SMILES IDX 68 24 39 26 61 27 46 28 60 29 47 30 50 31 59 32 73 33 48 34
REMARK SMILES IDX 49 35 58 37 74 38 51 39 40 40 41 41 45 42 42 43 44 44 43 45
REMARK SMILES IDX 62 46 63 47 67 48 64 49 66 50 65 51 52 52 53 53 57 54 54 55
REMARK SMILES IDX 56 56 55 57 7 58 8 59 9 60 10 61 11 62 12 64 13 65 14 66
REMARK SMILES IDX 30 67 15 68 17 69 16 70 18 71 19 73 20 74 29 75 21 76 23 77
REMARK SMILES IDX 28 78 22 79 24 80 26 81 25 82 27 83
REMARK H PARENT 3 7 72 25 50 36 10 63 18 72
REMARK Flexibility Score: inf
ROOT
ATOM      1  C   UNL A   1      34.018  26.503  25.963  1.00  0.00     0.002 C 
ENDROOT
BRANCH   1   2
ATOM      2  C   UNL A   1      33.448  27.915  26.100  1.00  0.00     0.021 C 
BRANCH   2   3
ATOM      3  C   UNL A   1      33.385  28.468  27.521  1.00  0.00     0.116 C 
BRANCH   3   4
ATOM      4  N   UNL A   1      33.440  29.922  27.572  1.00  0.00    -0.352 N 
ATOM      5  O   UNL A   1      34.271  31.962  28.060  1.00  0.00    -0.269 OA
ATOM      6  C   UNL A   1      34.465  30.752  27.961  1.00  0.00     0.251 C 
ATOM      7  H   UNL A   1      32.617  30.380  27.285  1.00  0.00     0.163 HD
BRANCH   6   8
ATOM      8  C   UNL A   1      35.798  30.198  28.289  1.00  0.00     0.039 A 
ATOM      9  C   UNL A   1      36.075  29.686  29.557  1.00  0.00     0.014 A 
ATOM     10  C   UNL A   1      36.785  30.173  27.298  1.00  0.00     0.014 A 
ATOM     11  C   UNL A   1      37.371  29.294  29.881  1.00  0.00     0.010 A 
ATOM     12  C   UNL A   1      38.067  29.701  27.600  1.00  0.00     0.010 A 
ATOM     13  C   UNL A   1      38.381  29.294  28.905  1.00  0.00    -0.014 A 
BRANCH  13  14
ATOM     14  C   UNL A   1      39.746  28.826  29.264  1.00  0.00     0.031 A 
ATOM     15  C   UNL A   1      40.250  27.479  28.822  1.00  0.00     0.074 A 
ATOM     16  C   UNL A   1      40.549  29.641  29.974  1.00  0.00     0.049 A 
ATOM     17  N   UNL A   1      41.428  26.938  29.010  1.00  0.00    -0.248 NA
ATOM     18  C   UNL A   1      39.311  26.626  28.077  1.00  0.00     0.031 C 
ATOM     19  C   UNL A   1      40.179  30.970  30.465  1.00  0.00     0.029 A 
ATOM     20  N   UNL A   1      41.847  29.482  30.387  1.00  0.00    -0.354 N 
ATOM     21  C   UNL A   1      41.367  25.677  28.430  1.00  0.00     0.074 A 
ATOM     22  C   UNL A   1      40.027  25.523  27.904  1.00  0.00     0.031 C 
ATOM     23  C   UNL A   1      41.242  31.528  31.062  1.00  0.00     0.029 A 
ATOM     24  C   UNL A   1      42.346  30.575  31.052  1.00  0.00     0.049 A 
ATOM     25  H   UNL A   1      42.370  28.665  30.222  1.00  0.00     0.167 HD
ATOM     26  C   UNL A   1      42.338  24.735  28.339  1.00  0.00     0.031 A 
ATOM     27  C   UNL A   1      43.555  30.790  31.603  1.00  0.00     0.031 A 
ATOM     28  C   UNL A   1      43.670  24.885  28.866  1.00  0.00     0.049 A 
ATOM     29  C   UNL A   1      44.600  29.716  31.521  1.00  0.00     0.074 A 
ATOM     30  C   UNL A   1      44.733  24.001  28.789  1.00  0.00     0.029 A 
ATOM     31  N   UNL A   1      44.119  25.989  29.576  1.00  0.00    -0.354 N 
ATOM     32  N   UNL A   1      44.537  28.547  30.932  1.00  0.00    -0.248 NA
ATOM     33  C   UNL A   1      45.882  29.995  32.180  1.00  0.00     0.031 C 
ATOM     34  C   UNL A   1      45.808  24.546  29.502  1.00  0.00     0.029 A 
ATOM     35  C   UNL A   1      45.433  25.796  29.970  1.00  0.00     0.049 A 
ATOM     36  H   UNL A   1      43.582  26.790  29.773  1.00  0.00     0.167 HD
ATOM     37  C   UNL A   1      45.778  27.959  31.131  1.00  0.00     0.074 A 
ATOM     38  C   UNL A   1      46.577  28.907  31.879  1.00  0.00     0.031 C 
ATOM     39  C   UNL A   1      46.216  26.742  30.724  1.00  0.00     0.031 A 
BRANCH  26  40
ATOM     40  C   UNL A   1      41.978  23.435  27.672  1.00  0.00    -0.014 A 
ATOM     41  C   UNL A   1      41.261  22.436  28.351  1.00  0.00     0.009 A 
ATOM     42  C   UNL A   1      42.341  23.216  26.333  1.00  0.00     0.009 A 
ATOM     43  C   UNL A   1      40.953  21.230  27.715  1.00  0.00     0.001 A 
ATOM     44  C   UNL A   1      42.007  22.021  25.692  1.00  0.00     0.001 A 
ATOM     45  C   UNL A   1      41.324  21.025  26.386  1.00  0.00     0.000 A 
ENDBRANCH  26  40
BRANCH  27  46
ATOM     46  C   UNL A   1      43.837  32.084  32.272  1.00  0.00    -0.014 A 
ATOM     47  C   UNL A   1      43.583  32.247  33.642  1.00  0.00     0.009 A 
ATOM     48  C   UNL A   1      44.389  33.154  31.550  1.00  0.00     0.009 A 
ATOM     49  C   UNL A   1      43.867  33.460  34.273  1.00  0.00     0.001 A 
ATOM     50  C   UNL A   1      44.697  34.356  32.190  1.00  0.00     0.001 A 
ATOM     51  C   UNL A   1      44.429  34.511  33.549  1.00  0.00     0.000 A 
ENDBRANCH  27  46
BRANCH  39  52
ATOM     52  C   UNL A   1      47.637  26.383  31.054  1.00  0.00    -0.014 A 
ATOM     53  C   UNL A   1      48.687  26.665  30.166  1.00  0.00     0.009 A 
ATOM     54  C   UNL A   1      47.931  25.774  32.284  1.00  0.00     0.009 A 
ATOM     55  C   UNL A   1      49.998  26.311  30.489  1.00  0.00     0.001 A 
ATOM     56  C   UNL A   1      49.246  25.446  32.615  1.00  0.00     0.001 A 
ATOM     57  C   UNL A   1      50.278  25.706  31.714  1.00  0.00     0.000 A 
ENDBRANCH  39  52
ENDBRANCH  13  14
ENDBRANCH   6   8
ENDBRANCH   3   4
ENDBRANCH   2   3
ENDBRANCH   1   2
BRANCH   1  58
ATOM     58  C   UNL A   1      32.995  25.368  25.868  1.00  0.00     0.002 C 
BRANCH  58  59
ATOM     59  C   UNL A   1      31.670  25.567  26.617  1.00  0.00     0.021 C 
BRANCH  59  60
ATOM     60  C   UNL A   1      30.438  24.888  26.017  1.00  0.00     0.116 C 
BRANCH  60  61
ATOM     61  N   UNL A   1      29.514  25.801  25.367  1.00  0.00    -0.352 N 
ATOM     62  C   UNL A   1      29.530  26.247  24.068  1.00  0.00     0.251 C 
ATOM     63  H   UNL A   1      28.782  26.144  25.930  1.00  0.00     0.163 HD
ATOM     64  O   UNL A   1      28.550  26.793  23.570  1.00  0.00    -0.269 OA
BRANCH  62  65
ATOM     65  C   UNL A   1      30.771  26.126  23.284  1.00  0.00     0.041 A 
ATOM     66  C   UNL A   1      31.489  27.300  23.036  1.00  0.00     0.014 A 
ATOM     67  C   UNL A   1      31.212  24.883  22.802  1.00  0.00     0.039 A 
ATOM     68  C   UNL A   1      32.678  27.237  22.325  1.00  0.00     0.003 A 
ATOM     69  C   UNL A   1      32.427  24.811  22.110  1.00  0.00     0.039 A 
ATOM     70  C   UNL A   1      33.144  26.001  21.882  1.00  0.00     0.026 A 
BRANCH  69  71
ATOM     71  N   UNL A   1      33.030  23.577  21.783  1.00  0.00    -0.355 N 
ATOM     72  H   UNL A   1      33.367  23.462  20.865  1.00  0.00     0.167 HD
BRANCH  71  73
ATOM     73  C   UNL A   1      33.184  22.494  22.684  1.00  0.00     0.050 A 
ATOM     74  C   UNL A   1      32.215  21.481  22.662  1.00  0.00     0.047 A 
ATOM     75  C   UNL A   1      34.206  22.436  23.664  1.00  0.00     0.027 A 
ATOM     76  C   UNL A   1      32.271  20.473  23.597  1.00  0.00     0.114 A 
ATOM     77  C   UNL A   1      34.173  21.337  24.563  1.00  0.00     0.072 A 
ATOM     78  C   UNL A   1      35.216  23.412  23.834  1.00  0.00     0.051 A 
ATOM     79  N   UNL A   1      33.231  20.385  24.532  1.00  0.00    -0.256 NA
ATOM     80  C   UNL A   1      35.143  21.230  25.549  1.00  0.00     0.032 A 
ATOM     81  C   UNL A   1      36.166  23.274  24.842  1.00  0.00     0.124 A 
ATOM     82  C   UNL A   1      36.146  22.185  25.697  1.00  0.00     0.041 A 
ATOM     83  F   UNL A   1      37.111  24.210  24.996  1.00  0.00    -0.207 F 
ENDBRANCH  71  73
ENDBRANCH  69  71
ENDBRANCH  62  65
ENDBRANCH  60  61
ENDBRANCH  59  60
ENDBRANCH  58  59
ENDBRANCH   1  58
TORSDOF 15
ENDMDL
