MODEL 1
REMARK VINA RESULT:     -11.6      0.000      0.000
REMARK SMILES C[C@H](NC(=O)CCN1C(=O)/C(=C/c2ccc([N+](=O)[O-])cc2)SC1=S)C(=O)NCCCCCCNC(=O)c1ccc(-c2c3nc(c(-c4ccccc4)c4ccc([nH]4)c(-c4ccccc4)c4nc(c(-c5ccccc5)c5ccc2[nH]5)C=C4)C=C3)cc1
REMARK SMILES IDX 28 1 27 2 25 3 26 4 2 6 1 7 3 8 4 9 5 11 6 12 7 13 8 14 9 15
REMARK SMILES IDX 23 16 10 17 11 18 22 19 24 20 12 21 13 22 14 23 21 24 15 25
REMARK SMILES IDX 20 26 16 27 17 28 18 29 19 30 29 31 30 32 31 33 32 34 33 35
REMARK SMILES IDX 34 36 35 37 36 39 37 40 38 41 84 42 39 43 83 44 40 45 41 46
REMARK SMILES IDX 42 47 77 48 43 49 82 50 76 51 78 52 44 53 81 54 75 55 74 56
REMARK SMILES IDX 45 58 67 59 52 60 66 61 53 62 56 63 65 64 79 65 54 66 55 67
REMARK SMILES IDX 64 69 80 70 57 71 46 72 47 73 51 74 48 75 50 76 49 77 68 78
REMARK SMILES IDX 69 79 73 80 70 81 72 82 71 83 58 84 59 85 63 86 60 87 62 88
REMARK SMILES IDX 61 89
REMARK H PARENT 27 5 3 10 34 38 78 57 56 68
REMARK Flexibility Score: inf
ROOT
ATOM      1  C   UNL A   1      31.331  28.064  27.183  1.00  0.00     0.116 C 
ENDROOT
BRANCH   1   2
ATOM      2  N   UNL A   1      31.093  26.702  26.751  1.00  0.00    -0.354 N 
ATOM      3  C   UNL A   1      30.759  26.278  25.495  1.00  0.00     0.242 C 
ATOM      4  O   UNL A   1      30.294  25.147  25.354  1.00  0.00    -0.273 OA
ATOM      5  H   UNL A   1      31.182  26.003  27.440  1.00  0.00     0.163 HD
BRANCH   3   6
ATOM      6  C   UNL A   1      31.029  27.210  24.293  1.00  0.00     0.168 C 
ATOM      7  C   UNL A   1      29.679  27.648  23.771  1.00  0.00     0.041 C 
BRANCH   6   8
ATOM      8  N   UNL A   1      31.820  26.749  23.163  1.00  0.00    -0.345 N 
ATOM      9  C   UNL A   1      33.188  26.645  23.100  1.00  0.00     0.222 C 
ATOM     10  H   UNL A   1      31.321  26.484  22.357  1.00  0.00     0.164 HD
ATOM     11  O   UNL A   1      33.701  26.585  21.980  1.00  0.00    -0.275 OA
BRANCH   9  12
ATOM     12  C   UNL A   1      34.058  26.515  24.367  1.00  0.00     0.122 C 
BRANCH  12  13
ATOM     13  C   UNL A   1      34.020  25.220  25.229  1.00  0.00     0.137 C 
BRANCH  13  14
ATOM     14  N   UNL A   1      34.451  23.918  24.617  1.00  0.00    -0.292 N 
ATOM     15  C   UNL A   1      33.596  23.176  23.811  1.00  0.00     0.266 C 
ATOM     16  C   UNL A   1      35.622  23.253  24.972  1.00  0.00     0.148 C 
ATOM     17  O   UNL A   1      32.642  23.589  23.171  1.00  0.00    -0.268 OA
ATOM     18  C   UNL A   1      33.907  21.717  23.971  1.00  0.00     0.081 C 
ATOM     19  S   UNL A   1      35.540  21.554  24.455  1.00  0.00    -0.054 SA
ATOM     20  S   UNL A   1      36.904  23.827  25.875  1.00  0.00    -0.052 S 
ATOM     21  C   UNL A   1      32.906  20.819  23.975  1.00  0.00     0.029 C 
BRANCH  21  22
ATOM     22  C   UNL A   1      32.853  19.382  24.328  1.00  0.00    -0.024 A 
ATOM     23  C   UNL A   1      32.802  19.061  25.696  1.00  0.00     0.015 A 
ATOM     24  C   UNL A   1      32.978  18.328  23.409  1.00  0.00     0.015 A 
ATOM     25  C   UNL A   1      32.792  17.733  26.139  1.00  0.00     0.086 A 
ATOM     26  C   UNL A   1      32.974  16.988  23.840  1.00  0.00     0.086 A 
ATOM     27  C   UNL A   1      32.855  16.696  25.205  1.00  0.00     0.269 A 
BRANCH  27  28
ATOM     28  N   UNL A   1      32.784  15.300  25.661  1.00  0.00     0.062 N 
ATOM     29  O   UNL A   1      33.661  14.519  25.265  1.00  0.00    -0.258 OA
ATOM     30  O   UNL A   1      31.858  14.989  26.424  1.00  0.00    -0.258 OA
ENDBRANCH  27  28
ENDBRANCH  21  22
ENDBRANCH  13  14
ENDBRANCH  12  13
ENDBRANCH   9  12
ENDBRANCH   6   8
ENDBRANCH   3   6
ENDBRANCH   1   2
BRANCH   1  31
ATOM     31  C   UNL A   1      32.793  28.411  27.084  1.00  0.00     0.021 C 
BRANCH  31  32
ATOM     32  C   UNL A   1      33.027  29.811  26.520  1.00  0.00     0.002 C 
BRANCH  32  33
ATOM     33  C   UNL A   1      31.783  30.511  25.956  1.00  0.00     0.002 C 
BRANCH  33  34
ATOM     34  C   UNL A   1      31.467  31.876  26.568  1.00  0.00     0.021 C 
BRANCH  34  35
ATOM     35  C   UNL A   1      32.648  32.549  27.255  1.00  0.00     0.116 C 
BRANCH  35  36
ATOM     36  N   UNL A   1      32.372  33.928  27.613  1.00  0.00    -0.352 N 
ATOM     37  C   UNL A   1      33.042  34.717  28.504  1.00  0.00     0.251 C 
ATOM     38  H   UNL A   1      31.606  34.347  27.157  1.00  0.00     0.163 HD
ATOM     39  O   UNL A   1      32.620  35.832  28.806  1.00  0.00    -0.269 OA
BRANCH  37  40
ATOM     40  C   UNL A   1      34.266  34.188  29.126  1.00  0.00     0.039 A 
ATOM     41  C   UNL A   1      34.144  33.368  30.246  1.00  0.00     0.014 A 
ATOM     42  C   UNL A   1      35.518  34.454  28.560  1.00  0.00     0.014 A 
ATOM     43  C   UNL A   1      35.285  32.777  30.782  1.00  0.00     0.010 A 
ATOM     44  C   UNL A   1      36.639  33.798  29.045  1.00  0.00     0.010 A 
ATOM     45  C   UNL A   1      36.536  32.966  30.169  1.00  0.00    -0.014 A 
BRANCH  45  46
ATOM     46  C   UNL A   1      37.749  32.311  30.707  1.00  0.00     0.031 A 
ATOM     47  C   UNL A   1      38.423  32.873  31.927  1.00  0.00     0.074 A 
ATOM     48  C   UNL A   1      38.259  31.236  30.077  1.00  0.00     0.049 A 
ATOM     49  N   UNL A   1      39.506  32.458  32.533  1.00  0.00    -0.248 NA
ATOM     50  C   UNL A   1      37.817  34.072  32.529  1.00  0.00     0.031 C 
ATOM     51  C   UNL A   1      37.708  30.620  28.868  1.00  0.00     0.029 A 
ATOM     52  N   UNL A   1      39.356  30.468  30.372  1.00  0.00    -0.354 N 
ATOM     53  C   UNL A   1      39.712  33.347  33.580  1.00  0.00     0.074 A 
ATOM     54  C   UNL A   1      38.683  34.358  33.489  1.00  0.00     0.031 C 
ATOM     55  C   UNL A   1      38.447  29.546  28.547  1.00  0.00     0.029 A 
ATOM     56  C   UNL A   1      39.547  29.426  29.498  1.00  0.00     0.049 A 
ATOM     57  H   UNL A   1      39.949  30.647  31.136  1.00  0.00     0.167 HD
ATOM     58  C   UNL A   1      40.658  33.311  34.547  1.00  0.00     0.031 A 
ATOM     59  C   UNL A   1      40.505  28.481  29.467  1.00  0.00     0.031 A 
ATOM     60  C   UNL A   1      41.680  32.303  34.633  1.00  0.00     0.049 A 
ATOM     61  C   UNL A   1      41.568  28.485  30.530  1.00  0.00     0.074 A 
ATOM     62  C   UNL A   1      42.664  32.153  35.595  1.00  0.00     0.029 A 
ATOM     63  N   UNL A   1      41.851  31.274  33.719  1.00  0.00    -0.354 N 
ATOM     64  N   UNL A   1      41.715  29.297  31.549  1.00  0.00    -0.248 NA
ATOM     65  C   UNL A   1      42.591  27.435  30.443  1.00  0.00     0.031 C 
ATOM     66  C   UNL A   1      43.466  31.068  35.230  1.00  0.00     0.029 A 
ATOM     67  C   UNL A   1      42.942  30.501  34.079  1.00  0.00     0.049 A 
ATOM     68  H   UNL A   1      41.281  31.117  32.931  1.00  0.00     0.167 HD
ATOM     69  C   UNL A   1      42.829  28.839  32.241  1.00  0.00     0.074 A 
ATOM     70  C   UNL A   1      43.305  27.667  31.534  1.00  0.00     0.031 C 
ATOM     71  C   UNL A   1      43.403  29.340  33.361  1.00  0.00     0.031 A 
BRANCH  58  72
ATOM     72  C   UNL A   1      40.632  34.402  35.581  1.00  0.00    -0.014 A 
ATOM     73  C   UNL A   1      39.925  34.248  36.785  1.00  0.00     0.009 A 
ATOM     74  C   UNL A   1      41.346  35.590  35.363  1.00  0.00     0.009 A 
ATOM     75  C   UNL A   1      39.902  35.276  37.730  1.00  0.00     0.001 A 
ATOM     76  C   UNL A   1      41.349  36.603  36.324  1.00  0.00     0.001 A 
ATOM     77  C   UNL A   1      40.618  36.450  37.502  1.00  0.00     0.000 A 
ENDBRANCH  58  72
BRANCH  59  78
ATOM     78  C   UNL A   1      40.492  27.441  28.405  1.00  0.00    -0.014 A 
ATOM     79  C   UNL A   1      41.019  27.713  27.133  1.00  0.00     0.009 A 
ATOM     80  C   UNL A   1      39.947  26.171  28.655  1.00  0.00     0.009 A 
ATOM     81  C   UNL A   1      40.976  26.746  26.127  1.00  0.00     0.001 A 
ATOM     82  C   UNL A   1      39.935  25.195  27.656  1.00  0.00     0.001 A 
ATOM     83  C   UNL A   1      40.440  25.487  26.390  1.00  0.00     0.000 A 
ENDBRANCH  59  78
BRANCH  71  84
ATOM     84  C   UNL A   1      44.589  28.600  33.916  1.00  0.00    -0.014 A 
ATOM     85  C   UNL A   1      44.440  27.605  34.894  1.00  0.00     0.009 A 
ATOM     86  C   UNL A   1      45.872  28.876  33.415  1.00  0.00     0.009 A 
ATOM     87  C   UNL A   1      45.556  26.926  35.385  1.00  0.00     0.001 A 
ATOM     88  C   UNL A   1      46.981  28.172  33.885  1.00  0.00     0.001 A 
ATOM     89  C   UNL A   1      46.824  27.206  34.876  1.00  0.00     0.000 A 
ENDBRANCH  71  84
ENDBRANCH  45  46
ENDBRANCH  37  40
ENDBRANCH  35  36
ENDBRANCH  34  35
ENDBRANCH  33  34
ENDBRANCH  32  33
ENDBRANCH  31  32
ENDBRANCH   1  31
TORSDOF 19
ENDMDL
MODEL 2
REMARK VINA RESULT:     -11.0      2.375      3.114
REMARK SMILES C[C@H](NC(=O)CCN1C(=O)/C(=C/c2ccc([N+](=O)[O-])cc2)SC1=S)C(=O)NCCCCCCNC(=O)c1ccc(-c2c3nc(c(-c4ccccc4)c4ccc([nH]4)c(-c4ccccc4)c4nc(c(-c5ccccc5)c5ccc2[nH]5)C=C4)C=C3)cc1
REMARK SMILES IDX 28 1 27 2 25 3 26 4 2 6 1 7 3 8 4 9 5 11 6 12 7 13 8 14 9 15
REMARK SMILES IDX 23 16 10 17 11 18 22 19 24 20 12 21 13 22 14 23 21 24 15 25
REMARK SMILES IDX 20 26 16 27 17 28 18 29 19 30 29 31 30 32 31 33 32 34 33 35
REMARK SMILES IDX 34 36 35 37 36 39 37 40 38 41 84 42 39 43 83 44 40 45 41 46
REMARK SMILES IDX 42 47 77 48 43 49 82 50 76 51 78 52 44 53 81 54 75 55 74 56
REMARK SMILES IDX 45 58 67 59 52 60 66 61 53 62 56 63 65 64 79 65 54 66 55 67
REMARK SMILES IDX 64 69 80 70 57 71 46 72 47 73 51 74 48 75 50 76 49 77 68 78
REMARK SMILES IDX 69 79 73 80 70 81 72 82 71 83 58 84 59 85 63 86 60 87 62 88
REMARK SMILES IDX 61 89
REMARK H PARENT 27 5 3 10 34 38 78 57 56 68
REMARK Flexibility Score: inf
ROOT
ATOM      1  C   UNL A   1      33.001  29.262  23.893  1.00  0.00     0.116 C 
ENDROOT
BRANCH   1   2
ATOM      2  N   UNL A   1      33.564  28.455  22.831  1.00  0.00    -0.354 N 
ATOM      3  C   UNL A   1      33.075  27.277  22.338  1.00  0.00     0.242 C 
ATOM      4  O   UNL A   1      33.815  26.562  21.662  1.00  0.00    -0.273 OA
ATOM      5  H   UNL A   1      34.392  28.792  22.416  1.00  0.00     0.163 HD
BRANCH   3   6
ATOM      6  C   UNL A   1      31.597  26.911  22.600  1.00  0.00     0.168 C 
ATOM      7  C   UNL A   1      30.774  28.118  22.204  1.00  0.00     0.041 C 
BRANCH   6   8
ATOM      8  N   UNL A   1      31.163  26.486  23.921  1.00  0.00    -0.345 N 
ATOM      9  C   UNL A   1      30.563  25.295  24.250  1.00  0.00     0.222 C 
ATOM     10  H   UNL A   1      31.314  27.120  24.658  1.00  0.00     0.164 HD
ATOM     11  O   UNL A   1      29.948  25.245  25.317  1.00  0.00    -0.275 OA
BRANCH   9  12
ATOM     12  C   UNL A   1      30.717  24.033  23.376  1.00  0.00     0.122 C 
BRANCH  12  13
ATOM     13  C   UNL A   1      31.679  22.884  23.801  1.00  0.00     0.137 C 
BRANCH  13  14
ATOM     14  N   UNL A   1      32.948  23.222  24.530  1.00  0.00    -0.292 N 
ATOM     15  C   UNL A   1      34.154  23.376  23.856  1.00  0.00     0.266 C 
ATOM     16  C   UNL A   1      33.069  23.189  25.916  1.00  0.00     0.148 C 
ATOM     17  O   UNL A   1      34.310  23.670  22.681  1.00  0.00    -0.268 OA
ATOM     18  C   UNL A   1      35.279  22.947  24.750  1.00  0.00     0.081 C 
ATOM     19  S   UNL A   1      34.785  23.127  26.379  1.00  0.00    -0.054 SA
ATOM     20  S   UNL A   1      31.856  23.074  27.058  1.00  0.00    -0.052 S 
ATOM     21  C   UNL A   1      36.331  22.290  24.230  1.00  0.00     0.029 C 
BRANCH  21  22
ATOM     22  C   UNL A   1      37.457  21.555  24.849  1.00  0.00    -0.024 A 
ATOM     23  C   UNL A   1      38.443  22.321  25.496  1.00  0.00     0.015 A 
ATOM     24  C   UNL A   1      37.672  20.173  24.728  1.00  0.00     0.015 A 
ATOM     25  C   UNL A   1      39.570  21.727  26.077  1.00  0.00     0.086 A 
ATOM     26  C   UNL A   1      38.803  19.563  25.304  1.00  0.00     0.086 A 
ATOM     27  C   UNL A   1      39.736  20.343  25.999  1.00  0.00     0.269 A 
BRANCH  27  28
ATOM     28  N   UNL A   1      40.887  19.709  26.659  1.00  0.00     0.062 N 
ATOM     29  O   UNL A   1      40.969  19.807  27.893  1.00  0.00    -0.258 OA
ATOM     30  O   UNL A   1      41.699  19.104  25.946  1.00  0.00    -0.258 OA
ENDBRANCH  27  28
ENDBRANCH  21  22
ENDBRANCH  13  14
ENDBRANCH  12  13
ENDBRANCH   9  12
ENDBRANCH   6   8
ENDBRANCH   3   6
ENDBRANCH   1   2
BRANCH   1  31
ATOM     31  C   UNL A   1      33.593  28.885  25.225  1.00  0.00     0.021 C 
BRANCH  31  32
ATOM     32  C   UNL A   1      32.949  29.639  26.388  1.00  0.00     0.002 C 
BRANCH  32  33
ATOM     33  C   UNL A   1      31.684  30.435  26.038  1.00  0.00     0.002 C 
BRANCH  33  34
ATOM     34  C   UNL A   1      31.476  31.718  26.842  1.00  0.00     0.021 C 
BRANCH  34  35
ATOM     35  C   UNL A   1      32.746  32.521  27.090  1.00  0.00     0.116 C 
BRANCH  35  36
ATOM     36  N   UNL A   1      32.471  33.887  27.497  1.00  0.00    -0.352 N 
ATOM     37  C   UNL A   1      33.123  34.632  28.438  1.00  0.00     0.251 C 
ATOM     38  H   UNL A   1      31.721  34.330  27.038  1.00  0.00     0.163 HD
ATOM     39  O   UNL A   1      32.702  35.737  28.773  1.00  0.00    -0.269 OA
BRANCH  37  40
ATOM     40  C   UNL A   1      34.326  34.067  29.070  1.00  0.00     0.039 A 
ATOM     41  C   UNL A   1      34.166  33.194  30.143  1.00  0.00     0.014 A 
ATOM     42  C   UNL A   1      35.595  34.355  28.556  1.00  0.00     0.014 A 
ATOM     43  C   UNL A   1      35.288  32.573  30.684  1.00  0.00     0.010 A 
ATOM     44  C   UNL A   1      36.699  33.671  29.042  1.00  0.00     0.010 A 
ATOM     45  C   UNL A   1      36.558  32.785  30.120  1.00  0.00    -0.014 A 
BRANCH  45  46
ATOM     46  C   UNL A   1      37.752  32.099  30.662  1.00  0.00     0.031 A 
ATOM     47  C   UNL A   1      38.361  32.567  31.954  1.00  0.00     0.074 A 
ATOM     48  C   UNL A   1      38.304  31.082  29.974  1.00  0.00     0.049 A 
ATOM     49  N   UNL A   1      39.418  32.114  32.577  1.00  0.00    -0.248 NA
ATOM     50  C   UNL A   1      37.713  33.710  32.620  1.00  0.00     0.031 C 
ATOM     51  C   UNL A   1      37.818  30.561  28.695  1.00  0.00     0.029 A 
ATOM     52  N   UNL A   1      39.395  30.302  30.260  1.00  0.00    -0.354 N 
ATOM     53  C   UNL A   1      39.564  32.918  33.699  1.00  0.00     0.074 A 
ATOM     54  C   UNL A   1      38.529  33.925  33.640  1.00  0.00     0.031 C 
ATOM     55  C   UNL A   1      38.584  29.521  28.325  1.00  0.00     0.029 A 
ATOM     56  C   UNL A   1      39.639  29.334  29.316  1.00  0.00     0.049 A 
ATOM     57  H   UNL A   1      39.949  30.424  31.063  1.00  0.00     0.167 HD
ATOM     58  C   UNL A   1      40.464  32.812  34.705  1.00  0.00     0.031 A 
ATOM     59  C   UNL A   1      40.608  28.402  29.256  1.00  0.00     0.031 A 
ATOM     60  C   UNL A   1      41.492  31.808  34.760  1.00  0.00     0.049 A 
ATOM     61  C   UNL A   1      41.620  28.330  30.366  1.00  0.00     0.074 A 
ATOM     62  C   UNL A   1      42.431  31.589  35.753  1.00  0.00     0.029 A 
ATOM     63  N   UNL A   1      41.718  30.857  33.776  1.00  0.00    -0.354 N 
ATOM     64  N   UNL A   1      41.709  29.059  31.452  1.00  0.00    -0.248 NA
ATOM     65  C   UNL A   1      42.658  27.298  30.245  1.00  0.00     0.031 C 
ATOM     66  C   UNL A   1      43.263  30.543  35.342  1.00  0.00     0.029 A 
ATOM     67  C   UNL A   1      42.800  30.067  34.126  1.00  0.00     0.049 A 
ATOM     68  H   UNL A   1      41.189  30.759  32.952  1.00  0.00     0.167 HD
ATOM     69  C   UNL A   1      42.794  28.556  32.158  1.00  0.00     0.074 A 
ATOM     70  C   UNL A   1      43.317  27.448  31.384  1.00  0.00     0.031 C 
ATOM     71  C   UNL A   1      43.309  28.970  33.341  1.00  0.00     0.031 A 
BRANCH  58  72
ATOM     72  C   UNL A   1      40.377  33.816  35.820  1.00  0.00    -0.014 A 
ATOM     73  C   UNL A   1      39.482  33.642  36.890  1.00  0.00     0.009 A 
ATOM     74  C   UNL A   1      41.217  34.940  35.818  1.00  0.00     0.009 A 
ATOM     75  C   UNL A   1      39.406  34.591  37.912  1.00  0.00     0.001 A 
ATOM     76  C   UNL A   1      41.162  35.869  36.858  1.00  0.00     0.001 A 
ATOM     77  C   UNL A   1      40.250  35.700  37.898  1.00  0.00     0.000 A 
ENDBRANCH  58  72
BRANCH  59  78
ATOM     78  C   UNL A   1      40.658  27.450  28.115  1.00  0.00    -0.014 A 
ATOM     79  C   UNL A   1      40.006  26.210  28.193  1.00  0.00     0.009 A 
ATOM     80  C   UNL A   1      41.361  27.775  26.944  1.00  0.00     0.009 A 
ATOM     81  C   UNL A   1      40.081  25.303  27.133  1.00  0.00     0.001 A 
ATOM     82  C   UNL A   1      41.407  26.879  25.874  1.00  0.00     0.001 A 
ATOM     83  C   UNL A   1      40.777  25.640  25.973  1.00  0.00     0.000 A 
ENDBRANCH  59  78
BRANCH  71  84
ATOM     84  C   UNL A   1      44.475  28.198  33.891  1.00  0.00    -0.014 A 
ATOM     85  C   UNL A   1      44.290  27.026  34.640  1.00  0.00     0.009 A 
ATOM     86  C   UNL A   1      45.783  28.630  33.615  1.00  0.00     0.009 A 
ATOM     87  C   UNL A   1      45.391  26.322  35.132  1.00  0.00     0.001 A 
ATOM     88  C   UNL A   1      46.881  27.906  34.080  1.00  0.00     0.001 A 
ATOM     89  C   UNL A   1      46.684  26.758  34.847  1.00  0.00     0.000 A 
ENDBRANCH  71  84
ENDBRANCH  45  46
ENDBRANCH  37  40
ENDBRANCH  35  36
ENDBRANCH  34  35
ENDBRANCH  33  34
ENDBRANCH  32  33
ENDBRANCH  31  32
ENDBRANCH   1  31
TORSDOF 19
ENDMDL
MODEL 3
REMARK VINA RESULT:     -10.6      2.624      3.786
REMARK SMILES C[C@H](NC(=O)CCN1C(=O)/C(=C/c2ccc([N+](=O)[O-])cc2)SC1=S)C(=O)NCCCCCCNC(=O)c1ccc(-c2c3nc(c(-c4ccccc4)c4ccc([nH]4)c(-c4ccccc4)c4nc(c(-c5ccccc5)c5ccc2[nH]5)C=C4)C=C3)cc1
REMARK SMILES IDX 28 1 27 2 25 3 26 4 2 6 1 7 3 8 4 9 5 11 6 12 7 13 8 14 9 15
REMARK SMILES IDX 23 16 10 17 11 18 22 19 24 20 12 21 13 22 14 23 21 24 15 25
REMARK SMILES IDX 20 26 16 27 17 28 18 29 19 30 29 31 30 32 31 33 32 34 33 35
REMARK SMILES IDX 34 36 35 37 36 39 37 40 38 41 84 42 39 43 83 44 40 45 41 46
REMARK SMILES IDX 42 47 77 48 43 49 82 50 76 51 78 52 44 53 81 54 75 55 74 56
REMARK SMILES IDX 45 58 67 59 52 60 66 61 53 62 56 63 65 64 79 65 54 66 55 67
REMARK SMILES IDX 64 69 80 70 57 71 46 72 47 73 51 74 48 75 50 76 49 77 68 78
REMARK SMILES IDX 69 79 73 80 70 81 72 82 71 83 58 84 59 85 63 86 60 87 62 88
REMARK SMILES IDX 61 89
REMARK H PARENT 27 5 3 10 34 38 78 57 56 68
REMARK Flexibility Score: inf
ROOT
ATOM      1  C   UNL A   1      34.601  29.227  27.159  1.00  0.00     0.116 C 
ENDROOT
BRANCH   1   2
ATOM      2  N   UNL A   1      34.007  29.656  25.910  1.00  0.00    -0.354 N 
ATOM      3  C   UNL A   1      33.024  29.024  25.200  1.00  0.00     0.242 C 
ATOM      4  O   UNL A   1      32.843  29.338  24.024  1.00  0.00    -0.273 OA
ATOM      5  H   UNL A   1      34.350  30.497  25.528  1.00  0.00     0.163 HD
BRANCH   3   6
ATOM      6  C   UNL A   1      32.139  27.979  25.915  1.00  0.00     0.168 C 
ATOM      7  C   UNL A   1      31.687  28.608  27.215  1.00  0.00     0.041 C 
BRANCH   6   8
ATOM      8  N   UNL A   1      32.655  26.653  26.214  1.00  0.00    -0.345 N 
ATOM      9  C   UNL A   1      31.958  25.470  26.183  1.00  0.00     0.222 C 
ATOM     10  H   UNL A   1      33.604  26.597  26.466  1.00  0.00     0.164 HD
ATOM     11  O   UNL A   1      32.437  24.513  26.797  1.00  0.00    -0.275 OA
BRANCH   9  12
ATOM     12  C   UNL A   1      30.674  25.297  25.345  1.00  0.00     0.122 C 
BRANCH  12  13
ATOM     13  C   UNL A   1      30.701  24.510  24.003  1.00  0.00     0.137 C 
BRANCH  13  14
ATOM     14  N   UNL A   1      32.007  23.967  23.495  1.00  0.00    -0.292 N 
ATOM     15  C   UNL A   1      32.476  22.720  23.887  1.00  0.00     0.266 C 
ATOM     16  C   UNL A   1      32.933  24.732  22.792  1.00  0.00     0.148 C 
ATOM     17  O   UNL A   1      31.816  21.777  24.294  1.00  0.00    -0.268 OA
ATOM     18  C   UNL A   1      33.976  22.740  23.909  1.00  0.00     0.081 C 
ATOM     19  S   UNL A   1      34.524  23.939  22.818  1.00  0.00    -0.054 SA
ATOM     20  S   UNL A   1      32.727  26.244  22.115  1.00  0.00    -0.052 S 
ATOM     21  C   UNL A   1      34.637  22.075  24.873  1.00  0.00     0.029 C 
BRANCH  21  22
ATOM     22  C   UNL A   1      36.055  22.080  25.299  1.00  0.00    -0.024 A 
ATOM     23  C   UNL A   1      36.570  23.291  25.796  1.00  0.00     0.015 A 
ATOM     24  C   UNL A   1      36.946  21.009  25.126  1.00  0.00     0.015 A 
ATOM     25  C   UNL A   1      37.909  23.415  26.186  1.00  0.00     0.086 A 
ATOM     26  C   UNL A   1      38.296  21.121  25.510  1.00  0.00     0.086 A 
ATOM     27  C   UNL A   1      38.766  22.319  26.063  1.00  0.00     0.269 A 
BRANCH  27  28
ATOM     28  N   UNL A   1      40.156  22.426  26.527  1.00  0.00     0.062 N 
ATOM     29  O   UNL A   1      40.359  22.991  27.612  1.00  0.00    -0.258 OA
ATOM     30  O   UNL A   1      41.042  21.936  25.813  1.00  0.00    -0.258 OA
ENDBRANCH  27  28
ENDBRANCH  21  22
ENDBRANCH  13  14
ENDBRANCH  12  13
ENDBRANCH   9  12
ENDBRANCH   6   8
ENDBRANCH   3   6
ENDBRANCH   1   2
BRANCH   1  31
ATOM     31  C   UNL A   1      34.955  30.412  28.019  1.00  0.00     0.021 C 
BRANCH  31  32
ATOM     32  C   UNL A   1      34.041  31.611  27.771  1.00  0.00     0.002 C 
BRANCH  32  33
ATOM     33  C   UNL A   1      34.374  32.872  28.580  1.00  0.00     0.002 C 
BRANCH  33  34
ATOM     34  C   UNL A   1      33.336  33.991  28.501  1.00  0.00     0.021 C 
BRANCH  34  35
ATOM     35  C   UNL A   1      33.738  35.277  29.211  1.00  0.00     0.116 C 
BRANCH  35  36
ATOM     36  N   UNL A   1      32.836  35.620  30.296  1.00  0.00    -0.352 N 
ATOM     37  C   UNL A   1      32.946  35.291  31.617  1.00  0.00     0.251 C 
ATOM     38  H   UNL A   1      32.048  36.155  30.048  1.00  0.00     0.163 HD
ATOM     39  O   UNL A   1      32.039  35.540  32.409  1.00  0.00    -0.269 OA
BRANCH  37  40
ATOM     40  C   UNL A   1      34.162  34.596  32.068  1.00  0.00     0.039 A 
ATOM     41  C   UNL A   1      34.063  33.260  32.449  1.00  0.00     0.014 A 
ATOM     42  C   UNL A   1      35.398  35.252  32.049  1.00  0.00     0.014 A 
ATOM     43  C   UNL A   1      35.222  32.561  32.779  1.00  0.00     0.010 A 
ATOM     44  C   UNL A   1      36.556  34.531  32.297  1.00  0.00     0.010 A 
ATOM     45  C   UNL A   1      36.477  33.184  32.679  1.00  0.00    -0.014 A 
BRANCH  45  46
ATOM     46  C   UNL A   1      37.719  32.440  32.989  1.00  0.00     0.031 A 
ATOM     47  C   UNL A   1      38.462  32.724  34.263  1.00  0.00     0.074 A 
ATOM     48  C   UNL A   1      38.189  31.536  32.109  1.00  0.00     0.049 A 
ATOM     49  N   UNL A   1      39.577  32.197  34.701  1.00  0.00    -0.248 NA
ATOM     50  C   UNL A   1      37.894  33.754  35.150  1.00  0.00     0.031 C 
ATOM     51  C   UNL A   1      37.570  31.198  30.826  1.00  0.00     0.029 A 
ATOM     52  N   UNL A   1      39.300  30.734  32.164  1.00  0.00    -0.354 N 
ATOM     53  C   UNL A   1      39.844  32.835  35.905  1.00  0.00     0.074 A 
ATOM     54  C   UNL A   1      38.814  33.830  36.099  1.00  0.00     0.031 C 
ATOM     55  C   UNL A   1      38.287  30.229  30.234  1.00  0.00     0.029 A 
ATOM     56  C   UNL A   1      39.439  29.913  31.072  1.00  0.00     0.049 A 
ATOM     57  H   UNL A   1      39.937  30.746  32.914  1.00  0.00     0.167 HD
ATOM     58  C   UNL A   1      40.845  32.596  36.785  1.00  0.00     0.031 A 
ATOM     59  C   UNL A   1      40.392  29.009  30.778  1.00  0.00     0.031 A 
ATOM     60  C   UNL A   1      41.868  31.605  36.588  1.00  0.00     0.049 A 
ATOM     61  C   UNL A   1      41.515  28.790  31.755  1.00  0.00     0.074 A 
ATOM     62  C   UNL A   1      42.905  31.256  37.436  1.00  0.00     0.029 A 
ATOM     63  N   UNL A   1      41.984  30.806  35.461  1.00  0.00    -0.354 N 
ATOM     64  N   UNL A   1      41.721  29.358  32.918  1.00  0.00    -0.248 NA
ATOM     65  C   UNL A   1      42.529  27.795  31.379  1.00  0.00     0.031 C 
ATOM     66  C   UNL A   1      43.683  30.288  36.795  1.00  0.00     0.029 A 
ATOM     67  C   UNL A   1      43.092  29.985  35.579  1.00  0.00     0.049 A 
ATOM     68  H   UNL A   1      41.370  30.821  34.691  1.00  0.00     0.167 HD
ATOM     69  C   UNL A   1      42.872  28.770  33.427  1.00  0.00     0.074 A 
ATOM     70  C   UNL A   1      43.305  27.788  32.453  1.00  0.00     0.031 C 
ATOM     71  C   UNL A   1      43.510  29.016  34.597  1.00  0.00     0.031 A 
BRANCH  58  72
ATOM     72  C   UNL A   1      40.880  33.430  38.035  1.00  0.00    -0.014 A 
ATOM     73  C   UNL A   1      40.214  33.022  39.204  1.00  0.00     0.009 A 
ATOM     74  C   UNL A   1      41.610  34.629  38.057  1.00  0.00     0.009 A 
ATOM     75  C   UNL A   1      40.248  33.815  40.353  1.00  0.00     0.001 A 
ATOM     76  C   UNL A   1      41.670  35.403  39.217  1.00  0.00     0.001 A 
ATOM     77  C   UNL A   1      40.980  35.001  40.360  1.00  0.00     0.000 A 
ENDBRANCH  58  72
BRANCH  59  78
ATOM     78  C   UNL A   1      40.316  28.230  29.514  1.00  0.00    -0.014 A 
ATOM     79  C   UNL A   1      39.609  27.019  29.464  1.00  0.00     0.009 A 
ATOM     80  C   UNL A   1      40.954  28.691  28.352  1.00  0.00     0.009 A 
ATOM     81  C   UNL A   1      39.567  26.271  28.285  1.00  0.00     0.001 A 
ATOM     82  C   UNL A   1      40.883  27.957  27.165  1.00  0.00     0.001 A 
ATOM     83  C   UNL A   1      40.199  26.743  27.136  1.00  0.00     0.000 A 
ENDBRANCH  59  78
BRANCH  71  84
ATOM     84  C   UNL A   1      44.724  28.185  34.906  1.00  0.00    -0.014 A 
ATOM     85  C   UNL A   1      46.013  28.610  34.549  1.00  0.00     0.009 A 
ATOM     86  C   UNL A   1      44.575  26.976  35.605  1.00  0.00     0.009 A 
ATOM     87  C   UNL A   1      47.125  27.824  34.856  1.00  0.00     0.001 A 
ATOM     88  C   UNL A   1      45.691  26.209  35.939  1.00  0.00     0.001 A 
ATOM     89  C   UNL A   1      46.964  26.628  35.556  1.00  0.00     0.000 A 
ENDBRANCH  71  84
ENDBRANCH  45  46
ENDBRANCH  37  40
ENDBRANCH  35  36
ENDBRANCH  34  35
ENDBRANCH  33  34
ENDBRANCH  32  33
ENDBRANCH  31  32
ENDBRANCH   1  31
TORSDOF 19
ENDMDL
