MODEL 1
REMARK VINA RESULT:     -10.0      0.000      0.000
REMARK SMILES C[C@@H](Nc1cccc(C(=O)NCCCCCCNC(=O)c2ccc(-c3c4nc(c(-c5ccccc5)c5ccc([nH]5)c(-c5ccccc5)c5nc(c(-c6ccccc6)c6ccc3[nH]6)C=C5)C=C4)cc2)c1)C1CC[NH+](C)CC1
REMARK SMILES IDX 14 1 13 2 12 3 11 4 9 5 10 6 8 8 4 9 5 10 69 11 6 12 7 13
REMARK SMILES IDX 3 14 2 16 1 17 70 18 71 19 76 20 72 21 75 22 73 23 74 24
REMARK SMILES IDX 15 26 16 27 17 28 18 29 19 30 20 32 21 33 22 34 68 35 23 36
REMARK SMILES IDX 67 37 24 38 25 39 26 40 61 41 27 42 66 43 60 44 62 45 28 46
REMARK SMILES IDX 65 47 59 48 58 49 29 51 51 52 36 53 50 54 37 55 40 56 49 57
REMARK SMILES IDX 63 58 38 59 39 60 48 62 64 63 41 64 30 65 31 66 35 67 32 68
REMARK SMILES IDX 34 69 33 70 52 71 53 72 57 73 54 74 56 75 55 76 42 77 43 78
REMARK SMILES IDX 47 79 44 80 46 81 45 82
REMARK H PARENT 11 7 3 15 73 25 18 31 62 50 40 61
REMARK Flexibility Score: inf
ROOT
ATOM      1  C   UNL A   1      40.072  22.469  27.106  1.00  0.00     0.002 C 
ENDROOT
BRANCH   1   2
ATOM      2  C   UNL A   1      39.624  23.865  26.602  1.00  0.00     0.021 C 
BRANCH   2   3
ATOM      3  C   UNL A   1      38.127  24.208  26.290  1.00  0.00     0.116 C 
BRANCH   3   4
ATOM      4  N   UNL A   1      37.518  23.629  25.000  1.00  0.00    -0.352 N 
ATOM      5  C   UNL A   1      36.437  23.434  24.128  1.00  0.00     0.251 C 
ATOM      6  O   UNL A   1      36.860  23.037  23.023  1.00  0.00    -0.269 OA
ATOM      7  H   UNL A   1      38.266  23.155  24.570  1.00  0.00     0.163 HD
BRANCH   5   8
ATOM      8  C   UNL A   1      34.899  23.620  24.144  1.00  0.00     0.041 A 
ATOM      9  C   UNL A   1      32.686  24.629  24.812  1.00  0.00     0.035 A 
ATOM     10  C   UNL A   1      32.032  23.691  24.021  1.00  0.00     0.026 A 
ATOM     11  C   UNL A   1      34.075  24.445  24.939  1.00  0.00     0.039 A 
ATOM     12  C   UNL A   1      32.754  22.710  23.340  1.00  0.00     0.003 A 
ATOM     13  C   UNL A   1      34.163  22.710  23.366  1.00  0.00     0.014 A 
BRANCH   9  14
ATOM     14  N   UNL A   1      31.969  25.705  25.306  1.00  0.00    -0.382 N 
ATOM     15  H   UNL A   1      31.058  25.450  25.577  1.00  0.00     0.160 HD
BRANCH  14  16
ATOM     16  C   UNL A   1      32.232  27.150  25.532  1.00  0.00     0.079 C 
ATOM     17  C   UNL A   1      31.739  27.433  26.980  1.00  0.00     0.031 C 
BRANCH  16  18
ATOM     18  C   UNL A   1      31.513  28.241  24.666  1.00  0.00     0.022 C 
ATOM     19  C   UNL A   1      30.381  27.797  23.767  1.00  0.00     0.067 C 
ATOM     20  C   UNL A   1      32.493  29.055  23.776  1.00  0.00     0.067 C 
ATOM     21  C   UNL A   1      30.864  27.393  22.366  1.00  0.00     0.262 C 
ATOM     22  C   UNL A   1      33.206  28.177  22.763  1.00  0.00     0.262 C 
ATOM     23  N   UNL A   1      32.303  27.263  22.129  1.00  0.00    -0.337 N 
ATOM     24  C   UNL A   1      32.973  26.132  21.488  1.00  0.00     0.332 C 
ATOM     25  H   UNL A   1      31.770  27.493  21.290  1.00  0.00     0.347 HD
ENDBRANCH  16  18
ENDBRANCH  14  16
ENDBRANCH   9  14
ENDBRANCH   5   8
ENDBRANCH   3   4
ENDBRANCH   2   3
ENDBRANCH   1   2
BRANCH   1  26
ATOM     26  C   UNL A   1      40.039  21.282  26.121  1.00  0.00     0.002 C 
BRANCH  26  27
ATOM     27  C   UNL A   1      40.703  19.942  26.510  1.00  0.00     0.021 C 
BRANCH  27  28
ATOM     28  C   UNL A   1      42.172  19.930  26.970  1.00  0.00     0.116 C 
BRANCH  28  29
ATOM     29  N   UNL A   1      43.139  20.078  25.892  1.00  0.00    -0.352 N 
ATOM     30  C   UNL A   1      43.800  21.171  25.375  1.00  0.00     0.251 C 
ATOM     31  H   UNL A   1      43.365  19.230  25.444  1.00  0.00     0.163 HD
ATOM     32  O   UNL A   1      44.497  21.025  24.376  1.00  0.00    -0.269 OA
BRANCH  30  33
ATOM     33  C   UNL A   1      43.685  22.530  25.965  1.00  0.00     0.039 A 
ATOM     34  C   UNL A   1      43.791  22.660  27.359  1.00  0.00     0.014 A 
ATOM     35  C   UNL A   1      43.394  23.658  25.198  1.00  0.00     0.014 A 
ATOM     36  C   UNL A   1      43.694  23.919  27.965  1.00  0.00     0.010 A 
ATOM     37  C   UNL A   1      43.348  24.925  25.797  1.00  0.00     0.010 A 
ATOM     38  C   UNL A   1      43.519  25.072  27.184  1.00  0.00    -0.014 A 
BRANCH  38  39
ATOM     39  C   UNL A   1      43.580  26.432  27.793  1.00  0.00     0.031 A 
ATOM     40  C   UNL A   1      42.328  27.193  28.136  1.00  0.00     0.074 A 
ATOM     41  C   UNL A   1      44.782  27.017  27.977  1.00  0.00     0.049 A 
ATOM     42  N   UNL A   1      42.204  28.410  28.608  1.00  0.00    -0.248 NA
ATOM     43  C   UNL A   1      41.049  26.506  27.902  1.00  0.00     0.031 C 
ATOM     44  C   UNL A   1      46.076  26.406  27.664  1.00  0.00     0.029 A 
ATOM     45  N   UNL A   1      45.113  28.260  28.459  1.00  0.00    -0.354 N 
ATOM     46  C   UNL A   1      40.837  28.639  28.717  1.00  0.00     0.074 A 
ATOM     47  C   UNL A   1      40.174  27.451  28.221  1.00  0.00     0.031 C 
ATOM     48  C   UNL A   1      47.057  27.264  27.983  1.00  0.00     0.029 A 
ATOM     49  C   UNL A   1      46.466  28.503  28.476  1.00  0.00     0.049 A 
ATOM     50  H   UNL A   1      44.444  28.915  28.766  1.00  0.00     0.167 HD
ATOM     51  C   UNL A   1      40.192  29.732  29.194  1.00  0.00     0.031 A 
ATOM     52  C   UNL A   1      47.160  29.603  28.829  1.00  0.00     0.031 A 
ATOM     53  C   UNL A   1      40.849  30.918  29.683  1.00  0.00     0.049 A 
ATOM     54  C   UNL A   1      46.419  30.819  29.310  1.00  0.00     0.074 A 
ATOM     55  C   UNL A   1      40.280  32.053  30.236  1.00  0.00     0.029 A 
ATOM     56  N   UNL A   1      42.220  31.129  29.664  1.00  0.00    -0.354 N 
ATOM     57  N   UNL A   1      45.130  30.990  29.471  1.00  0.00    -0.248 NA
ATOM     58  C   UNL A   1      47.231  31.992  29.663  1.00  0.00     0.031 C 
ATOM     59  C   UNL A   1      41.301  32.975  30.492  1.00  0.00     0.029 A 
ATOM     60  C   UNL A   1      42.511  32.390  30.159  1.00  0.00     0.049 A 
ATOM     61  H   UNL A   1      42.886  30.478  29.346  1.00  0.00     0.167 HD
ATOM     62  C   UNL A   1      44.977  32.281  29.963  1.00  0.00     0.074 A 
ATOM     63  C   UNL A   1      46.307  32.838  30.095  1.00  0.00     0.031 C 
ATOM     64  C   UNL A   1      43.837  32.943  30.274  1.00  0.00     0.031 A 
BRANCH  51  65
ATOM     65  C   UNL A   1      38.686  29.707  29.197  1.00  0.00    -0.014 A 
ATOM     66  C   UNL A   1      37.964  29.363  30.352  1.00  0.00     0.009 A 
ATOM     67  C   UNL A   1      37.978  30.077  28.042  1.00  0.00     0.009 A 
ATOM     68  C   UNL A   1      36.568  29.352  30.336  1.00  0.00     0.001 A 
ATOM     69  C   UNL A   1      36.581  30.095  28.040  1.00  0.00     0.001 A 
ATOM     70  C   UNL A   1      35.878  29.722  29.183  1.00  0.00     0.000 A 
ENDBRANCH  51  65
BRANCH  52  71
ATOM     71  C   UNL A   1      48.644  29.609  28.736  1.00  0.00    -0.014 A 
ATOM     72  C   UNL A   1      49.428  29.205  29.827  1.00  0.00     0.009 A 
ATOM     73  C   UNL A   1      49.285  30.021  27.558  1.00  0.00     0.009 A 
ATOM     74  C   UNL A   1      50.822  29.237  29.747  1.00  0.00     0.001 A 
ATOM     75  C   UNL A   1      50.679  30.022  27.470  1.00  0.00     0.001 A 
ATOM     76  C   UNL A   1      51.447  29.639  28.568  1.00  0.00     0.000 A 
ENDBRANCH  52  71
BRANCH  64  77
ATOM     77  C   UNL A   1      43.977  34.342  30.806  1.00  0.00    -0.014 A 
ATOM     78  C   UNL A   1      43.946  35.453  29.949  1.00  0.00     0.009 A 
ATOM     79  C   UNL A   1      44.100  34.555  32.188  1.00  0.00     0.009 A 
ATOM     80  C   UNL A   1      44.068  36.746  30.462  1.00  0.00     0.001 A 
ATOM     81  C   UNL A   1      44.189  35.849  32.702  1.00  0.00     0.001 A 
ATOM     82  C   UNL A   1      44.183  36.943  31.838  1.00  0.00     0.000 A 
ENDBRANCH  64  77
ENDBRANCH  38  39
ENDBRANCH  30  33
ENDBRANCH  28  29
ENDBRANCH  27  28
ENDBRANCH  26  27
ENDBRANCH   1  26
TORSDOF 16
ENDMDL
MODEL 2
REMARK VINA RESULT:     -10.0      3.717      6.752
REMARK SMILES C[C@@H](Nc1cccc(C(=O)NCCCCCCNC(=O)c2ccc(-c3c4nc(c(-c5ccccc5)c5ccc([nH]5)c(-c5ccccc5)c5nc(c(-c6ccccc6)c6ccc3[nH]6)C=C5)C=C4)cc2)c1)C1CC[NH+](C)CC1
REMARK SMILES IDX 14 1 13 2 12 3 11 4 9 5 10 6 8 8 4 9 5 10 69 11 6 12 7 13
REMARK SMILES IDX 3 14 2 16 1 17 70 18 71 19 76 20 72 21 75 22 73 23 74 24
REMARK SMILES IDX 15 26 16 27 17 28 18 29 19 30 20 32 21 33 22 34 68 35 23 36
REMARK SMILES IDX 67 37 24 38 25 39 26 40 61 41 27 42 66 43 60 44 62 45 28 46
REMARK SMILES IDX 65 47 59 48 58 49 29 51 51 52 36 53 50 54 37 55 40 56 49 57
REMARK SMILES IDX 63 58 38 59 39 60 48 62 64 63 41 64 30 65 31 66 35 67 32 68
REMARK SMILES IDX 34 69 33 70 52 71 53 72 57 73 54 74 56 75 55 76 42 77 43 78
REMARK SMILES IDX 47 79 44 80 46 81 45 82
REMARK H PARENT 11 7 3 15 73 25 18 31 62 50 40 61
REMARK Flexibility Score: inf
ROOT
ATOM      1  C   UNL A   1      39.740  22.515  27.232  1.00  0.00     0.002 C 
ENDROOT
BRANCH   1   2
ATOM      2  C   UNL A   1      39.117  23.897  26.911  1.00  0.00     0.021 C 
BRANCH   2   3
ATOM      3  C   UNL A   1      37.813  24.055  26.057  1.00  0.00     0.116 C 
BRANCH   3   4
ATOM      4  N   UNL A   1      36.752  22.945  26.167  1.00  0.00    -0.352 N 
ATOM      5  C   UNL A   1      35.417  22.514  26.171  1.00  0.00     0.251 C 
ATOM      6  O   UNL A   1      35.380  21.274  26.023  1.00  0.00    -0.269 OA
ATOM      7  H   UNL A   1      37.274  22.122  26.304  1.00  0.00     0.163 HD
BRANCH   5   8
ATOM      8  C   UNL A   1      34.005  23.144  26.257  1.00  0.00     0.041 A 
ATOM      9  C   UNL A   1      32.245  24.941  26.066  1.00  0.00     0.035 A 
ATOM     10  C   UNL A   1      31.302  24.058  26.578  1.00  0.00     0.026 A 
ATOM     11  C   UNL A   1      33.572  24.475  26.072  1.00  0.00     0.039 A 
ATOM     12  C   UNL A   1      31.675  22.770  26.968  1.00  0.00     0.003 A 
ATOM     13  C   UNL A   1      32.991  22.312  26.765  1.00  0.00     0.014 A 
BRANCH   9  14
ATOM     14  N   UNL A   1      31.813  26.129  25.501  1.00  0.00    -0.382 N 
ATOM     15  H   UNL A   1      31.060  25.992  24.882  1.00  0.00     0.160 HD
BRANCH  14  16
ATOM     16  C   UNL A   1      32.203  27.560  25.595  1.00  0.00     0.079 C 
ATOM     17  C   UNL A   1      31.738  28.016  27.008  1.00  0.00     0.031 C 
BRANCH  16  18
ATOM     18  C   UNL A   1      31.582  28.626  24.628  1.00  0.00     0.022 C 
ATOM     19  C   UNL A   1      30.447  28.189  23.729  1.00  0.00     0.067 C 
ATOM     20  C   UNL A   1      32.639  29.303  23.712  1.00  0.00     0.067 C 
ATOM     21  C   UNL A   1      30.940  27.648  22.378  1.00  0.00     0.262 C 
ATOM     22  C   UNL A   1      33.318  28.306  22.790  1.00  0.00     0.262 C 
ATOM     23  N   UNL A   1      32.373  27.407  22.198  1.00  0.00    -0.337 N 
ATOM     24  C   UNL A   1      32.982  26.189  21.664  1.00  0.00     0.332 C 
ATOM     25  H   UNL A   1      31.880  27.606  21.327  1.00  0.00     0.347 HD
ENDBRANCH  16  18
ENDBRANCH  14  16
ENDBRANCH   9  14
ENDBRANCH   5   8
ENDBRANCH   3   4
ENDBRANCH   2   3
ENDBRANCH   1   2
BRANCH   1  26
ATOM     26  C   UNL A   1      39.993  21.530  26.070  1.00  0.00     0.002 C 
BRANCH  26  27
ATOM     27  C   UNL A   1      41.104  20.463  26.196  1.00  0.00     0.021 C 
BRANCH  27  28
ATOM     28  C   UNL A   1      42.553  20.907  26.466  1.00  0.00     0.116 C 
BRANCH  28  29
ATOM     29  N   UNL A   1      43.136  21.725  25.412  1.00  0.00    -0.352 N 
ATOM     30  C   UNL A   1      43.347  23.082  25.293  1.00  0.00     0.251 C 
ATOM     31  H   UNL A   1      43.439  21.207  24.631  1.00  0.00     0.163 HD
ATOM     32  O   UNL A   1      43.771  23.524  24.231  1.00  0.00    -0.269 OA
BRANCH  30  33
ATOM     33  C   UNL A   1      43.058  24.036  26.394  1.00  0.00     0.039 A 
ATOM     34  C   UNL A   1      43.053  25.409  26.100  1.00  0.00     0.014 A 
ATOM     35  C   UNL A   1      42.875  23.624  27.715  1.00  0.00     0.014 A 
ATOM     36  C   UNL A   1      42.782  26.350  27.102  1.00  0.00     0.010 A 
ATOM     37  C   UNL A   1      42.553  24.561  28.707  1.00  0.00     0.010 A 
ATOM     38  C   UNL A   1      42.482  25.931  28.407  1.00  0.00    -0.014 A 
BRANCH  38  39
ATOM     39  C   UNL A   1      42.029  26.904  29.444  1.00  0.00     0.031 A 
ATOM     40  C   UNL A   1      42.750  27.041  30.757  1.00  0.00     0.074 A 
ATOM     41  C   UNL A   1      40.911  27.626  29.224  1.00  0.00     0.049 A 
ATOM     42  N   UNL A   1      42.449  27.789  31.791  1.00  0.00    -0.248 NA
ATOM     43  C   UNL A   1      43.956  26.219  30.941  1.00  0.00     0.031 C 
ATOM     44  C   UNL A   1      40.097  27.574  28.007  1.00  0.00     0.029 A 
ATOM     45  N   UNL A   1      40.257  28.536  30.018  1.00  0.00    -0.354 N 
ATOM     46  C   UNL A   1      43.419  27.520  32.751  1.00  0.00     0.074 A 
ATOM     47  C   UNL A   1      44.291  26.509  32.191  1.00  0.00     0.031 C 
ATOM     48  C   UNL A   1      39.069  28.429  28.127  1.00  0.00     0.029 A 
ATOM     49  C   UNL A   1      39.120  29.053  29.444  1.00  0.00     0.049 A 
ATOM     50  H   UNL A   1      40.573  28.794  30.915  1.00  0.00     0.167 HD
ATOM     51  C   UNL A   1      43.575  28.070  33.980  1.00  0.00     0.031 A 
ATOM     52  C   UNL A   1      38.207  29.920  29.924  1.00  0.00     0.031 A 
ATOM     53  C   UNL A   1      42.704  29.072  34.542  1.00  0.00     0.049 A 
ATOM     54  C   UNL A   1      38.377  30.480  31.309  1.00  0.00     0.074 A 
ATOM     55  C   UNL A   1      42.816  29.727  35.757  1.00  0.00     0.029 A 
ATOM     56  N   UNL A   1      41.555  29.553  33.934  1.00  0.00    -0.354 N 
ATOM     57  N   UNL A   1      39.338  30.265  32.173  1.00  0.00    -0.248 NA
ATOM     58  C   UNL A   1      37.337  31.404  31.781  1.00  0.00     0.031 C 
ATOM     59  C   UNL A   1      41.700  30.556  35.912  1.00  0.00     0.029 A 
ATOM     60  C   UNL A   1      40.927  30.468  34.766  1.00  0.00     0.049 A 
ATOM     61  H   UNL A   1      41.234  29.286  33.043  1.00  0.00     0.167 HD
ATOM     62  C   UNL A   1      39.031  31.043  33.282  1.00  0.00     0.074 A 
ATOM     63  C   UNL A   1      37.806  31.751  32.971  1.00  0.00     0.031 C 
ATOM     64  C   UNL A   1      39.702  31.158  34.453  1.00  0.00     0.031 A 
BRANCH  51  65
ATOM     65  C   UNL A   1      44.728  27.586  34.818  1.00  0.00    -0.014 A 
ATOM     66  C   UNL A   1      44.592  26.486  35.682  1.00  0.00     0.009 A 
ATOM     67  C   UNL A   1      45.982  28.208  34.710  1.00  0.00     0.009 A 
ATOM     68  C   UNL A   1      45.676  26.047  36.447  1.00  0.00     0.001 A 
ATOM     69  C   UNL A   1      47.072  27.748  35.453  1.00  0.00     0.001 A 
ATOM     70  C   UNL A   1      46.915  26.676  36.328  1.00  0.00     0.000 A 
ENDBRANCH  51  65
BRANCH  52  71
ATOM     71  C   UNL A   1      37.040  30.310  29.088  1.00  0.00    -0.014 A 
ATOM     72  C   UNL A   1      36.849  31.648  28.710  1.00  0.00     0.009 A 
ATOM     73  C   UNL A   1      36.108  29.349  28.667  1.00  0.00     0.009 A 
ATOM     74  C   UNL A   1      35.738  32.017  27.949  1.00  0.00     0.001 A 
ATOM     75  C   UNL A   1      35.016  29.716  27.878  1.00  0.00     0.001 A 
ATOM     76  C   UNL A   1      34.826  31.051  27.528  1.00  0.00     0.000 A 
ENDBRANCH  52  71
BRANCH  64  77
ATOM     77  C   UNL A   1      39.137  32.098  35.482  1.00  0.00    -0.014 A 
ATOM     78  C   UNL A   1      38.237  31.650  36.461  1.00  0.00     0.009 A 
ATOM     79  C   UNL A   1      39.542  33.442  35.496  1.00  0.00     0.009 A 
ATOM     80  C   UNL A   1      37.731  32.536  37.415  1.00  0.00     0.001 A 
ATOM     81  C   UNL A   1      39.059  34.318  36.470  1.00  0.00     0.001 A 
ATOM     82  C   UNL A   1      38.146  33.866  37.422  1.00  0.00     0.000 A 
ENDBRANCH  64  77
ENDBRANCH  38  39
ENDBRANCH  30  33
ENDBRANCH  28  29
ENDBRANCH  27  28
ENDBRANCH  26  27
ENDBRANCH   1  26
TORSDOF 16
ENDMDL
MODEL 3
REMARK VINA RESULT:      -9.9      4.290      9.307
REMARK SMILES C[C@@H](Nc1cccc(C(=O)NCCCCCCNC(=O)c2ccc(-c3c4nc(c(-c5ccccc5)c5ccc([nH]5)c(-c5ccccc5)c5nc(c(-c6ccccc6)c6ccc3[nH]6)C=C5)C=C4)cc2)c1)C1CC[NH+](C)CC1
REMARK SMILES IDX 14 1 13 2 12 3 11 4 9 5 10 6 8 8 4 9 5 10 69 11 6 12 7 13
REMARK SMILES IDX 3 14 2 16 1 17 70 18 71 19 76 20 72 21 75 22 73 23 74 24
REMARK SMILES IDX 15 26 16 27 17 28 18 29 19 30 20 32 21 33 22 34 68 35 23 36
REMARK SMILES IDX 67 37 24 38 25 39 26 40 61 41 27 42 66 43 60 44 62 45 28 46
REMARK SMILES IDX 65 47 59 48 58 49 29 51 51 52 36 53 50 54 37 55 40 56 49 57
REMARK SMILES IDX 63 58 38 59 39 60 48 62 64 63 41 64 30 65 31 66 35 67 32 68
REMARK SMILES IDX 34 69 33 70 52 71 53 72 57 73 54 74 56 75 55 76 42 77 43 78
REMARK SMILES IDX 47 79 44 80 46 81 45 82
REMARK H PARENT 11 7 3 15 73 25 18 31 62 50 40 61
REMARK Flexibility Score: inf
ROOT
ATOM      1  C   UNL A   1      35.605  31.966  27.968  1.00  0.00     0.002 C 
ENDROOT
BRANCH   1   2
ATOM      2  C   UNL A   1      35.897  30.474  27.668  1.00  0.00     0.021 C 
BRANCH   2   3
ATOM      3  C   UNL A   1      34.757  29.418  27.457  1.00  0.00     0.116 C 
BRANCH   3   4
ATOM      4  N   UNL A   1      33.536  29.846  26.623  1.00  0.00    -0.352 N 
ATOM      5  C   UNL A   1      32.322  29.561  25.982  1.00  0.00     0.251 C 
ATOM      6  O   UNL A   1      31.728  30.628  25.722  1.00  0.00    -0.269 OA
ATOM      7  H   UNL A   1      33.683  30.804  26.451  1.00  0.00     0.163 HD
BRANCH   5   8
ATOM      8  C   UNL A   1      31.508  28.312  25.562  1.00  0.00     0.041 A 
ATOM      9  C   UNL A   1      30.641  25.947  25.702  1.00  0.00     0.035 A 
ATOM     10  C   UNL A   1      29.950  26.141  24.512  1.00  0.00     0.026 A 
ATOM     11  C   UNL A   1      31.495  26.999  26.080  1.00  0.00     0.039 A 
ATOM     12  C   UNL A   1      30.051  27.351  23.822  1.00  0.00     0.003 A 
ATOM     13  C   UNL A   1      30.778  28.427  24.366  1.00  0.00     0.014 A 
BRANCH   9  14
ATOM     14  N   UNL A   1      30.363  24.824  26.463  1.00  0.00    -0.382 N 
ATOM     15  H   UNL A   1      30.044  25.058  27.364  1.00  0.00     0.160 HD
BRANCH  14  16
ATOM     16  C   UNL A   1      30.427  23.354  26.259  1.00  0.00     0.079 C 
ATOM     17  C   UNL A   1      29.442  22.755  27.303  1.00  0.00     0.031 C 
BRANCH  16  18
ATOM     18  C   UNL A   1      31.761  22.567  26.500  1.00  0.00     0.022 C 
ATOM     19  C   UNL A   1      32.988  23.359  26.890  1.00  0.00     0.067 C 
ATOM     20  C   UNL A   1      32.170  21.680  25.291  1.00  0.00     0.067 C 
ATOM     21  C   UNL A   1      33.801  23.825  25.673  1.00  0.00     0.262 C 
ATOM     22  C   UNL A   1      32.437  22.503  24.044  1.00  0.00     0.262 C 
ATOM     23  N   UNL A   1      33.220  23.666  24.338  1.00  0.00    -0.337 N 
ATOM     24  C   UNL A   1      33.146  24.696  23.302  1.00  0.00     0.332 C 
ATOM     25  H   UNL A   1      34.241  23.668  24.342  1.00  0.00     0.347 HD
ENDBRANCH  16  18
ENDBRANCH  14  16
ENDBRANCH   9  14
ENDBRANCH   5   8
ENDBRANCH   3   4
ENDBRANCH   2   3
ENDBRANCH   1   2
BRANCH   1  26
ATOM     26  C   UNL A   1      34.178  32.368  28.399  1.00  0.00     0.002 C 
BRANCH  26  27
ATOM     27  C   UNL A   1      33.647  33.782  28.074  1.00  0.00     0.021 C 
BRANCH  27  28
ATOM     28  C   UNL A   1      34.177  34.990  28.867  1.00  0.00     0.116 C 
BRANCH  28  29
ATOM     29  N   UNL A   1      33.664  35.086  30.227  1.00  0.00    -0.352 N 
ATOM     30  C   UNL A   1      34.035  34.481  31.409  1.00  0.00     0.251 C 
ATOM     31  H   UNL A   1      32.904  35.705  30.320  1.00  0.00     0.163 HD
ATOM     32  O   UNL A   1      33.351  34.667  32.410  1.00  0.00    -0.269 OA
BRANCH  30  33
ATOM     33  C   UNL A   1      35.220  33.591  31.515  1.00  0.00     0.039 A 
ATOM     34  C   UNL A   1      36.453  34.067  31.046  1.00  0.00     0.014 A 
ATOM     35  C   UNL A   1      35.132  32.279  31.984  1.00  0.00     0.014 A 
ATOM     36  C   UNL A   1      37.602  33.269  31.128  1.00  0.00     0.010 A 
ATOM     37  C   UNL A   1      36.289  31.499  32.115  1.00  0.00     0.010 A 
ATOM     38  C   UNL A   1      37.541  31.993  31.708  1.00  0.00    -0.014 A 
BRANCH  38  39
ATOM     39  C   UNL A   1      38.778  31.198  31.954  1.00  0.00     0.031 A 
ATOM     40  C   UNL A   1      39.692  31.509  33.107  1.00  0.00     0.074 A 
ATOM     41  C   UNL A   1      39.117  30.223  31.085  1.00  0.00     0.049 A 
ATOM     42  N   UNL A   1      40.840  30.960  33.424  1.00  0.00    -0.248 NA
ATOM     43  C   UNL A   1      39.274  32.590  34.013  1.00  0.00     0.031 C 
ATOM     44  C   UNL A   1      38.337  29.831  29.909  1.00  0.00     0.029 A 
ATOM     45  N   UNL A   1      40.209  29.391  31.048  1.00  0.00    -0.354 N 
ATOM     46  C   UNL A   1      41.286  31.634  34.556  1.00  0.00     0.074 A 
ATOM     47  C   UNL A   1      40.306  32.660  34.843  1.00  0.00     0.031 C 
ATOM     48  C   UNL A   1      38.963  28.824  29.280  1.00  0.00     0.029 A 
ATOM     49  C   UNL A   1      40.210  28.529  29.976  1.00  0.00     0.049 A 
ATOM     50  H   UNL A   1      40.925  29.409  31.725  1.00  0.00     0.167 HD
ATOM     51  C   UNL A   1      42.402  31.413  35.293  1.00  0.00     0.031 A 
ATOM     52  C   UNL A   1      41.117  27.615  29.582  1.00  0.00     0.031 A 
ATOM     53  C   UNL A   1      43.382  30.396  35.005  1.00  0.00     0.049 A 
ATOM     54  C   UNL A   1      42.370  27.422  30.391  1.00  0.00     0.074 A 
ATOM     55  C   UNL A   1      44.516  30.063  35.727  1.00  0.00     0.029 A 
ATOM     56  N   UNL A   1      43.353  29.559  33.901  1.00  0.00    -0.354 N 
ATOM     57  N   UNL A   1      42.739  28.021  31.496  1.00  0.00    -0.248 NA
ATOM     58  C   UNL A   1      43.328  26.422  29.898  1.00  0.00     0.031 C 
ATOM     59  C   UNL A   1      45.206  29.069  35.026  1.00  0.00     0.029 A 
ATOM     60  C   UNL A   1      44.469  28.737  33.901  1.00  0.00     0.049 A 
ATOM     61  H   UNL A   1      42.644  29.549  33.218  1.00  0.00     0.167 HD
ATOM     62  C   UNL A   1      43.961  27.458  31.843  1.00  0.00     0.074 A 
ATOM     63  C   UNL A   1      44.258  26.454  30.842  1.00  0.00     0.031 C 
ATOM     64  C   UNL A   1      44.764  27.749  32.894  1.00  0.00     0.031 A 
BRANCH  51  65
ATOM     65  C   UNL A   1      42.638  32.304  36.484  1.00  0.00    -0.014 A 
ATOM     66  C   UNL A   1      42.295  31.893  37.783  1.00  0.00     0.009 A 
ATOM     67  C   UNL A   1      43.254  33.554  36.311  1.00  0.00     0.009 A 
ATOM     68  C   UNL A   1      42.527  32.732  38.875  1.00  0.00     0.001 A 
ATOM     69  C   UNL A   1      43.514  34.377  37.410  1.00  0.00     0.001 A 
ATOM     70  C   UNL A   1      43.140  33.970  38.689  1.00  0.00     0.000 A 
ENDBRANCH  51  65
BRANCH  52  71
ATOM     71  C   UNL A   1      40.879  26.810  28.354  1.00  0.00    -0.014 A 
ATOM     72  C   UNL A   1      40.144  25.616  28.415  1.00  0.00     0.009 A 
ATOM     73  C   UNL A   1      41.387  27.229  27.114  1.00  0.00     0.009 A 
ATOM     74  C   UNL A   1      39.943  24.848  27.266  1.00  0.00     0.001 A 
ATOM     75  C   UNL A   1      41.157  26.475  25.962  1.00  0.00     0.001 A 
ATOM     76  C   UNL A   1      40.444  25.280  26.040  1.00  0.00     0.000 A 
ENDBRANCH  52  71
BRANCH  64  77
ATOM     77  C   UNL A   1      46.036  26.959  33.029  1.00  0.00    -0.014 A 
ATOM     78  C   UNL A   1      47.235  27.407  32.454  1.00  0.00     0.009 A 
ATOM     79  C   UNL A   1      46.044  25.770  33.775  1.00  0.00     0.009 A 
ATOM     80  C   UNL A   1      48.410  26.665  32.598  1.00  0.00     0.001 A 
ATOM     81  C   UNL A   1      47.226  25.046  33.944  1.00  0.00     0.001 A 
ATOM     82  C   UNL A   1      48.405  25.489  33.347  1.00  0.00     0.000 A 
ENDBRANCH  64  77
ENDBRANCH  38  39
ENDBRANCH  30  33
ENDBRANCH  28  29
ENDBRANCH  27  28
ENDBRANCH  26  27
ENDBRANCH   1  26
TORSDOF 16
ENDMDL
