MODEL 1
REMARK VINA RESULT:      -8.5      0.000      0.000
REMARK SMILES CSCC[C@H](C(=O)NCCCCCCNC(=O)c1ccc(-c2c3nc(c(-c4ccccc4)c4ccc([nH]4)c(-c4ccccc4)c4nc(c(-c5ccccc5)c5ccc2[nH]5)C=C4)C=C3)cc1)N1C(=O)/C(=C/c2cn(C)c3ccccc23)SC1=S
REMARK SMILES IDX 11 1 10 2 9 3 8 4 6 5 7 6 5 8 4 9 3 10 2 11 1 12 66 13 67 14
REMARK SMILES IDX 82 15 68 16 69 17 81 18 83 19 70 20 71 21 72 22 80 23 73 24
REMARK SMILES IDX 75 25 79 26 74 27 76 28 78 29 77 30 12 31 13 32 14 33 15 34
REMARK SMILES IDX 16 35 17 37 18 38 19 39 65 40 20 41 64 42 21 43 22 44 23 45
REMARK SMILES IDX 58 46 24 47 63 48 57 49 59 50 25 51 62 52 56 53 55 54 26 56
REMARK SMILES IDX 48 57 33 58 47 59 34 60 37 61 46 62 60 63 35 64 36 65 45 67
REMARK SMILES IDX 61 68 38 69 27 70 28 71 32 72 29 73 31 74 30 75 49 76 50 77
REMARK SMILES IDX 54 78 51 79 53 80 52 81 39 82 40 83 44 84 41 85 43 86 42 87
REMARK H PARENT 8 7 15 36 59 55 37 66
REMARK Flexibility Score: inf
ROOT
ATOM      1  C   UNL A   1      38.718  34.585  29.646  1.00  0.00     0.002 C 
ENDROOT
BRANCH   1   2
ATOM      2  C   UNL A   1      39.865  34.445  28.588  1.00  0.00     0.021 C 
BRANCH   2   3
ATOM      3  C   UNL A   1      40.947  35.576  28.508  1.00  0.00     0.116 C 
BRANCH   3   4
ATOM      4  N   UNL A   1      41.558  36.016  27.231  1.00  0.00    -0.354 N 
ATOM      5  C   UNL A   1      42.891  35.872  26.800  1.00  0.00     0.243 C 
ATOM      6  O   UNL A   1      43.015  35.228  25.747  1.00  0.00    -0.273 OA
ATOM      7  H   UNL A   1      40.952  36.470  26.602  1.00  0.00     0.163 HD
BRANCH   5   8
ATOM      8  C   UNL A   1      44.257  36.577  27.483  1.00  0.00     0.182 C 
BRANCH   8   9
ATOM      9  C   UNL A   1      45.597  35.992  26.893  1.00  0.00     0.046 C 
BRANCH   9  10
ATOM     10  C   UNL A   1      46.325  34.697  27.409  1.00  0.00     0.072 C 
BRANCH  10  11
ATOM     11  S   UNL A   1      46.324  32.868  26.699  1.00  0.00    -0.165 SA
ATOM     12  C   UNL A   1      44.518  32.051  26.754  1.00  0.00     0.085 C 
ENDBRANCH  10  11
ENDBRANCH   9  10
ENDBRANCH   8   9
BRANCH   8  13
ATOM     13  N   UNL A   1      44.286  38.307  28.146  1.00  0.00    -0.280 N 
ATOM     14  C   UNL A   1      43.693  38.149  29.301  1.00  0.00     0.266 C 
ATOM     15  C   UNL A   1      44.540  39.993  27.092  1.00  0.00     0.149 C 
ATOM     16  O   UNL A   1      43.382  37.312  30.096  1.00  0.00    -0.268 OA
ATOM     17  C   UNL A   1      43.947  39.493  29.273  1.00  0.00     0.081 C 
ATOM     18  S   UNL A   1      43.819  41.237  27.483  1.00  0.00    -0.054 SA
ATOM     19  S   UNL A   1      45.596  40.737  25.584  1.00  0.00    -0.052 S 
ATOM     20  C   UNL A   1      43.951  39.907  30.659  1.00  0.00     0.031 C 
BRANCH  20  21
ATOM     21  C   UNL A   1      43.980  41.318  30.766  1.00  0.00     0.001 A 
ATOM     22  C   UNL A   1      43.140  42.198  31.501  1.00  0.00     0.094 A 
ATOM     23  C   UNL A   1      44.871  41.026  31.780  1.00  0.00     0.007 A 
ATOM     24  N   UNL A   1      42.709  41.679  32.745  1.00  0.00    -0.350 N 
ATOM     25  C   UNL A   1      43.346  40.451  32.884  1.00  0.00     0.048 A 
ATOM     26  C   UNL A   1      46.363  39.708  32.067  1.00  0.00     0.011 A 
ATOM     27  C   UNL A   1      42.450  42.468  33.948  1.00  0.00     0.149 C 
ATOM     28  C   UNL A   1      43.192  38.857  33.985  1.00  0.00     0.027 A 
ATOM     29  C   UNL A   1      46.350  38.355  33.483  1.00  0.00     0.001 A 
ATOM     30  C   UNL A   1      44.781  37.816  34.562  1.00  0.00     0.002 A 
ENDBRANCH  20  21
ENDBRANCH   8  13
ENDBRANCH   5   8
ENDBRANCH   3   4
ENDBRANCH   2   3
ENDBRANCH   1   2
BRANCH   1  31
ATOM     31  C   UNL A   1      37.724  33.457  30.023  1.00  0.00     0.002 C 
BRANCH  31  32
ATOM     32  C   UNL A   1      36.263  33.558  29.579  1.00  0.00     0.021 C 
BRANCH  32  33
ATOM     33  C   UNL A   1      35.294  32.752  30.404  1.00  0.00     0.116 C 
BRANCH  33  34
ATOM     34  N   UNL A   1      34.432  31.966  29.543  1.00  0.00    -0.352 N 
ATOM     35  C   UNL A   1      34.800  31.017  28.628  1.00  0.00     0.251 C 
ATOM     36  H   UNL A   1      33.466  32.135  29.627  1.00  0.00     0.163 HD
ATOM     37  O   UNL A   1      34.035  30.686  27.729  1.00  0.00    -0.269 OA
BRANCH  35  38
ATOM     38  C   UNL A   1      36.141  30.412  28.745  1.00  0.00     0.039 A 
ATOM     39  C   UNL A   1      37.022  30.492  27.667  1.00  0.00     0.014 A 
ATOM     40  C   UNL A   1      36.529  29.804  29.942  1.00  0.00     0.014 A 
ATOM     41  C   UNL A   1      38.312  29.987  27.809  1.00  0.00     0.010 A 
ATOM     42  C   UNL A   1      37.848  29.418  30.119  1.00  0.00     0.010 A 
ATOM     43  C   UNL A   1      38.744  29.476  29.044  1.00  0.00    -0.014 A 
BRANCH  43  44
ATOM     44  C   UNL A   1      40.117  28.955  29.232  1.00  0.00     0.031 A 
ATOM     45  C   UNL A   1      41.178  29.856  29.804  1.00  0.00     0.074 A 
ATOM     46  C   UNL A   1      40.418  27.701  28.842  1.00  0.00     0.049 A 
ATOM     47  N   UNL A   1      42.451  29.613  29.983  1.00  0.00    -0.248 NA
ATOM     48  C   UNL A   1      40.767  31.214  30.205  1.00  0.00     0.031 C 
ATOM     49  C   UNL A   1      39.476  26.744  28.256  1.00  0.00     0.029 A 
ATOM     50  N   UNL A   1      41.606  27.017  28.877  1.00  0.00    -0.354 N 
ATOM     51  C   UNL A   1      42.988  30.787  30.495  1.00  0.00     0.074 A 
ATOM     52  C   UNL A   1      41.922  31.759  30.552  1.00  0.00     0.031 C 
ATOM     53  C   UNL A   1      40.115  25.586  28.023  1.00  0.00     0.029 A 
ATOM     54  C   UNL A   1      41.522  25.739  28.377  1.00  0.00     0.049 A 
ATOM     55  H   UNL A   1      42.440  27.404  29.228  1.00  0.00     0.167 HD
ATOM     56  C   UNL A   1      44.258  31.027  30.892  1.00  0.00     0.031 A 
ATOM     57  C   UNL A   1      42.477  24.807  28.204  1.00  0.00     0.031 A 
ATOM     58  C   UNL A   1      45.314  30.054  30.840  1.00  0.00     0.049 A 
ATOM     59  C   UNL A   1      43.893  25.132  28.603  1.00  0.00     0.074 A 
ATOM     60  C   UNL A   1      46.619  30.186  31.276  1.00  0.00     0.029 A 
ATOM     61  N   UNL A   1      45.191  28.781  30.309  1.00  0.00    -0.354 N 
ATOM     62  N   UNL A   1      44.368  26.221  29.157  1.00  0.00    -0.248 NA
ATOM     63  C   UNL A   1      44.906  24.094  28.360  1.00  0.00     0.031 C 
ATOM     64  C   UNL A   1      47.313  29.030  30.920  1.00  0.00     0.029 A 
ATOM     65  C   UNL A   1      46.413  28.137  30.363  1.00  0.00     0.049 A 
ATOM     66  H   UNL A   1      44.360  28.395  29.948  1.00  0.00     0.167 HD
ATOM     67  C   UNL A   1      45.720  25.978  29.372  1.00  0.00     0.074 A 
ATOM     68  C   UNL A   1      45.985  24.635  28.905  1.00  0.00     0.031 C 
ATOM     69  C   UNL A   1      46.658  26.792  29.911  1.00  0.00     0.031 A 
BRANCH  56  70
ATOM     70  C   UNL A   1      44.596  32.401  31.397  1.00  0.00    -0.014 A 
ATOM     71  C   UNL A   1      45.047  33.413  30.536  1.00  0.00     0.009 A 
ATOM     72  C   UNL A   1      44.365  32.711  32.747  1.00  0.00     0.009 A 
ATOM     73  C   UNL A   1      45.273  34.703  31.020  1.00  0.00     0.001 A 
ATOM     74  C   UNL A   1      44.556  34.008  33.221  1.00  0.00     0.001 A 
ATOM     75  C   UNL A   1      45.015  35.002  32.359  1.00  0.00     0.000 A 
ENDBRANCH  56  70
BRANCH  57  76
ATOM     76  C   UNL A   1      42.156  23.485  27.595  1.00  0.00    -0.014 A 
ATOM     77  C   UNL A   1      41.754  22.404  28.396  1.00  0.00     0.009 A 
ATOM     78  C   UNL A   1      42.329  23.273  26.219  1.00  0.00     0.009 A 
ATOM     79  C   UNL A   1      41.607  21.128  27.845  1.00  0.00     0.001 A 
ATOM     80  C   UNL A   1      42.132  22.008  25.662  1.00  0.00     0.001 A 
ATOM     81  C   UNL A   1      41.797  20.932  26.480  1.00  0.00     0.000 A 
ENDBRANCH  57  76
BRANCH  69  82
ATOM     82  C   UNL A   1      48.043  26.237  30.103  1.00  0.00    -0.014 A 
ATOM     83  C   UNL A   1      48.457  25.673  31.319  1.00  0.00     0.009 A 
ATOM     84  C   UNL A   1      48.929  26.225  29.012  1.00  0.00     0.009 A 
ATOM     85  C   UNL A   1      49.742  25.143  31.448  1.00  0.00     0.001 A 
ATOM     86  C   UNL A   1      50.195  25.654  29.131  1.00  0.00     0.001 A 
ATOM     87  C   UNL A   1      50.605  25.124  30.352  1.00  0.00     0.000 A 
ENDBRANCH  69  82
ENDBRANCH  43  44
ENDBRANCH  35  38
ENDBRANCH  33  34
ENDBRANCH  32  33
ENDBRANCH  31  32
ENDBRANCH   1  31
TORSDOF 18
ENDMDL
MODEL 2
REMARK VINA RESULT:      -8.5      5.800     10.790
REMARK SMILES CSCC[C@H](C(=O)NCCCCCCNC(=O)c1ccc(-c2c3nc(c(-c4ccccc4)c4ccc([nH]4)c(-c4ccccc4)c4nc(c(-c5ccccc5)c5ccc2[nH]5)C=C4)C=C3)cc1)N1C(=O)/C(=C/c2cn(C)c3ccccc23)SC1=S
REMARK SMILES IDX 11 1 10 2 9 3 8 4 6 5 7 6 5 8 4 9 3 10 2 11 1 12 66 13 67 14
REMARK SMILES IDX 82 15 68 16 69 17 81 18 83 19 70 20 71 21 72 22 80 23 73 24
REMARK SMILES IDX 75 25 79 26 74 27 76 28 78 29 77 30 12 31 13 32 14 33 15 34
REMARK SMILES IDX 16 35 17 37 18 38 19 39 65 40 20 41 64 42 21 43 22 44 23 45
REMARK SMILES IDX 58 46 24 47 63 48 57 49 59 50 25 51 62 52 56 53 55 54 26 56
REMARK SMILES IDX 48 57 33 58 47 59 34 60 37 61 46 62 60 63 35 64 36 65 45 67
REMARK SMILES IDX 61 68 38 69 27 70 28 71 32 72 29 73 31 74 30 75 49 76 50 77
REMARK SMILES IDX 54 78 51 79 53 80 52 81 39 82 40 83 44 84 41 85 43 86 42 87
REMARK H PARENT 8 7 15 36 59 55 37 66
REMARK Flexibility Score: inf
ROOT
ATOM      1  C   UNL A   1      44.724  24.111  32.392  1.00  0.00     0.002 C 
ENDROOT
BRANCH   1   2
ATOM      2  C   UNL A   1      43.990  23.821  31.039  1.00  0.00     0.021 C 
BRANCH   2   3
ATOM      3  C   UNL A   1      44.817  23.902  29.710  1.00  0.00     0.116 C 
BRANCH   3   4
ATOM      4  N   UNL A   1      44.272  24.478  28.457  1.00  0.00    -0.354 N 
ATOM      5  C   UNL A   1      44.923  24.664  27.222  1.00  0.00     0.243 C 
ATOM      6  O   UNL A   1      44.387  24.069  26.275  1.00  0.00    -0.273 OA
ATOM      7  H   UNL A   1      43.333  24.769  28.494  1.00  0.00     0.163 HD
BRANCH   5   8
ATOM      8  C   UNL A   1      46.224  25.681  26.907  1.00  0.00     0.182 C 
BRANCH   8   9
ATOM      9  C   UNL A   1      46.528  25.813  25.365  1.00  0.00     0.046 C 
BRANCH   9  10
ATOM     10  C   UNL A   1      47.963  25.950  24.734  1.00  0.00     0.072 C 
BRANCH  10  11
ATOM     11  S   UNL A   1      49.694  26.323  25.578  1.00  0.00    -0.165 SA
ATOM     12  C   UNL A   1      49.738  28.119  26.420  1.00  0.00     0.085 C 
ENDBRANCH  10  11
ENDBRANCH   9  10
ENDBRANCH   8   9
BRANCH   8  13
ATOM     13  N   UNL A   1      46.699  27.096  28.005  1.00  0.00    -0.280 N 
ATOM     14  C   UNL A   1      47.419  26.487  28.910  1.00  0.00     0.266 C 
ATOM     15  C   UNL A   1      45.798  28.883  28.121  1.00  0.00     0.149 C 
ATOM     16  O   UNL A   1      48.012  25.469  29.118  1.00  0.00    -0.268 OA
ATOM     17  C   UNL A   1      47.431  27.786  29.339  1.00  0.00     0.081 C 
ATOM     18  S   UNL A   1      45.699  29.590  29.429  1.00  0.00    -0.054 SA
ATOM     19  S   UNL A   1      44.959  30.275  26.980  1.00  0.00    -0.052 S 
ATOM     20  C   UNL A   1      48.609  27.900  30.171  1.00  0.00     0.031 C 
BRANCH  20  21
ATOM     21  C   UNL A   1      48.622  29.135  30.863  1.00  0.00     0.001 A 
ATOM     22  C   UNL A   1      48.400  29.417  32.238  1.00  0.00     0.094 A 
ATOM     23  C   UNL A   1      49.970  28.846  30.952  1.00  0.00     0.007 A 
ATOM     24  N   UNL A   1      48.891  28.424  33.118  1.00  0.00    -0.350 N 
ATOM     25  C   UNL A   1      49.536  27.490  32.313  1.00  0.00     0.048 A 
ATOM     26  C   UNL A   1      51.370  28.063  29.738  1.00  0.00     0.011 A 
ATOM     27  C   UNL A   1      49.418  28.665  34.460  1.00  0.00     0.149 C 
ATOM     28  C   UNL A   1      50.208  25.673  32.457  1.00  0.00     0.027 A 
ATOM     29  C   UNL A   1      52.338  26.408  30.134  1.00  0.00     0.001 A 
ATOM     30  C   UNL A   1      51.853  25.079  31.517  1.00  0.00     0.002 A 
ENDBRANCH  20  21
ENDBRANCH   8  13
ENDBRANCH   5   8
ENDBRANCH   3   4
ENDBRANCH   2   3
ENDBRANCH   1   2
BRANCH   1  31
ATOM     31  C   UNL A   1      44.790  23.126  33.588  1.00  0.00     0.002 C 
BRANCH  31  32
ATOM     32  C   UNL A   1      46.118  22.911  34.316  1.00  0.00     0.021 C 
BRANCH  32  33
ATOM     33  C   UNL A   1      47.012  24.123  34.371  1.00  0.00     0.116 C 
BRANCH  33  34
ATOM     34  N   UNL A   1      47.194  24.553  35.744  1.00  0.00    -0.352 N 
ATOM     35  C   UNL A   1      46.779  25.723  36.318  1.00  0.00     0.251 C 
ATOM     36  H   UNL A   1      47.674  23.927  36.333  1.00  0.00     0.163 HD
ATOM     37  O   UNL A   1      47.288  26.123  37.359  1.00  0.00    -0.269 OA
BRANCH  35  38
ATOM     38  C   UNL A   1      45.713  26.493  35.650  1.00  0.00     0.039 A 
ATOM     39  C   UNL A   1      46.051  27.622  34.905  1.00  0.00     0.014 A 
ATOM     40  C   UNL A   1      44.384  26.064  35.735  1.00  0.00     0.014 A 
ATOM     41  C   UNL A   1      45.051  28.301  34.213  1.00  0.00     0.010 A 
ATOM     42  C   UNL A   1      43.417  26.667  34.947  1.00  0.00     0.010 A 
ATOM     43  C   UNL A   1      43.734  27.812  34.204  1.00  0.00    -0.014 A 
BRANCH  43  44
ATOM     44  C   UNL A   1      42.655  28.498  33.458  1.00  0.00     0.031 A 
ATOM     45  C   UNL A   1      41.772  29.483  34.175  1.00  0.00     0.074 A 
ATOM     46  C   UNL A   1      42.439  28.198  32.163  1.00  0.00     0.049 A 
ATOM     47  N   UNL A   1      40.733  30.135  33.721  1.00  0.00    -0.248 NA
ATOM     48  C   UNL A   1      42.075  29.755  35.592  1.00  0.00     0.031 C 
ATOM     49  C   UNL A   1      43.218  27.244  31.369  1.00  0.00     0.029 A 
ATOM     50  N   UNL A   1      41.493  28.664  31.285  1.00  0.00    -0.354 N 
ATOM     51  C   UNL A   1      40.254  30.873  34.796  1.00  0.00     0.074 A 
ATOM     52  C   UNL A   1      41.077  30.554  35.937  1.00  0.00     0.031 C 
ATOM     53  C   UNL A   1      42.742  27.225  30.114  1.00  0.00     0.029 A 
ATOM     54  C   UNL A   1      41.585  28.110  30.030  1.00  0.00     0.049 A 
ATOM     55  H   UNL A   1      40.813  29.332  31.531  1.00  0.00     0.167 HD
ATOM     56  C   UNL A   1      39.224  31.748  34.822  1.00  0.00     0.031 A 
ATOM     57  C   UNL A   1      40.809  28.281  28.943  1.00  0.00     0.031 A 
ATOM     58  C   UNL A   1      38.412  32.067  33.681  1.00  0.00     0.049 A 
ATOM     59  C   UNL A   1      39.633  29.219  29.029  1.00  0.00     0.074 A 
ATOM     60  C   UNL A   1      37.382  32.987  33.596  1.00  0.00     0.029 A 
ATOM     61  N   UNL A   1      38.525  31.470  32.437  1.00  0.00    -0.354 N 
ATOM     62  N   UNL A   1      39.241  29.967  30.032  1.00  0.00    -0.248 NA
ATOM     63  C   UNL A   1      38.796  29.343  27.827  1.00  0.00     0.031 C 
ATOM     64  C   UNL A   1      36.808  32.877  32.331  1.00  0.00     0.029 A 
ATOM     65  C   UNL A   1      37.550  31.969  31.593  1.00  0.00     0.049 A 
ATOM     66  H   UNL A   1      39.197  30.794  32.192  1.00  0.00     0.167 HD
ATOM     67  C   UNL A   1      38.145  30.683  29.564  1.00  0.00     0.074 A 
ATOM     68  C   UNL A   1      37.945  30.294  28.186  1.00  0.00     0.031 C 
ATOM     69  C   UNL A   1      37.375  31.586  30.216  1.00  0.00     0.031 A 
BRANCH  56  70
ATOM     70  C   UNL A   1      38.888  32.410  36.128  1.00  0.00    -0.014 A 
ATOM     71  C   UNL A   1      39.400  33.672  36.469  1.00  0.00     0.009 A 
ATOM     72  C   UNL A   1      37.962  31.798  36.989  1.00  0.00     0.009 A 
ATOM     73  C   UNL A   1      39.003  34.298  37.652  1.00  0.00     0.001 A 
ATOM     74  C   UNL A   1      37.539  32.442  38.151  1.00  0.00     0.001 A 
ATOM     75  C   UNL A   1      38.064  33.689  38.485  1.00  0.00     0.000 A 
ENDBRANCH  56  70
BRANCH  57  76
ATOM     76  C   UNL A   1      41.080  27.532  27.684  1.00  0.00    -0.014 A 
ATOM     77  C   UNL A   1      40.468  26.292  27.440  1.00  0.00     0.009 A 
ATOM     78  C   UNL A   1      42.015  28.014  26.755  1.00  0.00     0.009 A 
ATOM     79  C   UNL A   1      40.842  25.520  26.337  1.00  0.00     0.001 A 
ATOM     80  C   UNL A   1      42.350  27.264  25.626  1.00  0.00     0.001 A 
ATOM     81  C   UNL A   1      41.782  26.007  25.433  1.00  0.00     0.000 A 
ENDBRANCH  57  76
BRANCH  69  82
ATOM     82  C   UNL A   1      36.292  32.279  29.436  1.00  0.00    -0.014 A 
ATOM     83  C   UNL A   1      34.997  31.750  29.331  1.00  0.00     0.009 A 
ATOM     84  C   UNL A   1      36.566  33.525  28.848  1.00  0.00     0.009 A 
ATOM     85  C   UNL A   1      34.010  32.438  28.622  1.00  0.00     0.001 A 
ATOM     86  C   UNL A   1      35.567  34.231  28.179  1.00  0.00     0.001 A 
ATOM     87  C   UNL A   1      34.293  33.681  28.056  1.00  0.00     0.000 A 
ENDBRANCH  69  82
ENDBRANCH  43  44
ENDBRANCH  35  38
ENDBRANCH  33  34
ENDBRANCH  32  33
ENDBRANCH  31  32
ENDBRANCH   1  31
TORSDOF 18
ENDMDL
MODEL 3
REMARK VINA RESULT:      -8.2      6.071     13.705
REMARK SMILES CSCC[C@H](C(=O)NCCCCCCNC(=O)c1ccc(-c2c3nc(c(-c4ccccc4)c4ccc([nH]4)c(-c4ccccc4)c4nc(c(-c5ccccc5)c5ccc2[nH]5)C=C4)C=C3)cc1)N1C(=O)/C(=C/c2cn(C)c3ccccc23)SC1=S
REMARK SMILES IDX 11 1 10 2 9 3 8 4 6 5 7 6 5 8 4 9 3 10 2 11 1 12 66 13 67 14
REMARK SMILES IDX 82 15 68 16 69 17 81 18 83 19 70 20 71 21 72 22 80 23 73 24
REMARK SMILES IDX 75 25 79 26 74 27 76 28 78 29 77 30 12 31 13 32 14 33 15 34
REMARK SMILES IDX 16 35 17 37 18 38 19 39 65 40 20 41 64 42 21 43 22 44 23 45
REMARK SMILES IDX 58 46 24 47 63 48 57 49 59 50 25 51 62 52 56 53 55 54 26 56
REMARK SMILES IDX 48 57 33 58 47 59 34 60 37 61 46 62 60 63 35 64 36 65 45 67
REMARK SMILES IDX 61 68 38 69 27 70 28 71 32 72 29 73 31 74 30 75 49 76 50 77
REMARK SMILES IDX 54 78 51 79 53 80 52 81 39 82 40 83 44 84 41 85 43 86 42 87
REMARK H PARENT 8 7 15 36 59 55 37 66
REMARK Flexibility Score: inf
ROOT
ATOM      1  C   UNL A   1      53.547  26.029  31.342  1.00  0.00     0.002 C 
ENDROOT
BRANCH   1   2
ATOM      2  C   UNL A   1      52.664  25.055  32.194  1.00  0.00     0.021 C 
BRANCH   2   3
ATOM      3  C   UNL A   1      53.041  24.830  33.698  1.00  0.00     0.116 C 
BRANCH   3   4
ATOM      4  N   UNL A   1      52.073  25.012  34.806  1.00  0.00    -0.354 N 
ATOM      5  C   UNL A   1      51.239  24.050  35.409  1.00  0.00     0.243 C 
ATOM      6  O   UNL A   1      51.432  23.908  36.626  1.00  0.00    -0.273 OA
ATOM      7  H   UNL A   1      52.003  25.925  35.167  1.00  0.00     0.163 HD
BRANCH   5   8
ATOM      8  C   UNL A   1      49.973  23.212  34.686  1.00  0.00     0.182 C 
BRANCH   8   9
ATOM      9  C   UNL A   1      50.470  21.970  33.851  1.00  0.00     0.046 C 
BRANCH   9  10
ATOM     10  C   UNL A   1      49.955  20.494  34.031  1.00  0.00     0.072 C 
BRANCH  10  11
ATOM     11  S   UNL A   1      48.310  19.634  33.395  1.00  0.00    -0.165 SA
ATOM     12  C   UNL A   1      46.773  19.995  34.595  1.00  0.00     0.085 C 
ENDBRANCH  10  11
ENDBRANCH   9  10
ENDBRANCH   8   9
BRANCH   8  13
ATOM     13  N   UNL A   1      48.260  23.151  35.390  1.00  0.00    -0.280 N 
ATOM     14  C   UNL A   1      47.671  24.102  34.713  1.00  0.00     0.266 C 
ATOM     15  C   UNL A   1      47.706  22.331  37.134  1.00  0.00     0.149 C 
ATOM     16  O   UNL A   1      47.785  24.770  33.727  1.00  0.00    -0.268 OA
ATOM     17  C   UNL A   1      46.677  23.663  35.544  1.00  0.00     0.081 C 
ATOM     18  S   UNL A   1      46.621  22.955  37.944  1.00  0.00    -0.054 SA
ATOM     19  S   UNL A   1      48.049  20.750  38.284  1.00  0.00    -0.052 S 
ATOM     20  C   UNL A   1      45.443  24.048  34.896  1.00  0.00     0.031 C 
BRANCH  20  21
ATOM     21  C   UNL A   1      44.336  23.853  35.757  1.00  0.00     0.001 A 
ATOM     22  C   UNL A   1      43.503  24.804  36.406  1.00  0.00     0.094 A 
ATOM     23  C   UNL A   1      43.659  23.807  34.555  1.00  0.00     0.007 A 
ATOM     24  N   UNL A   1      43.257  25.971  35.644  1.00  0.00    -0.350 N 
ATOM     25  C   UNL A   1      43.876  25.759  34.416  1.00  0.00     0.048 A 
ATOM     26  C   UNL A   1      43.991  23.027  32.730  1.00  0.00     0.011 A 
ATOM     27  C   UNL A   1      42.027  26.760  35.675  1.00  0.00     0.149 C 
ATOM     28  C   UNL A   1      44.419  26.802  32.870  1.00  0.00     0.027 A 
ATOM     29  C   UNL A   1      44.122  24.107  31.102  1.00  0.00     0.001 A 
ATOM     30  C   UNL A   1      44.341  26.073  31.025  1.00  0.00     0.002 A 
ENDBRANCH  20  21
ENDBRANCH   8  13
ENDBRANCH   5   8
ENDBRANCH   3   4
ENDBRANCH   2   3
ENDBRANCH   1   2
BRANCH   1  31
ATOM     31  C   UNL A   1      53.104  26.681  30.006  1.00  0.00     0.002 C 
BRANCH  31  32
ATOM     32  C   UNL A   1      54.047  26.652  28.803  1.00  0.00     0.021 C 
BRANCH  32  33
ATOM     33  C   UNL A   1      53.430  27.101  27.504  1.00  0.00     0.116 C 
BRANCH  33  34
ATOM     34  N   UNL A   1      53.536  26.055  26.506  1.00  0.00    -0.352 N 
ATOM     35  C   UNL A   1      52.592  25.127  26.160  1.00  0.00     0.251 C 
ATOM     36  H   UNL A   1      54.391  26.006  26.020  1.00  0.00     0.163 HD
ATOM     37  O   UNL A   1      52.912  24.097  25.577  1.00  0.00    -0.269 OA
BRANCH  35  38
ATOM     38  C   UNL A   1      51.185  25.392  26.514  1.00  0.00     0.039 A 
ATOM     39  C   UNL A   1      50.721  25.039  27.781  1.00  0.00     0.014 A 
ATOM     40  C   UNL A   1      50.343  26.028  25.596  1.00  0.00     0.014 A 
ATOM     41  C   UNL A   1      49.414  25.360  28.137  1.00  0.00     0.010 A 
ATOM     42  C   UNL A   1      49.088  26.455  25.999  1.00  0.00     0.010 A 
ATOM     43  C   UNL A   1      48.599  26.097  27.262  1.00  0.00    -0.014 A 
BRANCH  43  44
ATOM     44  C   UNL A   1      47.214  26.474  27.622  1.00  0.00     0.031 A 
ATOM     45  C   UNL A   1      46.112  25.458  27.489  1.00  0.00     0.074 A 
ATOM     46  C   UNL A   1      46.942  27.735  28.013  1.00  0.00     0.049 A 
ATOM     47  N   UNL A   1      44.828  25.609  27.688  1.00  0.00    -0.248 NA
ATOM     48  C   UNL A   1      46.494  24.101  27.054  1.00  0.00     0.031 C 
ATOM     49  C   UNL A   1      47.925  28.811  28.159  1.00  0.00     0.029 A 
ATOM     50  N   UNL A   1      45.752  28.325  28.358  1.00  0.00    -0.354 N 
ATOM     51  C   UNL A   1      44.254  24.381  27.384  1.00  0.00     0.074 A 
ATOM     52  C   UNL A   1      45.315  23.509  26.940  1.00  0.00     0.031 C 
ATOM     53  C   UNL A   1      47.303  29.917  28.599  1.00  0.00     0.029 A 
ATOM     54  C   UNL A   1      45.873  29.651  28.699  1.00  0.00     0.049 A 
ATOM     55  H   UNL A   1      44.893  27.844  28.359  1.00  0.00     0.167 HD
ATOM     56  C   UNL A   1      42.957  24.013  27.480  1.00  0.00     0.031 A 
ATOM     57  C   UNL A   1      44.932  30.553  29.035  1.00  0.00     0.031 A 
ATOM     58  C   UNL A   1      41.906  24.883  27.929  1.00  0.00     0.049 A 
ATOM     59  C   UNL A   1      43.489  30.121  29.072  1.00  0.00     0.074 A 
ATOM     60  C   UNL A   1      40.569  24.581  28.116  1.00  0.00     0.029 A 
ATOM     61  N   UNL A   1      42.068  26.221  28.246  1.00  0.00    -0.354 N 
ATOM     62  N   UNL A   1      42.974  28.935  28.856  1.00  0.00    -0.248 NA
ATOM     63  C   UNL A   1      42.496  31.152  29.408  1.00  0.00     0.031 C 
ATOM     64  C   UNL A   1      39.903  25.760  28.451  1.00  0.00     0.029 A 
ATOM     65  C   UNL A   1      40.843  26.769  28.581  1.00  0.00     0.049 A 
ATOM     66  H   UNL A   1      42.924  26.707  28.235  1.00  0.00     0.167 HD
ATOM     67  C   UNL A   1      41.608  29.069  29.079  1.00  0.00     0.074 A 
ATOM     68  C   UNL A   1      41.377  30.445  29.461  1.00  0.00     0.031 C 
ATOM     69  C   UNL A   1      40.632  28.137  28.978  1.00  0.00     0.031 A 
BRANCH  56  70
ATOM     70  C   UNL A   1      42.583  22.617  27.067  1.00  0.00    -0.014 A 
ATOM     71  C   UNL A   1      42.820  22.143  25.768  1.00  0.00     0.009 A 
ATOM     72  C   UNL A   1      42.073  21.732  28.031  1.00  0.00     0.009 A 
ATOM     73  C   UNL A   1      42.538  20.816  25.439  1.00  0.00     0.001 A 
ATOM     74  C   UNL A   1      41.827  20.398  27.710  1.00  0.00     0.001 A 
ATOM     75  C   UNL A   1      42.054  19.942  26.413  1.00  0.00     0.000 A 
ENDBRANCH  56  70
BRANCH  57  76
ATOM     76  C   UNL A   1      45.298  31.967  29.331  1.00  0.00    -0.014 A 
ATOM     77  C   UNL A   1      45.366  32.922  28.303  1.00  0.00     0.009 A 
ATOM     78  C   UNL A   1      45.662  32.352  30.630  1.00  0.00     0.009 A 
ATOM     79  C   UNL A   1      45.860  34.203  28.556  1.00  0.00     0.001 A 
ATOM     80  C   UNL A   1      46.108  33.649  30.890  1.00  0.00     0.001 A 
ATOM     81  C   UNL A   1      46.231  34.565  29.849  1.00  0.00     0.000 A 
ENDBRANCH  57  76
BRANCH  69  82
ATOM     82  C   UNL A   1      39.234  28.539  29.360  1.00  0.00    -0.014 A 
ATOM     83  C   UNL A   1      38.786  28.503  30.689  1.00  0.00     0.009 A 
ATOM     84  C   UNL A   1      38.369  29.028  28.365  1.00  0.00     0.009 A 
ATOM     85  C   UNL A   1      37.490  28.913  31.007  1.00  0.00     0.001 A 
ATOM     86  C   UNL A   1      37.092  29.479  28.693  1.00  0.00     0.001 A 
ATOM     87  C   UNL A   1      36.648  29.410  30.011  1.00  0.00     0.000 A 
ENDBRANCH  69  82
ENDBRANCH  43  44
ENDBRANCH  35  38
ENDBRANCH  33  34
ENDBRANCH  32  33
ENDBRANCH  31  32
ENDBRANCH   1  31
TORSDOF 18
ENDMDL
