MODEL 1
REMARK VINA RESULT:     -10.1      0.000      0.000
REMARK SMILES CC(C)[C@@](O)(C(=O)NCCCCCCNC(=O)c1ccc(-c2c3nc(c(-c4ccccc4)c4ccc([nH]4)c(-c4ccccc4)c4nc(c(-c5ccccc5)c5ccc2[nH]5)C=C4)C=C3)cc1)[C@H](C)c1ccc(F)cc1
REMARK SMILES IDX 11 1 10 2 9 3 8 4 6 5 7 6 4 8 2 9 1 10 3 11 5 12 66 14 67 15
REMARK SMILES IDX 68 16 69 17 74 18 70 19 73 20 71 21 72 22 12 23 13 24 14 25
REMARK SMILES IDX 15 26 16 27 17 29 18 30 19 31 65 32 20 33 64 34 21 35 22 36
REMARK SMILES IDX 23 37 58 38 24 39 63 40 57 41 59 42 25 43 62 44 56 45 55 46
REMARK SMILES IDX 26 48 48 49 33 50 47 51 34 52 37 53 46 54 60 55 35 56 36 57
REMARK SMILES IDX 45 59 61 60 38 61 27 62 28 63 32 64 29 65 31 66 30 67 49 68
REMARK SMILES IDX 50 69 54 70 51 71 53 72 52 73 39 74 40 75 44 76 41 77 43 78
REMARK SMILES IDX 42 79
REMARK H PARENT 8 7 5 13 15 28 59 47 37 58
REMARK Flexibility Score: inf
ROOT
ATOM      1  C   UNL A   1      35.077  21.069  25.720  1.00  0.00     0.002 C 
ENDROOT
BRANCH   1   2
ATOM      2  C   UNL A   1      33.722  20.406  25.449  1.00  0.00     0.021 C 
BRANCH   2   3
ATOM      3  C   UNL A   1      32.635  21.366  24.946  1.00  0.00     0.116 C 
BRANCH   3   4
ATOM      4  N   UNL A   1      32.047  22.087  26.058  1.00  0.00    -0.354 N 
ATOM      5  C   UNL A   1      31.743  23.408  26.213  1.00  0.00     0.252 C 
ATOM      6  O   UNL A   1      31.497  23.762  27.372  1.00  0.00    -0.272 OA
ATOM      7  H   UNL A   1      31.830  21.526  26.837  1.00  0.00     0.163 HD
BRANCH   5   8
ATOM      8  C   UNL A   1      31.761  24.440  25.009  1.00  0.00     0.151 C 
BRANCH   8   9
ATOM      9  C   UNL A   1      33.258  24.749  24.687  1.00  0.00     0.025 C 
ATOM     10  C   UNL A   1      34.216  24.657  25.885  1.00  0.00     0.011 C 
ATOM     11  C   UNL A   1      33.765  24.118  23.384  1.00  0.00     0.011 C 
ENDBRANCH   8   9
BRANCH   8  12
ATOM     12  O   UNL A   1      31.192  23.804  23.849  1.00  0.00    -0.379 OA
ATOM     13  H   UNL A   1      30.620  23.073  24.129  1.00  0.00     0.212 HD
ENDBRANCH   8  12
BRANCH   8  14
ATOM     14  C   UNL A   1      30.819  25.672  25.438  1.00  0.00     0.058 C 
ATOM     15  C   UNL A   1      29.705  25.862  24.366  1.00  0.00     0.016 C 
BRANCH  14  16
ATOM     16  C   UNL A   1      31.473  27.033  25.780  1.00  0.00    -0.042 A 
ATOM     17  C   UNL A   1      31.691  27.994  24.774  1.00  0.00     0.007 A 
ATOM     18  C   UNL A   1      31.967  27.348  27.062  1.00  0.00     0.007 A 
ATOM     19  C   UNL A   1      32.270  29.239  25.044  1.00  0.00     0.039 A 
ATOM     20  C   UNL A   1      32.595  28.573  27.326  1.00  0.00     0.039 A 
ATOM     21  C   UNL A   1      32.719  29.516  26.320  1.00  0.00     0.123 A 
ATOM     22  F   UNL A   1      33.292  30.698  26.579  1.00  0.00    -0.207 F 
ENDBRANCH  14  16
ENDBRANCH   8  14
ENDBRANCH   5   8
ENDBRANCH   3   4
ENDBRANCH   2   3
ENDBRANCH   1   2
BRANCH   1  23
ATOM     23  C   UNL A   1      36.123  20.864  24.622  1.00  0.00     0.002 C 
BRANCH  23  24
ATOM     24  C   UNL A   1      37.213  19.841  24.955  1.00  0.00     0.021 C 
BRANCH  24  25
ATOM     25  C   UNL A   1      38.455  20.429  25.616  1.00  0.00     0.116 C 
BRANCH  25  26
ATOM     26  N   UNL A   1      39.534  19.459  25.705  1.00  0.00    -0.352 N 
ATOM     27  C   UNL A   1      40.850  19.655  26.029  1.00  0.00     0.251 C 
ATOM     28  H   UNL A   1      39.283  18.528  25.504  1.00  0.00     0.163 HD
ATOM     29  O   UNL A   1      41.673  18.754  25.848  1.00  0.00    -0.269 OA
BRANCH  27  30
ATOM     30  C   UNL A   1      41.293  20.949  26.585  1.00  0.00     0.039 A 
ATOM     31  C   UNL A   1      41.843  21.903  25.724  1.00  0.00     0.014 A 
ATOM     32  C   UNL A   1      41.196  21.212  27.954  1.00  0.00     0.014 A 
ATOM     33  C   UNL A   1      42.254  23.137  26.230  1.00  0.00     0.010 A 
ATOM     34  C   UNL A   1      41.545  22.467  28.447  1.00  0.00     0.010 A 
ATOM     35  C   UNL A   1      42.089  23.437  27.593  1.00  0.00    -0.014 A 
BRANCH  35  36
ATOM     36  C   UNL A   1      42.499  24.753  28.140  1.00  0.00     0.031 A 
ATOM     37  C   UNL A   1      41.479  25.841  28.339  1.00  0.00     0.074 A 
ATOM     38  C   UNL A   1      43.797  24.988  28.415  1.00  0.00     0.049 A 
ATOM     39  N   UNL A   1      41.651  27.065  28.772  1.00  0.00    -0.248 NA
ATOM     40  C   UNL A   1      40.089  25.520  27.983  1.00  0.00     0.031 C 
ATOM     41  C   UNL A   1      44.889  24.030  28.231  1.00  0.00     0.029 A 
ATOM     42  N   UNL A   1      44.417  26.108  28.906  1.00  0.00    -0.354 N 
ATOM     43  C   UNL A   1      40.397  27.661  28.724  1.00  0.00     0.074 A 
ATOM     44  C   UNL A   1      39.484  26.684  28.174  1.00  0.00     0.031 C 
ATOM     45  C   UNL A   1      46.040  24.594  28.632  1.00  0.00     0.029 A 
ATOM     46  C   UNL A   1      45.773  25.962  29.065  1.00  0.00     0.049 A 
ATOM     47  H   UNL A   1      43.935  26.939  29.124  1.00  0.00     0.167 HD
ATOM     48  C   UNL A   1      40.033  28.904  29.119  1.00  0.00     0.031 A 
ATOM     49  C   UNL A   1      46.699  26.832  29.512  1.00  0.00     0.031 A 
ATOM     50  C   UNL A   1      40.936  29.874  29.678  1.00  0.00     0.049 A 
ATOM     51  C   UNL A   1      46.268  28.206  29.944  1.00  0.00     0.074 A 
ATOM     52  C   UNL A   1      40.653  31.141  30.156  1.00  0.00     0.029 A 
ATOM     53  N   UNL A   1      42.299  29.682  29.834  1.00  0.00    -0.354 N 
ATOM     54  N   UNL A   1      45.068  28.732  29.951  1.00  0.00    -0.248 NA
ATOM     55  C   UNL A   1      47.323  29.099  30.445  1.00  0.00     0.031 C 
ATOM     56  C   UNL A   1      41.855  31.734  30.561  1.00  0.00     0.029 A 
ATOM     57  C   UNL A   1      42.876  30.814  30.385  1.00  0.00     0.049 A 
ATOM     58  H   UNL A   1      42.787  28.861  29.590  1.00  0.00     0.167 HD
ATOM     59  C   UNL A   1      45.216  30.006  30.485  1.00  0.00     0.074 A 
ATOM     60  C   UNL A   1      46.621  30.166  30.803  1.00  0.00     0.031 C 
ATOM     61  C   UNL A   1      44.274  30.957  30.697  1.00  0.00     0.031 A 
BRANCH  48  62
ATOM     62  C   UNL A   1      38.587  29.286  28.953  1.00  0.00    -0.014 A 
ATOM     63  C   UNL A   1      38.100  29.776  27.730  1.00  0.00     0.009 A 
ATOM     64  C   UNL A   1      37.694  29.124  30.022  1.00  0.00     0.009 A 
ATOM     65  C   UNL A   1      36.758  30.133  27.594  1.00  0.00     0.001 A 
ATOM     66  C   UNL A   1      36.345  29.454  29.875  1.00  0.00     0.001 A 
ATOM     67  C   UNL A   1      35.881  29.969  28.665  1.00  0.00     0.000 A 
ENDBRANCH  48  62
BRANCH  49  68
ATOM     68  C   UNL A   1      48.124  26.422  29.600  1.00  0.00    -0.014 A 
ATOM     69  C   UNL A   1      48.618  25.811  30.762  1.00  0.00     0.009 A 
ATOM     70  C   UNL A   1      49.000  26.648  28.526  1.00  0.00     0.009 A 
ATOM     71  C   UNL A   1      49.966  25.460  30.859  1.00  0.00     0.001 A 
ATOM     72  C   UNL A   1      50.341  26.269  28.616  1.00  0.00     0.001 A 
ATOM     73  C   UNL A   1      50.826  25.686  29.785  1.00  0.00     0.000 A 
ENDBRANCH  49  68
BRANCH  61  74
ATOM     74  C   UNL A   1      44.726  32.238  31.339  1.00  0.00    -0.014 A 
ATOM     75  C   UNL A   1      45.147  33.333  30.570  1.00  0.00     0.009 A 
ATOM     76  C   UNL A   1      44.698  32.357  32.738  1.00  0.00     0.009 A 
ATOM     77  C   UNL A   1      45.568  34.511  31.192  1.00  0.00     0.001 A 
ATOM     78  C   UNL A   1      45.091  33.545  33.355  1.00  0.00     0.001 A 
ATOM     79  C   UNL A   1      45.535  34.617  32.582  1.00  0.00     0.000 A 
ENDBRANCH  61  74
ENDBRANCH  35  36
ENDBRANCH  27  30
ENDBRANCH  25  26
ENDBRANCH  24  25
ENDBRANCH  23  24
ENDBRANCH   1  23
TORSDOF 17
ENDMDL
MODEL 2
REMARK VINA RESULT:     -10.1      2.152      3.595
REMARK SMILES CC(C)[C@@](O)(C(=O)NCCCCCCNC(=O)c1ccc(-c2c3nc(c(-c4ccccc4)c4ccc([nH]4)c(-c4ccccc4)c4nc(c(-c5ccccc5)c5ccc2[nH]5)C=C4)C=C3)cc1)[C@H](C)c1ccc(F)cc1
REMARK SMILES IDX 11 1 10 2 9 3 8 4 6 5 7 6 4 8 2 9 1 10 3 11 5 12 66 14 67 15
REMARK SMILES IDX 68 16 69 17 74 18 70 19 73 20 71 21 72 22 12 23 13 24 14 25
REMARK SMILES IDX 15 26 16 27 17 29 18 30 19 31 65 32 20 33 64 34 21 35 22 36
REMARK SMILES IDX 23 37 58 38 24 39 63 40 57 41 59 42 25 43 62 44 56 45 55 46
REMARK SMILES IDX 26 48 48 49 33 50 47 51 34 52 37 53 46 54 60 55 35 56 36 57
REMARK SMILES IDX 45 59 61 60 38 61 27 62 28 63 32 64 29 65 31 66 30 67 49 68
REMARK SMILES IDX 50 69 54 70 51 71 53 72 52 73 39 74 40 75 44 76 41 77 43 78
REMARK SMILES IDX 42 79
REMARK H PARENT 8 7 5 13 15 28 59 47 37 58
REMARK Flexibility Score: inf
ROOT
ATOM      1  C   UNL A   1      37.522  22.677  25.519  1.00  0.00     0.002 C 
ENDROOT
BRANCH   1   2
ATOM      2  C   UNL A   1      36.268  23.427  25.978  1.00  0.00     0.021 C 
BRANCH   2   3
ATOM      3  C   UNL A   1      35.327  23.847  24.839  1.00  0.00     0.116 C 
BRANCH   3   4
ATOM      4  N   UNL A   1      34.297  24.736  25.339  1.00  0.00    -0.354 N 
ATOM      5  C   UNL A   1      32.937  24.637  25.318  1.00  0.00     0.252 C 
ATOM      6  O   UNL A   1      32.327  25.678  25.585  1.00  0.00    -0.272 OA
ATOM      7  H   UNL A   1      34.639  25.554  25.766  1.00  0.00     0.163 HD
BRANCH   5   8
ATOM      8  C   UNL A   1      32.179  23.301  24.922  1.00  0.00     0.151 C 
BRANCH   8   9
ATOM      9  C   UNL A   1      31.782  22.583  26.252  1.00  0.00     0.025 C 
ATOM     10  C   UNL A   1      32.874  22.559  27.332  1.00  0.00     0.011 C 
ATOM     11  C   UNL A   1      30.368  22.912  26.747  1.00  0.00     0.011 C 
ENDBRANCH   8   9
BRANCH   8  12
ATOM     12  O   UNL A   1      30.960  23.650  24.239  1.00  0.00    -0.379 OA
ATOM     13  H   UNL A   1      31.159  24.261  23.513  1.00  0.00     0.212 HD
ENDBRANCH   8  12
BRANCH   8  14
ATOM     14  C   UNL A   1      33.136  22.508  23.901  1.00  0.00     0.058 C 
ATOM     15  C   UNL A   1      32.899  23.044  22.457  1.00  0.00     0.016 C 
BRANCH  14  16
ATOM     16  C   UNL A   1      33.122  20.961  23.908  1.00  0.00    -0.042 A 
ATOM     17  C   UNL A   1      34.076  20.241  24.652  1.00  0.00     0.007 A 
ATOM     18  C   UNL A   1      32.244  20.196  23.114  1.00  0.00     0.007 A 
ATOM     19  C   UNL A   1      34.092  18.842  24.693  1.00  0.00     0.039 A 
ATOM     20  C   UNL A   1      32.289  18.795  23.110  1.00  0.00     0.039 A 
ATOM     21  C   UNL A   1      33.197  18.131  23.917  1.00  0.00     0.123 A 
ATOM     22  F   UNL A   1      33.221  16.793  23.936  1.00  0.00    -0.207 F 
ENDBRANCH  14  16
ENDBRANCH   8  14
ENDBRANCH   5   8
ENDBRANCH   3   4
ENDBRANCH   2   3
ENDBRANCH   1   2
BRANCH   1  23
ATOM     23  C   UNL A   1      37.294  21.679  24.382  1.00  0.00     0.002 C 
BRANCH  23  24
ATOM     24  C   UNL A   1      37.945  20.309  24.588  1.00  0.00     0.021 C 
BRANCH  24  25
ATOM     25  C   UNL A   1      38.604  20.117  25.951  1.00  0.00     0.116 C 
BRANCH  25  26
ATOM     26  N   UNL A   1      39.786  19.274  25.869  1.00  0.00    -0.352 N 
ATOM     27  C   UNL A   1      41.103  19.614  26.022  1.00  0.00     0.251 C 
ATOM     28  H   UNL A   1      39.615  18.324  25.675  1.00  0.00     0.163 HD
ATOM     29  O   UNL A   1      41.989  18.814  25.709  1.00  0.00    -0.269 OA
BRANCH  27  30
ATOM     30  C   UNL A   1      41.471  20.941  26.553  1.00  0.00     0.039 A 
ATOM     31  C   UNL A   1      41.505  21.131  27.938  1.00  0.00     0.014 A 
ATOM     32  C   UNL A   1      41.753  22.005  25.691  1.00  0.00     0.014 A 
ATOM     33  C   UNL A   1      41.864  22.376  28.457  1.00  0.00     0.010 A 
ATOM     34  C   UNL A   1      42.175  23.226  26.211  1.00  0.00     0.010 A 
ATOM     35  C   UNL A   1      42.222  23.428  27.598  1.00  0.00    -0.014 A 
BRANCH  35  36
ATOM     36  C   UNL A   1      42.630  24.749  28.136  1.00  0.00     0.031 A 
ATOM     37  C   UNL A   1      41.603  25.827  28.350  1.00  0.00     0.074 A 
ATOM     38  C   UNL A   1      43.930  24.997  28.388  1.00  0.00     0.049 A 
ATOM     39  N   UNL A   1      41.770  27.054  28.777  1.00  0.00    -0.248 NA
ATOM     40  C   UNL A   1      40.209  25.492  28.017  1.00  0.00     0.031 C 
ATOM     41  C   UNL A   1      45.027  24.048  28.187  1.00  0.00     0.029 A 
ATOM     42  N   UNL A   1      44.547  26.124  28.866  1.00  0.00    -0.354 N 
ATOM     43  C   UNL A   1      40.510  27.638  28.749  1.00  0.00     0.074 A 
ATOM     44  C   UNL A   1      39.597  26.651  28.216  1.00  0.00     0.031 C 
ATOM     45  C   UNL A   1      46.179  24.625  28.568  1.00  0.00     0.029 A 
ATOM     46  C   UNL A   1      45.907  25.991  29.003  1.00  0.00     0.049 A 
ATOM     47  H   UNL A   1      44.061  26.950  29.091  1.00  0.00     0.167 HD
ATOM     48  C   UNL A   1      40.140  28.879  29.148  1.00  0.00     0.031 A 
ATOM     49  C   UNL A   1      46.831  26.871  29.433  1.00  0.00     0.031 A 
ATOM     50  C   UNL A   1      41.044  29.858  29.689  1.00  0.00     0.049 A 
ATOM     51  C   UNL A   1      46.395  28.241  29.869  1.00  0.00     0.074 A 
ATOM     52  C   UNL A   1      40.757  31.124  30.170  1.00  0.00     0.029 A 
ATOM     53  N   UNL A   1      42.411  29.679  29.823  1.00  0.00    -0.354 N 
ATOM     54  N   UNL A   1      45.190  28.756  29.895  1.00  0.00    -0.248 NA
ATOM     55  C   UNL A   1      47.449  29.146  30.351  1.00  0.00     0.031 C 
ATOM     56  C   UNL A   1      41.960  31.728  30.553  1.00  0.00     0.029 A 
ATOM     57  C   UNL A   1      42.986  30.818  30.362  1.00  0.00     0.049 A 
ATOM     58  H   UNL A   1      42.902  28.863  29.572  1.00  0.00     0.167 HD
ATOM     59  C   UNL A   1      45.335  30.032  30.424  1.00  0.00     0.074 A 
ATOM     60  C   UNL A   1      46.744  30.206  30.718  1.00  0.00     0.031 C 
ATOM     61  C   UNL A   1      44.388  30.975  30.649  1.00  0.00     0.031 A 
BRANCH  48  62
ATOM     62  C   UNL A   1      38.688  29.246  29.005  1.00  0.00    -0.014 A 
ATOM     63  C   UNL A   1      38.177  29.732  27.790  1.00  0.00     0.009 A 
ATOM     64  C   UNL A   1      37.814  29.076  30.089  1.00  0.00     0.009 A 
ATOM     65  C   UNL A   1      36.829  30.076  27.676  1.00  0.00     0.001 A 
ATOM     66  C   UNL A   1      36.460  29.393  29.964  1.00  0.00     0.001 A 
ATOM     67  C   UNL A   1      35.971  29.903  28.761  1.00  0.00     0.000 A 
ENDBRANCH  48  62
BRANCH  49  68
ATOM     68  C   UNL A   1      48.262  26.474  29.497  1.00  0.00    -0.014 A 
ATOM     69  C   UNL A   1      49.115  26.712  28.409  1.00  0.00     0.009 A 
ATOM     70  C   UNL A   1      48.780  25.849  30.642  1.00  0.00     0.009 A 
ATOM     71  C   UNL A   1      50.450  26.305  28.454  1.00  0.00     0.001 A 
ATOM     72  C   UNL A   1      50.123  25.470  30.695  1.00  0.00     0.001 A 
ATOM     73  C   UNL A   1      50.954  25.688  29.598  1.00  0.00     0.000 A 
ENDBRANCH  49  68
BRANCH  61  74
ATOM     74  C   UNL A   1      44.838  32.262  31.282  1.00  0.00    -0.014 A 
ATOM     75  C   UNL A   1      44.884  32.414  32.676  1.00  0.00     0.009 A 
ATOM     76  C   UNL A   1      45.252  33.326  30.465  1.00  0.00     0.009 A 
ATOM     77  C   UNL A   1      45.300  33.623  33.239  1.00  0.00     0.001 A 
ATOM     78  C   UNL A   1      45.695  34.522  31.031  1.00  0.00     0.001 A 
ATOM     79  C   UNL A   1      45.709  34.673  32.417  1.00  0.00     0.000 A 
ENDBRANCH  61  74
ENDBRANCH  35  36
ENDBRANCH  27  30
ENDBRANCH  25  26
ENDBRANCH  24  25
ENDBRANCH  23  24
ENDBRANCH   1  23
TORSDOF 17
ENDMDL
MODEL 3
REMARK VINA RESULT:     -10.1      2.187      6.911
REMARK SMILES CC(C)[C@@](O)(C(=O)NCCCCCCNC(=O)c1ccc(-c2c3nc(c(-c4ccccc4)c4ccc([nH]4)c(-c4ccccc4)c4nc(c(-c5ccccc5)c5ccc2[nH]5)C=C4)C=C3)cc1)[C@H](C)c1ccc(F)cc1
REMARK SMILES IDX 11 1 10 2 9 3 8 4 6 5 7 6 4 8 2 9 1 10 3 11 5 12 66 14 67 15
REMARK SMILES IDX 68 16 69 17 74 18 70 19 73 20 71 21 72 22 12 23 13 24 14 25
REMARK SMILES IDX 15 26 16 27 17 29 18 30 19 31 65 32 20 33 64 34 21 35 22 36
REMARK SMILES IDX 23 37 58 38 24 39 63 40 57 41 59 42 25 43 62 44 56 45 55 46
REMARK SMILES IDX 26 48 48 49 33 50 47 51 34 52 37 53 46 54 60 55 35 56 36 57
REMARK SMILES IDX 45 59 61 60 38 61 27 62 28 63 32 64 29 65 31 66 30 67 49 68
REMARK SMILES IDX 50 69 54 70 51 71 53 72 52 73 39 74 40 75 44 76 41 77 43 78
REMARK SMILES IDX 42 79
REMARK H PARENT 8 7 5 13 15 28 59 47 37 58
REMARK Flexibility Score: inf
ROOT
ATOM      1  C   UNL A   1      37.691  22.513  25.654  1.00  0.00     0.002 C 
ENDROOT
BRANCH   1   2
ATOM      2  C   UNL A   1      36.463  23.312  26.102  1.00  0.00     0.021 C 
BRANCH   2   3
ATOM      3  C   UNL A   1      35.558  23.782  24.954  1.00  0.00     0.116 C 
BRANCH   3   4
ATOM      4  N   UNL A   1      34.539  24.684  25.454  1.00  0.00    -0.354 N 
ATOM      5  C   UNL A   1      33.177  24.615  25.408  1.00  0.00     0.252 C 
ATOM      6  O   UNL A   1      32.586  25.665  25.685  1.00  0.00    -0.272 OA
ATOM      7  H   UNL A   1      34.891  25.486  25.904  1.00  0.00     0.163 HD
BRANCH   5   8
ATOM      8  C   UNL A   1      32.397  23.306  24.972  1.00  0.00     0.151 C 
BRANCH   8   9
ATOM      9  C   UNL A   1      31.958  22.572  26.280  1.00  0.00     0.025 C 
ATOM     10  C   UNL A   1      33.026  22.505  27.381  1.00  0.00     0.011 C 
ATOM     11  C   UNL A   1      30.541  22.922  26.752  1.00  0.00     0.011 C 
ENDBRANCH   8   9
BRANCH   8  12
ATOM     12  O   UNL A   1      31.201  23.695  24.272  1.00  0.00    -0.379 OA
ATOM     13  H   UNL A   1      30.615  22.928  24.181  1.00  0.00     0.212 HD
ENDBRANCH   8  12
BRANCH   8  14
ATOM     14  C   UNL A   1      33.356  22.510  23.955  1.00  0.00     0.058 C 
ATOM     15  C   UNL A   1      33.150  23.068  22.515  1.00  0.00     0.016 C 
BRANCH  14  16
ATOM     16  C   UNL A   1      33.318  20.963  23.942  1.00  0.00    -0.042 A 
ATOM     17  C   UNL A   1      32.320  20.279  23.221  1.00  0.00     0.007 A 
ATOM     18  C   UNL A   1      34.191  20.165  24.708  1.00  0.00     0.007 A 
ATOM     19  C   UNL A   1      32.256  18.881  23.176  1.00  0.00     0.039 A 
ATOM     20  C   UNL A   1      34.099  18.766  24.708  1.00  0.00     0.039 A 
ATOM     21  C   UNL A   1      33.147  18.137  23.924  1.00  0.00     0.123 A 
ATOM     22  F   UNL A   1      33.078  16.800  23.901  1.00  0.00    -0.207 F 
ENDBRANCH  14  16
ENDBRANCH   8  14
ENDBRANCH   5   8
ENDBRANCH   3   4
ENDBRANCH   2   3
ENDBRANCH   1   2
BRANCH   1  23
ATOM     23  C   UNL A   1      37.441  21.543  24.498  1.00  0.00     0.002 C 
BRANCH  23  24
ATOM     24  C   UNL A   1      38.056  20.153  24.680  1.00  0.00     0.021 C 
BRANCH  24  25
ATOM     25  C   UNL A   1      38.741  19.933  26.025  1.00  0.00     0.116 C 
BRANCH  25  26
ATOM     26  N   UNL A   1      39.981  19.187  25.888  1.00  0.00    -0.352 N 
ATOM     27  C   UNL A   1      41.272  19.629  25.999  1.00  0.00     0.251 C 
ATOM     28  H   UNL A   1      39.879  18.229  25.685  1.00  0.00     0.163 HD
ATOM     29  O   UNL A   1      42.206  18.906  25.642  1.00  0.00    -0.269 OA
BRANCH  27  30
ATOM     30  C   UNL A   1      41.553  20.974  26.537  1.00  0.00     0.039 A 
ATOM     31  C   UNL A   1      41.623  21.149  27.923  1.00  0.00     0.014 A 
ATOM     32  C   UNL A   1      41.718  22.068  25.683  1.00  0.00     0.014 A 
ATOM     33  C   UNL A   1      41.902  22.411  28.449  1.00  0.00     0.010 A 
ATOM     34  C   UNL A   1      42.061  23.312  26.206  1.00  0.00     0.010 A 
ATOM     35  C   UNL A   1      42.144  23.499  27.593  1.00  0.00    -0.014 A 
BRANCH  35  36
ATOM     36  C   UNL A   1      42.465  24.842  28.137  1.00  0.00     0.031 A 
ATOM     37  C   UNL A   1      43.872  25.171  28.556  1.00  0.00     0.074 A 
ATOM     38  C   UNL A   1      41.483  25.750  28.299  1.00  0.00     0.049 A 
ATOM     39  N   UNL A   1      44.339  26.275  29.085  1.00  0.00    -0.248 NA
ATOM     40  C   UNL A   1      44.881  24.115  28.382  1.00  0.00     0.031 C 
ATOM     41  C   UNL A   1      40.072  25.541  27.968  1.00  0.00     0.029 A 
ATOM     42  N   UNL A   1      41.524  27.031  28.787  1.00  0.00    -0.354 N 
ATOM     43  C   UNL A   1      45.688  26.039  29.319  1.00  0.00     0.074 A 
ATOM     44  C   UNL A   1      45.954  24.673  28.923  1.00  0.00     0.031 C 
ATOM     45  C   UNL A   1      39.388  26.665  28.234  1.00  0.00     0.029 A 
ATOM     46  C   UNL A   1      40.303  27.659  28.788  1.00  0.00     0.049 A 
ATOM     47  H   UNL A   1      42.351  27.460  29.106  1.00  0.00     0.167 HD
ATOM     48  C   UNL A   1      46.626  26.887  29.803  1.00  0.00     0.031 A 
ATOM     49  C   UNL A   1      39.958  28.897  29.190  1.00  0.00     0.031 A 
ATOM     50  C   UNL A   1      46.367  28.249  30.185  1.00  0.00     0.049 A 
ATOM     51  C   UNL A   1      41.019  29.819  29.724  1.00  0.00     0.074 A 
ATOM     52  C   UNL A   1      47.261  29.203  30.638  1.00  0.00     0.029 A 
ATOM     53  N   UNL A   1      45.119  28.850  30.159  1.00  0.00    -0.354 N 
ATOM     54  N   UNL A   1      42.301  29.600  29.880  1.00  0.00    -0.248 NA
ATOM     55  C   UNL A   1      40.581  31.165  30.122  1.00  0.00     0.031 C 
ATOM     56  C   UNL A   1      46.545  30.370  30.929  1.00  0.00     0.029 A 
ATOM     57  C   UNL A   1      45.215  30.158  30.604  1.00  0.00     0.049 A 
ATOM     58  H   UNL A   1      44.286  28.412  29.867  1.00  0.00     0.167 HD
ATOM     59  C   UNL A   1      42.831  30.790  30.364  1.00  0.00     0.074 A 
ATOM     60  C   UNL A   1      41.732  31.730  30.461  1.00  0.00     0.031 C 
ATOM     61  C   UNL A   1      44.113  31.080  30.695  1.00  0.00     0.031 A 
BRANCH  48  62
ATOM     62  C   UNL A   1      48.027  26.357  29.949  1.00  0.00    -0.014 A 
ATOM     63  C   UNL A   1      48.456  25.759  31.145  1.00  0.00     0.009 A 
ATOM     64  C   UNL A   1      48.918  26.428  28.868  1.00  0.00     0.009 A 
ATOM     65  C   UNL A   1      49.761  25.280  31.268  1.00  0.00     0.001 A 
ATOM     66  C   UNL A   1      50.214  25.921  28.984  1.00  0.00     0.001 A 
ATOM     67  C   UNL A   1      50.638  25.357  30.187  1.00  0.00     0.000 A 
ENDBRANCH  48  62
BRANCH  49  68
ATOM     68  C   UNL A   1      38.547  29.349  29.078  1.00  0.00    -0.014 A 
ATOM     69  C   UNL A   1      37.680  29.252  30.178  1.00  0.00     0.009 A 
ATOM     70  C   UNL A   1      38.056  29.871  27.871  1.00  0.00     0.009 A 
ATOM     71  C   UNL A   1      36.344  29.641  30.062  1.00  0.00     0.001 A 
ATOM     72  C   UNL A   1      36.728  30.287  27.768  1.00  0.00     0.001 A 
ATOM     73  C   UNL A   1      35.870  30.161  28.859  1.00  0.00     0.000 A 
ENDBRANCH  49  68
BRANCH  61  74
ATOM     74  C   UNL A   1      44.402  32.482  31.153  1.00  0.00    -0.014 A 
ATOM     75  C   UNL A   1      44.333  32.837  32.508  1.00  0.00     0.009 A 
ATOM     76  C   UNL A   1      44.780  33.452  30.212  1.00  0.00     0.009 A 
ATOM     77  C   UNL A   1      44.600  34.148  32.907  1.00  0.00     0.001 A 
ATOM     78  C   UNL A   1      45.076  34.754  30.617  1.00  0.00     0.001 A 
ATOM     79  C   UNL A   1      44.975  35.104  31.963  1.00  0.00     0.000 A 
ENDBRANCH  61  74
ENDBRANCH  35  36
ENDBRANCH  27  30
ENDBRANCH  25  26
ENDBRANCH  24  25
ENDBRANCH  23  24
ENDBRANCH   1  23
TORSDOF 17
ENDMDL
