MODEL 1
REMARK VINA RESULT:     -10.4      0.000      0.000
REMARK SMILES C[C@@H]1[C@@H](C(=O)NCCCCCCNC(=O)c2ccc(-c3c4nc(c(-c5ccccc5)c5ccc([nH]5)c(-c5ccccc5)c5nc(c(-c6ccccc6)c6ccc3[nH]6)C=C5)C=C4)cc2)CCN1C(=O)[C@]1([NH3+])CCOC1
REMARK SMILES IDX 9 1 8 2 7 3 6 4 4 5 5 6 3 8 1 9 2 10 66 11 64 12 65 13 67 14
REMARK SMILES IDX 68 15 69 16 71 17 74 18 72 19 73 20 70 21 10 25 11 26 12 27
REMARK SMILES IDX 13 28 14 29 15 31 16 32 17 33 63 34 18 35 62 36 19 37 20 38
REMARK SMILES IDX 21 39 56 40 22 41 61 42 55 43 57 44 23 45 60 46 54 47 53 48
REMARK SMILES IDX 24 50 46 51 31 52 45 53 32 54 35 55 44 56 58 57 33 58 34 59
REMARK SMILES IDX 43 61 59 62 36 63 25 64 26 65 30 66 27 67 29 68 28 69 47 70
REMARK SMILES IDX 48 71 52 72 49 73 51 74 50 75 37 76 38 77 42 78 39 79 41 80
REMARK SMILES IDX 40 81
REMARK H PARENT 6 7 70 22 70 23 70 24 13 30 57 49 35 60
REMARK Flexibility Score: inf
ROOT
ATOM      1  C   UNL A   1      31.609  28.417  24.759  1.00  0.00     0.002 C 
ENDROOT
BRANCH   1   2
ATOM      2  C   UNL A   1      30.828  28.686  23.465  1.00  0.00     0.021 C 
BRANCH   2   3
ATOM      3  C   UNL A   1      30.633  27.464  22.566  1.00  0.00     0.116 C 
BRANCH   3   4
ATOM      4  N   UNL A   1      31.882  27.058  21.951  1.00  0.00    -0.356 N 
ATOM      5  C   UNL A   1      32.769  26.091  22.308  1.00  0.00     0.225 C 
ATOM      6  O   UNL A   1      33.766  25.942  21.602  1.00  0.00    -0.275 OA
ATOM      7  H   UNL A   1      32.127  27.566  21.144  1.00  0.00     0.163 HD
BRANCH   5   8
ATOM      8  C   UNL A   1      32.477  25.210  23.514  1.00  0.00     0.102 C 
ATOM      9  C   UNL A   1      33.329  24.615  25.791  1.00  0.00     0.032 C 
ATOM     10  C   UNL A   1      33.738  24.892  24.339  1.00  0.00     0.094 C 
ATOM     11  N   UNL A   1      34.298  23.692  23.708  1.00  0.00    -0.334 N 
ATOM     12  C   UNL A   1      31.997  23.819  23.090  1.00  0.00     0.037 C 
ATOM     13  C   UNL A   1      33.289  23.048  22.867  1.00  0.00     0.121 C 
BRANCH  11  14
ATOM     14  C   UNL A   1      35.580  23.184  23.672  1.00  0.00     0.286 C 
ATOM     15  O   UNL A   1      36.231  23.301  22.619  1.00  0.00    -0.267 OA
BRANCH  14  16
ATOM     16  C   UNL A   1      36.300  22.496  24.894  1.00  0.00     0.199 C 
ATOM     17  C   UNL A   1      37.528  21.677  24.556  1.00  0.00     0.110 C 
ATOM     18  C   UNL A   1      35.400  21.534  25.663  1.00  0.00     0.239 C 
ATOM     19  C   UNL A   1      37.146  20.235  24.822  1.00  0.00     0.167 C 
ATOM     20  O   UNL A   1      35.835  20.193  25.384  1.00  0.00    -0.374 OA
BRANCH  16  21
ATOM     21  N   UNL A   1      36.744  23.604  25.805  1.00  0.00    -0.343 N 
ATOM     22  H   UNL A   1      36.023  23.780  26.504  1.00  0.00     0.345 HD
ATOM     23  H   UNL A   1      36.903  24.450  25.258  1.00  0.00     0.345 HD
ATOM     24  H   UNL A   1      37.611  23.334  26.271  1.00  0.00     0.345 HD
ENDBRANCH  16  21
ENDBRANCH  14  16
ENDBRANCH  11  14
ENDBRANCH   5   8
ENDBRANCH   3   4
ENDBRANCH   2   3
ENDBRANCH   1   2
BRANCH   1  25
ATOM     25  C   UNL A   1      33.024  28.998  24.809  1.00  0.00     0.002 C 
BRANCH  25  26
ATOM     26  C   UNL A   1      33.967  28.337  25.816  1.00  0.00     0.021 C 
BRANCH  26  27
ATOM     27  C   UNL A   1      33.605  28.551  27.284  1.00  0.00     0.116 C 
BRANCH  27  28
ATOM     28  N   UNL A   1      33.561  29.957  27.649  1.00  0.00    -0.352 N 
ATOM     29  C   UNL A   1      34.513  30.739  28.253  1.00  0.00     0.251 C 
ATOM     30  H   UNL A   1      32.720  30.419  27.429  1.00  0.00     0.163 HD
ATOM     31  O   UNL A   1      34.229  31.876  28.616  1.00  0.00    -0.269 OA
BRANCH  29  32
ATOM     32  C   UNL A   1      35.877  30.215  28.493  1.00  0.00     0.039 A 
ATOM     33  C   UNL A   1      36.813  30.291  27.456  1.00  0.00     0.014 A 
ATOM     34  C   UNL A   1      36.230  29.620  29.708  1.00  0.00     0.014 A 
ATOM     35  C   UNL A   1      38.112  29.818  27.655  1.00  0.00     0.010 A 
ATOM     36  C   UNL A   1      37.546  29.211  29.927  1.00  0.00     0.010 A 
ATOM     37  C   UNL A   1      38.498  29.298  28.901  1.00  0.00    -0.014 A 
BRANCH  37  38
ATOM     38  C   UNL A   1      39.890  28.836  29.135  1.00  0.00     0.031 A 
ATOM     39  C   UNL A   1      40.895  29.744  29.790  1.00  0.00     0.074 A 
ATOM     40  C   UNL A   1      40.263  27.608  28.723  1.00  0.00     0.049 A 
ATOM     41  N   UNL A   1      42.156  29.519  30.063  1.00  0.00    -0.248 NA
ATOM     42  C   UNL A   1      40.430  31.088  30.170  1.00  0.00     0.031 C 
ATOM     43  C   UNL A   1      39.399  26.643  28.041  1.00  0.00     0.029 A 
ATOM     44  N   UNL A   1      41.471  26.964  28.820  1.00  0.00    -0.354 N 
ATOM     45  C   UNL A   1      42.635  30.693  30.632  1.00  0.00     0.074 A 
ATOM     46  C   UNL A   1      41.545  31.643  30.620  1.00  0.00     0.031 C 
ATOM     47  C   UNL A   1      40.094  25.518  27.811  1.00  0.00     0.029 A 
ATOM     48  C   UNL A   1      41.460  25.694  28.294  1.00  0.00     0.049 A 
ATOM     49  H   UNL A   1      42.269  27.372  29.226  1.00  0.00     0.167 HD
ATOM     50  C   UNL A   1      43.864  30.951  31.139  1.00  0.00     0.031 A 
ATOM     51  C   UNL A   1      42.438  24.773  28.212  1.00  0.00     0.031 A 
ATOM     52  C   UNL A   1      44.948  30.005  31.163  1.00  0.00     0.049 A 
ATOM     53  C   UNL A   1      43.798  25.089  28.771  1.00  0.00     0.074 A 
ATOM     54  C   UNL A   1      46.212  30.156  31.707  1.00  0.00     0.029 A 
ATOM     55  N   UNL A   1      44.896  28.731  30.619  1.00  0.00    -0.354 N 
ATOM     56  N   UNL A   1      44.212  26.179  29.368  1.00  0.00    -0.248 NA
ATOM     57  C   UNL A   1      44.819  24.039  28.654  1.00  0.00     0.031 C 
ATOM     58  C   UNL A   1      46.942  28.991  31.448  1.00  0.00     0.029 A 
ATOM     59  C   UNL A   1      46.114  28.096  30.790  1.00  0.00     0.049 A 
ATOM     60  H   UNL A   1      44.109  28.338  30.176  1.00  0.00     0.167 HD
ATOM     61  C   UNL A   1      45.534  25.938  29.720  1.00  0.00     0.074 A 
ATOM     62  C   UNL A   1      45.846  24.592  29.285  1.00  0.00     0.031 C 
ATOM     63  C   UNL A   1      46.411  26.759  30.347  1.00  0.00     0.031 A 
BRANCH  50  64
ATOM     64  C   UNL A   1      44.103  32.323  31.708  1.00  0.00    -0.014 A 
ATOM     65  C   UNL A   1      44.548  33.379  30.897  1.00  0.00     0.009 A 
ATOM     66  C   UNL A   1      43.846  32.571  33.065  1.00  0.00     0.009 A 
ATOM     67  C   UNL A   1      44.766  34.646  31.442  1.00  0.00     0.001 A 
ATOM     68  C   UNL A   1      44.038  33.845  33.601  1.00  0.00     0.001 A 
ATOM     69  C   UNL A   1      44.507  34.880  32.791  1.00  0.00     0.000 A 
ENDBRANCH  50  64
BRANCH  51  70
ATOM     70  C   UNL A   1      42.166  23.451  27.591  1.00  0.00    -0.014 A 
ATOM     71  C   UNL A   1      42.493  23.217  26.246  1.00  0.00     0.009 A 
ATOM     72  C   UNL A   1      41.570  22.421  28.335  1.00  0.00     0.009 A 
ATOM     73  C   UNL A   1      42.204  21.986  25.653  1.00  0.00     0.001 A 
ATOM     74  C   UNL A   1      41.308  21.183  27.746  1.00  0.00     0.001 A 
ATOM     75  C   UNL A   1      41.615  20.969  26.403  1.00  0.00     0.000 A 
ENDBRANCH  51  70
BRANCH  63  76
ATOM     76  C   UNL A   1      47.784  26.213  30.622  1.00  0.00    -0.014 A 
ATOM     77  C   UNL A   1      48.784  26.228  29.637  1.00  0.00     0.009 A 
ATOM     78  C   UNL A   1      48.089  25.705  31.894  1.00  0.00     0.009 A 
ATOM     79  C   UNL A   1      50.053  25.715  29.912  1.00  0.00     0.001 A 
ATOM     80  C   UNL A   1      49.367  25.219  32.175  1.00  0.00     0.001 A 
ATOM     81  C   UNL A   1      50.344  25.216  31.181  1.00  0.00     0.000 A 
ENDBRANCH  63  76
ENDBRANCH  37  38
ENDBRANCH  29  32
ENDBRANCH  27  28
ENDBRANCH  26  27
ENDBRANCH  25  26
ENDBRANCH   1  25
TORSDOF 16
ENDMDL
MODEL 2
REMARK VINA RESULT:     -10.4      1.916      8.049
REMARK SMILES C[C@@H]1[C@@H](C(=O)NCCCCCCNC(=O)c2ccc(-c3c4nc(c(-c5ccccc5)c5ccc([nH]5)c(-c5ccccc5)c5nc(c(-c6ccccc6)c6ccc3[nH]6)C=C5)C=C4)cc2)CCN1C(=O)[C@]1([NH3+])CCOC1
REMARK SMILES IDX 9 1 8 2 7 3 6 4 4 5 5 6 3 8 1 9 2 10 66 11 64 12 65 13 67 14
REMARK SMILES IDX 68 15 69 16 71 17 74 18 72 19 73 20 70 21 10 25 11 26 12 27
REMARK SMILES IDX 13 28 14 29 15 31 16 32 17 33 63 34 18 35 62 36 19 37 20 38
REMARK SMILES IDX 21 39 56 40 22 41 61 42 55 43 57 44 23 45 60 46 54 47 53 48
REMARK SMILES IDX 24 50 46 51 31 52 45 53 32 54 35 55 44 56 58 57 33 58 34 59
REMARK SMILES IDX 43 61 59 62 36 63 25 64 26 65 30 66 27 67 29 68 28 69 47 70
REMARK SMILES IDX 48 71 52 72 49 73 51 74 50 75 37 76 38 77 42 78 39 79 41 80
REMARK SMILES IDX 40 81
REMARK H PARENT 6 7 70 22 70 23 70 24 13 30 57 49 35 60
REMARK Flexibility Score: inf
ROOT
ATOM      1  C   UNL A   1      36.219  22.030  24.970  1.00  0.00     0.002 C 
ENDROOT
BRANCH   1   2
ATOM      2  C   UNL A   1      35.093  22.776  24.241  1.00  0.00     0.021 C 
BRANCH   2   3
ATOM      3  C   UNL A   1      34.761  24.155  24.810  1.00  0.00     0.116 C 
BRANCH   3   4
ATOM      4  N   UNL A   1      33.336  24.304  25.034  1.00  0.00    -0.356 N 
ATOM      5  C   UNL A   1      32.485  25.302  24.675  1.00  0.00     0.225 C 
ATOM      6  O   UNL A   1      31.300  25.182  24.986  1.00  0.00    -0.275 OA
ATOM      7  H   UNL A   1      32.917  23.561  25.526  1.00  0.00     0.163 HD
BRANCH   5   8
ATOM      8  C   UNL A   1      33.007  26.484  23.871  1.00  0.00     0.102 C 
ATOM      9  C   UNL A   1      33.061  28.986  23.826  1.00  0.00     0.032 C 
ATOM     10  C   UNL A   1      32.172  27.761  24.079  1.00  0.00     0.094 C 
ATOM     11  N   UNL A   1      31.102  27.669  23.080  1.00  0.00    -0.334 N 
ATOM     12  C   UNL A   1      32.875  26.241  22.365  1.00  0.00     0.037 C 
ATOM     13  C   UNL A   1      31.453  26.687  22.055  1.00  0.00     0.121 C 
BRANCH  11  14
ATOM     14  C   UNL A   1      29.839  28.219  23.033  1.00  0.00     0.286 C 
ATOM     15  O   UNL A   1      28.881  27.536  23.437  1.00  0.00    -0.267 OA
BRANCH  14  16
ATOM     16  C   UNL A   1      29.522  29.681  22.534  1.00  0.00     0.199 C 
ATOM     17  C   UNL A   1      29.468  30.745  23.611  1.00  0.00     0.110 C 
ATOM     18  C   UNL A   1      28.182  29.798  21.815  1.00  0.00     0.239 C 
ATOM     19  C   UNL A   1      28.017  31.172  23.693  1.00  0.00     0.167 C 
ATOM     20  O   UNL A   1      27.273  30.507  22.674  1.00  0.00    -0.374 OA
BRANCH  16  21
ATOM     21  N   UNL A   1      30.630  30.059  21.594  1.00  0.00    -0.343 N 
ATOM     22  H   UNL A   1      30.367  29.810  20.640  1.00  0.00     0.345 HD
ATOM     23  H   UNL A   1      31.481  29.560  21.854  1.00  0.00     0.345 HD
ATOM     24  H   UNL A   1      30.796  31.064  21.650  1.00  0.00     0.345 HD
ENDBRANCH  16  21
ENDBRANCH  14  16
ENDBRANCH  11  14
ENDBRANCH   5   8
ENDBRANCH   3   4
ENDBRANCH   2   3
ENDBRANCH   1   2
BRANCH   1  25
ATOM     25  C   UNL A   1      36.096  20.504  24.989  1.00  0.00     0.002 C 
BRANCH  25  26
ATOM     26  C   UNL A   1      37.415  19.740  24.855  1.00  0.00     0.021 C 
BRANCH  26  27
ATOM     27  C   UNL A   1      38.577  20.299  25.673  1.00  0.00     0.116 C 
BRANCH  27  28
ATOM     28  N   UNL A   1      39.713  19.396  25.720  1.00  0.00    -0.352 N 
ATOM     29  C   UNL A   1      41.017  19.642  26.069  1.00  0.00     0.251 C 
ATOM     30  H   UNL A   1      39.518  18.466  25.464  1.00  0.00     0.163 HD
ATOM     31  O   UNL A   1      41.868  18.774  25.901  1.00  0.00    -0.269 OA
BRANCH  29  32
ATOM     32  C   UNL A   1      41.414  20.956  26.626  1.00  0.00     0.039 A 
ATOM     33  C   UNL A   1      41.923  21.923  25.754  1.00  0.00     0.014 A 
ATOM     34  C   UNL A   1      41.326  21.229  27.994  1.00  0.00     0.014 A 
ATOM     35  C   UNL A   1      42.295  23.177  26.245  1.00  0.00     0.010 A 
ATOM     36  C   UNL A   1      41.632  22.503  28.472  1.00  0.00     0.010 A 
ATOM     37  C   UNL A   1      42.127  23.487  27.605  1.00  0.00    -0.014 A 
BRANCH  37  38
ATOM     38  C   UNL A   1      42.476  24.834  28.127  1.00  0.00     0.031 A 
ATOM     39  C   UNL A   1      43.898  25.167  28.486  1.00  0.00     0.074 A 
ATOM     40  C   UNL A   1      41.503  25.748  28.315  1.00  0.00     0.049 A 
ATOM     41  N   UNL A   1      44.387  26.283  28.967  1.00  0.00    -0.248 NA
ATOM     42  C   UNL A   1      44.899  24.104  28.300  1.00  0.00     0.031 C 
ATOM     43  C   UNL A   1      40.080  25.541  28.043  1.00  0.00     0.029 A 
ATOM     44  N   UNL A   1      41.569  27.038  28.779  1.00  0.00    -0.354 N 
ATOM     45  C   UNL A   1      45.745  26.052  29.153  1.00  0.00     0.074 A 
ATOM     46  C   UNL A   1      45.993  24.676  28.780  1.00  0.00     0.031 C 
ATOM     47  C   UNL A   1      39.412  26.673  28.314  1.00  0.00     0.029 A 
ATOM     48  C   UNL A   1      40.352  27.673  28.812  1.00  0.00     0.049 A 
ATOM     49  H   UNL A   1      42.408  27.467  29.062  1.00  0.00     0.167 HD
ATOM     50  C   UNL A   1      46.703  26.910  29.575  1.00  0.00     0.031 A 
ATOM     51  C   UNL A   1      40.026  28.921  29.197  1.00  0.00     0.031 A 
ATOM     52  C   UNL A   1      46.463  28.282  29.936  1.00  0.00     0.049 A 
ATOM     53  C   UNL A   1      41.107  29.852  29.673  1.00  0.00     0.074 A 
ATOM     54  C   UNL A   1      47.379  29.246  30.320  1.00  0.00     0.029 A 
ATOM     55  N   UNL A   1      45.215  28.885  29.957  1.00  0.00    -0.354 N 
ATOM     56  N   UNL A   1      42.395  29.637  29.776  1.00  0.00    -0.248 NA
ATOM     57  C   UNL A   1      40.686  31.201  30.074  1.00  0.00     0.031 C 
ATOM     58  C   UNL A   1      46.680  30.419  30.622  1.00  0.00     0.029 A 
ATOM     59  C   UNL A   1      45.335  30.201  30.374  1.00  0.00     0.049 A 
ATOM     60  H   UNL A   1      44.370  28.443  29.712  1.00  0.00     0.167 HD
ATOM     61  C   UNL A   1      42.942  30.830  30.230  1.00  0.00     0.074 A 
ATOM     62  C   UNL A   1      41.848  31.769  30.365  1.00  0.00     0.031 C 
ATOM     63  C   UNL A   1      44.236  31.121  30.509  1.00  0.00     0.031 A 
BRANCH  50  64
ATOM     64  C   UNL A   1      48.108  26.383  29.673  1.00  0.00    -0.014 A 
ATOM     65  C   UNL A   1      48.997  26.478  28.590  1.00  0.00     0.009 A 
ATOM     66  C   UNL A   1      48.560  25.817  30.874  1.00  0.00     0.009 A 
ATOM     67  C   UNL A   1      50.298  25.982  28.697  1.00  0.00     0.001 A 
ATOM     68  C   UNL A   1      49.870  25.347  30.988  1.00  0.00     0.001 A 
ATOM     69  C   UNL A   1      50.735  25.421  29.896  1.00  0.00     0.000 A 
ENDBRANCH  50  64
BRANCH  51  70
ATOM     70  C   UNL A   1      38.614  29.376  29.132  1.00  0.00    -0.014 A 
ATOM     71  C   UNL A   1      37.784  29.283  30.261  1.00  0.00     0.009 A 
ATOM     72  C   UNL A   1      38.084  29.896  27.941  1.00  0.00     0.009 A 
ATOM     73  C   UNL A   1      36.446  29.677  30.189  1.00  0.00     0.001 A 
ATOM     74  C   UNL A   1      36.754  30.315  27.881  1.00  0.00     0.001 A 
ATOM     75  C   UNL A   1      35.933  30.196  29.001  1.00  0.00     0.000 A 
ENDBRANCH  51  70
BRANCH  63  76
ATOM     76  C   UNL A   1      44.540  32.520  30.966  1.00  0.00    -0.014 A 
ATOM     77  C   UNL A   1      44.821  33.541  30.045  1.00  0.00     0.009 A 
ATOM     78  C   UNL A   1      44.514  32.827  32.335  1.00  0.00     0.009 A 
ATOM     79  C   UNL A   1      45.103  34.835  30.490  1.00  0.00     0.001 A 
ATOM     80  C   UNL A   1      44.768  34.126  32.776  1.00  0.00     0.001 A 
ATOM     81  C   UNL A   1      45.071  35.127  31.853  1.00  0.00     0.000 A 
ENDBRANCH  63  76
ENDBRANCH  37  38
ENDBRANCH  29  32
ENDBRANCH  27  28
ENDBRANCH  26  27
ENDBRANCH  25  26
ENDBRANCH   1  25
TORSDOF 16
ENDMDL
MODEL 3
REMARK VINA RESULT:     -10.3      2.003      7.901
REMARK SMILES C[C@@H]1[C@@H](C(=O)NCCCCCCNC(=O)c2ccc(-c3c4nc(c(-c5ccccc5)c5ccc([nH]5)c(-c5ccccc5)c5nc(c(-c6ccccc6)c6ccc3[nH]6)C=C5)C=C4)cc2)CCN1C(=O)[C@]1([NH3+])CCOC1
REMARK SMILES IDX 9 1 8 2 7 3 6 4 4 5 5 6 3 8 1 9 2 10 66 11 64 12 65 13 67 14
REMARK SMILES IDX 68 15 69 16 71 17 74 18 72 19 73 20 70 21 10 25 11 26 12 27
REMARK SMILES IDX 13 28 14 29 15 31 16 32 17 33 63 34 18 35 62 36 19 37 20 38
REMARK SMILES IDX 21 39 56 40 22 41 61 42 55 43 57 44 23 45 60 46 54 47 53 48
REMARK SMILES IDX 24 50 46 51 31 52 45 53 32 54 35 55 44 56 58 57 33 58 34 59
REMARK SMILES IDX 43 61 59 62 36 63 25 64 26 65 30 66 27 67 29 68 28 69 47 70
REMARK SMILES IDX 48 71 52 72 49 73 51 74 50 75 37 76 38 77 42 78 39 79 41 80
REMARK SMILES IDX 40 81
REMARK H PARENT 6 7 70 22 70 23 70 24 13 30 57 49 35 60
REMARK Flexibility Score: inf
ROOT
ATOM      1  C   UNL A   1      36.614  22.326  23.791  1.00  0.00     0.002 C 
ENDROOT
BRANCH   1   2
ATOM      2  C   UNL A   1      35.627  23.449  24.139  1.00  0.00     0.021 C 
BRANCH   2   3
ATOM      3  C   UNL A   1      34.395  23.525  23.236  1.00  0.00     0.116 C 
BRANCH   3   4
ATOM      4  N   UNL A   1      33.205  23.856  23.996  1.00  0.00    -0.356 N 
ATOM      5  C   UNL A   1      32.560  25.044  24.155  1.00  0.00     0.225 C 
ATOM      6  O   UNL A   1      31.551  25.056  24.859  1.00  0.00    -0.275 OA
ATOM      7  H   UNL A   1      32.799  23.099  24.476  1.00  0.00     0.163 HD
BRANCH   5   8
ATOM      8  C   UNL A   1      33.069  26.279  23.427  1.00  0.00     0.102 C 
ATOM      9  C   UNL A   1      33.215  28.771  23.609  1.00  0.00     0.032 C 
ATOM     10  C   UNL A   1      32.301  27.557  23.813  1.00  0.00     0.094 C 
ATOM     11  N   UNL A   1      31.160  27.592  22.891  1.00  0.00    -0.334 N 
ATOM     12  C   UNL A   1      32.823  26.185  21.919  1.00  0.00     0.037 C 
ATOM     13  C   UNL A   1      31.401  26.701  21.757  1.00  0.00     0.121 C 
BRANCH  11  14
ATOM     14  C   UNL A   1      29.918  28.184  22.987  1.00  0.00     0.286 C 
ATOM     15  O   UNL A   1      28.992  27.532  23.503  1.00  0.00    -0.267 OA
BRANCH  14  16
ATOM     16  C   UNL A   1      29.594  29.655  22.523  1.00  0.00     0.199 C 
ATOM     17  C   UNL A   1      29.494  30.686  23.628  1.00  0.00     0.110 C 
ATOM     18  C   UNL A   1      28.273  29.775  21.770  1.00  0.00     0.239 C 
ATOM     19  C   UNL A   1      28.036  31.091  23.682  1.00  0.00     0.167 C 
ATOM     20  O   UNL A   1      27.329  30.445  22.623  1.00  0.00    -0.374 OA
BRANCH  16  21
ATOM     21  N   UNL A   1      30.722  30.076  21.626  1.00  0.00    -0.343 N 
ATOM     22  H   UNL A   1      31.395  30.626  22.161  1.00  0.00     0.345 HD
ATOM     23  H   UNL A   1      30.355  30.640  20.859  1.00  0.00     0.345 HD
ATOM     24  H   UNL A   1      31.183  29.248  21.248  1.00  0.00     0.345 HD
ENDBRANCH  16  21
ENDBRANCH  14  16
ENDBRANCH  11  14
ENDBRANCH   5   8
ENDBRANCH   3   4
ENDBRANCH   2   3
ENDBRANCH   1   2
BRANCH   1  25
ATOM     25  C   UNL A   1      36.497  21.057  24.640  1.00  0.00     0.002 C 
BRANCH  25  26
ATOM     26  C   UNL A   1      37.729  20.150  24.633  1.00  0.00     0.021 C 
BRANCH  26  27
ATOM     27  C   UNL A   1      38.650  20.294  25.841  1.00  0.00     0.116 C 
BRANCH  27  28
ATOM     28  N   UNL A   1      39.774  19.376  25.801  1.00  0.00    -0.352 N 
ATOM     29  C   UNL A   1      41.105  19.604  26.043  1.00  0.00     0.251 C 
ATOM     30  H   UNL A   1      39.546  18.447  25.566  1.00  0.00     0.163 HD
ATOM     31  O   UNL A   1      41.928  18.723  25.810  1.00  0.00    -0.269 OA
BRANCH  29  32
ATOM     32  C   UNL A   1      41.564  20.914  26.560  1.00  0.00     0.039 A 
ATOM     33  C   UNL A   1      42.018  21.870  25.647  1.00  0.00     0.014 A 
ATOM     34  C   UNL A   1      41.587  21.193  27.930  1.00  0.00     0.014 A 
ATOM     35  C   UNL A   1      42.445  23.120  26.101  1.00  0.00     0.010 A 
ATOM     36  C   UNL A   1      41.948  22.465  28.376  1.00  0.00     0.010 A 
ATOM     37  C   UNL A   1      42.389  23.438  27.467  1.00  0.00    -0.014 A 
BRANCH  37  38
ATOM     38  C   UNL A   1      42.797  24.781  27.954  1.00  0.00     0.031 A 
ATOM     39  C   UNL A   1      41.765  25.847  28.204  1.00  0.00     0.074 A 
ATOM     40  C   UNL A   1      44.104  25.056  28.134  1.00  0.00     0.049 A 
ATOM     41  N   UNL A   1      41.935  27.078  28.616  1.00  0.00    -0.248 NA
ATOM     42  C   UNL A   1      40.362  25.491  27.939  1.00  0.00     0.031 C 
ATOM     43  C   UNL A   1      45.208  24.125  27.891  1.00  0.00     0.029 A 
ATOM     44  N   UNL A   1      44.723  26.202  28.566  1.00  0.00    -0.354 N 
ATOM     45  C   UNL A   1      40.666  27.645  28.647  1.00  0.00     0.074 A 
ATOM     46  C   UNL A   1      39.744  26.641  28.165  1.00  0.00     0.031 C 
ATOM     47  C   UNL A   1      46.365  24.727  28.209  1.00  0.00     0.029 A 
ATOM     48  C   UNL A   1      46.090  26.093  28.642  1.00  0.00     0.049 A 
ATOM     49  H   UNL A   1      44.234  27.024  28.799  1.00  0.00     0.167 HD
ATOM     50  C   UNL A   1      40.298  28.882  29.057  1.00  0.00     0.031 A 
ATOM     51  C   UNL A   1      47.020  26.990  29.020  1.00  0.00     0.031 A 
ATOM     52  C   UNL A   1      41.210  29.881  29.548  1.00  0.00     0.049 A 
ATOM     53  C   UNL A   1      46.586  28.361  29.461  1.00  0.00     0.074 A 
ATOM     54  C   UNL A   1      40.925  31.142  30.040  1.00  0.00     0.029 A 
ATOM     55  N   UNL A   1      42.587  29.730  29.606  1.00  0.00    -0.354 N 
ATOM     56  N   UNL A   1      45.376  28.855  29.549  1.00  0.00    -0.248 NA
ATOM     57  C   UNL A   1      47.650  29.291  29.865  1.00  0.00     0.031 C 
ATOM     58  C   UNL A   1      42.133  31.774  30.352  1.00  0.00     0.029 A 
ATOM     59  C   UNL A   1      43.166  30.886  30.102  1.00  0.00     0.049 A 
ATOM     60  H   UNL A   1      43.079  28.921  29.335  1.00  0.00     0.167 HD
ATOM     61  C   UNL A   1      45.530  30.145  30.041  1.00  0.00     0.074 A 
ATOM     62  C   UNL A   1      46.949  30.348  30.249  1.00  0.00     0.031 C 
ATOM     63  C   UNL A   1      44.580  31.076  30.298  1.00  0.00     0.031 A 
BRANCH  50  64
ATOM     64  C   UNL A   1      38.835  29.226  28.989  1.00  0.00    -0.014 A 
ATOM     65  C   UNL A   1      38.255  29.703  27.803  1.00  0.00     0.009 A 
ATOM     66  C   UNL A   1      38.020  29.037  30.115  1.00  0.00     0.009 A 
ATOM     67  C   UNL A   1      36.896  30.019  27.757  1.00  0.00     0.001 A 
ATOM     68  C   UNL A   1      36.655  29.328  30.059  1.00  0.00     0.001 A 
ATOM     69  C   UNL A   1      36.096  29.827  28.882  1.00  0.00     0.000 A 
ENDBRANCH  50  64
BRANCH  51  70
ATOM     70  C   UNL A   1      48.458  26.618  29.019  1.00  0.00    -0.014 A 
ATOM     71  C   UNL A   1      49.044  26.041  30.156  1.00  0.00     0.009 A 
ATOM     72  C   UNL A   1      49.255  26.847  27.886  1.00  0.00     0.009 A 
ATOM     73  C   UNL A   1      50.405  25.725  30.168  1.00  0.00     0.001 A 
ATOM     74  C   UNL A   1      50.607  26.503  27.891  1.00  0.00     0.001 A 
ATOM     75  C   UNL A   1      51.184  25.952  29.035  1.00  0.00     0.000 A 
ENDBRANCH  51  70
BRANCH  63  76
ATOM     76  C   UNL A   1      45.044  32.392  30.856  1.00  0.00    -0.014 A 
ATOM     77  C   UNL A   1      45.359  33.470  30.014  1.00  0.00     0.009 A 
ATOM     78  C   UNL A   1      45.137  32.565  32.246  1.00  0.00     0.009 A 
ATOM     79  C   UNL A   1      45.790  34.684  30.552  1.00  0.00     0.001 A 
ATOM     80  C   UNL A   1      45.541  33.788  32.783  1.00  0.00     0.001 A 
ATOM     81  C   UNL A   1      45.875  34.843  31.935  1.00  0.00     0.000 A 
ENDBRANCH  63  76
ENDBRANCH  37  38
ENDBRANCH  29  32
ENDBRANCH  27  28
ENDBRANCH  26  27
ENDBRANCH  25  26
ENDBRANCH   1  25
TORSDOF 16
ENDMDL
