MODEL 1
REMARK VINA RESULT:     -11.5      0.000      0.000
REMARK SMILES Cc1ccc(-c2c[nH]c(=O)cc2C(=O)NCCCCCCNC(=O)c2ccc(-c3c4nc(c(-c5ccccc5)c5ccc([nH]5)c(-c5ccccc5)c5nc(c(-c6ccccc6)c6ccc3[nH]6)C=C5)C=C4)cc2)cc1Cl
REMARK SMILES IDX 19 1 18 2 17 3 16 4 15 5 13 6 14 7 12 9 6 10 7 11 8 12 11 13
REMARK SMILES IDX 9 14 10 16 5 17 1 18 2 19 3 20 74 21 4 22 73 23 75 24 20 25
REMARK SMILES IDX 21 26 22 27 23 28 24 30 25 31 26 32 72 33 27 34 71 35 28 36
REMARK SMILES IDX 29 37 30 38 65 39 31 40 70 41 64 42 66 43 32 44 69 45 63 46
REMARK SMILES IDX 62 47 33 49 55 50 40 51 54 52 41 53 44 54 53 55 67 56 42 57
REMARK SMILES IDX 43 58 52 60 68 61 45 62 34 63 35 64 39 65 36 66 38 67 37 68
REMARK SMILES IDX 56 69 57 70 61 71 58 72 60 73 59 74 46 75 47 76 51 77 48 78
REMARK SMILES IDX 50 79 49 80
REMARK H PARENT 15 8 8 15 22 29 66 48 44 59
REMARK Flexibility Score: inf
ROOT
ATOM      1  C   UNL A   1      31.406  30.530  25.742  1.00  0.00     0.002 C 
ENDROOT
BRANCH   1   2
ATOM      2  C   UNL A   1      32.795  29.884  25.836  1.00  0.00     0.002 C 
BRANCH   2   3
ATOM      3  C   UNL A   1      32.847  28.583  26.655  1.00  0.00     0.021 C 
BRANCH   3   4
ATOM      4  C   UNL A   1      31.574  28.332  27.464  1.00  0.00     0.116 C 
BRANCH   4   5
ATOM      5  N   UNL A   1      31.065  27.006  27.189  1.00  0.00    -0.352 N 
ATOM      6  C   UNL A   1      30.746  26.271  26.099  1.00  0.00     0.252 C 
ATOM      7  O   UNL A   1      30.290  25.161  26.387  1.00  0.00    -0.269 OA
ATOM      8  H   UNL A   1      30.906  26.502  28.022  1.00  0.00     0.163 HD
BRANCH   6   9
ATOM      9  C   UNL A   1      30.958  26.678  24.656  1.00  0.00     0.054 A 
ATOM     10  C   UNL A   1      32.168  26.205  23.930  1.00  0.00     0.011 A 
ATOM     11  C   UNL A   1      32.426  26.692  22.699  1.00  0.00     0.095 A 
ATOM     12  N   UNL A   1      31.586  27.586  22.097  1.00  0.00    -0.328 N 
ATOM     13  C   UNL A   1      30.087  27.451  23.983  1.00  0.00     0.086 A 
ATOM     14  C   UNL A   1      30.407  28.002  22.645  1.00  0.00     0.248 A 
ATOM     15  H   UNL A   1      31.847  27.952  21.220  1.00  0.00     0.169 HD
ATOM     16  O   UNL A   1      29.654  28.792  22.093  1.00  0.00    -0.270 OA
BRANCH  10  17
ATOM     17  C   UNL A   1      33.107  25.158  24.393  1.00  0.00    -0.015 A 
ATOM     18  C   UNL A   1      35.949  22.159  25.678  1.00  0.00     0.046 C 
ATOM     19  C   UNL A   1      34.941  23.184  25.241  1.00  0.00    -0.032 A 
ATOM     20  C   UNL A   1      35.195  24.542  25.476  1.00  0.00     0.005 A 
ATOM     21  C   UNL A   1      33.746  22.825  24.599  1.00  0.00     0.044 A 
ATOM     22  C   UNL A   1      34.279  25.516  25.070  1.00  0.00     0.009 A 
ATOM     23  C   UNL A   1      32.841  23.802  24.171  1.00  0.00     0.029 A 
ATOM     24  Cl  UNL A   1      33.336  21.171  24.313  1.00  0.00    -0.084 Cl
ENDBRANCH  10  17
ENDBRANCH   6   9
ENDBRANCH   4   5
ENDBRANCH   3   4
ENDBRANCH   2   3
ENDBRANCH   1   2
BRANCH   1  25
ATOM     25  C   UNL A   1      31.268  31.856  26.491  1.00  0.00     0.021 C 
BRANCH  25  26
ATOM     26  C   UNL A   1      32.584  32.390  27.043  1.00  0.00     0.116 C 
BRANCH  26  27
ATOM     27  N   UNL A   1      32.433  33.739  27.563  1.00  0.00    -0.352 N 
ATOM     28  C   UNL A   1      33.170  34.379  28.525  1.00  0.00     0.251 C 
ATOM     29  H   UNL A   1      31.700  34.266  27.170  1.00  0.00     0.163 HD
ATOM     30  O   UNL A   1      32.763  35.421  29.031  1.00  0.00    -0.269 OA
BRANCH  28  31
ATOM     31  C   UNL A   1      34.459  33.801  28.956  1.00  0.00     0.039 A 
ATOM     32  C   UNL A   1      34.504  33.033  30.120  1.00  0.00     0.014 A 
ATOM     33  C   UNL A   1      35.622  34.031  28.214  1.00  0.00     0.014 A 
ATOM     34  C   UNL A   1      35.712  32.459  30.520  1.00  0.00     0.010 A 
ATOM     35  C   UNL A   1      36.803  33.390  28.566  1.00  0.00     0.010 A 
ATOM     36  C   UNL A   1      36.864  32.612  29.731  1.00  0.00    -0.014 A 
BRANCH  36  37
ATOM     37  C   UNL A   1      38.151  31.989  30.123  1.00  0.00     0.031 A 
ATOM     38  C   UNL A   1      39.077  32.706  31.067  1.00  0.00     0.074 A 
ATOM     39  C   UNL A   1      38.510  30.804  29.592  1.00  0.00     0.049 A 
ATOM     40  N   UNL A   1      40.263  32.350  31.491  1.00  0.00    -0.248 NA
ATOM     41  C   UNL A   1      38.622  34.008  31.583  1.00  0.00     0.031 C 
ATOM     42  C   UNL A   1      37.714  30.024  28.641  1.00  0.00     0.029 A 
ATOM     43  N   UNL A   1      39.641  30.050  29.776  1.00  0.00    -0.354 N 
ATOM     44  C   UNL A   1      40.697  33.386  32.308  1.00  0.00     0.074 A 
ATOM     45  C   UNL A   1      39.678  34.411  32.272  1.00  0.00     0.031 C 
ATOM     46  C   UNL A   1      38.366  28.886  28.355  1.00  0.00     0.029 A 
ATOM     47  C   UNL A   1      39.643  28.878  29.060  1.00  0.00     0.049 A 
ATOM     48  H   UNL A   1      40.381  30.323  30.365  1.00  0.00     0.167 HD
ATOM     49  C   UNL A   1      41.832  33.470  33.042  1.00  0.00     0.031 A 
ATOM     50  C   UNL A   1      40.572  27.907  28.979  1.00  0.00     0.031 A 
ATOM     51  C   UNL A   1      42.845  32.449  33.077  1.00  0.00     0.049 A 
ATOM     52  C   UNL A   1      41.841  28.040  29.775  1.00  0.00     0.074 A 
ATOM     53  C   UNL A   1      44.011  32.417  33.822  1.00  0.00     0.029 A 
ATOM     54  N   UNL A   1      42.813  31.281  32.331  1.00  0.00    -0.354 N 
ATOM     55  N   UNL A   1      42.208  28.997  30.593  1.00  0.00    -0.248 NA
ATOM     56  C   UNL A   1      42.818  26.949  29.644  1.00  0.00     0.031 C 
ATOM     57  C   UNL A   1      44.714  31.257  33.480  1.00  0.00     0.029 A 
ATOM     58  C   UNL A   1      43.953  30.533  32.577  1.00  0.00     0.049 A 
ATOM     59  H   UNL A   1      42.088  31.022  31.718  1.00  0.00     0.167 HD
ATOM     60  C   UNL A   1      43.442  28.607  31.101  1.00  0.00     0.074 A 
ATOM     61  C   UNL A   1      43.750  27.321  30.510  1.00  0.00     0.031 C 
ATOM     62  C   UNL A   1      44.245  29.255  31.981  1.00  0.00     0.031 A 
BRANCH  49  63
ATOM     63  C   UNL A   1      42.039  34.718  33.857  1.00  0.00    -0.014 A 
ATOM     64  C   UNL A   1      41.610  34.798  35.192  1.00  0.00     0.009 A 
ATOM     65  C   UNL A   1      42.693  35.823  33.289  1.00  0.00     0.009 A 
ATOM     66  C   UNL A   1      41.793  35.971  35.927  1.00  0.00     0.001 A 
ATOM     67  C   UNL A   1      42.905  36.983  34.037  1.00  0.00     0.001 A 
ATOM     68  C   UNL A   1      42.444  37.060  35.351  1.00  0.00     0.000 A 
ENDBRANCH  49  63
BRANCH  50  69
ATOM     69  C   UNL A   1      40.334  26.714  28.124  1.00  0.00    -0.014 A 
ATOM     70  C   UNL A   1      40.811  26.676  26.805  1.00  0.00     0.009 A 
ATOM     71  C   UNL A   1      39.621  25.610  28.617  1.00  0.00     0.009 A 
ATOM     72  C   UNL A   1      40.552  25.573  25.988  1.00  0.00     0.001 A 
ATOM     73  C   UNL A   1      39.391  24.495  27.809  1.00  0.00     0.001 A 
ATOM     74  C   UNL A   1      39.846  24.482  26.492  1.00  0.00     0.000 A 
ENDBRANCH  50  69
BRANCH  62  75
ATOM     75  C   UNL A   1      45.513  28.561  32.396  1.00  0.00    -0.014 A 
ATOM     76  C   UNL A   1      46.726  28.786  31.726  1.00  0.00     0.009 A 
ATOM     77  C   UNL A   1      45.498  27.699  33.503  1.00  0.00     0.009 A 
ATOM     78  C   UNL A   1      47.889  28.131  32.136  1.00  0.00     0.001 A 
ATOM     79  C   UNL A   1      46.669  27.074  33.933  1.00  0.00     0.001 A 
ATOM     80  C   UNL A   1      47.861  27.281  33.241  1.00  0.00     0.000 A 
ENDBRANCH  62  75
ENDBRANCH  36  37
ENDBRANCH  28  31
ENDBRANCH  26  27
ENDBRANCH  25  26
ENDBRANCH   1  25
TORSDOF 14
ENDMDL
MODEL 2
REMARK VINA RESULT:     -11.5      0.411      5.966
REMARK SMILES Cc1ccc(-c2c[nH]c(=O)cc2C(=O)NCCCCCCNC(=O)c2ccc(-c3c4nc(c(-c5ccccc5)c5ccc([nH]5)c(-c5ccccc5)c5nc(c(-c6ccccc6)c6ccc3[nH]6)C=C5)C=C4)cc2)cc1Cl
REMARK SMILES IDX 19 1 18 2 17 3 16 4 15 5 13 6 14 7 12 9 6 10 7 11 8 12 11 13
REMARK SMILES IDX 9 14 10 16 5 17 1 18 2 19 3 20 74 21 4 22 73 23 75 24 20 25
REMARK SMILES IDX 21 26 22 27 23 28 24 30 25 31 26 32 72 33 27 34 71 35 28 36
REMARK SMILES IDX 29 37 30 38 65 39 31 40 70 41 64 42 66 43 32 44 69 45 63 46
REMARK SMILES IDX 62 47 33 49 55 50 40 51 54 52 41 53 44 54 53 55 67 56 42 57
REMARK SMILES IDX 43 58 52 60 68 61 45 62 34 63 35 64 39 65 36 66 38 67 37 68
REMARK SMILES IDX 56 69 57 70 61 71 58 72 60 73 59 74 46 75 47 76 51 77 48 78
REMARK SMILES IDX 50 79 49 80
REMARK H PARENT 15 8 8 15 22 29 66 48 44 59
REMARK Flexibility Score: inf
ROOT
ATOM      1  C   UNL A   1      31.661  30.435  25.751  1.00  0.00     0.002 C 
ENDROOT
BRANCH   1   2
ATOM      2  C   UNL A   1      33.006  29.757  26.046  1.00  0.00     0.002 C 
BRANCH   2   3
ATOM      3  C   UNL A   1      32.903  28.428  26.816  1.00  0.00     0.021 C 
BRANCH   3   4
ATOM      4  C   UNL A   1      31.536  28.216  27.466  1.00  0.00     0.116 C 
BRANCH   4   5
ATOM      5  N   UNL A   1      31.036  26.895  27.152  1.00  0.00    -0.352 N 
ATOM      6  C   UNL A   1      30.741  26.184  26.040  1.00  0.00     0.252 C 
ATOM      7  O   UNL A   1      30.283  25.066  26.293  1.00  0.00    -0.269 OA
ATOM      8  H   UNL A   1      30.864  26.372  27.969  1.00  0.00     0.163 HD
BRANCH   6   9
ATOM      9  C   UNL A   1      30.979  26.624  24.610  1.00  0.00     0.054 A 
ATOM     10  C   UNL A   1      32.206  26.174  23.898  1.00  0.00     0.011 A 
ATOM     11  C   UNL A   1      32.485  26.690  22.684  1.00  0.00     0.095 A 
ATOM     12  N   UNL A   1      31.652  27.593  22.085  1.00  0.00    -0.328 N 
ATOM     13  C   UNL A   1      30.116  27.406  23.937  1.00  0.00     0.086 A 
ATOM     14  C   UNL A   1      30.459  27.989  22.618  1.00  0.00     0.248 A 
ATOM     15  H   UNL A   1      31.927  27.979  21.222  1.00  0.00     0.169 HD
ATOM     16  O   UNL A   1      29.713  28.787  22.069  1.00  0.00    -0.270 OA
BRANCH  10  17
ATOM     17  C   UNL A   1      33.142  25.123  24.357  1.00  0.00    -0.015 A 
ATOM     18  C   UNL A   1      35.977  22.113  25.631  1.00  0.00     0.046 C 
ATOM     19  C   UNL A   1      34.972  23.141  25.197  1.00  0.00    -0.032 A 
ATOM     20  C   UNL A   1      35.212  24.496  25.467  1.00  0.00     0.005 A 
ATOM     21  C   UNL A   1      33.792  22.790  24.523  1.00  0.00     0.044 A 
ATOM     22  C   UNL A   1      34.299  25.473  25.065  1.00  0.00     0.009 A 
ATOM     23  C   UNL A   1      32.889  23.771  24.099  1.00  0.00     0.029 A 
ATOM     24  Cl  UNL A   1      33.398  21.140  24.192  1.00  0.00    -0.084 Cl
ENDBRANCH  10  17
ENDBRANCH   6   9
ENDBRANCH   4   5
ENDBRANCH   3   4
ENDBRANCH   2   3
ENDBRANCH   1   2
BRANCH   1  25
ATOM     25  C   UNL A   1      31.437  31.755  26.491  1.00  0.00     0.021 C 
BRANCH  25  26
ATOM     26  C   UNL A   1      32.688  32.299  27.169  1.00  0.00     0.116 C 
BRANCH  26  27
ATOM     27  N   UNL A   1      32.496  33.670  27.615  1.00  0.00    -0.352 N 
ATOM     28  C   UNL A   1      33.196  34.375  28.559  1.00  0.00     0.251 C 
ATOM     29  H   UNL A   1      31.762  34.159  27.177  1.00  0.00     0.163 HD
ATOM     30  O   UNL A   1      32.755  35.432  29.000  1.00  0.00    -0.269 OA
BRANCH  28  31
ATOM     31  C   UNL A   1      34.486  33.849  29.049  1.00  0.00     0.039 A 
ATOM     32  C   UNL A   1      34.503  33.049  30.194  1.00  0.00     0.014 A 
ATOM     33  C   UNL A   1      35.676  34.157  28.383  1.00  0.00     0.014 A 
ATOM     34  C   UNL A   1      35.713  32.523  30.648  1.00  0.00     0.010 A 
ATOM     35  C   UNL A   1      36.866  33.565  28.787  1.00  0.00     0.010 A 
ATOM     36  C   UNL A   1      36.899  32.756  29.932  1.00  0.00    -0.014 A 
BRANCH  36  37
ATOM     37  C   UNL A   1      38.192  32.186  30.383  1.00  0.00     0.031 A 
ATOM     38  C   UNL A   1      38.674  30.877  29.818  1.00  0.00     0.074 A 
ATOM     39  C   UNL A   1      38.906  32.817  31.335  1.00  0.00     0.049 A 
ATOM     40  N   UNL A   1      39.750  30.194  30.118  1.00  0.00    -0.248 NA
ATOM     41  C   UNL A   1      37.823  30.240  28.800  1.00  0.00     0.031 C 
ATOM     42  C   UNL A   1      38.529  34.075  31.984  1.00  0.00     0.029 A 
ATOM     43  N   UNL A   1      40.098  32.482  31.925  1.00  0.00    -0.354 N 
ATOM     44  C   UNL A   1      39.695  29.046  29.339  1.00  0.00     0.074 A 
ATOM     45  C   UNL A   1      38.454  29.092  28.599  1.00  0.00     0.031 C 
ATOM     46  C   UNL A   1      39.490  34.423  32.855  1.00  0.00     0.029 A 
ATOM     47  C   UNL A   1      40.523  33.392  32.862  1.00  0.00     0.049 A 
ATOM     48  H   UNL A   1      40.602  31.667  31.698  1.00  0.00     0.167 HD
ATOM     49  C   UNL A   1      40.607  28.050  29.229  1.00  0.00     0.031 A 
ATOM     50  C   UNL A   1      41.620  33.393  33.642  1.00  0.00     0.031 A 
ATOM     51  C   UNL A   1      41.842  28.006  29.965  1.00  0.00     0.049 A 
ATOM     52  C   UNL A   1      42.600  32.258  33.528  1.00  0.00     0.074 A 
ATOM     53  C   UNL A   1      42.855  27.065  29.894  1.00  0.00     0.029 A 
ATOM     54  N   UNL A   1      42.231  28.943  30.910  1.00  0.00    -0.354 N 
ATOM     55  N   UNL A   1      42.566  31.211  32.740  1.00  0.00    -0.248 NA
ATOM     56  C   UNL A   1      43.777  32.314  34.406  1.00  0.00     0.031 C 
ATOM     57  C   UNL A   1      43.828  27.400  30.841  1.00  0.00     0.029 A 
ATOM     58  C   UNL A   1      43.456  28.588  31.451  1.00  0.00     0.049 A 
ATOM     59  H   UNL A   1      41.713  29.741  31.160  1.00  0.00     0.167 HD
ATOM     60  C   UNL A   1      43.732  30.503  33.001  1.00  0.00     0.074 A 
ATOM     61  C   UNL A   1      44.457  31.248  34.009  1.00  0.00     0.031 C 
ATOM     62  C   UNL A   1      44.165  29.341  32.453  1.00  0.00     0.031 A 
BRANCH  49  63
ATOM     63  C   UNL A   1      40.290  26.923  28.285  1.00  0.00    -0.014 A 
ATOM     64  C   UNL A   1      40.790  26.907  26.972  1.00  0.00     0.009 A 
ATOM     65  C   UNL A   1      39.500  25.847  28.720  1.00  0.00     0.009 A 
ATOM     66  C   UNL A   1      40.469  25.862  26.103  1.00  0.00     0.001 A 
ATOM     67  C   UNL A   1      39.209  24.787  27.860  1.00  0.00     0.001 A 
ATOM     68  C   UNL A   1      39.684  24.801  26.549  1.00  0.00     0.000 A 
ENDBRANCH  49  63
BRANCH  50  69
ATOM     69  C   UNL A   1      41.862  34.514  34.589  1.00  0.00    -0.014 A 
ATOM     70  C   UNL A   1      41.377  34.452  35.904  1.00  0.00     0.009 A 
ATOM     71  C   UNL A   1      42.571  35.654  34.183  1.00  0.00     0.009 A 
ATOM     72  C   UNL A   1      41.568  35.522  36.782  1.00  0.00     0.001 A 
ATOM     73  C   UNL A   1      42.789  36.709  35.072  1.00  0.00     0.001 A 
ATOM     74  C   UNL A   1      42.278  36.647  36.367  1.00  0.00     0.000 A 
ENDBRANCH  50  69
BRANCH  62  75
ATOM     75  C   UNL A   1      45.508  28.828  32.896  1.00  0.00    -0.014 A 
ATOM     76  C   UNL A   1      45.638  27.965  33.996  1.00  0.00     0.009 A 
ATOM     77  C   UNL A   1      46.656  29.184  32.172  1.00  0.00     0.009 A 
ATOM     78  C   UNL A   1      46.897  27.501  34.382  1.00  0.00     0.001 A 
ATOM     79  C   UNL A   1      47.909  28.690  32.539  1.00  0.00     0.001 A 
ATOM     80  C   UNL A   1      48.029  27.859  33.651  1.00  0.00     0.000 A 
ENDBRANCH  62  75
ENDBRANCH  36  37
ENDBRANCH  28  31
ENDBRANCH  26  27
ENDBRANCH  25  26
ENDBRANCH   1  25
TORSDOF 14
ENDMDL
MODEL 3
REMARK VINA RESULT:     -11.4      3.780      8.704
REMARK SMILES Cc1ccc(-c2c[nH]c(=O)cc2C(=O)NCCCCCCNC(=O)c2ccc(-c3c4nc(c(-c5ccccc5)c5ccc([nH]5)c(-c5ccccc5)c5nc(c(-c6ccccc6)c6ccc3[nH]6)C=C5)C=C4)cc2)cc1Cl
REMARK SMILES IDX 19 1 18 2 17 3 16 4 15 5 13 6 14 7 12 9 6 10 7 11 8 12 11 13
REMARK SMILES IDX 9 14 10 16 5 17 1 18 2 19 3 20 74 21 4 22 73 23 75 24 20 25
REMARK SMILES IDX 21 26 22 27 23 28 24 30 25 31 26 32 72 33 27 34 71 35 28 36
REMARK SMILES IDX 29 37 30 38 65 39 31 40 70 41 64 42 66 43 32 44 69 45 63 46
REMARK SMILES IDX 62 47 33 49 55 50 40 51 54 52 41 53 44 54 53 55 67 56 42 57
REMARK SMILES IDX 43 58 52 60 68 61 45 62 34 63 35 64 39 65 36 66 38 67 37 68
REMARK SMILES IDX 56 69 57 70 61 71 58 72 60 73 59 74 46 75 47 76 51 77 48 78
REMARK SMILES IDX 50 79 49 80
REMARK H PARENT 15 8 8 15 22 29 66 48 44 59
REMARK Flexibility Score: inf
ROOT
ATOM      1  C   UNL A   1      37.441  21.133  24.516  1.00  0.00     0.002 C 
ENDROOT
BRANCH   1   2
ATOM      2  C   UNL A   1      35.968  21.122  24.947  1.00  0.00     0.002 C 
BRANCH   2   3
ATOM      3  C   UNL A   1      35.618  22.111  26.073  1.00  0.00     0.021 C 
BRANCH   3   4
ATOM      4  C   UNL A   1      36.091  23.537  25.787  1.00  0.00     0.116 C 
BRANCH   4   5
ATOM      5  N   UNL A   1      35.503  24.017  24.556  1.00  0.00    -0.352 N 
ATOM      6  C   UNL A   1      34.287  24.427  24.130  1.00  0.00     0.252 C 
ATOM      7  O   UNL A   1      34.270  24.713  22.929  1.00  0.00    -0.269 OA
ATOM      8  H   UNL A   1      36.170  24.056  23.831  1.00  0.00     0.163 HD
BRANCH   6   9
ATOM      9  C   UNL A   1      33.052  24.601  24.990  1.00  0.00     0.054 A 
ATOM     10  C   UNL A   1      32.000  23.549  24.984  1.00  0.00     0.011 A 
ATOM     11  C   UNL A   1      30.840  23.779  25.632  1.00  0.00     0.095 A 
ATOM     12  N   UNL A   1      30.624  24.942  26.316  1.00  0.00    -0.328 N 
ATOM     13  C   UNL A   1      32.862  25.672  25.781  1.00  0.00     0.086 A 
ATOM     14  C   UNL A   1      31.566  25.920  26.457  1.00  0.00     0.248 A 
ATOM     15  H   UNL A   1      29.741  25.084  26.728  1.00  0.00     0.169 HD
ATOM     16  O   UNL A   1      31.370  26.953  27.083  1.00  0.00    -0.270 OA
BRANCH  10  17
ATOM     17  C   UNL A   1      32.125  22.197  24.394  1.00  0.00    -0.015 A 
ATOM     18  C   UNL A   1      32.368  18.262  22.609  1.00  0.00     0.046 C 
ATOM     19  C   UNL A   1      32.305  19.622  23.245  1.00  0.00    -0.032 A 
ATOM     20  C   UNL A   1      32.104  20.751  22.439  1.00  0.00     0.005 A 
ATOM     21  C   UNL A   1      32.440  19.802  24.631  1.00  0.00     0.044 A 
ATOM     22  C   UNL A   1      32.031  22.025  23.006  1.00  0.00     0.009 A 
ATOM     23  C   UNL A   1      32.342  21.075  25.202  1.00  0.00     0.029 A 
ATOM     24  Cl  UNL A   1      32.735  18.468  25.690  1.00  0.00    -0.084 Cl
ENDBRANCH  10  17
ENDBRANCH   6   9
ENDBRANCH   4   5
ENDBRANCH   3   4
ENDBRANCH   2   3
ENDBRANCH   1   2
BRANCH   1  25
ATOM     25  C   UNL A   1      38.237  19.895  24.934  1.00  0.00     0.021 C 
BRANCH  25  26
ATOM     26  C   UNL A   1      39.238  20.157  26.052  1.00  0.00     0.116 C 
BRANCH  26  27
ATOM     27  N   UNL A   1      40.364  19.241  25.982  1.00  0.00    -0.352 N 
ATOM     28  C   UNL A   1      41.706  19.515  26.051  1.00  0.00     0.251 C 
ATOM     29  H   UNL A   1      40.131  18.290  25.869  1.00  0.00     0.163 HD
ATOM     30  O   UNL A   1      42.531  18.669  25.724  1.00  0.00    -0.269 OA
BRANCH  28  31
ATOM     31  C   UNL A   1      42.151  20.844  26.516  1.00  0.00     0.039 A 
ATOM     32  C   UNL A   1      42.563  21.790  25.576  1.00  0.00     0.014 A 
ATOM     33  C   UNL A   1      42.171  21.146  27.881  1.00  0.00     0.014 A 
ATOM     34  C   UNL A   1      42.958  23.058  26.004  1.00  0.00     0.010 A 
ATOM     35  C   UNL A   1      42.483  22.434  28.298  1.00  0.00     0.010 A 
ATOM     36  C   UNL A   1      42.896  23.398  27.366  1.00  0.00    -0.014 A 
BRANCH  36  37
ATOM     37  C   UNL A   1      43.286  24.748  27.839  1.00  0.00     0.031 A 
ATOM     38  C   UNL A   1      42.230  25.783  28.114  1.00  0.00     0.074 A 
ATOM     39  C   UNL A   1      44.590  25.059  27.972  1.00  0.00     0.049 A 
ATOM     40  N   UNL A   1      42.372  27.030  28.487  1.00  0.00    -0.248 NA
ATOM     41  C   UNL A   1      40.830  25.371  27.920  1.00  0.00     0.031 C 
ATOM     42  C   UNL A   1      45.710  24.152  27.706  1.00  0.00     0.029 A 
ATOM     43  N   UNL A   1      45.193  26.227  28.364  1.00  0.00    -0.354 N 
ATOM     44  C   UNL A   1      41.086  27.550  28.558  1.00  0.00     0.074 A 
ATOM     45  C   UNL A   1      40.181  26.506  28.130  1.00  0.00     0.031 C 
ATOM     46  C   UNL A   1      46.861  24.788  27.977  1.00  0.00     0.029 A 
ATOM     47  C   UNL A   1      46.565  26.157  28.387  1.00  0.00     0.049 A 
ATOM     48  H   UNL A   1      44.691  27.038  28.605  1.00  0.00     0.167 HD
ATOM     49  C   UNL A   1      40.689  28.779  28.963  1.00  0.00     0.031 A 
ATOM     50  C   UNL A   1      47.480  27.092  28.701  1.00  0.00     0.031 A 
ATOM     51  C   UNL A   1      41.590  29.817  29.389  1.00  0.00     0.049 A 
ATOM     52  C   UNL A   1      47.016  28.461  29.114  1.00  0.00     0.074 A 
ATOM     53  C   UNL A   1      41.288  31.082  29.861  1.00  0.00     0.029 A 
ATOM     54  N   UNL A   1      42.972  29.708  29.390  1.00  0.00    -0.354 N 
ATOM     55  N   UNL A   1      45.793  28.918  29.237  1.00  0.00    -0.248 NA
ATOM     56  C   UNL A   1      48.062  29.440  29.443  1.00  0.00     0.031 C 
ATOM     57  C   UNL A   1      42.489  31.760  30.090  1.00  0.00     0.029 A 
ATOM     58  C   UNL A   1      43.539  30.894  29.828  1.00  0.00     0.049 A 
ATOM     59  H   UNL A   1      43.476  28.907  29.119  1.00  0.00     0.167 HD
ATOM     60  C   UNL A   1      45.922  30.225  29.691  1.00  0.00     0.074 A 
ATOM     61  C   UNL A   1      47.341  30.481  29.835  1.00  0.00     0.031 C 
ATOM     62  C   UNL A   1      44.952  31.132  29.967  1.00  0.00     0.031 A 
BRANCH  49  63
ATOM     63  C   UNL A   1      39.212  29.069  28.952  1.00  0.00    -0.014 A 
ATOM     64  C   UNL A   1      38.579  29.589  27.811  1.00  0.00     0.009 A 
ATOM     65  C   UNL A   1      38.438  28.796  30.091  1.00  0.00     0.009 A 
ATOM     66  C   UNL A   1      37.211  29.870  27.826  1.00  0.00     0.001 A 
ATOM     67  C   UNL A   1      37.064  29.046  30.090  1.00  0.00     0.001 A 
ATOM     68  C   UNL A   1      36.454  29.593  28.963  1.00  0.00     0.000 A 
ENDBRANCH  49  63
BRANCH  50  69
ATOM     69  C   UNL A   1      48.930  26.764  28.654  1.00  0.00    -0.014 A 
ATOM     70  C   UNL A   1      49.652  26.896  27.458  1.00  0.00     0.009 A 
ATOM     71  C   UNL A   1      49.599  26.308  29.800  1.00  0.00     0.009 A 
ATOM     72  C   UNL A   1      51.004  26.549  27.403  1.00  0.00     0.001 A 
ATOM     73  C   UNL A   1      50.958  25.993  29.751  1.00  0.00     0.001 A 
ATOM     74  C   UNL A   1      51.657  26.101  28.550  1.00  0.00     0.000 A 
ENDBRANCH  50  69
BRANCH  62  75
ATOM     75  C   UNL A   1      45.390  32.469  30.500  1.00  0.00    -0.014 A 
ATOM     76  C   UNL A   1      45.646  33.552  29.644  1.00  0.00     0.009 A 
ATOM     77  C   UNL A   1      45.507  32.655  31.886  1.00  0.00     0.009 A 
ATOM     78  C   UNL A   1      46.046  34.783  30.166  1.00  0.00     0.001 A 
ATOM     79  C   UNL A   1      45.872  33.896  32.407  1.00  0.00     0.001 A 
ATOM     80  C   UNL A   1      46.154  34.956  31.546  1.00  0.00     0.000 A 
ENDBRANCH  62  75
ENDBRANCH  36  37
ENDBRANCH  28  31
ENDBRANCH  26  27
ENDBRANCH  25  26
ENDBRANCH   1  25
TORSDOF 14
ENDMDL
