MODEL 1
REMARK VINA RESULT:     -10.2      0.000      0.000
REMARK SMILES CCS(=O)(=O)N1CCC[C@@H](C(=O)NCCCCCCNC(=O)c2ccc(-c3c4nc(c(-c5ccccc5)c5ccc([nH]5)c(-c5ccccc5)c5nc(c(-c6ccccc6)c6ccc3[nH]6)C=C5)C=C4)cc2)C1
REMARK SMILES IDX 16 1 15 2 14 3 13 4 11 5 12 6 10 8 6 9 7 10 71 11 8 12 9 13
REMARK SMILES IDX 3 14 4 15 5 16 2 17 1 18 17 19 18 20 19 21 20 22 21 23 22 25
REMARK SMILES IDX 23 26 24 27 70 28 25 29 69 30 26 31 27 32 28 33 63 34 29 35
REMARK SMILES IDX 68 36 62 37 64 38 30 39 67 40 61 41 60 42 31 44 53 45 38 46
REMARK SMILES IDX 52 47 39 48 42 49 51 50 65 51 40 52 41 53 50 55 66 56 43 57
REMARK SMILES IDX 32 58 33 59 37 60 34 61 36 62 35 63 54 64 55 65 59 66 56 67
REMARK SMILES IDX 58 68 57 69 44 70 45 71 49 72 46 73 48 74 47 75
REMARK H PARENT 13 7 20 24 64 43 42 54
REMARK Flexibility Score: inf
ROOT
ATOM      1  C   UNL A   1      32.480  29.827  27.105  1.00  0.00     0.002 C 
ENDROOT
BRANCH   1   2
ATOM      2  C   UNL A   1      33.897  29.557  26.585  1.00  0.00     0.021 C 
BRANCH   2   3
ATOM      3  C   UNL A   1      34.043  28.229  25.843  1.00  0.00     0.116 C 
BRANCH   3   4
ATOM      4  N   UNL A   1      33.928  28.409  24.405  1.00  0.00    -0.356 N 
ATOM      5  C   UNL A   1      32.850  28.407  23.570  1.00  0.00     0.224 C 
ATOM      6  O   UNL A   1      33.063  28.594  22.370  1.00  0.00    -0.275 OA
ATOM      7  H   UNL A   1      34.787  28.562  23.949  1.00  0.00     0.163 HD
BRANCH   5   8
ATOM      8  C   UNL A   1      31.437  28.170  24.078  1.00  0.00     0.093 C 
ATOM      9  N   UNL A   1      29.041  28.614  23.426  1.00  0.00    -0.201 NA
ATOM     10  C   UNL A   1      28.788  27.158  23.361  1.00  0.00     0.102 C 
ATOM     11  C   UNL A   1      30.458  29.019  23.271  1.00  0.00     0.115 C 
ATOM     12  C   UNL A   1      29.631  26.449  24.414  1.00  0.00     0.018 C 
ATOM     13  C   UNL A   1      31.113  26.678  24.165  1.00  0.00     0.016 C 
BRANCH   9  14
ATOM     14  S   UNL A   1      27.891  29.633  22.686  1.00  0.00     0.213 S 
ATOM     15  O   UNL A   1      26.583  29.077  22.943  1.00  0.00    -0.212 OA
ATOM     16  O   UNL A   1      28.340  29.877  21.328  1.00  0.00    -0.212 OA
BRANCH  14  17
ATOM     17  C   UNL A   1      28.039  31.187  23.585  1.00  0.00     0.151 C 
ATOM     18  C   UNL A   1      28.711  32.302  22.802  1.00  0.00     0.022 C 
ENDBRANCH  14  17
ENDBRANCH   9  14
ENDBRANCH   5   8
ENDBRANCH   3   4
ENDBRANCH   2   3
ENDBRANCH   1   2
BRANCH   1  19
ATOM     19  C   UNL A   1      31.664  30.816  26.265  1.00  0.00     0.002 C 
BRANCH  19  20
ATOM     20  C   UNL A   1      31.490  32.201  26.890  1.00  0.00     0.021 C 
BRANCH  20  21
ATOM     21  C   UNL A   1      32.798  32.878  27.282  1.00  0.00     0.116 C 
BRANCH  21  22
ATOM     22  N   UNL A   1      32.586  34.219  27.805  1.00  0.00    -0.352 N 
ATOM     23  C   UNL A   1      33.231  34.848  28.842  1.00  0.00     0.251 C 
ATOM     24  H   UNL A   1      31.885  34.745  27.357  1.00  0.00     0.163 HD
ATOM     25  O   UNL A   1      32.809  35.908  29.293  1.00  0.00    -0.269 OA
BRANCH  23  26
ATOM     26  C   UNL A   1      34.434  34.220  29.421  1.00  0.00     0.039 A 
ATOM     27  C   UNL A   1      34.300  33.359  30.512  1.00  0.00     0.014 A 
ATOM     28  C   UNL A   1      35.690  34.466  28.860  1.00  0.00     0.014 A 
ATOM     29  C   UNL A   1      35.424  32.690  31.002  1.00  0.00     0.010 A 
ATOM     30  C   UNL A   1      36.790  33.740  29.296  1.00  0.00     0.010 A 
ATOM     31  C   UNL A   1      36.670  32.851  30.377  1.00  0.00    -0.014 A 
BRANCH  31  32
ATOM     32  C   UNL A   1      37.884  32.131  30.839  1.00  0.00     0.031 A 
ATOM     33  C   UNL A   1      38.750  32.753  31.899  1.00  0.00     0.074 A 
ATOM     34  C   UNL A   1      38.258  30.982  30.246  1.00  0.00     0.049 A 
ATOM     35  N   UNL A   1      39.927  32.379  32.330  1.00  0.00    -0.248 NA
ATOM     36  C   UNL A   1      38.236  33.979  32.535  1.00  0.00     0.031 C 
ATOM     37  C   UNL A   1      37.514  30.284  29.195  1.00  0.00     0.029 A 
ATOM     38  N   UNL A   1      39.377  30.207  30.431  1.00  0.00    -0.354 N 
ATOM     39  C   UNL A   1      40.305  33.337  33.263  1.00  0.00     0.074 A 
ATOM     40  C   UNL A   1      39.258  34.333  33.299  1.00  0.00     0.031 C 
ATOM     41  C   UNL A   1      38.188  29.178  28.840  1.00  0.00     0.029 A 
ATOM     42  C   UNL A   1      39.436  29.117  29.596  1.00  0.00     0.049 A 
ATOM     43  H   UNL A   1      40.070  30.414  31.098  1.00  0.00     0.167 HD
ATOM     44  C   UNL A   1      41.418  33.374  34.032  1.00  0.00     0.031 A 
ATOM     45  C   UNL A   1      40.399  28.187  29.441  1.00  0.00     0.031 A 
ATOM     46  C   UNL A   1      42.451  32.375  34.001  1.00  0.00     0.049 A 
ATOM     47  C   UNL A   1      41.645  28.270  30.281  1.00  0.00     0.074 A 
ATOM     48  C   UNL A   1      43.595  32.297  34.776  1.00  0.00     0.029 A 
ATOM     49  N   UNL A   1      42.465  31.281  33.151  1.00  0.00    -0.354 N 
ATOM     50  N   UNL A   1      41.967  29.155  31.193  1.00  0.00    -0.248 NA
ATOM     51  C   UNL A   1      42.657  27.224  30.074  1.00  0.00     0.031 C 
ATOM     52  C   UNL A   1      44.332  31.188  34.353  1.00  0.00     0.029 A 
ATOM     53  C   UNL A   1      43.610  30.535  33.365  1.00  0.00     0.049 A 
ATOM     54  H   UNL A   1      41.764  31.067  32.493  1.00  0.00     0.167 HD
ATOM     55  C   UNL A   1      43.195  28.747  31.699  1.00  0.00     0.074 A 
ATOM     56  C   UNL A   1      43.560  27.537  30.993  1.00  0.00     0.031 C 
ATOM     57  C   UNL A   1      43.948  29.321  32.669  1.00  0.00     0.031 A 
BRANCH  44  58
ATOM     58  C   UNL A   1      41.582  34.547  34.960  1.00  0.00    -0.014 A 
ATOM     59  C   UNL A   1      42.236  35.719  34.549  1.00  0.00     0.009 A 
ATOM     60  C   UNL A   1      41.042  34.491  36.254  1.00  0.00     0.009 A 
ATOM     61  C   UNL A   1      42.383  36.794  35.429  1.00  0.00     0.001 A 
ATOM     62  C   UNL A   1      41.159  35.578  37.120  1.00  0.00     0.001 A 
ATOM     63  C   UNL A   1      41.839  36.724  36.712  1.00  0.00     0.000 A 
ENDBRANCH  44  58
BRANCH  45  64
ATOM     64  C   UNL A   1      40.225  27.092  28.450  1.00  0.00    -0.014 A 
ATOM     65  C   UNL A   1      40.747  27.215  27.152  1.00  0.00     0.009 A 
ATOM     66  C   UNL A   1      39.528  25.921  28.788  1.00  0.00     0.009 A 
ATOM     67  C   UNL A   1      40.547  26.206  26.208  1.00  0.00     0.001 A 
ATOM     68  C   UNL A   1      39.358  24.899  27.852  1.00  0.00     0.001 A 
ATOM     69  C   UNL A   1      39.857  25.046  26.559  1.00  0.00     0.000 A 
ENDBRANCH  45  64
BRANCH  57  70
ATOM     70  C   UNL A   1      45.212  28.620  33.084  1.00  0.00    -0.014 A 
ATOM     71  C   UNL A   1      45.209  27.619  34.067  1.00  0.00     0.009 A 
ATOM     72  C   UNL A   1      46.408  28.908  32.407  1.00  0.00     0.009 A 
ATOM     73  C   UNL A   1      46.385  26.932  34.373  1.00  0.00     0.001 A 
ATOM     74  C   UNL A   1      47.574  28.199  32.694  1.00  0.00     0.001 A 
ATOM     75  C   UNL A   1      47.563  27.215  33.679  1.00  0.00     0.000 A 
ENDBRANCH  57  70
ENDBRANCH  31  32
ENDBRANCH  23  26
ENDBRANCH  21  22
ENDBRANCH  20  21
ENDBRANCH  19  20
ENDBRANCH   1  19
TORSDOF 15
ENDMDL
MODEL 2
REMARK VINA RESULT:     -10.1      0.920      6.137
REMARK SMILES CCS(=O)(=O)N1CCC[C@@H](C(=O)NCCCCCCNC(=O)c2ccc(-c3c4nc(c(-c5ccccc5)c5ccc([nH]5)c(-c5ccccc5)c5nc(c(-c6ccccc6)c6ccc3[nH]6)C=C5)C=C4)cc2)C1
REMARK SMILES IDX 16 1 15 2 14 3 13 4 11 5 12 6 10 8 6 9 7 10 71 11 8 12 9 13
REMARK SMILES IDX 3 14 4 15 5 16 2 17 1 18 17 19 18 20 19 21 20 22 21 23 22 25
REMARK SMILES IDX 23 26 24 27 70 28 25 29 69 30 26 31 27 32 28 33 63 34 29 35
REMARK SMILES IDX 68 36 62 37 64 38 30 39 67 40 61 41 60 42 31 44 53 45 38 46
REMARK SMILES IDX 52 47 39 48 42 49 51 50 65 51 40 52 41 53 50 55 66 56 43 57
REMARK SMILES IDX 32 58 33 59 37 60 34 61 36 62 35 63 54 64 55 65 59 66 56 67
REMARK SMILES IDX 58 68 57 69 44 70 45 71 49 72 46 73 48 74 47 75
REMARK H PARENT 13 7 20 24 64 43 42 54
REMARK Flexibility Score: inf
ROOT
ATOM      1  C   UNL A   1      32.243  29.905  26.948  1.00  0.00     0.002 C 
ENDROOT
BRANCH   1   2
ATOM      2  C   UNL A   1      33.612  29.568  26.347  1.00  0.00     0.021 C 
BRANCH   2   3
ATOM      3  C   UNL A   1      33.883  28.069  26.225  1.00  0.00     0.116 C 
BRANCH   3   4
ATOM      4  N   UNL A   1      33.895  27.643  24.835  1.00  0.00    -0.356 N 
ATOM      5  C   UNL A   1      32.889  27.400  23.947  1.00  0.00     0.224 C 
ATOM      6  O   UNL A   1      33.209  27.048  22.810  1.00  0.00    -0.275 OA
ATOM      7  H   UNL A   1      34.797  27.506  24.465  1.00  0.00     0.163 HD
BRANCH   5   8
ATOM      8  C   UNL A   1      31.424  27.537  24.333  1.00  0.00     0.093 C 
ATOM      9  N   UNL A   1      29.284  28.565  23.482  1.00  0.00    -0.201 NA
ATOM     10  C   UNL A   1      28.675  27.220  23.386  1.00  0.00     0.102 C 
ATOM     11  C   UNL A   1      30.765  28.595  23.451  1.00  0.00     0.115 C 
ATOM     12  C   UNL A   1      29.219  26.336  24.502  1.00  0.00     0.018 C 
ATOM     13  C   UNL A   1      30.725  26.178  24.381  1.00  0.00     0.016 C 
BRANCH   9  14
ATOM     14  S   UNL A   1      28.497  29.831  22.654  1.00  0.00     0.213 S 
ATOM     15  O   UNL A   1      27.075  29.596  22.741  1.00  0.00    -0.212 OA
ATOM     16  O   UNL A   1      29.147  29.974  21.365  1.00  0.00    -0.212 OA
BRANCH  14  17
ATOM     17  C   UNL A   1      28.894  31.299  23.619  1.00  0.00     0.151 C 
ATOM     18  C   UNL A   1      28.643  32.611  22.895  1.00  0.00     0.022 C 
ENDBRANCH  14  17
ENDBRANCH   9  14
ENDBRANCH   5   8
ENDBRANCH   3   4
ENDBRANCH   2   3
ENDBRANCH   1   2
BRANCH   1  19
ATOM     19  C   UNL A   1      31.408  30.899  26.132  1.00  0.00     0.002 C 
BRANCH  19  20
ATOM     20  C   UNL A   1      31.252  32.282  26.766  1.00  0.00     0.021 C 
BRANCH  20  21
ATOM     21  C   UNL A   1      32.572  32.971  27.092  1.00  0.00     0.116 C 
BRANCH  21  22
ATOM     22  N   UNL A   1      32.371  34.275  27.706  1.00  0.00    -0.352 N 
ATOM     23  C   UNL A   1      33.068  34.854  28.739  1.00  0.00     0.251 C 
ATOM     24  H   UNL A   1      31.638  34.814  27.332  1.00  0.00     0.163 HD
ATOM     25  O   UNL A   1      32.658  35.878  29.276  1.00  0.00    -0.269 OA
BRANCH  23  26
ATOM     26  C   UNL A   1      34.312  34.215  29.209  1.00  0.00     0.039 A 
ATOM     27  C   UNL A   1      35.528  34.567  28.620  1.00  0.00     0.014 A 
ATOM     28  C   UNL A   1      34.270  33.290  30.256  1.00  0.00     0.014 A 
ATOM     29  C   UNL A   1      36.717  34.036  29.127  1.00  0.00     0.010 A 
ATOM     30  C   UNL A   1      35.456  32.827  30.809  1.00  0.00     0.010 A 
ATOM     31  C   UNL A   1      36.691  33.188  30.246  1.00  0.00    -0.014 A 
BRANCH  31  32
ATOM     32  C   UNL A   1      37.931  32.631  30.841  1.00  0.00     0.031 A 
ATOM     33  C   UNL A   1      38.559  31.410  30.228  1.00  0.00     0.074 A 
ATOM     34  C   UNL A   1      38.433  33.154  31.977  1.00  0.00     0.049 A 
ATOM     35  N   UNL A   1      39.541  30.671  30.677  1.00  0.00    -0.248 NA
ATOM     36  C   UNL A   1      37.982  30.939  28.957  1.00  0.00     0.031 C 
ATOM     37  C   UNL A   1      37.908  34.327  32.678  1.00  0.00     0.029 A 
ATOM     38  N   UNL A   1      39.490  32.748  32.753  1.00  0.00    -0.354 N 
ATOM     39  C   UNL A   1      39.678  29.635  29.761  1.00  0.00     0.074 A 
ATOM     40  C   UNL A   1      38.650  29.813  28.760  1.00  0.00     0.031 C 
ATOM     41  C   UNL A   1      38.655  34.555  33.772  1.00  0.00     0.029 A 
ATOM     42  C   UNL A   1      39.673  33.514  33.879  1.00  0.00     0.049 A 
ATOM     43  H   UNL A   1      40.063  31.981  32.524  1.00  0.00     0.167 HD
ATOM     44  C   UNL A   1      40.589  28.635  29.746  1.00  0.00     0.031 A 
ATOM     45  C   UNL A   1      40.548  33.380  34.895  1.00  0.00     0.031 A 
ATOM     46  C   UNL A   1      41.618  28.469  30.736  1.00  0.00     0.049 A 
ATOM     47  C   UNL A   1      41.528  32.237  34.875  1.00  0.00     0.074 A 
ATOM     48  C   UNL A   1      42.620  27.516  30.783  1.00  0.00     0.029 A 
ATOM     49  N   UNL A   1      41.775  29.276  31.851  1.00  0.00    -0.354 N 
ATOM     50  N   UNL A   1      41.677  31.294  33.978  1.00  0.00    -0.248 NA
ATOM     51  C   UNL A   1      42.464  32.145  36.005  1.00  0.00     0.031 C 
ATOM     52  C   UNL A   1      43.347  27.709  31.960  1.00  0.00     0.029 A 
ATOM     53  C   UNL A   1      42.843  28.827  32.608  1.00  0.00     0.049 A 
ATOM     54  H   UNL A   1      41.211  30.052  32.073  1.00  0.00     0.167 HD
ATOM     55  C   UNL A   1      42.750  30.524  34.412  1.00  0.00     0.074 A 
ATOM     56  C   UNL A   1      43.213  31.110  35.651  1.00  0.00     0.031 C 
ATOM     57  C   UNL A   1      43.305  29.434  33.828  1.00  0.00     0.031 A 
BRANCH  44  58
ATOM     58  C   UNL A   1      40.500  27.631  28.629  1.00  0.00    -0.014 A 
ATOM     59  C   UNL A   1      41.174  27.829  27.413  1.00  0.00     0.009 A 
ATOM     60  C   UNL A   1      39.760  26.452  28.809  1.00  0.00     0.009 A 
ATOM     61  C   UNL A   1      41.072  26.887  26.386  1.00  0.00     0.001 A 
ATOM     62  C   UNL A   1      39.689  25.496  27.796  1.00  0.00     0.001 A 
ATOM     63  C   UNL A   1      40.335  25.719  26.581  1.00  0.00     0.000 A 
ENDBRANCH  44  58
BRANCH  45  64
ATOM     64  C   UNL A   1      40.542  34.353  36.019  1.00  0.00    -0.014 A 
ATOM     65  C   UNL A   1      39.736  34.133  37.148  1.00  0.00     0.009 A 
ATOM     66  C   UNL A   1      41.330  35.514  35.969  1.00  0.00     0.009 A 
ATOM     67  C   UNL A   1      39.697  35.067  38.185  1.00  0.00     0.001 A 
ATOM     68  C   UNL A   1      41.313  36.431  37.022  1.00  0.00     0.001 A 
ATOM     69  C   UNL A   1      40.488  36.213  38.124  1.00  0.00     0.000 A 
ENDBRANCH  45  64
BRANCH  57  70
ATOM     70  C   UNL A   1      44.523  28.835  34.476  1.00  0.00    -0.014 A 
ATOM     71  C   UNL A   1      44.423  27.781  35.397  1.00  0.00     0.009 A 
ATOM     72  C   UNL A   1      45.796  29.276  34.081  1.00  0.00     0.009 A 
ATOM     73  C   UNL A   1      45.577  27.195  35.921  1.00  0.00     0.001 A 
ATOM     74  C   UNL A   1      46.945  28.668  34.582  1.00  0.00     0.001 A 
ATOM     75  C   UNL A   1      46.836  27.631  35.505  1.00  0.00     0.000 A 
ENDBRANCH  57  70
ENDBRANCH  31  32
ENDBRANCH  23  26
ENDBRANCH  21  22
ENDBRANCH  20  21
ENDBRANCH  19  20
ENDBRANCH   1  19
TORSDOF 15
ENDMDL
MODEL 3
REMARK VINA RESULT:     -10.0      4.613      9.849
REMARK SMILES CCS(=O)(=O)N1CCC[C@@H](C(=O)NCCCCCCNC(=O)c2ccc(-c3c4nc(c(-c5ccccc5)c5ccc([nH]5)c(-c5ccccc5)c5nc(c(-c6ccccc6)c6ccc3[nH]6)C=C5)C=C4)cc2)C1
REMARK SMILES IDX 16 1 15 2 14 3 13 4 11 5 12 6 10 8 6 9 7 10 71 11 8 12 9 13
REMARK SMILES IDX 3 14 4 15 5 16 2 17 1 18 17 19 18 20 19 21 20 22 21 23 22 25
REMARK SMILES IDX 23 26 24 27 70 28 25 29 69 30 26 31 27 32 28 33 63 34 29 35
REMARK SMILES IDX 68 36 62 37 64 38 30 39 67 40 61 41 60 42 31 44 53 45 38 46
REMARK SMILES IDX 52 47 39 48 42 49 51 50 65 51 40 52 41 53 50 55 66 56 43 57
REMARK SMILES IDX 32 58 33 59 37 60 34 61 36 62 35 63 54 64 55 65 59 66 56 67
REMARK SMILES IDX 58 68 57 69 44 70 45 71 49 72 46 73 48 74 47 75
REMARK H PARENT 13 7 20 24 64 43 42 54
REMARK Flexibility Score: inf
ROOT
ATOM      1  C   UNL A   1      35.681  34.881  32.963  1.00  0.00     0.002 C 
ENDROOT
BRANCH   1   2
ATOM      2  C   UNL A   1      35.817  34.016  34.220  1.00  0.00     0.021 C 
BRANCH   2   3
ATOM      3  C   UNL A   1      37.158  34.171  34.938  1.00  0.00     0.116 C 
BRANCH   3   4
ATOM      4  N   UNL A   1      37.248  33.291  36.091  1.00  0.00    -0.356 N 
ATOM      5  C   UNL A   1      37.936  32.133  36.302  1.00  0.00     0.224 C 
ATOM      6  O   UNL A   1      37.820  31.598  37.406  1.00  0.00    -0.275 OA
ATOM      7  H   UNL A   1      36.715  33.586  36.864  1.00  0.00     0.163 HD
BRANCH   5   8
ATOM      8  C   UNL A   1      38.804  31.503  35.223  1.00  0.00     0.093 C 
ATOM      9  N   UNL A   1      40.476  29.639  34.922  1.00  0.00    -0.201 NA
ATOM     10  C   UNL A   1      39.568  28.980  33.956  1.00  0.00     0.102 C 
ATOM     11  C   UNL A   1      39.822  30.569  35.872  1.00  0.00     0.115 C 
ATOM     12  C   UNL A   1      38.804  30.041  33.174  1.00  0.00     0.018 C 
ATOM     13  C   UNL A   1      37.957  30.893  34.105  1.00  0.00     0.016 C 
BRANCH   9  14
ATOM     14  S   UNL A   1      41.744  28.694  35.560  1.00  0.00     0.213 S 
ATOM     15  O   UNL A   1      41.208  27.923  36.658  1.00  0.00    -0.212 OA
ATOM     16  O   UNL A   1      42.881  29.573  35.756  1.00  0.00    -0.212 OA
BRANCH  14  17
ATOM     17  C   UNL A   1      42.166  27.565  34.221  1.00  0.00     0.151 C 
ATOM     18  C   UNL A   1      42.732  26.233  34.680  1.00  0.00     0.022 C 
ENDBRANCH  14  17
ENDBRANCH   9  14
ENDBRANCH   5   8
ENDBRANCH   3   4
ENDBRANCH   2   3
ENDBRANCH   1   2
BRANCH   1  19
ATOM     19  C   UNL A   1      34.472  35.824  32.958  1.00  0.00     0.002 C 
BRANCH  19  20
ATOM     20  C   UNL A   1      33.327  35.398  32.036  1.00  0.00     0.021 C 
BRANCH  20  21
ATOM     21  C   UNL A   1      33.360  36.049  30.659  1.00  0.00     0.116 C 
BRANCH  21  22
ATOM     22  N   UNL A   1      32.802  35.184  29.631  1.00  0.00    -0.352 N 
ATOM     23  C   UNL A   1      33.416  34.172  28.934  1.00  0.00     0.251 C 
ATOM     24  H   UNL A   1      31.858  35.346  29.404  1.00  0.00     0.163 HD
ATOM     25  O   UNL A   1      32.872  33.660  27.961  1.00  0.00    -0.269 OA
BRANCH  23  26
ATOM     26  C   UNL A   1      34.753  33.718  29.362  1.00  0.00     0.039 A 
ATOM     27  C   UNL A   1      34.861  32.676  30.285  1.00  0.00     0.014 A 
ATOM     28  C   UNL A   1      35.898  34.310  28.821  1.00  0.00     0.014 A 
ATOM     29  C   UNL A   1      36.123  32.181  30.619  1.00  0.00     0.010 A 
ATOM     30  C   UNL A   1      37.145  33.764  29.093  1.00  0.00     0.010 A 
ATOM     31  C   UNL A   1      37.272  32.699  30.000  1.00  0.00    -0.014 A 
BRANCH  31  32
ATOM     32  C   UNL A   1      38.630  32.179  30.296  1.00  0.00     0.031 A 
ATOM     33  C   UNL A   1      39.059  30.864  29.708  1.00  0.00     0.074 A 
ATOM     34  C   UNL A   1      39.432  32.830  31.161  1.00  0.00     0.049 A 
ATOM     35  N   UNL A   1      40.129  30.154  29.961  1.00  0.00    -0.248 NA
ATOM     36  C   UNL A   1      38.147  30.250  28.727  1.00  0.00     0.031 C 
ATOM     37  C   UNL A   1      39.127  34.105  31.812  1.00  0.00     0.029 A 
ATOM     38  N   UNL A   1      40.666  32.490  31.658  1.00  0.00    -0.354 N 
ATOM     39  C   UNL A   1      40.002  29.001  29.197  1.00  0.00     0.074 A 
ATOM     40  C   UNL A   1      38.732  29.083  28.510  1.00  0.00     0.031 C 
ATOM     41  C   UNL A   1      40.152  34.448  32.609  1.00  0.00     0.029 A 
ATOM     42  C   UNL A   1      41.160  33.392  32.571  1.00  0.00     0.049 A 
ATOM     43  H   UNL A   1      41.151  31.678  31.387  1.00  0.00     0.167 HD
ATOM     44  C   UNL A   1      40.872  27.973  29.066  1.00  0.00     0.031 A 
ATOM     45  C   UNL A   1      42.286  33.361  33.309  1.00  0.00     0.031 A 
ATOM     46  C   UNL A   1      42.139  27.901  29.741  1.00  0.00     0.049 A 
ATOM     47  C   UNL A   1      43.222  32.189  33.174  1.00  0.00     0.074 A 
ATOM     48  C   UNL A   1      43.115  26.925  29.637  1.00  0.00     0.029 A 
ATOM     49  N   UNL A   1      42.606  28.843  30.645  1.00  0.00    -0.354 N 
ATOM     50  N   UNL A   1      43.112  31.129  32.411  1.00  0.00    -0.248 NA
ATOM     51  C   UNL A   1      44.439  32.213  33.998  1.00  0.00     0.031 C 
ATOM     52  C   UNL A   1      44.145  27.245  30.525  1.00  0.00     0.029 A 
ATOM     53  C   UNL A   1      43.844  28.458  31.126  1.00  0.00     0.049 A 
ATOM     54  H   UNL A   1      42.126  29.663  30.906  1.00  0.00     0.167 HD
ATOM     55  C   UNL A   1      44.264  30.383  32.629  1.00  0.00     0.074 A 
ATOM     56  C   UNL A   1      45.059  31.111  33.596  1.00  0.00     0.031 C 
ATOM     57  C   UNL A   1      44.632  29.205  32.071  1.00  0.00     0.031 A 
BRANCH  44  58
ATOM     58  C   UNL A   1      40.472  26.833  28.169  1.00  0.00    -0.014 A 
ATOM     59  C   UNL A   1      39.602  25.824  28.613  1.00  0.00     0.009 A 
ATOM     60  C   UNL A   1      40.945  26.788  26.848  1.00  0.00     0.009 A 
ATOM     61  C   UNL A   1      39.250  24.771  27.766  1.00  0.00     0.001 A 
ATOM     62  C   UNL A   1      40.563  25.755  25.993  1.00  0.00     0.001 A 
ATOM     63  C   UNL A   1      39.725  24.741  26.455  1.00  0.00     0.000 A 
ENDBRANCH  44  58
BRANCH  45  64
ATOM     64  C   UNL A   1      42.598  34.475  34.243  1.00  0.00    -0.014 A 
ATOM     65  C   UNL A   1      42.173  34.423  35.581  1.00  0.00     0.009 A 
ATOM     66  C   UNL A   1      43.310  35.602  33.804  1.00  0.00     0.009 A 
ATOM     67  C   UNL A   1      42.427  35.488  36.448  1.00  0.00     0.001 A 
ATOM     68  C   UNL A   1      43.592  36.652  34.682  1.00  0.00     0.001 A 
ATOM     69  C   UNL A   1      43.140  36.600  36.000  1.00  0.00     0.000 A 
ENDBRANCH  45  64
BRANCH  57  70
ATOM     70  C   UNL A   1      45.983  28.650  32.429  1.00  0.00    -0.014 A 
ATOM     71  C   UNL A   1      46.150  27.738  33.482  1.00  0.00     0.009 A 
ATOM     72  C   UNL A   1      47.091  28.981  31.632  1.00  0.00     0.009 A 
ATOM     73  C   UNL A   1      47.405  27.182  33.737  1.00  0.00     0.001 A 
ATOM     74  C   UNL A   1      48.336  28.401  31.871  1.00  0.00     0.001 A 
ATOM     75  C   UNL A   1      48.494  27.505  32.926  1.00  0.00     0.000 A 
ENDBRANCH  57  70
ENDBRANCH  31  32
ENDBRANCH  23  26
ENDBRANCH  21  22
ENDBRANCH  20  21
ENDBRANCH  19  20
ENDBRANCH   1  19
TORSDOF 15
ENDMDL
