MODEL 1
REMARK VINA RESULT:     -11.7      0.000      0.000
REMARK SMILES O=C(NCCCCCCNC(=O)c1cc(/C=C/c2cc(O)cc(O)c2)ccc1O)c1ccc(-c2c3nc(c(-c4ccccc4)c4ccc([nH]4)c(-c4ccccc4)c4nc(c(-c5ccccc5)c5ccc2[nH]5)C=C4)C=C3)cc1
REMARK SMILES IDX 7 1 6 2 5 3 4 4 3 5 1 6 2 7 30 9 31 10 77 11 32 12 76 13
REMARK SMILES IDX 33 14 34 15 35 16 70 17 36 18 75 19 69 20 71 21 37 22 74 23
REMARK SMILES IDX 68 24 67 25 38 27 60 28 45 29 59 30 46 31 49 32 58 33 72 34
REMARK SMILES IDX 47 35 48 36 57 38 73 39 50 40 39 41 40 42 44 43 41 44 43 45
REMARK SMILES IDX 42 46 61 47 62 48 66 49 63 50 65 51 64 52 51 53 52 54 56 55
REMARK SMILES IDX 53 56 55 57 54 58 8 59 9 60 10 61 11 62 12 64 13 65 14 66
REMARK SMILES IDX 28 67 15 68 27 69 26 70 29 71 16 73 17 74 18 75 19 76 25 77
REMARK SMILES IDX 20 78 23 79 22 80 21 81 24 83
REMARK H PARENT 3 8 71 26 49 37 10 63 29 72 21 82 24 84
REMARK Flexibility Score: inf
ROOT
ATOM      1  C   UNL A   1      36.535  21.719  24.446  1.00  0.00     0.002 C 
ENDROOT
BRANCH   1   2
ATOM      2  C   UNL A   1      36.711  20.271  24.908  1.00  0.00     0.002 C 
BRANCH   2   3
ATOM      3  C   UNL A   1      38.117  19.695  24.727  1.00  0.00     0.021 C 
BRANCH   3   4
ATOM      4  C   UNL A   1      39.080  19.993  25.869  1.00  0.00     0.116 C 
BRANCH   4   5
ATOM      5  N   UNL A   1      40.191  19.058  25.908  1.00  0.00    -0.352 N 
ATOM      6  O   UNL A   1      42.354  18.414  25.905  1.00  0.00    -0.269 OA
ATOM      7  C   UNL A   1      41.525  19.304  26.093  1.00  0.00     0.251 C 
ATOM      8  H   UNL A   1      39.951  18.111  25.782  1.00  0.00     0.163 HD
BRANCH   7   9
ATOM      9  C   UNL A   1      41.974  20.649  26.505  1.00  0.00     0.039 A 
ATOM     10  C   UNL A   1      42.278  21.626  25.553  1.00  0.00     0.014 A 
ATOM     11  C   UNL A   1      42.066  20.939  27.869  1.00  0.00     0.014 A 
ATOM     12  C   UNL A   1      42.778  22.859  25.960  1.00  0.00     0.010 A 
ATOM     13  C   UNL A   1      42.499  22.200  28.277  1.00  0.00     0.010 A 
ATOM     14  C   UNL A   1      42.877  23.163  27.326  1.00  0.00    -0.014 A 
BRANCH  14  15
ATOM     15  C   UNL A   1      43.314  24.509  27.765  1.00  0.00     0.031 A 
ATOM     16  C   UNL A   1      42.309  25.549  28.165  1.00  0.00     0.074 A 
ATOM     17  C   UNL A   1      44.626  24.805  27.749  1.00  0.00     0.049 A 
ATOM     18  N   UNL A   1      42.503  26.805  28.475  1.00  0.00    -0.248 NA
ATOM     19  C   UNL A   1      40.902  25.125  28.211  1.00  0.00     0.031 C 
ATOM     20  C   UNL A   1      45.697  23.877  27.380  1.00  0.00     0.029 A 
ATOM     21  N   UNL A   1      45.282  25.978  28.031  1.00  0.00    -0.354 N 
ATOM     22  C   UNL A   1      41.242  27.331  28.725  1.00  0.00     0.074 A 
ATOM     23  C   UNL A   1      40.289  26.262  28.509  1.00  0.00     0.031 C 
ATOM     24  C   UNL A   1      46.874  24.512  27.461  1.00  0.00     0.029 A 
ATOM     25  C   UNL A   1      46.636  25.906  27.820  1.00  0.00     0.049 A 
ATOM     26  H   UNL A   1      44.826  26.789  28.352  1.00  0.00     0.167 HD
ATOM     27  C   UNL A   1      40.910  28.592  29.096  1.00  0.00     0.031 A 
ATOM     28  C   UNL A   1      47.582  26.862  27.867  1.00  0.00     0.031 A 
ATOM     29  C   UNL A   1      41.865  29.653  29.288  1.00  0.00     0.049 A 
ATOM     30  C   UNL A   1      47.189  28.264  28.226  1.00  0.00     0.074 A 
ATOM     31  C   UNL A   1      41.636  30.954  29.703  1.00  0.00     0.029 A 
ATOM     32  N   UNL A   1      43.229  29.541  29.060  1.00  0.00    -0.354 N 
ATOM     33  N   UNL A   1      45.998  28.738  28.506  1.00  0.00    -0.248 NA
ATOM     34  C   UNL A   1      48.265  29.263  28.280  1.00  0.00     0.031 C 
ATOM     35  C   UNL A   1      42.850  31.646  29.659  1.00  0.00     0.029 A 
ATOM     36  C   UNL A   1      43.848  30.757  29.290  1.00  0.00     0.049 A 
ATOM     37  H   UNL A   1      43.688  28.717  28.776  1.00  0.00     0.167 HD
ATOM     38  C   UNL A   1      46.185  30.083  28.798  1.00  0.00     0.074 A 
ATOM     39  C   UNL A   1      47.604  30.347  28.663  1.00  0.00     0.031 C 
ATOM     40  C   UNL A   1      45.262  31.008  29.154  1.00  0.00     0.031 A 
BRANCH  27  41
ATOM     41  C   UNL A   1      39.447  28.899  29.265  1.00  0.00    -0.014 A 
ATOM     42  C   UNL A   1      38.659  29.354  28.195  1.00  0.00     0.009 A 
ATOM     43  C   UNL A   1      38.843  28.721  30.520  1.00  0.00     0.009 A 
ATOM     44  C   UNL A   1      37.314  29.676  28.392  1.00  0.00     0.001 A 
ATOM     45  C   UNL A   1      37.490  29.010  30.707  1.00  0.00     0.001 A 
ATOM     46  C   UNL A   1      36.730  29.502  29.647  1.00  0.00     0.000 A 
ENDBRANCH  27  41
BRANCH  28  47
ATOM     47  C   UNL A   1      48.985  26.507  27.538  1.00  0.00    -0.014 A 
ATOM     48  C   UNL A   1      49.860  26.050  28.533  1.00  0.00     0.009 A 
ATOM     49  C   UNL A   1      49.436  26.562  26.209  1.00  0.00     0.009 A 
ATOM     50  C   UNL A   1      51.162  25.663  28.204  1.00  0.00     0.001 A 
ATOM     51  C   UNL A   1      50.727  26.146  25.878  1.00  0.00     0.001 A 
ATOM     52  C   UNL A   1      51.591  25.703  26.877  1.00  0.00     0.000 A 
ENDBRANCH  28  47
BRANCH  40  53
ATOM     53  C   UNL A   1      45.753  32.392  29.475  1.00  0.00    -0.014 A 
ATOM     54  C   UNL A   1      45.804  33.399  28.499  1.00  0.00     0.009 A 
ATOM     55  C   UNL A   1      46.093  32.711  30.799  1.00  0.00     0.009 A 
ATOM     56  C   UNL A   1      46.200  34.694  28.842  1.00  0.00     0.001 A 
ATOM     57  C   UNL A   1      46.460  34.011  31.145  1.00  0.00     0.001 A 
ATOM     58  C   UNL A   1      46.517  35.001  30.165  1.00  0.00     0.000 A 
ENDBRANCH  40  53
ENDBRANCH  14  15
ENDBRANCH   7   9
ENDBRANCH   4   5
ENDBRANCH   3   4
ENDBRANCH   2   3
ENDBRANCH   1   2
BRANCH   1  59
ATOM     59  C   UNL A   1      36.929  22.787  25.471  1.00  0.00     0.021 C 
BRANCH  59  60
ATOM     60  C   UNL A   1      35.794  23.706  25.908  1.00  0.00     0.116 C 
BRANCH  60  61
ATOM     61  N   UNL A   1      35.013  23.134  26.987  1.00  0.00    -0.352 N 
ATOM     62  C   UNL A   1      33.755  22.594  26.933  1.00  0.00     0.255 C 
ATOM     63  H   UNL A   1      35.442  23.133  27.873  1.00  0.00     0.163 HD
ATOM     64  O   UNL A   1      33.192  22.230  27.963  1.00  0.00    -0.269 OA
BRANCH  62  65
ATOM     65  C   UNL A   1      33.031  22.533  25.648  1.00  0.00     0.082 A 
ATOM     66  C   UNL A   1      32.471  23.730  25.181  1.00  0.00     0.025 A 
ATOM     67  C   UNL A   1      32.879  21.353  24.915  1.00  0.00     0.128 A 
ATOM     68  C   UNL A   1      31.793  23.775  23.958  1.00  0.00    -0.025 A 
ATOM     69  C   UNL A   1      32.217  21.383  23.691  1.00  0.00     0.047 A 
ATOM     70  C   UNL A   1      31.686  22.587  23.216  1.00  0.00     0.012 A 
BRANCH  67  71
ATOM     71  O   UNL A   1      33.383  20.172  25.383  1.00  0.00    -0.507 OA
ATOM     72  H   UNL A   1      32.932  19.370  25.211  1.00  0.00     0.293 HD
ENDBRANCH  67  71
BRANCH  68  73
ATOM     73  C   UNL A   1      31.182  25.002  23.414  1.00  0.00     0.009 C 
ATOM     74  C   UNL A   1      30.344  25.822  24.070  1.00  0.00     0.009 C 
BRANCH  74  75
ATOM     75  C   UNL A   1      29.742  27.015  23.459  1.00  0.00    -0.018 A 
ATOM     76  C   UNL A   1      28.367  27.271  23.553  1.00  0.00     0.054 A 
ATOM     77  C   UNL A   1      30.575  27.951  22.830  1.00  0.00     0.054 A 
ATOM     78  C   UNL A   1      27.841  28.438  23.004  1.00  0.00     0.119 A 
ATOM     79  C   UNL A   1      30.026  29.109  22.286  1.00  0.00     0.119 A 
ATOM     80  C   UNL A   1      28.662  29.359  22.366  1.00  0.00     0.092 A 
BRANCH  78  81
ATOM     81  O   UNL A   1      26.509  28.720  23.083  1.00  0.00    -0.508 OA
ATOM     82  H   UNL A   1      25.946  28.184  23.607  1.00  0.00     0.293 HD
ENDBRANCH  78  81
BRANCH  79  83
ATOM     83  O   UNL A   1      30.808  30.039  21.663  1.00  0.00    -0.508 OA
ATOM     84  H   UNL A   1      30.677  30.951  21.833  1.00  0.00     0.293 HD
ENDBRANCH  79  83
ENDBRANCH  74  75
ENDBRANCH  68  73
ENDBRANCH  62  65
ENDBRANCH  60  61
ENDBRANCH  59  60
ENDBRANCH   1  59
TORSDOF 18
ENDMDL
MODEL 2
REMARK VINA RESULT:     -11.5      3.177      8.186
REMARK SMILES O=C(NCCCCCCNC(=O)c1cc(/C=C/c2cc(O)cc(O)c2)ccc1O)c1ccc(-c2c3nc(c(-c4ccccc4)c4ccc([nH]4)c(-c4ccccc4)c4nc(c(-c5ccccc5)c5ccc2[nH]5)C=C4)C=C3)cc1
REMARK SMILES IDX 7 1 6 2 5 3 4 4 3 5 1 6 2 7 30 9 31 10 77 11 32 12 76 13
REMARK SMILES IDX 33 14 34 15 35 16 70 17 36 18 75 19 69 20 71 21 37 22 74 23
REMARK SMILES IDX 68 24 67 25 38 27 60 28 45 29 59 30 46 31 49 32 58 33 72 34
REMARK SMILES IDX 47 35 48 36 57 38 73 39 50 40 39 41 40 42 44 43 41 44 43 45
REMARK SMILES IDX 42 46 61 47 62 48 66 49 63 50 65 51 64 52 51 53 52 54 56 55
REMARK SMILES IDX 53 56 55 57 54 58 8 59 9 60 10 61 11 62 12 64 13 65 14 66
REMARK SMILES IDX 28 67 15 68 27 69 26 70 29 71 16 73 17 74 18 75 19 76 25 77
REMARK SMILES IDX 20 78 23 79 22 80 21 81 24 83
REMARK H PARENT 3 8 71 26 49 37 10 63 29 72 21 82 24 84
REMARK Flexibility Score: inf
ROOT
ATOM      1  C   UNL A   1      34.318  25.727  25.438  1.00  0.00     0.002 C 
ENDROOT
BRANCH   1   2
ATOM      2  C   UNL A   1      34.419  24.359  26.118  1.00  0.00     0.002 C 
BRANCH   2   3
ATOM      3  C   UNL A   1      35.416  23.387  25.483  1.00  0.00     0.021 C 
BRANCH   3   4
ATOM      4  C   UNL A   1      36.830  23.932  25.334  1.00  0.00     0.116 C 
BRANCH   4   5
ATOM      5  N   UNL A   1      37.839  22.916  25.579  1.00  0.00    -0.352 N 
ATOM      6  O   UNL A   1      39.876  22.113  26.124  1.00  0.00    -0.269 OA
ATOM      7  C   UNL A   1      39.068  23.039  26.170  1.00  0.00     0.251 C 
ATOM      8  H   UNL A   1      37.605  22.008  25.277  1.00  0.00     0.163 HD
BRANCH   7   9
ATOM      9  C   UNL A   1      39.433  24.297  26.852  1.00  0.00     0.039 A 
ATOM     10  C   UNL A   1      39.093  24.511  28.191  1.00  0.00     0.014 A 
ATOM     11  C   UNL A   1      40.151  25.263  26.143  1.00  0.00     0.014 A 
ATOM     12  C   UNL A   1      39.373  25.734  28.790  1.00  0.00     0.010 A 
ATOM     13  C   UNL A   1      40.495  26.462  26.768  1.00  0.00     0.010 A 
ATOM     14  C   UNL A   1      40.091  26.714  28.090  1.00  0.00    -0.014 A 
BRANCH  14  15
ATOM     15  C   UNL A   1      40.480  27.979  28.756  1.00  0.00     0.031 A 
ATOM     16  C   UNL A   1      41.820  28.119  29.416  1.00  0.00     0.074 A 
ATOM     17  C   UNL A   1      39.591  28.988  28.808  1.00  0.00     0.049 A 
ATOM     18  N   UNL A   1      42.287  29.109  30.131  1.00  0.00    -0.248 NA
ATOM     19  C   UNL A   1      42.753  26.993  29.261  1.00  0.00     0.031 C 
ATOM     20  C   UNL A   1      38.258  28.970  28.203  1.00  0.00     0.029 A 
ATOM     21  N   UNL A   1      39.666  30.216  29.416  1.00  0.00    -0.354 N 
ATOM     22  C   UNL A   1      43.556  28.717  30.538  1.00  0.00     0.074 A 
ATOM     23  C   UNL A   1      43.776  27.388  30.006  1.00  0.00     0.031 C 
ATOM     24  C   UNL A   1      37.642  30.131  28.466  1.00  0.00     0.029 A 
ATOM     25  C   UNL A   1      38.508  30.945  29.312  1.00  0.00     0.049 A 
ATOM     26  H   UNL A   1      40.471  30.542  29.879  1.00  0.00     0.167 HD
ATOM     27  C   UNL A   1      44.453  29.402  31.289  1.00  0.00     0.031 A 
ATOM     28  C   UNL A   1      38.158  32.119  29.869  1.00  0.00     0.031 A 
ATOM     29  C   UNL A   1      44.215  30.715  31.830  1.00  0.00     0.049 A 
ATOM     30  C   UNL A   1      39.143  32.837  30.743  1.00  0.00     0.074 A 
ATOM     31  C   UNL A   1      45.073  31.511  32.569  1.00  0.00     0.029 A 
ATOM     32  N   UNL A   1      43.025  31.419  31.706  1.00  0.00    -0.354 N 
ATOM     33  N   UNL A   1      40.358  32.476  31.081  1.00  0.00    -0.248 NA
ATOM     34  C   UNL A   1      38.715  34.123  31.310  1.00  0.00     0.031 C 
ATOM     35  C   UNL A   1      44.379  32.664  32.951  1.00  0.00     0.029 A 
ATOM     36  C   UNL A   1      43.114  32.621  32.385  1.00  0.00     0.049 A 
ATOM     37  H   UNL A   1      42.234  31.106  31.209  1.00  0.00     0.167 HD
ATOM     38  C   UNL A   1      40.851  33.503  31.876  1.00  0.00     0.074 A 
ATOM     39  C   UNL A   1      39.804  34.501  31.966  1.00  0.00     0.031 C 
ATOM     40  C   UNL A   1      42.065  33.608  32.467  1.00  0.00     0.031 A 
BRANCH  27  41
ATOM     41  C   UNL A   1      45.751  28.713  31.612  1.00  0.00    -0.014 A 
ATOM     42  C   UNL A   1      45.890  27.890  32.740  1.00  0.00     0.009 A 
ATOM     43  C   UNL A   1      46.856  28.887  30.763  1.00  0.00     0.009 A 
ATOM     44  C   UNL A   1      47.121  27.300  33.040  1.00  0.00     0.001 A 
ATOM     45  C   UNL A   1      48.075  28.270  31.045  1.00  0.00     0.001 A 
ATOM     46  C   UNL A   1      48.212  27.490  32.192  1.00  0.00     0.000 A 
ENDBRANCH  27  41
BRANCH  28  47
ATOM     47  C   UNL A   1      36.798  32.659  29.622  1.00  0.00    -0.014 A 
ATOM     48  C   UNL A   1      35.768  32.458  30.552  1.00  0.00     0.009 A 
ATOM     49  C   UNL A   1      36.541  33.436  28.480  1.00  0.00     0.009 A 
ATOM     50  C   UNL A   1      34.506  33.018  30.338  1.00  0.00     0.001 A 
ATOM     51  C   UNL A   1      35.289  34.019  28.283  1.00  0.00     0.001 A 
ATOM     52  C   UNL A   1      34.270  33.805  29.210  1.00  0.00     0.000 A 
ENDBRANCH  28  47
BRANCH  40  53
ATOM     53  C   UNL A   1      42.359  34.869  33.230  1.00  0.00    -0.014 A 
ATOM     54  C   UNL A   1      43.095  35.919  32.658  1.00  0.00     0.009 A 
ATOM     55  C   UNL A   1      41.818  35.037  34.514  1.00  0.00     0.009 A 
ATOM     56  C   UNL A   1      43.294  37.107  33.367  1.00  0.00     0.001 A 
ATOM     57  C   UNL A   1      41.994  36.234  35.208  1.00  0.00     0.001 A 
ATOM     58  C   UNL A   1      42.735  37.267  34.635  1.00  0.00     0.000 A 
ENDBRANCH  40  53
ENDBRANCH  14  15
ENDBRANCH   7   9
ENDBRANCH   4   5
ENDBRANCH   3   4
ENDBRANCH   2   3
ENDBRANCH   1   2
BRANCH   1  59
ATOM     59  C   UNL A   1      33.411  26.742  26.140  1.00  0.00     0.021 C 
BRANCH  59  60
ATOM     60  C   UNL A   1      31.969  26.284  26.338  1.00  0.00     0.116 C 
BRANCH  60  61
ATOM     61  N   UNL A   1      31.025  27.145  25.653  1.00  0.00    -0.352 N 
ATOM     62  C   UNL A   1      30.803  27.262  24.306  1.00  0.00     0.255 C 
ATOM     63  H   UNL A   1      30.473  27.720  26.230  1.00  0.00     0.163 HD
ATOM     64  O   UNL A   1      30.024  28.110  23.877  1.00  0.00    -0.269 OA
BRANCH  62  65
ATOM     65  C   UNL A   1      31.569  26.431  23.355  1.00  0.00     0.082 A 
ATOM     66  C   UNL A   1      31.522  25.044  23.550  1.00  0.00     0.025 A 
ATOM     67  C   UNL A   1      32.325  26.970  22.312  1.00  0.00     0.128 A 
ATOM     68  C   UNL A   1      32.192  24.175  22.681  1.00  0.00    -0.025 A 
ATOM     69  C   UNL A   1      32.989  26.120  21.432  1.00  0.00     0.047 A 
ATOM     70  C   UNL A   1      32.914  24.734  21.614  1.00  0.00     0.012 A 
BRANCH  67  71
ATOM     71  O   UNL A   1      32.413  28.323  22.141  1.00  0.00    -0.507 OA
ATOM     72  H   UNL A   1      33.140  28.690  21.678  1.00  0.00     0.293 HD
ENDBRANCH  67  71
BRANCH  68  73
ATOM     73  C   UNL A   1      32.183  22.709  22.833  1.00  0.00     0.009 C 
ATOM     74  C   UNL A   1      32.323  22.036  23.988  1.00  0.00     0.009 C 
BRANCH  74  75
ATOM     75  C   UNL A   1      32.338  20.569  24.068  1.00  0.00    -0.018 A 
ATOM     76  C   UNL A   1      32.174  19.772  22.927  1.00  0.00     0.054 A 
ATOM     77  C   UNL A   1      32.594  19.958  25.303  1.00  0.00     0.054 A 
ATOM     78  C   UNL A   1      32.244  18.384  23.036  1.00  0.00     0.119 A 
ATOM     79  C   UNL A   1      32.658  18.570  25.389  1.00  0.00     0.119 A 
ATOM     80  C   UNL A   1      32.481  17.776  24.262  1.00  0.00     0.092 A 
BRANCH  78  81
ATOM     81  O   UNL A   1      32.094  17.580  21.944  1.00  0.00    -0.508 OA
ATOM     82  H   UNL A   1      32.710  17.626  21.240  1.00  0.00     0.293 HD
ENDBRANCH  78  81
BRANCH  79  83
ATOM     83  O   UNL A   1      32.900  17.943  26.577  1.00  0.00    -0.508 OA
ATOM     84  H   UNL A   1      32.240  17.927  27.242  1.00  0.00     0.293 HD
ENDBRANCH  79  83
ENDBRANCH  74  75
ENDBRANCH  68  73
ENDBRANCH  62  65
ENDBRANCH  60  61
ENDBRANCH  59  60
ENDBRANCH   1  59
TORSDOF 18
ENDMDL
MODEL 3
REMARK VINA RESULT:     -11.4      1.136      6.008
REMARK SMILES O=C(NCCCCCCNC(=O)c1cc(/C=C/c2cc(O)cc(O)c2)ccc1O)c1ccc(-c2c3nc(c(-c4ccccc4)c4ccc([nH]4)c(-c4ccccc4)c4nc(c(-c5ccccc5)c5ccc2[nH]5)C=C4)C=C3)cc1
REMARK SMILES IDX 7 1 6 2 5 3 4 4 3 5 1 6 2 7 30 9 31 10 77 11 32 12 76 13
REMARK SMILES IDX 33 14 34 15 35 16 70 17 36 18 75 19 69 20 71 21 37 22 74 23
REMARK SMILES IDX 68 24 67 25 38 27 60 28 45 29 59 30 46 31 49 32 58 33 72 34
REMARK SMILES IDX 47 35 48 36 57 38 73 39 50 40 39 41 40 42 44 43 41 44 43 45
REMARK SMILES IDX 42 46 61 47 62 48 66 49 63 50 65 51 64 52 51 53 52 54 56 55
REMARK SMILES IDX 53 56 55 57 54 58 8 59 9 60 10 61 11 62 12 64 13 65 14 66
REMARK SMILES IDX 28 67 15 68 27 69 26 70 29 71 16 73 17 74 18 75 19 76 25 77
REMARK SMILES IDX 20 78 23 79 22 80 21 81 24 83
REMARK H PARENT 3 8 71 26 49 37 10 63 29 72 21 82 24 84
REMARK Flexibility Score: inf
ROOT
ATOM      1  C   UNL A   1      36.797  21.695  24.253  1.00  0.00     0.002 C 
ENDROOT
BRANCH   1   2
ATOM      2  C   UNL A   1      36.835  20.339  24.963  1.00  0.00     0.002 C 
BRANCH   2   3
ATOM      3  C   UNL A   1      38.173  19.602  24.891  1.00  0.00     0.021 C 
BRANCH   3   4
ATOM      4  C   UNL A   1      39.177  19.995  25.968  1.00  0.00     0.116 C 
BRANCH   4   5
ATOM      5  N   UNL A   1      40.384  19.189  25.913  1.00  0.00    -0.352 N 
ATOM      6  O   UNL A   1      42.603  18.792  25.810  1.00  0.00    -0.269 OA
ATOM      7  C   UNL A   1      41.689  19.570  26.081  1.00  0.00     0.251 C 
ATOM      8  H   UNL A   1      40.244  18.232  25.729  1.00  0.00     0.163 HD
BRANCH   7   9
ATOM      9  C   UNL A   1      42.002  20.926  26.573  1.00  0.00     0.039 A 
ATOM     10  C   UNL A   1      42.004  21.209  27.942  1.00  0.00     0.014 A 
ATOM     11  C   UNL A   1      42.324  21.920  25.646  1.00  0.00     0.014 A 
ATOM     12  C   UNL A   1      42.221  22.511  28.380  1.00  0.00     0.010 A 
ATOM     13  C   UNL A   1      42.612  23.210  26.092  1.00  0.00     0.010 A 
ATOM     14  C   UNL A   1      42.543  23.520  27.461  1.00  0.00    -0.014 A 
BRANCH  14  15
ATOM     15  C   UNL A   1      42.873  24.886  27.930  1.00  0.00     0.031 A 
ATOM     16  C   UNL A   1      44.272  25.239  28.341  1.00  0.00     0.074 A 
ATOM     17  C   UNL A   1      41.886  25.795  28.035  1.00  0.00     0.049 A 
ATOM     18  N   UNL A   1      44.720  26.347  28.872  1.00  0.00    -0.248 NA
ATOM     19  C   UNL A   1      45.299  24.207  28.139  1.00  0.00     0.031 C 
ATOM     20  C   UNL A   1      40.487  25.568  27.666  1.00  0.00     0.029 A 
ATOM     21  N   UNL A   1      41.904  27.084  28.503  1.00  0.00    -0.354 N 
ATOM     22  C   UNL A   1      46.074  26.139  29.096  1.00  0.00     0.074 A 
ATOM     23  C   UNL A   1      46.370  24.789  28.663  1.00  0.00     0.031 C 
ATOM     24  C   UNL A   1      39.783  26.680  27.917  1.00  0.00     0.029 A 
ATOM     25  C   UNL A   1      40.663  27.671  28.527  1.00  0.00     0.049 A 
ATOM     26  H   UNL A   1      42.725  27.543  28.793  1.00  0.00     0.167 HD
ATOM     27  C   UNL A   1      46.986  26.995  29.619  1.00  0.00     0.031 A 
ATOM     28  C   UNL A   1      40.264  28.857  29.022  1.00  0.00     0.031 A 
ATOM     29  C   UNL A   1      46.676  28.329  30.067  1.00  0.00     0.049 A 
ATOM     30  C   UNL A   1      41.277  29.768  29.647  1.00  0.00     0.074 A 
ATOM     31  C   UNL A   1      47.535  29.288  30.574  1.00  0.00     0.029 A 
ATOM     32  N   UNL A   1      45.405  28.884  30.077  1.00  0.00    -0.354 N 
ATOM     33  N   UNL A   1      42.565  29.578  29.810  1.00  0.00    -0.248 NA
ATOM     34  C   UNL A   1      40.788  31.057  30.154  1.00  0.00     0.031 C 
ATOM     35  C   UNL A   1      46.773  30.397  30.955  1.00  0.00     0.029 A 
ATOM     36  C   UNL A   1      45.450  30.158  30.616  1.00  0.00     0.049 A 
ATOM     37  H   UNL A   1      44.591  28.436  29.751  1.00  0.00     0.167 HD
ATOM     38  C   UNL A   1      43.046  30.733  30.411  1.00  0.00     0.074 A 
ATOM     39  C   UNL A   1      41.911  31.620  30.581  1.00  0.00     0.031 C 
ATOM     40  C   UNL A   1      44.315  31.032  30.778  1.00  0.00     0.031 A 
BRANCH  27  41
ATOM     41  C   UNL A   1      48.393  26.488  29.784  1.00  0.00    -0.014 A 
ATOM     42  C   UNL A   1      48.802  25.803  30.940  1.00  0.00     0.009 A 
ATOM     43  C   UNL A   1      49.327  26.693  28.756  1.00  0.00     0.009 A 
ATOM     44  C   UNL A   1      50.127  25.384  31.084  1.00  0.00     0.001 A 
ATOM     45  C   UNL A   1      50.642  26.244  28.888  1.00  0.00     0.001 A 
ATOM     46  C   UNL A   1      51.046  25.604  30.058  1.00  0.00     0.000 A 
ENDBRANCH  27  41
BRANCH  28  47
ATOM     47  C   UNL A   1      38.826  29.219  28.956  1.00  0.00    -0.014 A 
ATOM     48  C   UNL A   1      38.262  29.700  27.766  1.00  0.00     0.009 A 
ATOM     49  C   UNL A   1      37.994  29.022  30.071  1.00  0.00     0.009 A 
ATOM     50  C   UNL A   1      36.896  29.985  27.697  1.00  0.00     0.001 A 
ATOM     51  C   UNL A   1      36.625  29.277  29.991  1.00  0.00     0.001 A 
ATOM     52  C   UNL A   1      36.077  29.764  28.806  1.00  0.00     0.000 A 
ENDBRANCH  28  47
BRANCH  40  53
ATOM     53  C   UNL A   1      44.568  32.395  31.359  1.00  0.00    -0.014 A 
ATOM     54  C   UNL A   1      44.826  33.506  30.542  1.00  0.00     0.009 A 
ATOM     55  C   UNL A   1      44.463  32.581  32.747  1.00  0.00     0.009 A 
ATOM     56  C   UNL A   1      44.989  34.773  31.107  1.00  0.00     0.001 A 
ATOM     57  C   UNL A   1      44.598  33.851  33.306  1.00  0.00     0.001 A 
ATOM     58  C   UNL A   1      44.865  34.946  32.486  1.00  0.00     0.000 A 
ENDBRANCH  40  53
ENDBRANCH  14  15
ENDBRANCH   7   9
ENDBRANCH   4   5
ENDBRANCH   3   4
ENDBRANCH   2   3
ENDBRANCH   1   2
BRANCH   1  59
ATOM     59  C   UNL A   1      37.269  22.887  25.092  1.00  0.00     0.021 C 
BRANCH  59  60
ATOM     60  C   UNL A   1      36.151  23.699  25.736  1.00  0.00     0.116 C 
BRANCH  60  61
ATOM     61  N   UNL A   1      35.513  22.982  26.823  1.00  0.00    -0.352 N 
ATOM     62  C   UNL A   1      34.252  22.446  26.864  1.00  0.00     0.255 C 
ATOM     63  H   UNL A   1      36.054  22.866  27.636  1.00  0.00     0.163 HD
ATOM     64  O   UNL A   1      33.825  21.944  27.901  1.00  0.00    -0.269 OA
BRANCH  62  65
ATOM     65  C   UNL A   1      33.365  22.552  25.689  1.00  0.00     0.082 A 
ATOM     66  C   UNL A   1      32.891  23.833  25.369  1.00  0.00     0.025 A 
ATOM     67  C   UNL A   1      32.983  21.449  24.920  1.00  0.00     0.128 A 
ATOM     68  C   UNL A   1      32.069  24.035  24.254  1.00  0.00    -0.025 A 
ATOM     69  C   UNL A   1      32.175  21.634  23.803  1.00  0.00     0.047 A 
ATOM     70  C   UNL A   1      31.730  22.919  23.471  1.00  0.00     0.012 A 
BRANCH  67  71
ATOM     71  O   UNL A   1      33.404  20.191  25.250  1.00  0.00    -0.507 OA
ATOM     72  H   UNL A   1      32.843  19.624  25.740  1.00  0.00     0.293 HD
ENDBRANCH  67  71
BRANCH  68  73
ATOM     73  C   UNL A   1      31.538  25.354  23.867  1.00  0.00     0.009 C 
ATOM     74  C   UNL A   1      30.240  25.668  23.722  1.00  0.00     0.009 C 
BRANCH  74  75
ATOM     75  C   UNL A   1      29.776  26.998  23.300  1.00  0.00    -0.018 A 
ATOM     76  C   UNL A   1      30.640  27.915  22.687  1.00  0.00     0.054 A 
ATOM     77  C   UNL A   1      28.421  27.324  23.452  1.00  0.00     0.054 A 
ATOM     78  C   UNL A   1      30.151  29.146  22.255  1.00  0.00     0.119 A 
ATOM     79  C   UNL A   1      27.955  28.562  23.015  1.00  0.00     0.119 A 
ATOM     80  C   UNL A   1      28.812  29.478  22.419  1.00  0.00     0.092 A 
BRANCH  78  81
ATOM     81  O   UNL A   1      30.964  30.058  21.649  1.00  0.00    -0.508 OA
ATOM     82  H   UNL A   1      31.532  29.791  20.953  1.00  0.00     0.293 HD
ENDBRANCH  78  81
BRANCH  79  83
ATOM     83  O   UNL A   1      26.643  28.914  23.152  1.00  0.00    -0.508 OA
ATOM     84  H   UNL A   1      26.009  28.271  23.400  1.00  0.00     0.293 HD
ENDBRANCH  79  83
ENDBRANCH  74  75
ENDBRANCH  68  73
ENDBRANCH  62  65
ENDBRANCH  60  61
ENDBRANCH  59  60
ENDBRANCH   1  59
TORSDOF 18
ENDMDL
