MODEL 1
REMARK VINA RESULT:     -12.6      0.000      0.000
REMARK SMILES O=C(NCCCCCCNC(=O)[C@@H]1[C@H](C(=O)Nc2ccc(Cn3cncn3)cc2)[C@@H]2C=C[C@H]1CC2)c1ccc(-c2c3nc(c(-c4ccccc4)c4ccc([nH]4)c(-c4ccccc4)c4nc(c(-c5ccccc5)c5ccc2[nH]5)C=C4)C=C3)cc1
REMARK SMILES IDX 7 1 6 2 5 3 4 4 3 5 1 6 2 7 36 9 37 10 83 11 38 12 82 13
REMARK SMILES IDX 39 14 40 15 41 16 76 17 42 18 81 19 75 20 77 21 43 22 80 23
REMARK SMILES IDX 74 24 73 25 44 27 66 28 51 29 65 30 52 31 55 32 64 33 78 34
REMARK SMILES IDX 53 35 54 36 63 38 79 39 56 40 45 41 46 42 50 43 47 44 49 45
REMARK SMILES IDX 48 46 67 47 68 48 72 49 69 50 71 51 70 52 57 53 58 54 62 55
REMARK SMILES IDX 59 56 61 57 60 58 8 59 9 60 10 61 11 62 12 64 13 65 14 66
REMARK SMILES IDX 33 67 30 68 32 69 34 70 31 71 35 72 15 73 16 74 17 75 18 77
REMARK SMILES IDX 19 78 29 79 20 80 28 81 21 82 22 83 23 84 24 85 27 86 25 87
REMARK SMILES IDX 26 88
REMARK H PARENT 3 8 77 26 55 37 10 63 17 76
REMARK Flexibility Score: inf
ROOT
ATOM      1  C   UNL A   1      33.681  28.147  25.752  1.00  0.00     0.002 C 
ENDROOT
BRANCH   1   2
ATOM      2  C   UNL A   1      33.821  28.892  27.084  1.00  0.00     0.002 C 
BRANCH   2   3
ATOM      3  C   UNL A   1      33.044  30.207  27.227  1.00  0.00     0.021 C 
BRANCH   3   4
ATOM      4  C   UNL A   1      33.898  31.471  27.304  1.00  0.00     0.116 C 
BRANCH   4   5
ATOM      5  N   UNL A   1      33.974  32.057  28.626  1.00  0.00    -0.352 N 
ATOM      6  O   UNL A   1      34.669  32.908  30.540  1.00  0.00    -0.269 OA
ATOM      7  C   UNL A   1      34.941  32.166  29.582  1.00  0.00     0.251 C 
ATOM      8  H   UNL A   1      33.127  32.475  28.901  1.00  0.00     0.163 HD
BRANCH   7   9
ATOM      9  C   UNL A   1      36.247  31.447  29.604  1.00  0.00     0.039 A 
ATOM     10  C   UNL A   1      37.500  32.018  29.824  1.00  0.00     0.014 A 
ATOM     11  C   UNL A   1      36.185  30.058  29.356  1.00  0.00     0.014 A 
ATOM     12  C   UNL A   1      38.655  31.236  29.744  1.00  0.00     0.010 A 
ATOM     13  C   UNL A   1      37.334  29.273  29.275  1.00  0.00     0.010 A 
ATOM     14  C   UNL A   1      38.576  29.867  29.449  1.00  0.00    -0.014 A 
BRANCH  14  15
ATOM     15  C   UNL A   1      39.800  29.066  29.529  1.00  0.00     0.031 A 
ATOM     16  C   UNL A   1      40.163  28.657  30.914  1.00  0.00     0.074 A 
ATOM     17  C   UNL A   1      40.514  28.592  28.488  1.00  0.00     0.049 A 
ATOM     18  N   UNL A   1      41.182  29.048  31.606  1.00  0.00    -0.248 NA
ATOM     19  C   UNL A   1      39.231  27.791  31.651  1.00  0.00     0.031 C 
ATOM     20  C   UNL A   1      40.174  28.617  27.065  1.00  0.00     0.029 A 
ATOM     21  N   UNL A   1      41.689  27.892  28.510  1.00  0.00    -0.354 N 
ATOM     22  C   UNL A   1      41.124  28.347  32.809  1.00  0.00     0.074 A 
ATOM     23  C   UNL A   1      39.839  27.695  32.835  1.00  0.00     0.031 C 
ATOM     24  C   UNL A   1      41.006  27.785  26.391  1.00  0.00     0.029 A 
ATOM     25  C   UNL A   1      42.019  27.281  27.305  1.00  0.00     0.049 A 
ATOM     26  H   UNL A   1      42.256  27.826  29.312  1.00  0.00     0.167 HD
ATOM     27  C   UNL A   1      42.227  28.184  33.591  1.00  0.00     0.031 A 
ATOM     28  C   UNL A   1      43.029  26.399  27.084  1.00  0.00     0.031 A 
ATOM     29  C   UNL A   1      43.281  29.098  33.231  1.00  0.00     0.049 A 
ATOM     30  C   UNL A   1      44.015  26.549  28.175  1.00  0.00     0.074 A 
ATOM     31  C   UNL A   1      43.408  30.470  33.161  1.00  0.00     0.029 A 
ATOM     32  N   UNL A   1      44.332  28.588  32.508  1.00  0.00    -0.354 N 
ATOM     33  N   UNL A   1      44.793  27.583  28.306  1.00  0.00    -0.248 NA
ATOM     34  C   UNL A   1      43.869  25.721  29.359  1.00  0.00     0.031 C 
ATOM     35  C   UNL A   1      44.217  30.705  32.010  1.00  0.00     0.029 A 
ATOM     36  C   UNL A   1      44.589  29.466  31.490  1.00  0.00     0.049 A 
ATOM     37  H   UNL A   1      44.812  27.747  32.688  1.00  0.00     0.167 HD
ATOM     38  C   UNL A   1      44.852  27.799  29.673  1.00  0.00     0.074 A 
ATOM     39  C   UNL A   1      44.365  26.559  30.273  1.00  0.00     0.031 C 
ATOM     40  C   UNL A   1      45.023  29.057  30.175  1.00  0.00     0.031 A 
BRANCH  27  41
ATOM     41  C   UNL A   1      42.512  26.928  34.382  1.00  0.00    -0.014 A 
ATOM     42  C   UNL A   1      43.524  26.061  33.927  1.00  0.00     0.009 A 
ATOM     43  C   UNL A   1      41.635  26.416  35.356  1.00  0.00     0.009 A 
ATOM     44  C   UNL A   1      43.586  24.727  34.344  1.00  0.00     0.001 A 
ATOM     45  C   UNL A   1      41.722  25.096  35.809  1.00  0.00     0.001 A 
ATOM     46  C   UNL A   1      42.676  24.241  35.276  1.00  0.00     0.000 A 
ENDBRANCH  27  41
BRANCH  28  47
ATOM     47  C   UNL A   1      43.129  25.275  26.127  1.00  0.00    -0.014 A 
ATOM     48  C   UNL A   1      44.236  25.158  25.267  1.00  0.00     0.009 A 
ATOM     49  C   UNL A   1      42.293  24.155  26.273  1.00  0.00     0.009 A 
ATOM     50  C   UNL A   1      44.523  23.949  24.619  1.00  0.00     0.001 A 
ATOM     51  C   UNL A   1      42.579  22.948  25.623  1.00  0.00     0.001 A 
ATOM     52  C   UNL A   1      43.704  22.840  24.811  1.00  0.00     0.000 A 
ENDBRANCH  28  47
BRANCH  40  53
ATOM     53  C   UNL A   1      45.449  30.151  29.228  1.00  0.00    -0.014 A 
ATOM     54  C   UNL A   1      44.570  30.804  28.345  1.00  0.00     0.009 A 
ATOM     55  C   UNL A   1      46.768  30.622  29.319  1.00  0.00     0.009 A 
ATOM     56  C   UNL A   1      45.015  31.864  27.546  1.00  0.00     0.001 A 
ATOM     57  C   UNL A   1      47.205  31.695  28.542  1.00  0.00     0.001 A 
ATOM     58  C   UNL A   1      46.331  32.309  27.647  1.00  0.00     0.000 A 
ENDBRANCH  40  53
ENDBRANCH  14  15
ENDBRANCH   7   9
ENDBRANCH   4   5
ENDBRANCH   3   4
ENDBRANCH   2   3
ENDBRANCH   1   2
BRANCH   1  59
ATOM     59  C   UNL A   1      33.174  26.703  25.809  1.00  0.00     0.021 C 
BRANCH  59  60
ATOM     60  C   UNL A   1      32.135  26.379  26.878  1.00  0.00     0.116 C 
BRANCH  60  61
ATOM     61  N   UNL A   1      31.427  25.127  26.676  1.00  0.00    -0.356 N 
ATOM     62  C   UNL A   1      31.979  23.881  26.572  1.00  0.00     0.224 C 
ATOM     63  H   UNL A   1      30.447  25.181  26.607  1.00  0.00     0.163 HD
ATOM     64  O   UNL A   1      31.381  22.945  27.108  1.00  0.00    -0.275 OA
BRANCH  62  65
ATOM     65  C   UNL A   1      33.311  23.702  25.869  1.00  0.00     0.098 C 
ATOM     66  C   UNL A   1      33.343  23.413  24.342  1.00  0.00     0.098 C 
ATOM     67  C   UNL A   1      34.323  22.752  26.597  1.00  0.00     0.025 C 
ATOM     68  C   UNL A   1      34.626  22.578  24.015  1.00  0.00     0.025 C 
ATOM     69  C   UNL A   1      34.326  21.341  26.039  1.00  0.00    -0.027 C 
ATOM     70  C   UNL A   1      35.730  23.281  26.218  1.00  0.00     0.009 C 
ATOM     71  C   UNL A   1      34.524  21.248  24.715  1.00  0.00    -0.027 C 
ATOM     72  C   UNL A   1      35.861  23.280  24.666  1.00  0.00     0.009 C 
BRANCH  66  73
ATOM     73  C   UNL A   1      32.105  23.025  23.483  1.00  0.00     0.228 C 
ATOM     74  O   UNL A   1      32.024  21.850  23.089  1.00  0.00    -0.274 OA
ATOM     75  N   UNL A   1      30.980  23.785  23.298  1.00  0.00    -0.326 N 
ATOM     76  H   UNL A   1      30.152  23.260  23.214  1.00  0.00     0.169 HD
BRANCH  75  77
ATOM     77  C   UNL A   1      30.788  25.166  23.207  1.00  0.00     0.041 A 
ATOM     78  C   UNL A   1      29.685  25.768  23.811  1.00  0.00     0.026 A 
ATOM     79  C   UNL A   1      31.642  25.960  22.463  1.00  0.00     0.026 A 
ATOM     80  C   UNL A   1      29.595  27.168  23.866  1.00  0.00     0.008 A 
ATOM     81  C   UNL A   1      31.578  27.349  22.519  1.00  0.00     0.008 A 
ATOM     82  C   UNL A   1      30.590  27.969  23.283  1.00  0.00    -0.026 A 
BRANCH  82  83
ATOM     83  C   UNL A   1      30.617  29.465  23.448  1.00  0.00     0.181 C 
BRANCH  83  84
ATOM     84  N   UNL A   1      29.490  30.092  22.793  1.00  0.00    -0.249 N 
ATOM     85  C   UNL A   1      28.596  30.960  23.337  1.00  0.00     0.220 A 
ATOM     86  N   UNL A   1      29.236  29.892  21.484  1.00  0.00    -0.160 NA
ATOM     87  N   UNL A   1      27.729  31.327  22.423  1.00  0.00    -0.224 NA
ATOM     88  C   UNL A   1      28.147  30.646  21.314  1.00  0.00     0.246 A 
ENDBRANCH  83  84
ENDBRANCH  82  83
ENDBRANCH  75  77
ENDBRANCH  66  73
ENDBRANCH  62  65
ENDBRANCH  60  61
ENDBRANCH  59  60
ENDBRANCH   1  59
TORSDOF 17
ENDMDL
MODEL 2
REMARK VINA RESULT:     -11.6      2.204      5.472
REMARK SMILES O=C(NCCCCCCNC(=O)[C@@H]1[C@H](C(=O)Nc2ccc(Cn3cncn3)cc2)[C@@H]2C=C[C@H]1CC2)c1ccc(-c2c3nc(c(-c4ccccc4)c4ccc([nH]4)c(-c4ccccc4)c4nc(c(-c5ccccc5)c5ccc2[nH]5)C=C4)C=C3)cc1
REMARK SMILES IDX 7 1 6 2 5 3 4 4 3 5 1 6 2 7 36 9 37 10 83 11 38 12 82 13
REMARK SMILES IDX 39 14 40 15 41 16 76 17 42 18 81 19 75 20 77 21 43 22 80 23
REMARK SMILES IDX 74 24 73 25 44 27 66 28 51 29 65 30 52 31 55 32 64 33 78 34
REMARK SMILES IDX 53 35 54 36 63 38 79 39 56 40 45 41 46 42 50 43 47 44 49 45
REMARK SMILES IDX 48 46 67 47 68 48 72 49 69 50 71 51 70 52 57 53 58 54 62 55
REMARK SMILES IDX 59 56 61 57 60 58 8 59 9 60 10 61 11 62 12 64 13 65 14 66
REMARK SMILES IDX 33 67 30 68 32 69 34 70 31 71 35 72 15 73 16 74 17 75 18 77
REMARK SMILES IDX 19 78 29 79 20 80 28 81 21 82 22 83 23 84 24 85 27 86 25 87
REMARK SMILES IDX 26 88
REMARK H PARENT 3 8 77 26 55 37 10 63 17 76
REMARK Flexibility Score: inf
ROOT
ATOM      1  C   UNL A   1      32.438  27.646  26.361  1.00  0.00     0.002 C 
ENDROOT
BRANCH   1   2
ATOM      2  C   UNL A   1      31.773  28.757  27.179  1.00  0.00     0.002 C 
BRANCH   2   3
ATOM      3  C   UNL A   1      32.181  30.199  26.852  1.00  0.00     0.021 C 
BRANCH   3   4
ATOM      4  C   UNL A   1      33.620  30.573  27.204  1.00  0.00     0.116 C 
BRANCH   4   5
ATOM      5  N   UNL A   1      33.735  31.585  28.233  1.00  0.00    -0.352 N 
ATOM      6  O   UNL A   1      34.484  33.075  29.678  1.00  0.00    -0.269 OA
ATOM      7  C   UNL A   1      34.747  32.057  29.018  1.00  0.00     0.251 C 
ATOM      8  H   UNL A   1      32.881  32.040  28.409  1.00  0.00     0.163 HD
BRANCH   7   9
ATOM      9  C   UNL A   1      36.093  31.440  29.188  1.00  0.00     0.039 A 
ATOM     10  C   UNL A   1      37.300  32.123  29.342  1.00  0.00     0.014 A 
ATOM     11  C   UNL A   1      36.128  30.029  29.168  1.00  0.00     0.014 A 
ATOM     12  C   UNL A   1      38.504  31.417  29.419  1.00  0.00     0.010 A 
ATOM     13  C   UNL A   1      37.325  29.321  29.244  1.00  0.00     0.010 A 
ATOM     14  C   UNL A   1      38.522  30.018  29.349  1.00  0.00    -0.014 A 
BRANCH  14  15
ATOM     15  C   UNL A   1      39.789  29.324  29.588  1.00  0.00     0.031 A 
ATOM     16  C   UNL A   1      40.064  29.048  31.026  1.00  0.00     0.074 A 
ATOM     17  C   UNL A   1      40.621  28.833  28.648  1.00  0.00     0.049 A 
ATOM     18  N   UNL A   1      40.990  29.569  31.762  1.00  0.00    -0.248 NA
ATOM     19  C   UNL A   1      39.139  28.167  31.754  1.00  0.00     0.031 C 
ATOM     20  C   UNL A   1      40.401  28.725  27.205  1.00  0.00     0.029 A 
ATOM     21  N   UNL A   1      41.839  28.232  28.817  1.00  0.00    -0.354 N 
ATOM     22  C   UNL A   1      40.882  28.956  33.009  1.00  0.00     0.074 A 
ATOM     23  C   UNL A   1      39.650  28.208  32.986  1.00  0.00     0.031 C 
ATOM     24  C   UNL A   1      41.345  27.915  26.667  1.00  0.00     0.029 A 
ATOM     25  C   UNL A   1      42.312  27.562  27.695  1.00  0.00     0.049 A 
ATOM     26  H   UNL A   1      42.339  28.270  29.664  1.00  0.00     0.167 HD
ATOM     27  C   UNL A   1      41.924  28.939  33.886  1.00  0.00     0.031 A 
ATOM     28  C   UNL A   1      43.399  26.749  27.624  1.00  0.00     0.031 A 
ATOM     29  C   UNL A   1      42.935  29.905  33.537  1.00  0.00     0.049 A 
ATOM     30  C   UNL A   1      44.276  27.057  28.774  1.00  0.00     0.074 A 
ATOM     31  C   UNL A   1      42.966  31.274  33.368  1.00  0.00     0.029 A 
ATOM     32  N   UNL A   1      44.077  29.429  32.942  1.00  0.00    -0.354 N 
ATOM     33  N   UNL A   1      44.963  28.156  28.882  1.00  0.00    -0.248 NA
ATOM     34  C   UNL A   1      44.092  26.310  30.006  1.00  0.00     0.031 C 
ATOM     35  C   UNL A   1      43.850  31.487  32.269  1.00  0.00     0.029 A 
ATOM     36  C   UNL A   1      44.354  30.247  31.880  1.00  0.00     0.049 A 
ATOM     37  H   UNL A   1      44.600  28.644  33.226  1.00  0.00     0.167 HD
ATOM     38  C   UNL A   1      44.890  28.477  30.228  1.00  0.00     0.074 A 
ATOM     39  C   UNL A   1      44.447  27.250  30.885  1.00  0.00     0.031 C 
ATOM     40  C   UNL A   1      44.926  29.778  30.640  1.00  0.00     0.031 A 
BRANCH  27  41
ATOM     41  C   UNL A   1      42.233  27.772  34.795  1.00  0.00    -0.014 A 
ATOM     42  C   UNL A   1      42.782  26.605  34.228  1.00  0.00     0.009 A 
ATOM     43  C   UNL A   1      41.725  27.659  36.102  1.00  0.00     0.009 A 
ATOM     44  C   UNL A   1      42.727  25.374  34.892  1.00  0.00     0.001 A 
ATOM     45  C   UNL A   1      41.710  26.439  36.786  1.00  0.00     0.001 A 
ATOM     46  C   UNL A   1      42.179  25.290  36.167  1.00  0.00     0.000 A 
ENDBRANCH  27  41
BRANCH  28  47
ATOM     47  C   UNL A   1      43.661  25.569  26.772  1.00  0.00    -0.014 A 
ATOM     48  C   UNL A   1      42.603  24.763  26.313  1.00  0.00     0.009 A 
ATOM     49  C   UNL A   1      44.915  25.413  26.157  1.00  0.00     0.009 A 
ATOM     50  C   UNL A   1      42.784  23.873  25.246  1.00  0.00     0.001 A 
ATOM     51  C   UNL A   1      45.095  24.522  25.092  1.00  0.00     0.001 A 
ATOM     52  C   UNL A   1      44.025  23.766  24.625  1.00  0.00     0.000 A 
ENDBRANCH  28  47
BRANCH  40  53
ATOM     53  C   UNL A   1      45.349  30.830  29.645  1.00  0.00    -0.014 A 
ATOM     54  C   UNL A   1      46.688  31.187  29.408  1.00  0.00     0.009 A 
ATOM     55  C   UNL A   1      44.357  31.397  28.829  1.00  0.00     0.009 A 
ATOM     56  C   UNL A   1      47.016  32.118  28.416  1.00  0.00     0.001 A 
ATOM     57  C   UNL A   1      44.686  32.306  27.823  1.00  0.00     0.001 A 
ATOM     58  C   UNL A   1      46.014  32.674  27.623  1.00  0.00     0.000 A 
ENDBRANCH  40  53
ENDBRANCH  14  15
ENDBRANCH   7   9
ENDBRANCH   4   5
ENDBRANCH   3   4
ENDBRANCH   2   3
ENDBRANCH   1   2
BRANCH   1  59
ATOM     59  C   UNL A   1      32.096  27.576  24.869  1.00  0.00     0.021 C 
BRANCH  59  60
ATOM     60  C   UNL A   1      33.171  27.018  23.941  1.00  0.00     0.116 C 
BRANCH  60  61
ATOM     61  N   UNL A   1      32.728  25.932  23.084  1.00  0.00    -0.356 N 
ATOM     62  C   UNL A   1      32.157  24.756  23.481  1.00  0.00     0.224 C 
ATOM     63  H   UNL A   1      32.852  26.056  22.116  1.00  0.00     0.163 HD
ATOM     64  O   UNL A   1      31.239  24.305  22.791  1.00  0.00    -0.275 OA
BRANCH  62  65
ATOM     65  C   UNL A   1      32.617  24.088  24.763  1.00  0.00     0.098 C 
ATOM     66  C   UNL A   1      34.059  23.515  24.858  1.00  0.00     0.098 C 
ATOM     67  C   UNL A   1      31.607  23.054  25.372  1.00  0.00     0.025 C 
ATOM     68  C   UNL A   1      34.057  22.314  25.862  1.00  0.00     0.025 C 
ATOM     69  C   UNL A   1      31.934  21.617  25.012  1.00  0.00    -0.027 C 
ATOM     70  C   UNL A   1      31.850  23.095  26.902  1.00  0.00     0.009 C 
ATOM     71  C   UNL A   1      33.184  21.222  25.303  1.00  0.00    -0.027 C 
ATOM     72  C   UNL A   1      33.346  22.762  27.179  1.00  0.00     0.009 C 
BRANCH  66  73
ATOM     73  C   UNL A   1      35.022  23.324  23.651  1.00  0.00     0.228 C 
ATOM     74  O   UNL A   1      34.535  23.398  22.510  1.00  0.00    -0.274 OA
ATOM     75  N   UNL A   1      36.390  23.302  23.705  1.00  0.00    -0.326 N 
ATOM     76  H   UNL A   1      36.828  23.693  22.915  1.00  0.00     0.169 HD
BRANCH  75  77
ATOM     77  C   UNL A   1      37.282  22.830  24.673  1.00  0.00     0.041 A 
ATOM     78  C   UNL A   1      37.635  21.482  24.711  1.00  0.00     0.026 A 
ATOM     79  C   UNL A   1      37.782  23.666  25.654  1.00  0.00     0.026 A 
ATOM     80  C   UNL A   1      38.661  21.052  25.566  1.00  0.00     0.008 A 
ATOM     81  C   UNL A   1      38.810  23.262  26.500  1.00  0.00     0.008 A 
ATOM     82  C   UNL A   1      39.310  21.963  26.415  1.00  0.00    -0.026 A 
BRANCH  82  83
ATOM     83  C   UNL A   1      40.513  21.581  27.235  1.00  0.00     0.181 C 
BRANCH  83  84
ATOM     84  N   UNL A   1      41.292  20.548  26.588  1.00  0.00    -0.249 N 
ATOM     85  C   UNL A   1      40.943  19.248  26.398  1.00  0.00     0.220 A 
ATOM     86  N   UNL A   1      42.495  20.812  26.040  1.00  0.00    -0.160 NA
ATOM     87  N   UNL A   1      41.902  18.626  25.754  1.00  0.00    -0.224 NA
ATOM     88  C   UNL A   1      42.831  19.610  25.565  1.00  0.00     0.246 A 
ENDBRANCH  83  84
ENDBRANCH  82  83
ENDBRANCH  75  77
ENDBRANCH  66  73
ENDBRANCH  62  65
ENDBRANCH  60  61
ENDBRANCH  59  60
ENDBRANCH   1  59
TORSDOF 17
ENDMDL
MODEL 3
REMARK VINA RESULT:     -11.4      4.723      9.241
REMARK SMILES O=C(NCCCCCCNC(=O)[C@@H]1[C@H](C(=O)Nc2ccc(Cn3cncn3)cc2)[C@@H]2C=C[C@H]1CC2)c1ccc(-c2c3nc(c(-c4ccccc4)c4ccc([nH]4)c(-c4ccccc4)c4nc(c(-c5ccccc5)c5ccc2[nH]5)C=C4)C=C3)cc1
REMARK SMILES IDX 7 1 6 2 5 3 4 4 3 5 1 6 2 7 36 9 37 10 83 11 38 12 82 13
REMARK SMILES IDX 39 14 40 15 41 16 76 17 42 18 81 19 75 20 77 21 43 22 80 23
REMARK SMILES IDX 74 24 73 25 44 27 66 28 51 29 65 30 52 31 55 32 64 33 78 34
REMARK SMILES IDX 53 35 54 36 63 38 79 39 56 40 45 41 46 42 50 43 47 44 49 45
REMARK SMILES IDX 48 46 67 47 68 48 72 49 69 50 71 51 70 52 57 53 58 54 62 55
REMARK SMILES IDX 59 56 61 57 60 58 8 59 9 60 10 61 11 62 12 64 13 65 14 66
REMARK SMILES IDX 33 67 30 68 32 69 34 70 31 71 35 72 15 73 16 74 17 75 18 77
REMARK SMILES IDX 19 78 29 79 20 80 28 81 21 82 22 83 23 84 24 85 27 86 25 87
REMARK SMILES IDX 26 88
REMARK H PARENT 3 8 77 26 55 37 10 63 17 76
REMARK Flexibility Score: inf
ROOT
ATOM      1  C   UNL A   1      35.949  33.813  31.833  1.00  0.00     0.002 C 
ENDROOT
BRANCH   1   2
ATOM      2  C   UNL A   1      34.627  33.580  31.094  1.00  0.00     0.002 C 
BRANCH   2   3
ATOM      3  C   UNL A   1      34.293  34.546  29.950  1.00  0.00     0.021 C 
BRANCH   3   4
ATOM      4  C   UNL A   1      34.824  34.148  28.574  1.00  0.00     0.116 C 
BRANCH   4   5
ATOM      5  N   UNL A   1      34.125  33.034  27.968  1.00  0.00    -0.352 N 
ATOM      6  O   UNL A   1      33.421  31.024  27.389  1.00  0.00    -0.269 OA
ATOM      7  C   UNL A   1      34.364  31.696  27.838  1.00  0.00     0.251 C 
ATOM      8  H   UNL A   1      33.277  33.305  27.549  1.00  0.00     0.163 HD
BRANCH   7   9
ATOM      9  C   UNL A   1      35.646  30.995  28.132  1.00  0.00     0.039 A 
ATOM     10  C   UNL A   1      35.869  29.620  28.060  1.00  0.00     0.014 A 
ATOM     11  C   UNL A   1      36.716  31.821  28.540  1.00  0.00     0.014 A 
ATOM     12  C   UNL A   1      37.105  29.087  28.436  1.00  0.00     0.010 A 
ATOM     13  C   UNL A   1      37.950  31.294  28.916  1.00  0.00     0.010 A 
ATOM     14  C   UNL A   1      38.140  29.919  28.884  1.00  0.00    -0.014 A 
BRANCH  14  15
ATOM     15  C   UNL A   1      39.459  29.327  29.117  1.00  0.00     0.031 A 
ATOM     16  C   UNL A   1      39.717  28.967  30.539  1.00  0.00     0.074 A 
ATOM     17  C   UNL A   1      40.360  28.987  28.173  1.00  0.00     0.049 A 
ATOM     18  N   UNL A   1      40.568  29.511  31.345  1.00  0.00    -0.248 NA
ATOM     19  C   UNL A   1      38.857  27.953  31.167  1.00  0.00     0.031 C 
ATOM     20  C   UNL A   1      40.194  28.972  26.720  1.00  0.00     0.029 A 
ATOM     21  N   UNL A   1      41.623  28.488  28.342  1.00  0.00    -0.354 N 
ATOM     22  C   UNL A   1      40.481  28.797  32.538  1.00  0.00     0.074 A 
ATOM     23  C   UNL A   1      39.326  27.945  32.416  1.00  0.00     0.031 C 
ATOM     24  C   UNL A   1      41.225  28.294  26.158  1.00  0.00     0.029 A 
ATOM     25  C   UNL A   1      42.190  27.952  27.191  1.00  0.00     0.049 A 
ATOM     26  H   UNL A   1      42.093  28.506  29.207  1.00  0.00     0.167 HD
ATOM     27  C   UNL A   1      41.495  28.807  33.448  1.00  0.00     0.031 A 
ATOM     28  C   UNL A   1      43.349  27.249  27.100  1.00  0.00     0.031 A 
ATOM     29  C   UNL A   1      42.421  29.884  33.209  1.00  0.00     0.049 A 
ATOM     30  C   UNL A   1      44.160  27.545  28.300  1.00  0.00     0.074 A 
ATOM     31  C   UNL A   1      42.330  31.260  33.143  1.00  0.00     0.029 A 
ATOM     32  N   UNL A   1      43.619  29.561  32.622  1.00  0.00    -0.354 N 
ATOM     33  N   UNL A   1      44.737  28.690  28.514  1.00  0.00    -0.248 NA
ATOM     34  C   UNL A   1      44.010  26.691  29.465  1.00  0.00     0.031 C 
ATOM     35  C   UNL A   1      43.221  31.636  32.095  1.00  0.00     0.029 A 
ATOM     36  C   UNL A   1      43.850  30.480  31.634  1.00  0.00     0.049 A 
ATOM     37  H   UNL A   1      44.205  28.808  32.866  1.00  0.00     0.167 HD
ATOM     38  C   UNL A   1      44.596  28.898  29.876  1.00  0.00     0.074 A 
ATOM     39  C   UNL A   1      44.250  27.589  30.424  1.00  0.00     0.031 C 
ATOM     40  C   UNL A   1      44.499  30.162  30.384  1.00  0.00     0.031 A 
BRANCH  27  41
ATOM     41  C   UNL A   1      41.884  27.606  34.279  1.00  0.00    -0.014 A 
ATOM     42  C   UNL A   1      41.748  27.684  35.679  1.00  0.00     0.009 A 
ATOM     43  C   UNL A   1      42.655  26.541  33.779  1.00  0.00     0.009 A 
ATOM     44  C   UNL A   1      42.434  26.810  36.530  1.00  0.00     0.001 A 
ATOM     45  C   UNL A   1      43.306  25.638  34.626  1.00  0.00     0.001 A 
ATOM     46  C   UNL A   1      43.224  25.794  36.001  1.00  0.00     0.000 A 
ENDBRANCH  27  41
BRANCH  28  47
ATOM     47  C   UNL A   1      43.745  26.166  26.172  1.00  0.00    -0.014 A 
ATOM     48  C   UNL A   1      45.053  26.101  25.658  1.00  0.00     0.009 A 
ATOM     49  C   UNL A   1      42.932  25.029  26.035  1.00  0.00     0.009 A 
ATOM     50  C   UNL A   1      45.542  24.924  25.076  1.00  0.00     0.001 A 
ATOM     51  C   UNL A   1      43.421  23.854  25.451  1.00  0.00     0.001 A 
ATOM     52  C   UNL A   1      44.732  23.796  24.988  1.00  0.00     0.000 A 
ENDBRANCH  28  47
BRANCH  40  53
ATOM     53  C   UNL A   1      44.851  31.321  29.486  1.00  0.00    -0.014 A 
ATOM     54  C   UNL A   1      43.958  31.889  28.559  1.00  0.00     0.009 A 
ATOM     55  C   UNL A   1      46.097  31.939  29.670  1.00  0.00     0.009 A 
ATOM     56  C   UNL A   1      44.323  33.012  27.808  1.00  0.00     0.001 A 
ATOM     57  C   UNL A   1      46.452  33.075  28.940  1.00  0.00     0.001 A 
ATOM     58  C   UNL A   1      45.569  33.605  28.002  1.00  0.00     0.000 A 
ENDBRANCH  40  53
ENDBRANCH  14  15
ENDBRANCH   7   9
ENDBRANCH   4   5
ENDBRANCH   3   4
ENDBRANCH   2   3
ENDBRANCH   1   2
BRANCH   1  59
ATOM     59  C   UNL A   1      35.985  34.949  32.860  1.00  0.00     0.021 C 
BRANCH  59  60
ATOM     60  C   UNL A   1      35.528  34.612  34.276  1.00  0.00     0.116 C 
BRANCH  60  61
ATOM     61  N   UNL A   1      36.122  33.410  34.835  1.00  0.00    -0.356 N 
ATOM     62  C   UNL A   1      37.221  33.339  35.644  1.00  0.00     0.224 C 
ATOM     63  H   UNL A   1      35.688  32.557  34.605  1.00  0.00     0.163 HD
ATOM     64  O   UNL A   1      37.200  32.519  36.565  1.00  0.00    -0.275 OA
BRANCH  62  65
ATOM     65  C   UNL A   1      38.380  34.293  35.428  1.00  0.00     0.098 C 
ATOM     66  C   UNL A   1      39.274  34.145  34.164  1.00  0.00     0.098 C 
ATOM     67  C   UNL A   1      39.292  34.525  36.682  1.00  0.00     0.025 C 
ATOM     68  C   UNL A   1      40.712  34.662  34.502  1.00  0.00     0.025 C 
ATOM     69  C   UNL A   1      40.548  33.674  36.673  1.00  0.00    -0.027 C 
ATOM     70  C   UNL A   1      39.843  35.965  36.530  1.00  0.00     0.009 C 
ATOM     71  C   UNL A   1      41.302  33.777  35.567  1.00  0.00    -0.027 C 
ATOM     72  C   UNL A   1      40.595  36.070  35.169  1.00  0.00     0.009 C 
BRANCH  66  73
ATOM     73  C   UNL A   1      39.255  32.924  33.199  1.00  0.00     0.228 C 
ATOM     74  O   UNL A   1      38.951  31.818  33.678  1.00  0.00    -0.274 OA
ATOM     75  N   UNL A   1      39.323  32.974  31.833  1.00  0.00    -0.326 N 
ATOM     76  H   UNL A   1      38.800  32.274  31.380  1.00  0.00     0.169 HD
BRANCH  75  77
ATOM     77  C   UNL A   1      39.996  33.834  30.959  1.00  0.00     0.041 A 
ATOM     78  C   UNL A   1      41.357  34.083  31.123  1.00  0.00     0.026 A 
ATOM     79  C   UNL A   1      39.321  34.508  29.958  1.00  0.00     0.026 A 
ATOM     80  C   UNL A   1      42.059  34.801  30.141  1.00  0.00     0.008 A 
ATOM     81  C   UNL A   1      40.001  35.211  28.969  1.00  0.00     0.008 A 
ATOM     82  C   UNL A   1      41.392  35.305  29.013  1.00  0.00    -0.026 A 
BRANCH  82  83
ATOM     83  C   UNL A   1      42.124  35.946  27.865  1.00  0.00     0.181 C 
BRANCH  83  84
ATOM     84  N   UNL A   1      42.556  37.287  28.193  1.00  0.00    -0.249 N 
ATOM     85  C   UNL A   1      41.855  38.441  28.038  1.00  0.00     0.220 A 
ATOM     86  N   UNL A   1      43.756  37.521  28.761  1.00  0.00    -0.160 NA
ATOM     87  N   UNL A   1      42.573  39.452  28.468  1.00  0.00    -0.224 NA
ATOM     88  C   UNL A   1      43.726  38.851  28.889  1.00  0.00     0.246 A 
ENDBRANCH  83  84
ENDBRANCH  82  83
ENDBRANCH  75  77
ENDBRANCH  66  73
ENDBRANCH  62  65
ENDBRANCH  60  61
ENDBRANCH  59  60
ENDBRANCH   1  59
TORSDOF 17
ENDMDL
