MODEL 1
REMARK VINA RESULT:     -11.8      0.000      0.000
REMARK SMILES O=C1[NH+]=C(Nc2ccc(C(=O)NCCCCCCNC(=O)c3ccc(-c4c5nc(c(-c6ccccc6)c6ccc([nH]6)c(-c6ccccc6)c6nc(c(-c7ccccc7)c7ccc4[nH]7)C=C6)C=C5)cc3)c(O)c2)S/C1=C\c1ccc[nH]1
REMARK SMILES IDX 15 1 14 2 13 3 12 4 10 5 11 6 9 8 6 9 7 10 72 11 8 12 70 13
REMARK SMILES IDX 5 14 1 15 2 16 3 17 74 18 4 19 73 21 75 22 76 24 77 25 80 26
REMARK SMILES IDX 78 27 79 28 71 30 16 32 17 33 18 34 19 35 20 36 21 38 22 39
REMARK SMILES IDX 23 40 69 41 24 42 68 43 25 44 26 45 27 46 62 47 28 48 67 49
REMARK SMILES IDX 61 50 63 51 29 52 66 53 60 54 59 55 30 57 52 58 37 59 51 60
REMARK SMILES IDX 38 61 41 62 50 63 64 64 39 65 40 66 49 68 65 69 42 70 31 71
REMARK SMILES IDX 32 72 36 73 33 74 35 75 34 76 53 77 54 78 58 79 55 80 57 81
REMARK SMILES IDX 56 82 43 83 44 84 48 85 45 86 47 87 46 88
REMARK H PARENT 12 7 3 20 5 23 80 29 71 31 19 37 63 56 41 67
REMARK Flexibility Score: inf
ROOT
ATOM      1  C   UNL A   1      31.423  29.184  25.253  1.00  0.00     0.002 C 
ENDROOT
BRANCH   1   2
ATOM      2  C   UNL A   1      30.550  28.588  24.144  1.00  0.00     0.021 C 
BRANCH   2   3
ATOM      3  C   UNL A   1      31.028  28.807  22.712  1.00  0.00     0.116 C 
BRANCH   3   4
ATOM      4  N   UNL A   1      32.429  29.169  22.598  1.00  0.00    -0.352 N 
ATOM      5  C   UNL A   1      33.556  28.383  22.636  1.00  0.00     0.255 C 
ATOM      6  O   UNL A   1      34.656  28.923  22.537  1.00  0.00    -0.269 OA
ATOM      7  H   UNL A   1      32.599  30.130  22.473  1.00  0.00     0.163 HD
BRANCH   5   8
ATOM      8  C   UNL A   1      33.489  26.914  22.839  1.00  0.00     0.081 A 
ATOM      9  C   UNL A   1      33.223  24.171  23.480  1.00  0.00     0.129 A 
ATOM     10  C   UNL A   1      33.585  25.103  24.458  1.00  0.00     0.053 A 
ATOM     11  C   UNL A   1      33.055  24.622  22.166  1.00  0.00     0.098 A 
ATOM     12  C   UNL A   1      33.724  26.458  24.143  1.00  0.00     0.022 A 
ATOM     13  C   UNL A   1      33.226  25.970  21.842  1.00  0.00     0.132 A 
BRANCH   9  14
ATOM     14  N   UNL A   1      32.947  22.835  23.786  1.00  0.00    -0.234 N 
ATOM     15  O   UNL A   1      36.905  20.677  24.988  1.00  0.00    -0.240 OA
ATOM     16  C   UNL A   1      35.723  20.804  24.694  1.00  0.00     0.346 C 
ATOM     17  N   UNL A   1      35.126  21.985  24.318  1.00  0.00    -0.199 N 
ATOM     18  C   UNL A   1      34.747  19.676  24.716  1.00  0.00     0.111 C 
ATOM     19  C   UNL A   1      33.857  21.873  24.107  1.00  0.00     0.322 C 
ATOM     20  H   UNL A   1      35.619  22.832  24.219  1.00  0.00     0.316 HD
ATOM     21  S   UNL A   1      33.187  20.271  24.308  1.00  0.00     0.006 SA
ATOM     22  C   UNL A   1      35.108  18.427  25.042  1.00  0.00     0.050 C 
ATOM     23  H   UNL A   1      32.002  22.561  23.766  1.00  0.00     0.313 HD
BRANCH  22  24
ATOM     24  C   UNL A   1      34.204  17.340  25.006  1.00  0.00     0.039 A 
ATOM     25  C   UNL A   1      33.946  16.345  24.083  1.00  0.00     0.027 A 
ATOM     26  N   UNL A   1      33.359  17.145  26.070  1.00  0.00    -0.362 N 
ATOM     27  C   UNL A   1      32.889  15.553  24.588  1.00  0.00     0.020 A 
ATOM     28  C   UNL A   1      32.538  16.075  25.812  1.00  0.00     0.083 A 
ATOM     29  H   UNL A   1      33.345  17.687  26.892  1.00  0.00     0.166 HD
ENDBRANCH  22  24
ENDBRANCH   9  14
BRANCH  13  30
ATOM     30  O   UNL A   1      33.155  26.267  20.509  1.00  0.00    -0.507 OA
ATOM     31  H   UNL A   1      33.692  26.946  20.151  1.00  0.00     0.293 HD
ENDBRANCH  13  30
ENDBRANCH   5   8
ENDBRANCH   3   4
ENDBRANCH   2   3
ENDBRANCH   1   2
BRANCH   1  32
ATOM     32  C   UNL A   1      31.447  28.438  26.590  1.00  0.00     0.002 C 
BRANCH  32  33
ATOM     33  C   UNL A   1      32.822  28.214  27.222  1.00  0.00     0.021 C 
BRANCH  33  34
ATOM     34  C   UNL A   1      33.904  29.214  26.830  1.00  0.00     0.116 C 
BRANCH  34  35
ATOM     35  N   UNL A   1      33.859  30.437  27.611  1.00  0.00    -0.352 N 
ATOM     36  C   UNL A   1      34.779  30.951  28.491  1.00  0.00     0.251 C 
ATOM     37  H   UNL A   1      33.046  30.980  27.492  1.00  0.00     0.163 HD
ATOM     38  O   UNL A   1      34.502  31.937  29.168  1.00  0.00    -0.269 OA
BRANCH  36  39
ATOM     39  C   UNL A   1      36.096  30.295  28.653  1.00  0.00     0.039 A 
ATOM     40  C   UNL A   1      37.008  30.352  27.596  1.00  0.00     0.014 A 
ATOM     41  C   UNL A   1      36.435  29.635  29.837  1.00  0.00     0.014 A 
ATOM     42  C   UNL A   1      38.287  29.817  27.757  1.00  0.00     0.010 A 
ATOM     43  C   UNL A   1      37.734  29.169  30.023  1.00  0.00     0.010 A 
ATOM     44  C   UNL A   1      38.678  29.263  28.987  1.00  0.00    -0.014 A 
BRANCH  44  45
ATOM     45  C   UNL A   1      40.073  28.812  29.218  1.00  0.00     0.031 A 
ATOM     46  C   UNL A   1      41.087  29.743  29.826  1.00  0.00     0.074 A 
ATOM     47  C   UNL A   1      40.446  27.579  28.820  1.00  0.00     0.049 A 
ATOM     48  N   UNL A   1      42.362  29.542  30.046  1.00  0.00    -0.248 NA
ATOM     49  C   UNL A   1      40.611  31.078  30.218  1.00  0.00     0.031 C 
ATOM     50  C   UNL A   1      39.568  26.591  28.188  1.00  0.00     0.029 A 
ATOM     51  N   UNL A   1      41.663  26.948  28.880  1.00  0.00    -0.354 N 
ATOM     52  C   UNL A   1      42.842  30.727  30.590  1.00  0.00     0.074 A 
ATOM     53  C   UNL A   1      41.734  31.657  30.621  1.00  0.00     0.031 C 
ATOM     54  C   UNL A   1      40.267  25.472  27.945  1.00  0.00     0.029 A 
ATOM     55  C   UNL A   1      41.652  25.678  28.354  1.00  0.00     0.049 A 
ATOM     56  H   UNL A   1      42.468  27.365  29.265  1.00  0.00     0.167 HD
ATOM     57  C   UNL A   1      44.089  31.010  31.039  1.00  0.00     0.031 A 
ATOM     58  C   UNL A   1      42.648  24.784  28.202  1.00  0.00     0.031 A 
ATOM     59  C   UNL A   1      45.190  30.085  31.005  1.00  0.00     0.049 A 
ATOM     60  C   UNL A   1      44.033  25.141  28.667  1.00  0.00     0.074 A 
ATOM     61  C   UNL A   1      46.478  30.262  31.484  1.00  0.00     0.029 A 
ATOM     62  N   UNL A   1      45.141  28.814  30.452  1.00  0.00    -0.354 N 
ATOM     63  N   UNL A   1      44.452  26.239  29.247  1.00  0.00    -0.248 NA
ATOM     64  C   UNL A   1      45.081  24.132  28.461  1.00  0.00     0.031 C 
ATOM     65  C   UNL A   1      47.225  29.125  31.160  1.00  0.00     0.029 A 
ATOM     66  C   UNL A   1      46.384  28.211  30.544  1.00  0.00     0.049 A 
ATOM     67  H   UNL A   1      44.340  28.401  30.055  1.00  0.00     0.167 HD
ATOM     68  C   UNL A   1      45.804  26.041  29.499  1.00  0.00     0.074 A 
ATOM     69  C   UNL A   1      46.128  24.711  29.029  1.00  0.00     0.031 C 
ATOM     70  C   UNL A   1      46.696  26.887  30.069  1.00  0.00     0.031 A 
BRANCH  57  71
ATOM     71  C   UNL A   1      44.334  32.387  31.593  1.00  0.00    -0.014 A 
ATOM     72  C   UNL A   1      44.736  33.447  30.765  1.00  0.00     0.009 A 
ATOM     73  C   UNL A   1      44.108  32.641  32.956  1.00  0.00     0.009 A 
ATOM     74  C   UNL A   1      44.942  34.723  31.297  1.00  0.00     0.001 A 
ATOM     75  C   UNL A   1      44.283  33.923  33.478  1.00  0.00     0.001 A 
ATOM     76  C   UNL A   1      44.709  34.960  32.650  1.00  0.00     0.000 A 
ENDBRANCH  57  71
BRANCH  58  77
ATOM     77  C   UNL A   1      42.378  23.462  27.572  1.00  0.00    -0.014 A 
ATOM     78  C   UNL A   1      42.583  23.270  26.197  1.00  0.00     0.009 A 
ATOM     79  C   UNL A   1      41.896  22.391  28.340  1.00  0.00     0.009 A 
ATOM     80  C   UNL A   1      42.279  22.044  25.600  1.00  0.00     0.001 A 
ATOM     81  C   UNL A   1      41.626  21.156  27.748  1.00  0.00     0.001 A 
ATOM     82  C   UNL A   1      41.806  20.987  26.376  1.00  0.00     0.000 A 
ENDBRANCH  58  77
BRANCH  70  83
ATOM     83  C   UNL A   1      48.105  26.390  30.244  1.00  0.00    -0.014 A 
ATOM     84  C   UNL A   1      48.503  25.717  31.410  1.00  0.00     0.009 A 
ATOM     85  C   UNL A   1      49.036  26.560  29.207  1.00  0.00     0.009 A 
ATOM     86  C   UNL A   1      49.813  25.252  31.544  1.00  0.00     0.001 A 
ATOM     87  C   UNL A   1      50.333  26.064  29.330  1.00  0.00     0.001 A 
ATOM     88  C   UNL A   1      50.724  25.420  30.503  1.00  0.00     0.000 A 
ENDBRANCH  70  83
ENDBRANCH  44  45
ENDBRANCH  36  39
ENDBRANCH  34  35
ENDBRANCH  33  34
ENDBRANCH  32  33
ENDBRANCH   1  32
TORSDOF 16
ENDMDL
MODEL 2
REMARK VINA RESULT:     -11.7      3.237      8.814
REMARK SMILES O=C1[NH+]=C(Nc2ccc(C(=O)NCCCCCCNC(=O)c3ccc(-c4c5nc(c(-c6ccccc6)c6ccc([nH]6)c(-c6ccccc6)c6nc(c(-c7ccccc7)c7ccc4[nH]7)C=C6)C=C5)cc3)c(O)c2)S/C1=C\c1ccc[nH]1
REMARK SMILES IDX 15 1 14 2 13 3 12 4 10 5 11 6 9 8 6 9 7 10 72 11 8 12 70 13
REMARK SMILES IDX 5 14 1 15 2 16 3 17 74 18 4 19 73 21 75 22 76 24 77 25 80 26
REMARK SMILES IDX 78 27 79 28 71 30 16 32 17 33 18 34 19 35 20 36 21 38 22 39
REMARK SMILES IDX 23 40 69 41 24 42 68 43 25 44 26 45 27 46 62 47 28 48 67 49
REMARK SMILES IDX 61 50 63 51 29 52 66 53 60 54 59 55 30 57 52 58 37 59 51 60
REMARK SMILES IDX 38 61 41 62 50 63 64 64 39 65 40 66 49 68 65 69 42 70 31 71
REMARK SMILES IDX 32 72 36 73 33 74 35 75 34 76 53 77 54 78 58 79 55 80 57 81
REMARK SMILES IDX 56 82 43 83 44 84 48 85 45 86 47 87 46 88
REMARK H PARENT 12 7 3 20 5 23 80 29 71 31 19 37 63 56 41 67
REMARK Flexibility Score: inf
ROOT
ATOM      1  C   UNL A   1      35.823  21.320  24.907  1.00  0.00     0.002 C 
ENDROOT
BRANCH   1   2
ATOM      2  C   UNL A   1      35.395  22.060  26.179  1.00  0.00     0.021 C 
BRANCH   2   3
ATOM      3  C   UNL A   1      34.236  21.450  26.962  1.00  0.00     0.116 C 
BRANCH   3   4
ATOM      4  N   UNL A   1      33.501  20.426  26.242  1.00  0.00    -0.352 N 
ATOM      5  C   UNL A   1      32.543  20.542  25.262  1.00  0.00     0.255 C 
ATOM      6  O   UNL A   1      32.037  19.519  24.807  1.00  0.00    -0.269 OA
ATOM      7  H   UNL A   1      33.723  19.502  26.495  1.00  0.00     0.163 HD
BRANCH   5   8
ATOM      8  C   UNL A   1      32.069  21.861  24.774  1.00  0.00     0.081 A 
ATOM      9  C   UNL A   1      31.277  24.490  24.089  1.00  0.00     0.129 A 
ATOM     10  C   UNL A   1      31.130  24.016  25.396  1.00  0.00     0.053 A 
ATOM     11  C   UNL A   1      31.770  23.612  23.117  1.00  0.00     0.098 A 
ATOM     12  C   UNL A   1      31.514  22.715  25.736  1.00  0.00     0.022 A 
ATOM     13  C   UNL A   1      32.123  22.301  23.448  1.00  0.00     0.132 A 
BRANCH   9  14
ATOM     14  N   UNL A   1      31.029  25.822  23.744  1.00  0.00    -0.234 N 
ATOM     15  O   UNL A   1      26.474  26.716  24.218  1.00  0.00    -0.240 OA
ATOM     16  C   UNL A   1      27.644  26.903  23.905  1.00  0.00     0.346 C 
ATOM     17  N   UNL A   1      28.654  25.978  24.040  1.00  0.00    -0.199 N 
ATOM     18  C   UNL A   1      28.143  28.187  23.336  1.00  0.00     0.111 C 
ATOM     19  C   UNL A   1      29.810  26.430  23.686  1.00  0.00     0.322 C 
ATOM     20  H   UNL A   1      28.508  25.063  24.372  1.00  0.00     0.316 HD
ATOM     21  S   UNL A   1      29.842  28.075  23.094  1.00  0.00     0.006 SA
ATOM     22  C   UNL A   1      27.332  29.229  23.106  1.00  0.00     0.050 C 
ATOM     23  H   UNL A   1      31.811  26.376  23.519  1.00  0.00     0.313 HD
BRANCH  22  24
ATOM     24  C   UNL A   1      27.786  30.429  22.509  1.00  0.00     0.039 A 
ATOM     25  C   UNL A   1      28.222  31.639  23.012  1.00  0.00     0.027 A 
ATOM     26  N   UNL A   1      27.843  30.507  21.139  1.00  0.00    -0.362 N 
ATOM     27  C   UNL A   1      28.512  32.482  21.915  1.00  0.00     0.020 A 
ATOM     28  C   UNL A   1      28.259  31.761  20.770  1.00  0.00     0.083 A 
ATOM     29  H   UNL A   1      27.621  29.775  20.518  1.00  0.00     0.166 HD
ENDBRANCH  22  24
ENDBRANCH   9  14
BRANCH  13  30
ATOM     30  O   UNL A   1      32.474  21.504  22.393  1.00  0.00    -0.507 OA
ATOM     31  H   UNL A   1      31.825  21.231  21.775  1.00  0.00     0.293 HD
ENDBRANCH  13  30
ENDBRANCH   5   8
ENDBRANCH   3   4
ENDBRANCH   2   3
ENDBRANCH   1   2
BRANCH   1  32
ATOM     32  C   UNL A   1      37.321  21.296  24.593  1.00  0.00     0.002 C 
BRANCH  32  33
ATOM     33  C   UNL A   1      38.079  20.022  24.974  1.00  0.00     0.021 C 
BRANCH  33  34
ATOM     34  C   UNL A   1      39.187  20.193  26.007  1.00  0.00     0.116 C 
BRANCH  34  35
ATOM     35  N   UNL A   1      40.177  19.131  25.961  1.00  0.00    -0.352 N 
ATOM     36  C   UNL A   1      41.540  19.196  26.109  1.00  0.00     0.251 C 
ATOM     37  H   UNL A   1      39.815  18.229  25.800  1.00  0.00     0.163 HD
ATOM     38  O   UNL A   1      42.231  18.203  25.898  1.00  0.00    -0.269 OA
BRANCH  36  39
ATOM     39  C   UNL A   1      42.185  20.472  26.486  1.00  0.00     0.039 A 
ATOM     40  C   UNL A   1      42.682  21.298  25.475  1.00  0.00     0.014 A 
ATOM     41  C   UNL A   1      42.295  20.859  27.824  1.00  0.00     0.014 A 
ATOM     42  C   UNL A   1      43.216  22.546  25.800  1.00  0.00     0.010 A 
ATOM     43  C   UNL A   1      42.758  22.134  28.141  1.00  0.00     0.010 A 
ATOM     44  C   UNL A   1      43.216  22.995  27.131  1.00  0.00    -0.014 A 
BRANCH  44  45
ATOM     45  C   UNL A   1      43.655  24.371  27.478  1.00  0.00     0.031 A 
ATOM     46  C   UNL A   1      42.652  25.410  27.899  1.00  0.00     0.074 A 
ATOM     47  C   UNL A   1      44.955  24.703  27.351  1.00  0.00     0.049 A 
ATOM     48  N   UNL A   1      42.846  26.674  28.180  1.00  0.00    -0.248 NA
ATOM     49  C   UNL A   1      41.249  24.979  27.996  1.00  0.00     0.031 C 
ATOM     50  C   UNL A   1      46.023  23.797  26.921  1.00  0.00     0.029 A 
ATOM     51  N   UNL A   1      45.600  25.895  27.564  1.00  0.00    -0.354 N 
ATOM     52  C   UNL A   1      41.590  27.191  28.476  1.00  0.00     0.074 A 
ATOM     53  C   UNL A   1      40.638  26.118  28.291  1.00  0.00     0.031 C 
ATOM     54  C   UNL A   1      47.191  24.458  26.929  1.00  0.00     0.029 A 
ATOM     55  C   UNL A   1      46.951  25.845  27.313  1.00  0.00     0.049 A 
ATOM     56  H   UNL A   1      45.140  26.711  27.870  1.00  0.00     0.167 HD
ATOM     57  C   UNL A   1      41.261  28.442  28.880  1.00  0.00     0.031 A 
ATOM     58  C   UNL A   1      47.890  26.809  27.369  1.00  0.00     0.031 A 
ATOM     59  C   UNL A   1      42.209  29.509  29.060  1.00  0.00     0.049 A 
ATOM     60  C   UNL A   1      47.490  28.200  27.776  1.00  0.00     0.074 A 
ATOM     61  C   UNL A   1      41.980  30.796  29.517  1.00  0.00     0.029 A 
ATOM     62  N   UNL A   1      43.565  29.420  28.783  1.00  0.00    -0.354 N 
ATOM     63  N   UNL A   1      46.309  28.652  28.125  1.00  0.00    -0.248 NA
ATOM     64  C   UNL A   1      48.554  29.213  27.805  1.00  0.00     0.031 C 
ATOM     65  C   UNL A   1      43.183  31.505  29.450  1.00  0.00     0.029 A 
ATOM     66  C   UNL A   1      44.177  30.639  29.022  1.00  0.00     0.049 A 
ATOM     67  H   UNL A   1      44.024  28.610  28.464  1.00  0.00     0.167 HD
ATOM     68  C   UNL A   1      46.495  29.992  28.439  1.00  0.00     0.074 A 
ATOM     69  C   UNL A   1      47.904  30.274  28.260  1.00  0.00     0.031 C 
ATOM     70  C   UNL A   1      45.580  30.908  28.837  1.00  0.00     0.031 A 
BRANCH  57  71
ATOM     71  C   UNL A   1      39.808  28.730  29.142  1.00  0.00    -0.014 A 
ATOM     72  C   UNL A   1      39.241  28.536  30.412  1.00  0.00     0.009 A 
ATOM     73  C   UNL A   1      39.005  29.254  28.116  1.00  0.00     0.009 A 
ATOM     74  C   UNL A   1      37.894  28.826  30.638  1.00  0.00     0.001 A 
ATOM     75  C   UNL A   1      37.667  29.573  28.353  1.00  0.00     0.001 A 
ATOM     76  C   UNL A   1      37.111  29.349  29.611  1.00  0.00     0.000 A 
ENDBRANCH  57  71
BRANCH  58  77
ATOM     77  C   UNL A   1      49.303  26.498  27.022  1.00  0.00    -0.014 A 
ATOM     78  C   UNL A   1      50.195  26.033  28.001  1.00  0.00     0.009 A 
ATOM     79  C   UNL A   1      49.774  26.683  25.713  1.00  0.00     0.009 A 
ATOM     80  C   UNL A   1      51.534  25.792  27.683  1.00  0.00     0.001 A 
ATOM     81  C   UNL A   1      51.105  26.409  25.390  1.00  0.00     0.001 A 
ATOM     82  C   UNL A   1      51.986  25.975  26.378  1.00  0.00     0.000 A 
ENDBRANCH  58  77
BRANCH  70  83
ATOM     83  C   UNL A   1      46.076  32.296  29.139  1.00  0.00    -0.014 A 
ATOM     84  C   UNL A   1      46.581  32.632  30.405  1.00  0.00     0.009 A 
ATOM     85  C   UNL A   1      46.079  33.268  28.127  1.00  0.00     0.009 A 
ATOM     86  C   UNL A   1      47.049  33.923  30.658  1.00  0.00     0.001 A 
ATOM     87  C   UNL A   1      46.579  34.547  28.372  1.00  0.00     0.001 A 
ATOM     88  C   UNL A   1      47.055  34.877  29.640  1.00  0.00     0.000 A 
ENDBRANCH  70  83
ENDBRANCH  44  45
ENDBRANCH  36  39
ENDBRANCH  34  35
ENDBRANCH  33  34
ENDBRANCH  32  33
ENDBRANCH   1  32
TORSDOF 16
ENDMDL
MODEL 3
REMARK VINA RESULT:     -11.7      2.338      8.660
REMARK SMILES O=C1[NH+]=C(Nc2ccc(C(=O)NCCCCCCNC(=O)c3ccc(-c4c5nc(c(-c6ccccc6)c6ccc([nH]6)c(-c6ccccc6)c6nc(c(-c7ccccc7)c7ccc4[nH]7)C=C6)C=C5)cc3)c(O)c2)S/C1=C\c1ccc[nH]1
REMARK SMILES IDX 15 1 14 2 13 3 12 4 10 5 11 6 9 8 6 9 7 10 72 11 8 12 70 13
REMARK SMILES IDX 5 14 1 15 2 16 3 17 74 18 4 19 73 21 75 22 76 24 77 25 80 26
REMARK SMILES IDX 78 27 79 28 71 30 16 32 17 33 18 34 19 35 20 36 21 38 22 39
REMARK SMILES IDX 23 40 69 41 24 42 68 43 25 44 26 45 27 46 62 47 28 48 67 49
REMARK SMILES IDX 61 50 63 51 29 52 66 53 60 54 59 55 30 57 52 58 37 59 51 60
REMARK SMILES IDX 38 61 41 62 50 63 64 64 39 65 40 66 49 68 65 69 42 70 31 71
REMARK SMILES IDX 32 72 36 73 33 74 35 75 34 76 53 77 54 78 58 79 55 80 57 81
REMARK SMILES IDX 56 82 43 83 44 84 48 85 45 86 47 87 46 88
REMARK H PARENT 12 7 3 20 5 23 80 29 71 31 19 37 63 56 41 67
REMARK Flexibility Score: inf
ROOT
ATOM      1  C   UNL A   1      36.569  22.125  25.667  1.00  0.00     0.002 C 
ENDROOT
BRANCH   1   2
ATOM      2  C   UNL A   1      35.134  22.543  26.007  1.00  0.00     0.021 C 
BRANCH   2   3
ATOM      3  C   UNL A   1      34.410  21.698  27.051  1.00  0.00     0.116 C 
BRANCH   3   4
ATOM      4  N   UNL A   1      33.844  20.465  26.535  1.00  0.00    -0.352 N 
ATOM      5  C   UNL A   1      32.834  20.263  25.625  1.00  0.00     0.255 C 
ATOM      6  O   UNL A   1      32.505  19.110  25.353  1.00  0.00    -0.269 OA
ATOM      7  H   UNL A   1      34.248  19.643  26.893  1.00  0.00     0.163 HD
BRANCH   5   8
ATOM      8  C   UNL A   1      32.097  21.390  25.000  1.00  0.00     0.081 A 
ATOM      9  C   UNL A   1      30.770  23.698  24.043  1.00  0.00     0.129 A 
ATOM     10  C   UNL A   1      30.692  23.335  25.390  1.00  0.00     0.053 A 
ATOM     11  C   UNL A   1      31.471  22.858  23.170  1.00  0.00     0.098 A 
ATOM     12  C   UNL A   1      31.341  22.192  25.865  1.00  0.00     0.022 A 
ATOM     13  C   UNL A   1      32.092  21.697  23.636  1.00  0.00     0.132 A 
BRANCH   9  14
ATOM     14  N   UNL A   1      30.246  24.902  23.560  1.00  0.00    -0.234 N 
ATOM     15  O   UNL A   1      32.503  28.471  25.544  1.00  0.00    -0.240 OA
ATOM     16  C   UNL A   1      31.653  27.891  24.880  1.00  0.00     0.346 C 
ATOM     17  N   UNL A   1      31.544  26.525  24.758  1.00  0.00    -0.199 N 
ATOM     18  C   UNL A   1      30.610  28.600  24.086  1.00  0.00     0.111 C 
ATOM     19  C   UNL A   1      30.598  26.156  23.961  1.00  0.00     0.322 C 
ATOM     20  H   UNL A   1      32.130  25.891  25.234  1.00  0.00     0.316 HD
ATOM     21  S   UNL A   1      29.656  27.443  23.245  1.00  0.00     0.006 SA
ATOM     22  C   UNL A   1      30.516  29.937  24.063  1.00  0.00     0.050 C 
ATOM     23  H   UNL A   1      29.554  24.838  22.863  1.00  0.00     0.313 HD
BRANCH  22  24
ATOM     24  C   UNL A   1      29.492  30.616  23.364  1.00  0.00     0.039 A 
ATOM     25  C   UNL A   1      28.235  31.070  23.716  1.00  0.00     0.027 A 
ATOM     26  N   UNL A   1      29.693  30.942  22.044  1.00  0.00    -0.362 N 
ATOM     27  C   UNL A   1      27.649  31.648  22.567  1.00  0.00     0.020 A 
ATOM     28  C   UNL A   1      28.566  31.547  21.546  1.00  0.00     0.083 A 
ATOM     29  H   UNL A   1      30.518  30.769  21.536  1.00  0.00     0.166 HD
ENDBRANCH  22  24
ENDBRANCH   9  14
BRANCH  13  30
ATOM     30  O   UNL A   1      32.640  20.897  22.672  1.00  0.00    -0.507 OA
ATOM     31  H   UNL A   1      32.141  20.191  22.309  1.00  0.00     0.293 HD
ENDBRANCH  13  30
ENDBRANCH   5   8
ENDBRANCH   3   4
ENDBRANCH   2   3
ENDBRANCH   1   2
BRANCH   1  32
ATOM     32  C   UNL A   1      36.739  21.036  24.606  1.00  0.00     0.002 C 
BRANCH  32  33
ATOM     33  C   UNL A   1      37.770  19.946  24.905  1.00  0.00     0.021 C 
BRANCH  33  34
ATOM     34  C   UNL A   1      38.969  20.379  25.741  1.00  0.00     0.116 C 
BRANCH  34  35
ATOM     35  N   UNL A   1      40.021  19.378  25.788  1.00  0.00    -0.352 N 
ATOM     36  C   UNL A   1      41.353  19.519  26.093  1.00  0.00     0.251 C 
ATOM     37  H   UNL A   1      39.736  18.461  25.570  1.00  0.00     0.163 HD
ATOM     38  O   UNL A   1      42.122  18.574  25.944  1.00  0.00    -0.269 OA
BRANCH  36  39
ATOM     39  C   UNL A   1      41.871  20.821  26.566  1.00  0.00     0.039 A 
ATOM     40  C   UNL A   1      42.342  21.738  25.623  1.00  0.00     0.014 A 
ATOM     41  C   UNL A   1      41.889  21.142  27.926  1.00  0.00     0.014 A 
ATOM     42  C   UNL A   1      42.755  23.006  26.037  1.00  0.00     0.010 A 
ATOM     43  C   UNL A   1      42.230  22.430  28.329  1.00  0.00     0.010 A 
ATOM     44  C   UNL A   1      42.658  23.380  27.387  1.00  0.00    -0.014 A 
BRANCH  44  45
ATOM     45  C   UNL A   1      42.965  24.766  27.825  1.00  0.00     0.031 A 
ATOM     46  C   UNL A   1      44.382  25.179  28.116  1.00  0.00     0.074 A 
ATOM     47  C   UNL A   1      41.956  25.637  28.023  1.00  0.00     0.049 A 
ATOM     48  N   UNL A   1      44.830  26.325  28.564  1.00  0.00    -0.248 NA
ATOM     49  C   UNL A   1      45.428  24.168  27.895  1.00  0.00     0.031 C 
ATOM     50  C   UNL A   1      40.535  25.351  27.809  1.00  0.00     0.029 A 
ATOM     51  N   UNL A   1      41.969  26.939  28.457  1.00  0.00    -0.354 N 
ATOM     52  C   UNL A   1      46.205  26.169  28.689  1.00  0.00     0.074 A 
ATOM     53  C   UNL A   1      46.511  24.805  28.318  1.00  0.00     0.031 C 
ATOM     54  C   UNL A   1      39.818  26.452  28.085  1.00  0.00     0.029 A 
ATOM     55  C   UNL A   1      40.718  27.504  28.545  1.00  0.00     0.049 A 
ATOM     56  H   UNL A   1      42.796  27.424  28.684  1.00  0.00     0.167 HD
ATOM     57  C   UNL A   1      47.131  27.084  29.064  1.00  0.00     0.031 A 
ATOM     58  C   UNL A   1      40.335  28.725  28.964  1.00  0.00     0.031 A 
ATOM     59  C   UNL A   1      46.825  28.440  29.436  1.00  0.00     0.049 A 
ATOM     60  C   UNL A   1      41.380  29.706  29.418  1.00  0.00     0.074 A 
ATOM     61  C   UNL A   1      47.700  29.456  29.780  1.00  0.00     0.029 A 
ATOM     62  N   UNL A   1      45.546  28.967  29.524  1.00  0.00    -0.354 N 
ATOM     63  N   UNL A   1      42.684  29.566  29.459  1.00  0.00    -0.248 NA
ATOM     64  C   UNL A   1      40.901  31.017  29.878  1.00  0.00     0.031 C 
ATOM     65  C   UNL A   1      46.947  30.578  30.142  1.00  0.00     0.029 A 
ATOM     66  C   UNL A   1      45.606  30.283  29.954  1.00  0.00     0.049 A 
ATOM     67  H   UNL A   1      44.718  28.480  29.311  1.00  0.00     0.167 HD
ATOM     68  C   UNL A   1      43.180  30.778  29.922  1.00  0.00     0.074 A 
ATOM     69  C   UNL A   1      42.040  31.647  30.128  1.00  0.00     0.031 C 
ATOM     70  C   UNL A   1      44.465  31.137  30.158  1.00  0.00     0.031 A 
BRANCH  57  71
ATOM     71  C   UNL A   1      48.569  26.643  29.106  1.00  0.00    -0.014 A 
ATOM     72  C   UNL A   1      49.145  26.137  30.282  1.00  0.00     0.009 A 
ATOM     73  C   UNL A   1      49.346  26.685  27.937  1.00  0.00     0.009 A 
ATOM     74  C   UNL A   1      50.477  25.717  30.296  1.00  0.00     0.001 A 
ATOM     75  C   UNL A   1      50.667  26.235  27.945  1.00  0.00     0.001 A 
ATOM     76  C   UNL A   1      51.234  25.761  29.126  1.00  0.00     0.000 A 
ENDBRANCH  57  71
BRANCH  58  77
ATOM     77  C   UNL A   1      38.893  29.091  28.984  1.00  0.00    -0.014 A 
ATOM     78  C   UNL A   1      38.286  29.672  27.859  1.00  0.00     0.009 A 
ATOM     79  C   UNL A   1      38.119  28.880  30.135  1.00  0.00     0.009 A 
ATOM     80  C   UNL A   1      36.946  30.062  27.899  1.00  0.00     0.001 A 
ATOM     81  C   UNL A   1      36.770  29.240  30.161  1.00  0.00     0.001 A 
ATOM     82  C   UNL A   1      36.188  29.842  29.047  1.00  0.00     0.000 A 
ENDBRANCH  58  77
BRANCH  70  83
ATOM     83  C   UNL A   1      44.713  32.542  30.636  1.00  0.00    -0.014 A 
ATOM     84  C   UNL A   1      44.743  32.854  32.004  1.00  0.00     0.009 A 
ATOM     85  C   UNL A   1      44.967  33.559  29.702  1.00  0.00     0.009 A 
ATOM     86  C   UNL A   1      44.990  34.163  32.424  1.00  0.00     0.001 A 
ATOM     87  C   UNL A   1      45.248  34.857  30.126  1.00  0.00     0.001 A 
ATOM     88  C   UNL A   1      45.249  35.161  31.486  1.00  0.00     0.000 A 
ENDBRANCH  70  83
ENDBRANCH  44  45
ENDBRANCH  36  39
ENDBRANCH  34  35
ENDBRANCH  33  34
ENDBRANCH  32  33
ENDBRANCH   1  32
TORSDOF 16
ENDMDL
