MODEL 1
REMARK VINA RESULT:      -9.6      0.000      0.000
REMARK SMILES CC(C)[NH2+][C@@H](CSc1cccc(F)c1)C(=O)NCCCCCCNC(=O)c1ccc(-c2c3nc(c(-c4ccccc4)c4ccc([nH]4)c(-c4ccccc4)c4nc(c(-c5ccccc5)c5ccc2[nH]5)C=C4)C=C3)cc1
REMARK SMILES IDX 20 1 19 2 18 3 17 4 15 5 16 6 5 8 4 9 2 12 1 13 3 14 6 15
REMARK SMILES IDX 7 16 8 17 9 18 14 19 10 20 12 21 11 22 13 23 21 24 22 25
REMARK SMILES IDX 23 26 24 27 25 28 26 30 27 31 28 32 74 33 29 34 73 35 30 36
REMARK SMILES IDX 31 37 32 38 67 39 33 40 72 41 66 42 68 43 34 44 71 45 65 46
REMARK SMILES IDX 64 47 35 49 57 50 42 51 56 52 43 53 46 54 55 55 69 56 44 57
REMARK SMILES IDX 45 58 54 60 70 61 47 62 36 63 37 64 41 65 38 66 40 67 39 68
REMARK SMILES IDX 58 69 59 70 63 71 60 72 62 73 61 74 48 75 49 76 53 77 50 78
REMARK SMILES IDX 52 79 51 80
REMARK H PARENT 17 7 4 10 4 11 24 29 68 48 46 59
REMARK Flexibility Score: inf
ROOT
ATOM      1  C   UNL A   1      34.515  20.988  26.180  1.00  0.00     0.002 C 
ENDROOT
BRANCH   1   2
ATOM      2  C   UNL A   1      33.309  20.160  25.736  1.00  0.00     0.021 C 
BRANCH   2   3
ATOM      3  C   UNL A   1      32.200  20.986  25.084  1.00  0.00     0.116 C 
BRANCH   3   4
ATOM      4  N   UNL A   1      31.477  21.798  26.035  1.00  0.00    -0.351 N 
ATOM      5  C   UNL A   1      31.348  23.140  26.186  1.00  0.00     0.279 C 
ATOM      6  O   UNL A   1      30.578  23.501  27.088  1.00  0.00    -0.268 OA
ATOM      7  H   UNL A   1      30.980  21.277  26.705  1.00  0.00     0.163 HD
BRANCH   5   8
ATOM      8  C   UNL A   1      32.160  24.223  25.410  1.00  0.00     0.283 C 
BRANCH   8   9
ATOM      9  N   UNL A   1      31.735  24.223  23.999  1.00  0.00    -0.333 N 
ATOM     10  H   UNL A   1      31.248  23.344  23.820  1.00  0.00     0.347 HD
ATOM     11  H   UNL A   1      31.152  25.052  23.887  1.00  0.00     0.347 HD
BRANCH   9  12
ATOM     12  C   UNL A   1      32.808  24.355  23.000  1.00  0.00     0.176 C 
ATOM     13  C   UNL A   1      32.910  23.008  22.275  1.00  0.00     0.075 C 
ATOM     14  C   UNL A   1      32.614  25.463  21.967  1.00  0.00     0.075 C 
ENDBRANCH   9  12
ENDBRANCH   8   9
BRANCH   8  15
ATOM     15  C   UNL A   1      32.382  25.564  26.142  1.00  0.00     0.150 C 
BRANCH  15  16
ATOM     16  S   UNL A   1      31.383  27.137  26.148  1.00  0.00    -0.119 SA
BRANCH  16  17
ATOM     17  C   UNL A   1      32.388  28.567  26.499  1.00  0.00     0.010 A 
ATOM     18  C   UNL A   1      33.719  28.320  26.873  1.00  0.00     0.015 A 
ATOM     19  C   UNL A   1      31.918  29.870  26.629  1.00  0.00     0.054 A 
ATOM     20  C   UNL A   1      34.556  29.346  27.329  1.00  0.00     0.004 A 
ATOM     21  C   UNL A   1      32.754  30.895  27.069  1.00  0.00     0.124 A 
ATOM     22  C   UNL A   1      34.069  30.645  27.425  1.00  0.00     0.039 A 
ATOM     23  F   UNL A   1      32.265  32.138  27.178  1.00  0.00    -0.207 F 
ENDBRANCH  16  17
ENDBRANCH  15  16
ENDBRANCH   8  15
ENDBRANCH   5   8
ENDBRANCH   3   4
ENDBRANCH   2   3
ENDBRANCH   1   2
BRANCH   1  24
ATOM     24  C   UNL A   1      34.996  22.044  25.177  1.00  0.00     0.002 C 
BRANCH  24  25
ATOM     25  C   UNL A   1      35.627  23.305  25.775  1.00  0.00     0.021 C 
BRANCH  25  26
ATOM     26  C   UNL A   1      36.976  23.708  25.183  1.00  0.00     0.116 C 
BRANCH  26  27
ATOM     27  N   UNL A   1      38.032  22.765  25.520  1.00  0.00    -0.352 N 
ATOM     28  C   UNL A   1      39.236  22.958  26.146  1.00  0.00     0.251 C 
ATOM     29  H   UNL A   1      37.850  21.835  25.256  1.00  0.00     0.163 HD
ATOM     30  O   UNL A   1      40.066  22.054  26.160  1.00  0.00    -0.269 OA
BRANCH  28  31
ATOM     31  C   UNL A   1      39.553  24.248  26.797  1.00  0.00     0.039 A 
ATOM     32  C   UNL A   1      39.088  24.472  28.096  1.00  0.00     0.014 A 
ATOM     33  C   UNL A   1      40.253  25.251  26.122  1.00  0.00     0.014 A 
ATOM     34  C   UNL A   1      39.374  25.678  28.739  1.00  0.00     0.010 A 
ATOM     35  C   UNL A   1      40.590  26.429  26.785  1.00  0.00     0.010 A 
ATOM     36  C   UNL A   1      40.153  26.655  28.100  1.00  0.00    -0.014 A 
BRANCH  36  37
ATOM     37  C   UNL A   1      40.523  27.916  28.791  1.00  0.00     0.031 A 
ATOM     38  C   UNL A   1      41.887  28.076  29.403  1.00  0.00     0.074 A 
ATOM     39  C   UNL A   1      39.609  28.897  28.913  1.00  0.00     0.049 A 
ATOM     40  N   UNL A   1      42.366  29.077  30.097  1.00  0.00    -0.248 NA
ATOM     41  C   UNL A   1      42.828  26.960  29.227  1.00  0.00     0.031 C 
ATOM     42  C   UNL A   1      38.244  28.857  28.385  1.00  0.00     0.029 A 
ATOM     43  N   UNL A   1      39.692  30.122  29.528  1.00  0.00    -0.354 N 
ATOM     44  C   UNL A   1      43.657  28.707  30.452  1.00  0.00     0.074 A 
ATOM     45  C   UNL A   1      43.870  27.371  29.936  1.00  0.00     0.031 C 
ATOM     46  C   UNL A   1      37.628  30.015  28.673  1.00  0.00     0.029 A 
ATOM     47  C   UNL A   1      38.536  30.859  29.443  1.00  0.00     0.049 A 
ATOM     48  H   UNL A   1      40.502  30.441  29.987  1.00  0.00     0.167 HD
ATOM     49  C   UNL A   1      44.587  29.418  31.133  1.00  0.00     0.031 A 
ATOM     50  C   UNL A   1      38.238  32.077  29.933  1.00  0.00     0.031 A 
ATOM     51  C   UNL A   1      44.380  30.747  31.645  1.00  0.00     0.049 A 
ATOM     52  C   UNL A   1      39.277  32.833  30.711  1.00  0.00     0.074 A 
ATOM     53  C   UNL A   1      45.275  31.563  32.312  1.00  0.00     0.029 A 
ATOM     54  N   UNL A   1      43.192  31.454  31.543  1.00  0.00    -0.354 N 
ATOM     55  N   UNL A   1      40.508  32.485  31.000  1.00  0.00    -0.248 NA
ATOM     56  C   UNL A   1      38.887  34.153  31.224  1.00  0.00     0.031 C 
ATOM     57  C   UNL A   1      44.615  32.748  32.656  1.00  0.00     0.029 A 
ATOM     58  C   UNL A   1      43.325  32.689  32.155  1.00  0.00     0.049 A 
ATOM     59  H   UNL A   1      42.375  31.126  31.102  1.00  0.00     0.167 HD
ATOM     60  C   UNL A   1      41.047  33.554  31.702  1.00  0.00     0.074 A 
ATOM     61  C   UNL A   1      40.015  34.566  31.785  1.00  0.00     0.031 C 
ATOM     62  C   UNL A   1      42.289  33.685  32.231  1.00  0.00     0.031 A 
BRANCH  49  63
ATOM     63  C   UNL A   1      45.920  28.763  31.371  1.00  0.00    -0.014 A 
ATOM     64  C   UNL A   1      46.152  27.986  32.517  1.00  0.00     0.009 A 
ATOM     65  C   UNL A   1      46.943  28.893  30.419  1.00  0.00     0.009 A 
ATOM     66  C   UNL A   1      47.394  27.383  32.723  1.00  0.00     0.001 A 
ATOM     67  C   UNL A   1      48.175  28.265  30.615  1.00  0.00     0.001 A 
ATOM     68  C   UNL A   1      48.403  27.519  31.770  1.00  0.00     0.000 A 
ENDBRANCH  49  63
BRANCH  50  69
ATOM     69  C   UNL A   1      36.898  32.668  29.688  1.00  0.00    -0.014 A 
ATOM     70  C   UNL A   1      35.855  32.463  30.606  1.00  0.00     0.009 A 
ATOM     71  C   UNL A   1      36.650  33.436  28.539  1.00  0.00     0.009 A 
ATOM     72  C   UNL A   1      34.586  32.995  30.366  1.00  0.00     0.001 A 
ATOM     73  C   UNL A   1      35.388  33.989  28.317  1.00  0.00     0.001 A 
ATOM     74  C   UNL A   1      34.355  33.761  29.225  1.00  0.00     0.000 A 
ENDBRANCH  50  69
BRANCH  62  75
ATOM     75  C   UNL A   1      42.610  34.984  32.913  1.00  0.00    -0.014 A 
ATOM     76  C   UNL A   1      43.296  36.009  32.244  1.00  0.00     0.009 A 
ATOM     77  C   UNL A   1      42.182  35.199  34.234  1.00  0.00     0.009 A 
ATOM     78  C   UNL A   1      43.575  37.212  32.895  1.00  0.00     0.001 A 
ATOM     79  C   UNL A   1      42.439  36.413  34.872  1.00  0.00     0.001 A 
ATOM     80  C   UNL A   1      43.142  37.415  34.206  1.00  0.00     0.000 A 
ENDBRANCH  62  75
ENDBRANCH  36  37
ENDBRANCH  28  31
ENDBRANCH  26  27
ENDBRANCH  25  26
ENDBRANCH  24  25
ENDBRANCH   1  24
TORSDOF 18
ENDMDL
MODEL 2
REMARK VINA RESULT:      -9.5      2.881      4.815
REMARK SMILES CC(C)[NH2+][C@@H](CSc1cccc(F)c1)C(=O)NCCCCCCNC(=O)c1ccc(-c2c3nc(c(-c4ccccc4)c4ccc([nH]4)c(-c4ccccc4)c4nc(c(-c5ccccc5)c5ccc2[nH]5)C=C4)C=C3)cc1
REMARK SMILES IDX 20 1 19 2 18 3 17 4 15 5 16 6 5 8 4 9 2 12 1 13 3 14 6 15
REMARK SMILES IDX 7 16 8 17 9 18 14 19 10 20 12 21 11 22 13 23 21 24 22 25
REMARK SMILES IDX 23 26 24 27 25 28 26 30 27 31 28 32 74 33 29 34 73 35 30 36
REMARK SMILES IDX 31 37 32 38 67 39 33 40 72 41 66 42 68 43 34 44 71 45 65 46
REMARK SMILES IDX 64 47 35 49 57 50 42 51 56 52 43 53 46 54 55 55 69 56 44 57
REMARK SMILES IDX 45 58 54 60 70 61 47 62 36 63 37 64 41 65 38 66 40 67 39 68
REMARK SMILES IDX 58 69 59 70 63 71 60 72 62 73 61 74 48 75 49 76 53 77 50 78
REMARK SMILES IDX 52 79 51 80
REMARK H PARENT 17 7 4 10 4 11 24 29 68 48 46 59
REMARK Flexibility Score: inf
ROOT
ATOM      1  C   UNL A   1      36.344  21.767  24.950  1.00  0.00     0.002 C 
ENDROOT
BRANCH   1   2
ATOM      2  C   UNL A   1      35.561  22.447  23.827  1.00  0.00     0.021 C 
BRANCH   2   3
ATOM      3  C   UNL A   1      35.012  23.824  24.203  1.00  0.00     0.116 C 
BRANCH   3   4
ATOM      4  N   UNL A   1      34.520  24.560  23.062  1.00  0.00    -0.351 N 
ATOM      5  C   UNL A   1      33.712  25.642  22.946  1.00  0.00     0.279 C 
ATOM      6  O   UNL A   1      33.548  26.061  21.791  1.00  0.00    -0.268 OA
ATOM      7  H   UNL A   1      34.833  24.207  22.198  1.00  0.00     0.163 HD
BRANCH   5   8
ATOM      8  C   UNL A   1      32.907  26.303  24.108  1.00  0.00     0.283 C 
BRANCH   8   9
ATOM      9  N   UNL A   1      32.940  27.767  23.943  1.00  0.00    -0.333 N 
ATOM     10  H   UNL A   1      33.502  28.154  24.701  1.00  0.00     0.347 HD
ATOM     11  H   UNL A   1      33.327  27.931  23.013  1.00  0.00     0.347 HD
BRANCH   9  12
ATOM     12  C   UNL A   1      31.636  28.449  23.956  1.00  0.00     0.176 C 
ATOM     13  C   UNL A   1      31.758  29.627  24.929  1.00  0.00     0.075 C 
ATOM     14  C   UNL A   1      31.152  28.970  22.603  1.00  0.00     0.075 C 
ENDBRANCH   9  12
ENDBRANCH   8   9
BRANCH   8  15
ATOM     15  C   UNL A   1      31.587  25.608  24.505  1.00  0.00     0.150 C 
BRANCH  15  16
ATOM     16  S   UNL A   1      31.261  24.117  25.575  1.00  0.00    -0.119 SA
BRANCH  16  17
ATOM     17  C   UNL A   1      31.600  22.591  24.718  1.00  0.00     0.010 A 
ATOM     18  C   UNL A   1      32.070  21.524  25.502  1.00  0.00     0.015 A 
ATOM     19  C   UNL A   1      31.631  22.432  23.336  1.00  0.00     0.054 A 
ATOM     20  C   UNL A   1      32.524  20.332  24.922  1.00  0.00     0.004 A 
ATOM     21  C   UNL A   1      32.069  21.241  22.759  1.00  0.00     0.124 A 
ATOM     22  C   UNL A   1      32.520  20.189  23.539  1.00  0.00     0.039 A 
ATOM     23  F   UNL A   1      32.081  21.125  21.424  1.00  0.00    -0.207 F 
ENDBRANCH  16  17
ENDBRANCH  15  16
ENDBRANCH   8  15
ENDBRANCH   5   8
ENDBRANCH   3   4
ENDBRANCH   2   3
ENDBRANCH   1   2
BRANCH   1  24
ATOM     24  C   UNL A   1      36.258  20.236  24.981  1.00  0.00     0.002 C 
BRANCH  24  25
ATOM     25  C   UNL A   1      37.592  19.484  24.915  1.00  0.00     0.021 C 
BRANCH  25  26
ATOM     26  C   UNL A   1      38.758  20.151  25.641  1.00  0.00     0.116 C 
BRANCH  26  27
ATOM     27  N   UNL A   1      39.920  19.282  25.737  1.00  0.00    -0.352 N 
ATOM     28  C   UNL A   1      41.221  19.561  26.065  1.00  0.00     0.251 C 
ATOM     29  H   UNL A   1      39.742  18.335  25.534  1.00  0.00     0.163 HD
ATOM     30  O   UNL A   1      42.088  18.708  25.899  1.00  0.00    -0.269 OA
BRANCH  28  31
ATOM     31  C   UNL A   1      41.597  20.885  26.610  1.00  0.00     0.039 A 
ATOM     32  C   UNL A   1      42.088  21.854  25.730  1.00  0.00     0.014 A 
ATOM     33  C   UNL A   1      41.519  21.157  27.978  1.00  0.00     0.014 A 
ATOM     34  C   UNL A   1      42.447  23.114  26.213  1.00  0.00     0.010 A 
ATOM     35  C   UNL A   1      41.819  22.433  28.450  1.00  0.00     0.010 A 
ATOM     36  C   UNL A   1      42.287  23.424  27.573  1.00  0.00    -0.014 A 
BRANCH  36  37
ATOM     37  C   UNL A   1      42.601  24.778  28.094  1.00  0.00     0.031 A 
ATOM     38  C   UNL A   1      44.002  25.127  28.511  1.00  0.00     0.074 A 
ATOM     39  C   UNL A   1      41.609  25.677  28.241  1.00  0.00     0.049 A 
ATOM     40  N   UNL A   1      44.451  26.235  29.045  1.00  0.00    -0.248 NA
ATOM     41  C   UNL A   1      45.029  24.091  28.321  1.00  0.00     0.031 C 
ATOM     42  C   UNL A   1      40.203  25.456  27.896  1.00  0.00     0.029 A 
ATOM     43  N   UNL A   1      41.634  26.961  28.726  1.00  0.00    -0.354 N 
ATOM     44  C   UNL A   1      45.807  26.025  29.267  1.00  0.00     0.074 A 
ATOM     45  C   UNL A   1      46.097  24.669  28.851  1.00  0.00     0.031 C 
ATOM     46  C   UNL A   1      39.507  26.574  28.153  1.00  0.00     0.029 A 
ATOM     47  C   UNL A   1      40.405  27.575  28.721  1.00  0.00     0.049 A 
ATOM     48  H   UNL A   1      42.454  27.400  29.048  1.00  0.00     0.167 HD
ATOM     49  C   UNL A   1      46.730  26.886  29.757  1.00  0.00     0.031 A 
ATOM     50  C   UNL A   1      40.040  28.804  29.131  1.00  0.00     0.031 A 
ATOM     51  C   UNL A   1      46.445  28.236  30.166  1.00  0.00     0.049 A 
ATOM     52  C   UNL A   1      41.077  29.730  29.700  1.00  0.00     0.074 A 
ATOM     53  C   UNL A   1      47.321  29.197  30.638  1.00  0.00     0.029 A 
ATOM     54  N   UNL A   1      45.186  28.815  30.152  1.00  0.00    -0.354 N 
ATOM     55  N   UNL A   1      42.363  29.530  29.861  1.00  0.00    -0.248 NA
ATOM     56  C   UNL A   1      40.613  31.054  30.135  1.00  0.00     0.031 C 
ATOM     57  C   UNL A   1      46.585  30.344  30.953  1.00  0.00     0.029 A 
ATOM     58  C   UNL A   1      45.258  30.114  30.627  1.00  0.00     0.049 A 
ATOM     59  H   UNL A   1      44.362  28.369  29.850  1.00  0.00     0.167 HD
ATOM     60  C   UNL A   1      42.865  30.711  30.389  1.00  0.00     0.074 A 
ATOM     61  C   UNL A   1      41.749  31.626  30.509  1.00  0.00     0.031 C 
ATOM     62  C   UNL A   1      44.139  31.012  30.742  1.00  0.00     0.031 A 
BRANCH  49  63
ATOM     63  C   UNL A   1      48.142  26.387  29.882  1.00  0.00    -0.014 A 
ATOM     64  C   UNL A   1      49.068  26.558  28.840  1.00  0.00     0.009 A 
ATOM     65  C   UNL A   1      48.564  25.770  31.070  1.00  0.00     0.009 A 
ATOM     66  C   UNL A   1      50.376  26.090  28.971  1.00  0.00     0.001 A 
ATOM     67  C   UNL A   1      49.882  25.329  31.209  1.00  0.00     0.001 A 
ATOM     68  C   UNL A   1      50.783  25.480  30.157  1.00  0.00     0.000 A 
ENDBRANCH  49  63
BRANCH  50  69
ATOM     69  C   UNL A   1      38.625  29.239  29.005  1.00  0.00    -0.014 A 
ATOM     70  C   UNL A   1      37.758  29.156  30.107  1.00  0.00     0.009 A 
ATOM     71  C   UNL A   1      38.132  29.735  27.789  1.00  0.00     0.009 A 
ATOM     72  C   UNL A   1      36.421  29.540  29.986  1.00  0.00     0.001 A 
ATOM     73  C   UNL A   1      36.802  30.143  27.678  1.00  0.00     0.001 A 
ATOM     74  C   UNL A   1      35.945  30.037  28.773  1.00  0.00     0.000 A 
ENDBRANCH  50  69
BRANCH  62  75
ATOM     75  C   UNL A   1      44.399  32.398  31.257  1.00  0.00    -0.014 A 
ATOM     76  C   UNL A   1      44.348  32.689  32.629  1.00  0.00     0.009 A 
ATOM     77  C   UNL A   1      44.741  33.421  30.356  1.00  0.00     0.009 A 
ATOM     78  C   UNL A   1      44.602  33.983  33.086  1.00  0.00     0.001 A 
ATOM     79  C   UNL A   1      45.022  34.707  30.819  1.00  0.00     0.001 A 
ATOM     80  C   UNL A   1      44.944  34.989  32.182  1.00  0.00     0.000 A 
ENDBRANCH  62  75
ENDBRANCH  36  37
ENDBRANCH  28  31
ENDBRANCH  26  27
ENDBRANCH  25  26
ENDBRANCH  24  25
ENDBRANCH   1  24
TORSDOF 18
ENDMDL
MODEL 3
REMARK VINA RESULT:      -9.5      2.233      3.022
REMARK SMILES CC(C)[NH2+][C@@H](CSc1cccc(F)c1)C(=O)NCCCCCCNC(=O)c1ccc(-c2c3nc(c(-c4ccccc4)c4ccc([nH]4)c(-c4ccccc4)c4nc(c(-c5ccccc5)c5ccc2[nH]5)C=C4)C=C3)cc1
REMARK SMILES IDX 20 1 19 2 18 3 17 4 15 5 16 6 5 8 4 9 2 12 1 13 3 14 6 15
REMARK SMILES IDX 7 16 8 17 9 18 14 19 10 20 12 21 11 22 13 23 21 24 22 25
REMARK SMILES IDX 23 26 24 27 25 28 26 30 27 31 28 32 74 33 29 34 73 35 30 36
REMARK SMILES IDX 31 37 32 38 67 39 33 40 72 41 66 42 68 43 34 44 71 45 65 46
REMARK SMILES IDX 64 47 35 49 57 50 42 51 56 52 43 53 46 54 55 55 69 56 44 57
REMARK SMILES IDX 45 58 54 60 70 61 47 62 36 63 37 64 41 65 38 66 40 67 39 68
REMARK SMILES IDX 58 69 59 70 63 71 60 72 62 73 61 74 48 75 49 76 53 77 50 78
REMARK SMILES IDX 52 79 51 80
REMARK H PARENT 17 7 4 10 4 11 24 29 68 48 46 59
REMARK Flexibility Score: inf
ROOT
ATOM      1  C   UNL A   1      33.717  21.854  24.479  1.00  0.00     0.002 C 
ENDROOT
BRANCH   1   2
ATOM      2  C   UNL A   1      32.978  23.192  24.512  1.00  0.00     0.021 C 
BRANCH   2   3
ATOM      3  C   UNL A   1      31.982  23.375  23.366  1.00  0.00     0.116 C 
BRANCH   3   4
ATOM      4  N   UNL A   1      32.527  24.142  22.270  1.00  0.00    -0.351 N 
ATOM      5  C   UNL A   1      32.683  25.474  22.070  1.00  0.00     0.279 C 
ATOM      6  O   UNL A   1      33.264  25.788  21.020  1.00  0.00    -0.268 OA
ATOM      7  H   UNL A   1      32.848  23.590  21.522  1.00  0.00     0.163 HD
BRANCH   5   8
ATOM      8  C   UNL A   1      32.102  26.603  22.976  1.00  0.00     0.283 C 
BRANCH   8   9
ATOM      9  N   UNL A   1      33.203  27.229  23.730  1.00  0.00    -0.333 N 
ATOM     10  H   UNL A   1      33.889  26.503  23.941  1.00  0.00     0.347 HD
ATOM     11  H   UNL A   1      33.557  27.975  23.131  1.00  0.00     0.347 HD
BRANCH   9  12
ATOM     12  C   UNL A   1      32.831  27.879  24.997  1.00  0.00     0.176 C 
ATOM     13  C   UNL A   1      33.863  27.440  26.042  1.00  0.00     0.075 C 
ATOM     14  C   UNL A   1      32.776  29.405  24.963  1.00  0.00     0.075 C 
ENDBRANCH   9  12
ENDBRANCH   8   9
BRANCH   8  15
ATOM     15  C   UNL A   1      31.007  27.489  22.343  1.00  0.00     0.150 C 
BRANCH  15  16
ATOM     16  S   UNL A   1      29.376  28.088  23.015  1.00  0.00    -0.119 SA
BRANCH  16  17
ATOM     17  C   UNL A   1      29.053  29.785  22.575  1.00  0.00     0.010 A 
ATOM     18  C   UNL A   1      29.205  30.737  23.597  1.00  0.00     0.015 A 
ATOM     19  C   UNL A   1      28.478  30.214  21.382  1.00  0.00     0.054 A 
ATOM     20  C   UNL A   1      28.824  32.073  23.418  1.00  0.00     0.004 A 
ATOM     21  C   UNL A   1      28.112  31.546  21.198  1.00  0.00     0.124 A 
ATOM     22  C   UNL A   1      28.276  32.481  22.207  1.00  0.00     0.039 A 
ATOM     23  F   UNL A   1      27.564  31.920  20.034  1.00  0.00    -0.207 F 
ENDBRANCH  16  17
ENDBRANCH  15  16
ENDBRANCH   8  15
ENDBRANCH   5   8
ENDBRANCH   3   4
ENDBRANCH   2   3
ENDBRANCH   1   2
BRANCH   1  24
ATOM     24  C   UNL A   1      35.193  21.905  24.894  1.00  0.00     0.002 C 
BRANCH  24  25
ATOM     25  C   UNL A   1      35.680  23.228  25.492  1.00  0.00     0.021 C 
BRANCH  25  26
ATOM     26  C   UNL A   1      37.074  23.672  25.055  1.00  0.00     0.116 C 
BRANCH  26  27
ATOM     27  N   UNL A   1      38.106  22.725  25.449  1.00  0.00    -0.352 N 
ATOM     28  C   UNL A   1      39.282  22.914  26.126  1.00  0.00     0.251 C 
ATOM     29  H   UNL A   1      37.929  21.793  25.186  1.00  0.00     0.163 HD
ATOM     30  O   UNL A   1      40.103  22.004  26.188  1.00  0.00    -0.269 OA
BRANCH  28  31
ATOM     31  C   UNL A   1      39.580  24.209  26.778  1.00  0.00     0.039 A 
ATOM     32  C   UNL A   1      39.125  24.420  28.083  1.00  0.00     0.014 A 
ATOM     33  C   UNL A   1      40.251  25.228  26.099  1.00  0.00     0.014 A 
ATOM     34  C   UNL A   1      39.394  25.630  28.727  1.00  0.00     0.010 A 
ATOM     35  C   UNL A   1      40.572  26.411  26.761  1.00  0.00     0.010 A 
ATOM     36  C   UNL A   1      40.146  26.624  28.081  1.00  0.00    -0.014 A 
BRANCH  36  37
ATOM     37  C   UNL A   1      40.497  27.890  28.772  1.00  0.00     0.031 A 
ATOM     38  C   UNL A   1      41.854  28.065  29.397  1.00  0.00     0.074 A 
ATOM     39  C   UNL A   1      39.574  28.864  28.883  1.00  0.00     0.049 A 
ATOM     40  N   UNL A   1      42.317  29.072  30.093  1.00  0.00    -0.248 NA
ATOM     41  C   UNL A   1      42.807  26.956  29.234  1.00  0.00     0.031 C 
ATOM     42  C   UNL A   1      38.214  28.810  28.341  1.00  0.00     0.029 A 
ATOM     43  N   UNL A   1      39.640  30.090  29.495  1.00  0.00    -0.354 N 
ATOM     44  C   UNL A   1      43.608  28.714  30.462  1.00  0.00     0.074 A 
ATOM     45  C   UNL A   1      43.838  27.379  29.952  1.00  0.00     0.031 C 
ATOM     46  C   UNL A   1      37.585  29.962  28.620  1.00  0.00     0.029 A 
ATOM     47  C   UNL A   1      38.478  30.818  29.396  1.00  0.00     0.049 A 
ATOM     48  H   UNL A   1      40.442  30.418  29.961  1.00  0.00     0.167 HD
ATOM     49  C   UNL A   1      44.525  29.435  31.150  1.00  0.00     0.031 A 
ATOM     50  C   UNL A   1      38.164  32.034  29.879  1.00  0.00     0.031 A 
ATOM     51  C   UNL A   1      44.300  30.764  31.655  1.00  0.00     0.049 A 
ATOM     52  C   UNL A   1      39.189  32.801  30.665  1.00  0.00     0.074 A 
ATOM     53  C   UNL A   1      45.182  31.590  32.329  1.00  0.00     0.029 A 
ATOM     54  N   UNL A   1      43.107  31.460  31.540  1.00  0.00    -0.354 N 
ATOM     55  N   UNL A   1      40.420  32.466  30.967  1.00  0.00    -0.248 NA
ATOM     56  C   UNL A   1      38.782  34.120  31.170  1.00  0.00     0.031 C 
ATOM     57  C   UNL A   1      44.508  32.770  32.662  1.00  0.00     0.029 A 
ATOM     58  C   UNL A   1      43.223  32.698  32.149  1.00  0.00     0.049 A 
ATOM     59  H   UNL A   1      42.298  31.124  31.092  1.00  0.00     0.167 HD
ATOM     60  C   UNL A   1      40.942  33.542  31.671  1.00  0.00     0.074 A 
ATOM     61  C   UNL A   1      39.900  34.545  31.741  1.00  0.00     0.031 C 
ATOM     62  C   UNL A   1      42.178  33.686  32.212  1.00  0.00     0.031 A 
BRANCH  49  63
ATOM     63  C   UNL A   1      45.861  28.793  31.402  1.00  0.00    -0.014 A 
ATOM     64  C   UNL A   1      46.912  28.920  30.480  1.00  0.00     0.009 A 
ATOM     65  C   UNL A   1      46.083  28.084  32.593  1.00  0.00     0.009 A 
ATOM     66  C   UNL A   1      48.148  28.320  30.729  1.00  0.00     0.001 A 
ATOM     67  C   UNL A   1      47.329  27.509  32.851  1.00  0.00     0.001 A 
ATOM     68  C   UNL A   1      48.356  27.618  31.915  1.00  0.00     0.000 A 
ENDBRANCH  49  63
BRANCH  50  69
ATOM     69  C   UNL A   1      36.821  32.612  29.619  1.00  0.00    -0.014 A 
ATOM     70  C   UNL A   1      36.560  33.283  28.414  1.00  0.00     0.009 A 
ATOM     71  C   UNL A   1      35.796  32.502  30.571  1.00  0.00     0.009 A 
ATOM     72  C   UNL A   1      35.307  33.851  28.177  1.00  0.00     0.001 A 
ATOM     73  C   UNL A   1      34.535  33.047  30.320  1.00  0.00     0.001 A 
ATOM     74  C   UNL A   1      34.294  33.729  29.128  1.00  0.00     0.000 A 
ENDBRANCH  50  69
BRANCH  62  75
ATOM     75  C   UNL A   1      42.480  34.989  32.893  1.00  0.00    -0.014 A 
ATOM     76  C   UNL A   1      42.043  35.247  34.201  1.00  0.00     0.009 A 
ATOM     77  C   UNL A   1      43.249  35.958  32.228  1.00  0.00     0.009 A 
ATOM     78  C   UNL A   1      42.344  36.463  34.819  1.00  0.00     0.001 A 
ATOM     79  C   UNL A   1      43.572  37.161  32.859  1.00  0.00     0.001 A 
ATOM     80  C   UNL A   1      43.112  37.416  34.149  1.00  0.00     0.000 A 
ENDBRANCH  62  75
ENDBRANCH  36  37
ENDBRANCH  28  31
ENDBRANCH  26  27
ENDBRANCH  25  26
ENDBRANCH  24  25
ENDBRANCH   1  24
TORSDOF 18
ENDMDL
