MODEL 1
REMARK VINA RESULT:     -11.7      0.000      0.000
REMARK SMILES O=C(NCCCCCCNC(=O)[C@@H]1[C@@H](C(=O)Nc2ccc(F)c(F)c2)[C@H]2C=C[C@@H]1O2)c1ccc(-c2c3nc(c(-c4ccccc4)c4ccc([nH]4)c(-c4ccccc4)c4nc(c(-c5ccccc5)c5ccc2[nH]5)C=C4)C=C3)cc1
REMARK SMILES IDX 6 1 5 2 4 3 3 4 1 5 2 6 31 8 32 9 78 10 33 11 77 12 34 13
REMARK SMILES IDX 35 14 36 15 71 16 37 17 76 18 70 19 72 20 38 21 75 22 69 23
REMARK SMILES IDX 68 24 39 26 61 27 46 28 60 29 47 30 50 31 59 32 73 33 48 34
REMARK SMILES IDX 49 35 58 37 74 38 51 39 40 40 41 41 45 42 42 43 44 44 43 45
REMARK SMILES IDX 62 46 63 47 67 48 64 49 66 50 65 51 52 52 53 53 57 54 54 55
REMARK SMILES IDX 56 56 55 57 7 58 8 59 9 60 10 61 11 62 12 64 13 65 14 66
REMARK SMILES IDX 29 67 26 68 28 69 30 70 27 71 15 72 16 73 17 74 18 76 19 77
REMARK SMILES IDX 25 78 20 79 23 80 21 81 24 82 22 83
REMARK H PARENT 3 7 72 25 50 36 10 63 17 75
REMARK Flexibility Score: inf
ROOT
ATOM      1  C   UNL A   1      36.775  20.560  25.002  1.00  0.00     0.002 C 
ENDROOT
BRANCH   1   2
ATOM      2  C   UNL A   1      37.984  19.626  24.934  1.00  0.00     0.021 C 
BRANCH   2   3
ATOM      3  C   UNL A   1      39.156  20.084  25.789  1.00  0.00     0.116 C 
BRANCH   3   4
ATOM      4  N   UNL A   1      40.182  19.058  25.882  1.00  0.00    -0.352 N 
ATOM      5  O   UNL A   1      42.305  18.285  25.919  1.00  0.00    -0.269 OA
ATOM      6  C   UNL A   1      41.526  19.219  26.090  1.00  0.00     0.251 C 
ATOM      7  H   UNL A   1      39.870  18.129  25.783  1.00  0.00     0.163 HD
BRANCH   6   8
ATOM      8  C   UNL A   1      42.029  20.536  26.525  1.00  0.00     0.039 A 
ATOM      9  C   UNL A   1      42.450  21.469  25.573  1.00  0.00     0.014 A 
ATOM     10  C   UNL A   1      42.062  20.844  27.886  1.00  0.00     0.014 A 
ATOM     11  C   UNL A   1      42.994  22.676  25.985  1.00  0.00     0.010 A 
ATOM     12  C   UNL A   1      42.527  22.095  28.295  1.00  0.00     0.010 A 
ATOM     13  C   UNL A   1      42.993  23.019  27.346  1.00  0.00    -0.014 A 
BRANCH  13  14
ATOM     14  C   UNL A   1      43.331  24.406  27.737  1.00  0.00     0.031 A 
ATOM     15  C   UNL A   1      42.270  25.410  28.072  1.00  0.00     0.074 A 
ATOM     16  C   UNL A   1      44.635  24.748  27.764  1.00  0.00     0.049 A 
ATOM     17  N   UNL A   1      42.412  26.670  28.395  1.00  0.00    -0.248 NA
ATOM     18  C   UNL A   1      40.872  24.952  28.036  1.00  0.00     0.031 C 
ATOM     19  C   UNL A   1      45.750  23.848  27.443  1.00  0.00     0.029 A 
ATOM     20  N   UNL A   1      45.249  25.934  28.073  1.00  0.00    -0.354 N 
ATOM     21  C   UNL A   1      41.127  27.164  28.577  1.00  0.00     0.074 A 
ATOM     22  C   UNL A   1      40.215  26.070  28.321  1.00  0.00     0.031 C 
ATOM     23  C   UNL A   1      46.907  24.506  27.596  1.00  0.00     0.029 A 
ATOM     24  C   UNL A   1      46.616  25.888  27.948  1.00  0.00     0.049 A 
ATOM     25  H   UNL A   1      44.758  26.739  28.355  1.00  0.00     0.167 HD
ATOM     26  C   UNL A   1      40.753  28.419  28.921  1.00  0.00     0.031 A 
ATOM     27  C   UNL A   1      47.537  26.862  28.058  1.00  0.00     0.031 A 
ATOM     28  C   UNL A   1      41.675  29.497  29.173  1.00  0.00     0.049 A 
ATOM     29  C   UNL A   1      47.079  28.252  28.386  1.00  0.00     0.074 A 
ATOM     30  C   UNL A   1      41.394  30.786  29.593  1.00  0.00     0.029 A 
ATOM     31  N   UNL A   1      43.050  29.420  29.010  1.00  0.00    -0.354 N 
ATOM     32  N   UNL A   1      45.866  28.682  28.638  1.00  0.00    -0.248 NA
ATOM     33  C   UNL A   1      48.114  29.293  28.438  1.00  0.00     0.031 C 
ATOM     34  C   UNL A   1      42.589  31.510  29.610  1.00  0.00     0.029 A 
ATOM     35  C   UNL A   1      43.623  30.654  29.267  1.00  0.00     0.049 A 
ATOM     36  H   UNL A   1      43.543  28.609  28.750  1.00  0.00     0.167 HD
ATOM     37  C   UNL A   1      45.994  30.040  28.888  1.00  0.00     0.074 A 
ATOM     38  C   UNL A   1      47.404  30.355  28.794  1.00  0.00     0.031 C 
ATOM     39  C   UNL A   1      45.028  30.949  29.162  1.00  0.00     0.031 A 
BRANCH  26  40
ATOM     40  C   UNL A   1      39.285  28.726  29.014  1.00  0.00    -0.014 A 
ATOM     41  C   UNL A   1      38.576  28.568  30.215  1.00  0.00     0.009 A 
ATOM     42  C   UNL A   1      38.628  29.288  27.907  1.00  0.00     0.009 A 
ATOM     43  C   UNL A   1      37.236  28.957  30.299  1.00  0.00     0.001 A 
ATOM     44  C   UNL A   1      37.297  29.698  28.001  1.00  0.00     0.001 A 
ATOM     45  C   UNL A   1      36.601  29.530  29.197  1.00  0.00     0.000 A 
ENDBRANCH  26  40
BRANCH  27  46
ATOM     46  C   UNL A   1      48.969  26.572  27.788  1.00  0.00    -0.014 A 
ATOM     47  C   UNL A   1      49.497  26.687  26.494  1.00  0.00     0.009 A 
ATOM     48  C   UNL A   1      49.815  26.151  28.829  1.00  0.00     0.009 A 
ATOM     49  C   UNL A   1      50.829  26.349  26.242  1.00  0.00     0.001 A 
ATOM     50  C   UNL A   1      51.154  25.851  28.581  1.00  0.00     0.001 A 
ATOM     51  C   UNL A   1      51.657  25.935  27.285  1.00  0.00     0.000 A 
ENDBRANCH  27  46
BRANCH  39  52
ATOM     52  C   UNL A   1      45.469  32.365  29.389  1.00  0.00    -0.014 A 
ATOM     53  C   UNL A   1      45.857  32.807  30.664  1.00  0.00     0.009 A 
ATOM     54  C   UNL A   1      45.538  33.257  28.308  1.00  0.00     0.009 A 
ATOM     55  C   UNL A   1      46.279  34.124  30.856  1.00  0.00     0.001 A 
ATOM     56  C   UNL A   1      45.991  34.564  28.497  1.00  0.00     0.001 A 
ATOM     57  C   UNL A   1      46.352  34.998  29.771  1.00  0.00     0.000 A 
ENDBRANCH  39  52
ENDBRANCH  13  14
ENDBRANCH   6   8
ENDBRANCH   3   4
ENDBRANCH   2   3
ENDBRANCH   1   2
BRANCH   1  58
ATOM     58  C   UNL A   1      37.007  21.943  24.382  1.00  0.00     0.002 C 
BRANCH  58  59
ATOM     59  C   UNL A   1      37.419  23.030  25.383  1.00  0.00     0.021 C 
BRANCH  59  60
ATOM     60  C   UNL A   1      36.254  23.905  25.833  1.00  0.00     0.116 C 
BRANCH  60  61
ATOM     61  N   UNL A   1      35.497  23.245  26.871  1.00  0.00    -0.356 N 
ATOM     62  C   UNL A   1      34.156  23.077  27.004  1.00  0.00     0.227 C 
ATOM     63  H   UNL A   1      36.039  22.855  27.594  1.00  0.00     0.163 HD
ATOM     64  O   UNL A   1      33.778  22.457  27.998  1.00  0.00    -0.275 OA
BRANCH  62  65
ATOM     65  C   UNL A   1      33.210  23.569  25.919  1.00  0.00     0.127 C 
ATOM     66  C   UNL A   1      33.122  25.136  25.787  1.00  0.00     0.127 C 
ATOM     67  C   UNL A   1      31.770  23.209  26.328  1.00  0.00     0.155 C 
ATOM     68  C   UNL A   1      31.644  25.366  26.173  1.00  0.00     0.155 C 
ATOM     69  C   UNL A   1      30.814  23.494  25.205  1.00  0.00     0.004 C 
ATOM     70  O   UNL A   1      31.462  24.345  27.180  1.00  0.00    -0.365 OA
ATOM     71  C   UNL A   1      30.718  24.827  25.125  1.00  0.00     0.004 C 
BRANCH  66  72
ATOM     72  C   UNL A   1      33.470  25.619  24.376  1.00  0.00     0.231 C 
ATOM     73  O   UNL A   1      33.666  24.826  23.448  1.00  0.00    -0.274 OA
ATOM     74  N   UNL A   1      33.564  26.941  24.046  1.00  0.00    -0.326 N 
ATOM     75  H   UNL A   1      33.845  27.123  23.120  1.00  0.00     0.169 HD
BRANCH  74  76
ATOM     76  C   UNL A   1      33.321  28.075  24.822  1.00  0.00     0.044 A 
ATOM     77  C   UNL A   1      34.096  28.414  25.934  1.00  0.00     0.029 A 
ATOM     78  C   UNL A   1      32.208  28.846  24.477  1.00  0.00     0.068 A 
ATOM     79  C   UNL A   1      33.692  29.464  26.764  1.00  0.00     0.044 A 
ATOM     80  C   UNL A   1      31.798  29.867  25.325  1.00  0.00     0.160 A 
ATOM     81  C   UNL A   1      32.526  30.165  26.470  1.00  0.00     0.158 A 
ATOM     82  F   UNL A   1      30.667  30.529  25.050  1.00  0.00    -0.204 F 
ATOM     83  F   UNL A   1      32.104  31.121  27.308  1.00  0.00    -0.204 F 
ENDBRANCH  74  76
ENDBRANCH  66  72
ENDBRANCH  62  65
ENDBRANCH  60  61
ENDBRANCH  59  60
ENDBRANCH  58  59
ENDBRANCH   1  58
TORSDOF 15
ENDMDL
MODEL 2
REMARK VINA RESULT:     -11.5      5.017      9.657
REMARK SMILES O=C(NCCCCCCNC(=O)[C@@H]1[C@@H](C(=O)Nc2ccc(F)c(F)c2)[C@H]2C=C[C@@H]1O2)c1ccc(-c2c3nc(c(-c4ccccc4)c4ccc([nH]4)c(-c4ccccc4)c4nc(c(-c5ccccc5)c5ccc2[nH]5)C=C4)C=C3)cc1
REMARK SMILES IDX 6 1 5 2 4 3 3 4 1 5 2 6 31 8 32 9 78 10 33 11 77 12 34 13
REMARK SMILES IDX 35 14 36 15 71 16 37 17 76 18 70 19 72 20 38 21 75 22 69 23
REMARK SMILES IDX 68 24 39 26 61 27 46 28 60 29 47 30 50 31 59 32 73 33 48 34
REMARK SMILES IDX 49 35 58 37 74 38 51 39 40 40 41 41 45 42 42 43 44 44 43 45
REMARK SMILES IDX 62 46 63 47 67 48 64 49 66 50 65 51 52 52 53 53 57 54 54 55
REMARK SMILES IDX 56 56 55 57 7 58 8 59 9 60 10 61 11 62 12 64 13 65 14 66
REMARK SMILES IDX 29 67 26 68 28 69 30 70 27 71 15 72 16 73 17 74 18 76 19 77
REMARK SMILES IDX 25 78 20 79 23 80 21 81 24 82 22 83
REMARK H PARENT 3 7 72 25 50 36 10 63 17 75
REMARK Flexibility Score: inf
ROOT
ATOM      1  C   UNL A   1      31.564  30.806  26.467  1.00  0.00     0.002 C 
ENDROOT
BRANCH   1   2
ATOM      2  C   UNL A   1      31.435  32.311  26.701  1.00  0.00     0.021 C 
BRANCH   2   3
ATOM      3  C   UNL A   1      32.682  32.944  27.300  1.00  0.00     0.116 C 
BRANCH   3   4
ATOM      4  N   UNL A   1      32.449  34.328  27.681  1.00  0.00    -0.352 N 
ATOM      5  O   UNL A   1      32.573  36.121  29.050  1.00  0.00    -0.269 OA
ATOM      6  C   UNL A   1      33.028  35.035  28.700  1.00  0.00     0.251 C 
ATOM      7  H   UNL A   1      31.792  34.818  27.135  1.00  0.00     0.163 HD
BRANCH   6   8
ATOM      8  C   UNL A   1      34.212  34.473  29.378  1.00  0.00     0.039 A 
ATOM      9  C   UNL A   1      34.069  33.839  30.616  1.00  0.00     0.014 A 
ATOM     10  C   UNL A   1      35.463  34.566  28.767  1.00  0.00     0.014 A 
ATOM     11  C   UNL A   1      35.192  33.379  31.288  1.00  0.00     0.010 A 
ATOM     12  C   UNL A   1      36.580  34.024  29.403  1.00  0.00     0.010 A 
ATOM     13  C   UNL A   1      36.450  33.424  30.667  1.00  0.00    -0.014 A 
BRANCH  13  14
ATOM     14  C   UNL A   1      37.582  32.696  31.284  1.00  0.00     0.031 A 
ATOM     15  C   UNL A   1      38.227  33.172  32.550  1.00  0.00     0.074 A 
ATOM     16  C   UNL A   1      38.033  31.593  30.653  1.00  0.00     0.049 A 
ATOM     17  N   UNL A   1      39.249  32.659  33.187  1.00  0.00    -0.248 NA
ATOM     18  C   UNL A   1      37.663  34.374  33.185  1.00  0.00     0.031 C 
ATOM     19  C   UNL A   1      37.483  31.050  29.405  1.00  0.00     0.029 A 
ATOM     20  N   UNL A   1      39.050  30.729  30.967  1.00  0.00    -0.354 N 
ATOM     21  C   UNL A   1      39.470  33.486  34.281  1.00  0.00     0.074 A 
ATOM     22  C   UNL A   1      38.479  34.540  34.219  1.00  0.00     0.031 C 
ATOM     23  C   UNL A   1      38.150  29.936  29.076  1.00  0.00     0.029 A 
ATOM     24  C   UNL A   1      39.221  29.729  30.041  1.00  0.00     0.049 A 
ATOM     25  H   UNL A   1      39.603  30.817  31.777  1.00  0.00     0.167 HD
ATOM     26  C   UNL A   1      40.418  33.372  35.240  1.00  0.00     0.031 A 
ATOM     27  C   UNL A   1      40.163  28.775  29.949  1.00  0.00     0.031 A 
ATOM     28  C   UNL A   1      41.396  32.315  35.287  1.00  0.00     0.049 A 
ATOM     29  C   UNL A   1      41.231  28.713  31.001  1.00  0.00     0.074 A 
ATOM     30  C   UNL A   1      42.355  32.076  36.257  1.00  0.00     0.029 A 
ATOM     31  N   UNL A   1      41.556  31.338  34.317  1.00  0.00    -0.354 N 
ATOM     32  N   UNL A   1      41.373  29.452  32.074  1.00  0.00    -0.248 NA
ATOM     33  C   UNL A   1      42.271  27.692  30.826  1.00  0.00     0.031 C 
ATOM     34  C   UNL A   1      43.143  31.001  35.836  1.00  0.00     0.029 A 
ATOM     35  C   UNL A   1      42.633  30.528  34.638  1.00  0.00     0.049 A 
ATOM     36  H   UNL A   1      40.988  31.235  33.520  1.00  0.00     0.167 HD
ATOM     37  C   UNL A   1      42.512  28.978  32.708  1.00  0.00     0.074 A 
ATOM     38  C   UNL A   1      43.001  27.867  31.919  1.00  0.00     0.031 C 
ATOM     39  C   UNL A   1      43.107  29.430  33.837  1.00  0.00     0.031 A 
BRANCH  26  40
ATOM     40  C   UNL A   1      40.485  34.426  36.308  1.00  0.00    -0.014 A 
ATOM     41  C   UNL A   1      41.288  35.568  36.164  1.00  0.00     0.009 A 
ATOM     42  C   UNL A   1      39.643  34.327  37.428  1.00  0.00     0.009 A 
ATOM     43  C   UNL A   1      41.254  36.580  37.127  1.00  0.00     0.001 A 
ATOM     44  C   UNL A   1      39.593  35.350  38.376  1.00  0.00     0.001 A 
ATOM     45  C   UNL A   1      40.401  36.476  38.225  1.00  0.00     0.000 A 
ENDBRANCH  26  40
BRANCH  27  46
ATOM     46  C   UNL A   1      40.181  27.850  28.786  1.00  0.00    -0.014 A 
ATOM     47  C   UNL A   1      39.553  26.598  28.850  1.00  0.00     0.009 A 
ATOM     48  C   UNL A   1      40.854  28.210  27.605  1.00  0.00     0.009 A 
ATOM     49  C   UNL A   1      39.632  25.712  27.772  1.00  0.00     0.001 A 
ATOM     50  C   UNL A   1      40.898  27.339  26.517  1.00  0.00     0.001 A 
ATOM     51  C   UNL A   1      40.300  26.084  26.607  1.00  0.00     0.000 A 
ENDBRANCH  27  46
BRANCH  39  52
ATOM     52  C   UNL A   1      44.346  28.712  34.289  1.00  0.00    -0.014 A 
ATOM     53  C   UNL A   1      44.266  27.586  35.124  1.00  0.00     0.009 A 
ATOM     54  C   UNL A   1      45.604  29.142  33.841  1.00  0.00     0.009 A 
ATOM     55  C   UNL A   1      45.427  26.922  35.523  1.00  0.00     0.001 A 
ATOM     56  C   UNL A   1      46.760  28.455  34.217  1.00  0.00     0.001 A 
ATOM     57  C   UNL A   1      46.671  27.353  35.064  1.00  0.00     0.000 A 
ENDBRANCH  39  52
ENDBRANCH  13  14
ENDBRANCH   6   8
ENDBRANCH   3   4
ENDBRANCH   2   3
ENDBRANCH   1   2
BRANCH   1  58
ATOM     58  C   UNL A   1      32.791  30.164  27.126  1.00  0.00     0.002 C 
BRANCH  58  59
ATOM     59  C   UNL A   1      32.810  28.631  27.081  1.00  0.00     0.021 C 
BRANCH  59  60
ATOM     60  C   UNL A   1      34.055  28.065  26.407  1.00  0.00     0.116 C 
BRANCH  60  61
ATOM     61  N   UNL A   1      34.204  28.612  25.079  1.00  0.00    -0.356 N 
ATOM     62  C   UNL A   1      33.811  28.114  23.878  1.00  0.00     0.227 C 
ATOM     63  H   UNL A   1      34.660  29.483  25.039  1.00  0.00     0.163 HD
ATOM     64  O   UNL A   1      34.062  28.805  22.890  1.00  0.00    -0.275 OA
BRANCH  62  65
ATOM     65  C   UNL A   1      33.032  26.809  23.807  1.00  0.00     0.127 C 
ATOM     66  C   UNL A   1      33.837  25.538  24.274  1.00  0.00     0.127 C 
ATOM     67  C   UNL A   1      32.764  26.482  22.327  1.00  0.00     0.155 C 
ATOM     68  C   UNL A   1      33.890  24.740  22.953  1.00  0.00     0.155 C 
ATOM     69  C   UNL A   1      31.830  25.312  22.204  1.00  0.00     0.004 C 
ATOM     70  O   UNL A   1      34.009  25.813  21.990  1.00  0.00    -0.365 OA
ATOM     71  C   UNL A   1      32.534  24.232  22.568  1.00  0.00     0.004 C 
BRANCH  66  72
ATOM     72  C   UNL A   1      33.133  24.793  25.413  1.00  0.00     0.231 C 
ATOM     73  O   UNL A   1      31.960  25.033  25.718  1.00  0.00    -0.274 OA
ATOM     74  N   UNL A   1      33.739  23.809  26.142  1.00  0.00    -0.326 N 
ATOM     75  H   UNL A   1      33.200  23.443  26.880  1.00  0.00     0.169 HD
BRANCH  74  76
ATOM     76  C   UNL A   1      35.006  23.244  25.999  1.00  0.00     0.044 A 
ATOM     77  C   UNL A   1      36.183  23.995  26.060  1.00  0.00     0.029 A 
ATOM     78  C   UNL A   1      35.056  21.875  25.725  1.00  0.00     0.068 A 
ATOM     79  C   UNL A   1      37.403  23.393  25.738  1.00  0.00     0.044 A 
ATOM     80  C   UNL A   1      36.270  21.295  25.377  1.00  0.00     0.160 A 
ATOM     81  C   UNL A   1      37.434  22.052  25.368  1.00  0.00     0.158 A 
ATOM     82  F   UNL A   1      36.294  20.008  25.005  1.00  0.00    -0.204 F 
ATOM     83  F   UNL A   1      38.594  21.500  24.989  1.00  0.00    -0.204 F 
ENDBRANCH  74  76
ENDBRANCH  66  72
ENDBRANCH  62  65
ENDBRANCH  60  61
ENDBRANCH  59  60
ENDBRANCH  58  59
ENDBRANCH   1  58
TORSDOF 15
ENDMDL
MODEL 3
REMARK VINA RESULT:     -11.4      2.882      7.735
REMARK SMILES O=C(NCCCCCCNC(=O)[C@@H]1[C@@H](C(=O)Nc2ccc(F)c(F)c2)[C@H]2C=C[C@@H]1O2)c1ccc(-c2c3nc(c(-c4ccccc4)c4ccc([nH]4)c(-c4ccccc4)c4nc(c(-c5ccccc5)c5ccc2[nH]5)C=C4)C=C3)cc1
REMARK SMILES IDX 6 1 5 2 4 3 3 4 1 5 2 6 31 8 32 9 78 10 33 11 77 12 34 13
REMARK SMILES IDX 35 14 36 15 71 16 37 17 76 18 70 19 72 20 38 21 75 22 69 23
REMARK SMILES IDX 68 24 39 26 61 27 46 28 60 29 47 30 50 31 59 32 73 33 48 34
REMARK SMILES IDX 49 35 58 37 74 38 51 39 40 40 41 41 45 42 42 43 44 44 43 45
REMARK SMILES IDX 62 46 63 47 67 48 64 49 66 50 65 51 52 52 53 53 57 54 54 55
REMARK SMILES IDX 56 56 55 57 7 58 8 59 9 60 10 61 11 62 12 64 13 65 14 66
REMARK SMILES IDX 29 67 26 68 28 69 30 70 27 71 15 72 16 73 17 74 18 76 19 77
REMARK SMILES IDX 25 78 20 79 23 80 21 81 24 82 22 83
REMARK H PARENT 3 7 72 25 50 36 10 63 17 75
REMARK Flexibility Score: inf
ROOT
ATOM      1  C   UNL A   1      32.291  28.213  27.324  1.00  0.00     0.002 C 
ENDROOT
BRANCH   1   2
ATOM      2  C   UNL A   1      33.702  28.015  26.772  1.00  0.00     0.021 C 
BRANCH   2   3
ATOM      3  C   UNL A   1      34.276  29.256  26.107  1.00  0.00     0.116 C 
BRANCH   3   4
ATOM      4  N   UNL A   1      34.037  30.449  26.904  1.00  0.00    -0.352 N 
ATOM      5  O   UNL A   1      34.297  31.795  28.700  1.00  0.00    -0.269 OA
ATOM      6  C   UNL A   1      34.744  30.901  27.986  1.00  0.00     0.251 C 
ATOM      7  H   UNL A   1      33.269  31.001  26.629  1.00  0.00     0.163 HD
BRANCH   6   8
ATOM      8  C   UNL A   1      36.057  30.298  28.285  1.00  0.00     0.039 A 
ATOM      9  C   UNL A   1      37.080  30.354  27.334  1.00  0.00     0.014 A 
ATOM     10  C   UNL A   1      36.269  29.692  29.524  1.00  0.00     0.014 A 
ATOM     11  C   UNL A   1      38.289  29.720  27.585  1.00  0.00     0.010 A 
ATOM     12  C   UNL A   1      37.515  29.133  29.810  1.00  0.00     0.010 A 
ATOM     13  C   UNL A   1      38.533  29.146  28.842  1.00  0.00    -0.014 A 
BRANCH  13  14
ATOM     14  C   UNL A   1      39.908  28.712  29.179  1.00  0.00     0.031 A 
ATOM     15  C   UNL A   1      40.875  29.626  29.868  1.00  0.00     0.074 A 
ATOM     16  C   UNL A   1      40.274  27.464  28.824  1.00  0.00     0.049 A 
ATOM     17  N   UNL A   1      42.122  29.399  30.193  1.00  0.00    -0.248 NA
ATOM     18  C   UNL A   1      40.391  30.966  30.237  1.00  0.00     0.031 C 
ATOM     19  C   UNL A   1      39.411  26.495  28.137  1.00  0.00     0.029 A 
ATOM     20  N   UNL A   1      41.457  26.792  28.989  1.00  0.00    -0.354 N 
ATOM     21  C   UNL A   1      42.582  30.570  30.781  1.00  0.00     0.074 A 
ATOM     22  C   UNL A   1      41.482  31.512  30.761  1.00  0.00     0.031 C 
ATOM     23  C   UNL A   1      40.084  25.350  27.963  1.00  0.00     0.029 A 
ATOM     24  C   UNL A   1      41.444  25.527  28.453  1.00  0.00     0.049 A 
ATOM     25  H   UNL A   1      42.239  27.177  29.446  1.00  0.00     0.167 HD
ATOM     26  C   UNL A   1      43.812  30.829  31.282  1.00  0.00     0.031 A 
ATOM     27  C   UNL A   1      42.430  24.621  28.325  1.00  0.00     0.031 A 
ATOM     28  C   UNL A   1      44.896  29.880  31.293  1.00  0.00     0.049 A 
ATOM     29  C   UNL A   1      43.795  24.965  28.843  1.00  0.00     0.074 A 
ATOM     30  C   UNL A   1      46.159  30.026  31.841  1.00  0.00     0.029 A 
ATOM     31  N   UNL A   1      44.854  28.620  30.717  1.00  0.00    -0.354 N 
ATOM     32  N   UNL A   1      44.189  26.046  29.471  1.00  0.00    -0.248 NA
ATOM     33  C   UNL A   1      44.852  23.969  28.628  1.00  0.00     0.031 C 
ATOM     34  C   UNL A   1      46.906  28.887  31.528  1.00  0.00     0.029 A 
ATOM     35  C   UNL A   1      46.087  28.002  30.846  1.00  0.00     0.049 A 
ATOM     36  H   UNL A   1      44.065  28.224  30.280  1.00  0.00     0.167 HD
ATOM     37  C   UNL A   1      45.537  25.855  29.736  1.00  0.00     0.074 A 
ATOM     38  C   UNL A   1      45.883  24.543  29.233  1.00  0.00     0.031 C 
ATOM     39  C   UNL A   1      46.413  26.697  30.334  1.00  0.00     0.031 A 
BRANCH  26  40
ATOM     40  C   UNL A   1      44.086  32.200  31.831  1.00  0.00    -0.014 A 
ATOM     41  C   UNL A   1      43.907  32.496  33.191  1.00  0.00     0.009 A 
ATOM     42  C   UNL A   1      44.639  33.181  30.991  1.00  0.00     0.009 A 
ATOM     43  C   UNL A   1      44.265  33.751  33.693  1.00  0.00     0.001 A 
ATOM     44  C   UNL A   1      45.019  34.424  31.500  1.00  0.00     0.001 A 
ATOM     45  C   UNL A   1      44.829  34.708  32.851  1.00  0.00     0.000 A 
ENDBRANCH  26  40
BRANCH  27  46
ATOM     46  C   UNL A   1      42.180  23.338  27.618  1.00  0.00    -0.014 A 
ATOM     47  C   UNL A   1      42.522  23.179  26.267  1.00  0.00     0.009 A 
ATOM     48  C   UNL A   1      41.570  22.266  28.293  1.00  0.00     0.009 A 
ATOM     49  C   UNL A   1      42.223  21.990  25.598  1.00  0.00     0.001 A 
ATOM     50  C   UNL A   1      41.308  21.066  27.632  1.00  0.00     0.001 A 
ATOM     51  C   UNL A   1      41.620  20.934  26.281  1.00  0.00     0.000 A 
ENDBRANCH  27  46
BRANCH  39  52
ATOM     52  C   UNL A   1      47.827  26.215  30.484  1.00  0.00    -0.014 A 
ATOM     53  C   UNL A   1      48.289  25.694  31.704  1.00  0.00     0.009 A 
ATOM     54  C   UNL A   1      48.695  26.242  29.382  1.00  0.00     0.009 A 
ATOM     55  C   UNL A   1      49.602  25.237  31.823  1.00  0.00     0.001 A 
ATOM     56  C   UNL A   1      49.997  25.754  29.496  1.00  0.00     0.001 A 
ATOM     57  C   UNL A   1      50.452  25.261  30.717  1.00  0.00     0.000 A 
ENDBRANCH  39  52
ENDBRANCH  13  14
ENDBRANCH   6   8
ENDBRANCH   3   4
ENDBRANCH   2   3
ENDBRANCH   1   2
BRANCH   1  58
ATOM     58  C   UNL A   1      31.170  27.967  26.306  1.00  0.00     0.002 C 
BRANCH  58  59
ATOM     59  C   UNL A   1      31.101  28.998  25.172  1.00  0.00     0.021 C 
BRANCH  59  60
ATOM     60  C   UNL A   1      30.904  28.367  23.798  1.00  0.00     0.116 C 
BRANCH  60  61
ATOM     61  N   UNL A   1      32.180  28.055  23.199  1.00  0.00    -0.356 N 
ATOM     62  C   UNL A   1      32.892  26.898  23.208  1.00  0.00     0.227 C 
ATOM     63  H   UNL A   1      32.600  28.797  22.706  1.00  0.00     0.163 HD
ATOM     64  O   UNL A   1      33.963  26.908  22.599  1.00  0.00    -0.275 OA
BRANCH  62  65
ATOM     65  C   UNL A   1      32.324  25.653  23.872  1.00  0.00     0.127 C 
ATOM     66  C   UNL A   1      33.405  24.602  24.328  1.00  0.00     0.127 C 
ATOM     67  C   UNL A   1      31.538  24.853  22.817  1.00  0.00     0.155 C 
ATOM     68  C   UNL A   1      33.035  23.408  23.421  1.00  0.00     0.155 C 
ATOM     69  C   UNL A   1      30.792  23.719  23.462  1.00  0.00     0.004 C 
ATOM     70  O   UNL A   1      32.623  24.097  22.218  1.00  0.00    -0.365 OA
ATOM     71  C   UNL A   1      31.715  22.815  23.812  1.00  0.00     0.004 C 
BRANCH  66  72
ATOM     72  C   UNL A   1      33.312  24.287  25.825  1.00  0.00     0.231 C 
ATOM     73  O   UNL A   1      32.403  24.742  26.528  1.00  0.00    -0.274 OA
ATOM     74  N   UNL A   1      34.200  23.474  26.469  1.00  0.00    -0.326 N 
ATOM     75  H   UNL A   1      34.064  23.392  27.440  1.00  0.00     0.169 HD
BRANCH  74  76
ATOM     76  C   UNL A   1      35.273  22.742  25.959  1.00  0.00     0.044 A 
ATOM     77  C   UNL A   1      35.133  21.451  25.442  1.00  0.00     0.029 A 
ATOM     78  C   UNL A   1      36.535  23.335  26.042  1.00  0.00     0.068 A 
ATOM     79  C   UNL A   1      36.273  20.713  25.109  1.00  0.00     0.044 A 
ATOM     80  C   UNL A   1      37.662  22.583  25.737  1.00  0.00     0.160 A 
ATOM     81  C   UNL A   1      37.534  21.274  25.288  1.00  0.00     0.158 A 
ATOM     82  F   UNL A   1      38.875  23.119  25.926  1.00  0.00    -0.204 F 
ATOM     83  F   UNL A   1      38.624  20.538  25.037  1.00  0.00    -0.204 F 
ENDBRANCH  74  76
ENDBRANCH  66  72
ENDBRANCH  62  65
ENDBRANCH  60  61
ENDBRANCH  59  60
ENDBRANCH  58  59
ENDBRANCH   1  58
TORSDOF 15
ENDMDL
