MODEL 1
REMARK VINA RESULT:     -10.0      0.000      0.000
REMARK SMILES CS(=O)(=O)CCC[N@H+]1[C@@H]2CC[C@H]1C[C@H](CC(=O)NCCCCCCNC(=O)c1ccc(-c3c4nc(c(-c5ccccc5)c5ccc([nH]5)c(-c5ccccc5)c5nc(c(-c6ccccc6)c6ccc3[nH]6)C=C5)C=C4)cc1)C2
REMARK SMILES IDX 20 1 19 2 18 3 16 4 17 5 15 7 14 8 8 9 9 10 12 11 10 13
REMARK SMILES IDX 76 14 11 15 13 16 7 17 6 18 5 19 2 20 1 21 3 22 4 23 21 24
REMARK SMILES IDX 22 25 23 26 24 27 25 28 26 29 27 31 28 32 29 33 75 34 30 35
REMARK SMILES IDX 74 36 31 37 32 38 33 39 68 40 34 41 73 42 67 43 69 44 35 45
REMARK SMILES IDX 72 46 66 47 65 48 36 50 58 51 43 52 57 53 44 54 47 55 56 56
REMARK SMILES IDX 70 57 45 58 46 59 55 61 71 62 48 63 37 64 38 65 42 66 39 67
REMARK SMILES IDX 41 68 40 69 59 70 60 71 64 72 61 73 63 74 62 75 49 76 50 77
REMARK SMILES IDX 54 78 51 79 53 80 52 81
REMARK H PARENT 18 6 8 12 25 30 69 49 47 60
REMARK Flexibility Score: inf
ROOT
ATOM      1  C   UNL A   1      35.607  31.996  28.053  1.00  0.00     0.021 C 
ENDROOT
BRANCH   1   2
ATOM      2  C   UNL A   1      34.830  30.674  27.905  1.00  0.00     0.116 C 
BRANCH   2   3
ATOM      3  N   UNL A   1      33.572  30.861  27.192  1.00  0.00    -0.356 N 
ATOM      4  C   UNL A   1      32.467  30.102  26.971  1.00  0.00     0.220 C 
ATOM      5  O   UNL A   1      31.528  30.663  26.396  1.00  0.00    -0.275 OA
ATOM      6  H   UNL A   1      33.510  31.748  26.769  1.00  0.00     0.163 HD
BRANCH   4   7
ATOM      7  C   UNL A   1      32.292  28.661  27.447  1.00  0.00     0.104 C 
BRANCH   7   8
ATOM      8  C   UNL A   1      32.610  27.505  26.471  1.00  0.00     0.010 C 
ATOM      9  N   UNL A   1      32.294  27.029  23.508  1.00  0.00    -0.330 N 
ATOM     10  C   UNL A   1      33.638  27.075  24.122  1.00  0.00     0.184 C 
ATOM     11  C   UNL A   1      31.535  26.236  24.467  1.00  0.00     0.184 C 
ATOM     12  H   UNL A   1      32.227  26.575  22.598  1.00  0.00     0.348 HD
ATOM     13  C   UNL A   1      33.862  25.590  24.442  1.00  0.00     0.071 C 
ATOM     14  C   UNL A   1      33.664  27.932  25.415  1.00  0.00     0.069 C 
ATOM     15  C   UNL A   1      32.457  25.028  24.660  1.00  0.00     0.071 C 
ATOM     16  C   UNL A   1      31.352  26.976  25.789  1.00  0.00     0.069 C 
BRANCH   9  17
ATOM     17  C   UNL A   1      31.807  28.322  23.027  1.00  0.00     0.263 C 
BRANCH  17  18
ATOM     18  C   UNL A   1      30.467  28.865  23.562  1.00  0.00     0.077 C 
BRANCH  18  19
ATOM     19  C   UNL A   1      29.208  28.583  22.751  1.00  0.00     0.142 C 
BRANCH  19  20
ATOM     20  S   UNL A   1      28.106  29.962  22.433  1.00  0.00     0.147 S 
ATOM     21  C   UNL A   1      28.836  31.415  23.139  1.00  0.00     0.158 C 
ATOM     22  O   UNL A   1      26.904  29.699  23.211  1.00  0.00    -0.229 OA
ATOM     23  O   UNL A   1      28.025  30.169  21.005  1.00  0.00    -0.229 OA
ENDBRANCH  19  20
ENDBRANCH  18  19
ENDBRANCH  17  18
ENDBRANCH   9  17
ENDBRANCH   7   8
ENDBRANCH   4   7
ENDBRANCH   2   3
ENDBRANCH   1   2
BRANCH   1  24
ATOM     24  C   UNL A   1      34.954  33.022  28.981  1.00  0.00     0.002 C 
BRANCH  24  25
ATOM     25  C   UNL A   1      35.292  34.482  28.667  1.00  0.00     0.002 C 
BRANCH  25  26
ATOM     26  C   UNL A   1      34.146  35.483  28.841  1.00  0.00     0.021 C 
BRANCH  26  27
ATOM     27  C   UNL A   1      32.899  34.941  29.536  1.00  0.00     0.116 C 
BRANCH  27  28
ATOM     28  N   UNL A   1      32.510  35.745  30.682  1.00  0.00    -0.352 N 
ATOM     29  C   UNL A   1      32.961  35.718  31.976  1.00  0.00     0.251 C 
ATOM     30  H   UNL A   1      31.811  36.414  30.501  1.00  0.00     0.163 HD
ATOM     31  O   UNL A   1      32.355  36.334  32.850  1.00  0.00    -0.269 OA
BRANCH  29  32
ATOM     32  C   UNL A   1      34.172  34.951  32.330  1.00  0.00     0.039 A 
ATOM     33  C   UNL A   1      34.029  33.636  32.781  1.00  0.00     0.014 A 
ATOM     34  C   UNL A   1      35.442  35.533  32.260  1.00  0.00     0.014 A 
ATOM     35  C   UNL A   1      35.160  32.891  33.115  1.00  0.00     0.010 A 
ATOM     36  C   UNL A   1      36.573  34.765  32.517  1.00  0.00     0.010 A 
ATOM     37  C   UNL A   1      36.444  33.439  32.958  1.00  0.00    -0.014 A 
BRANCH  37  38
ATOM     38  C   UNL A   1      37.658  32.639  33.257  1.00  0.00     0.031 A 
ATOM     39  C   UNL A   1      38.438  32.881  34.520  1.00  0.00     0.074 A 
ATOM     40  C   UNL A   1      38.084  31.723  32.366  1.00  0.00     0.049 A 
ATOM     41  N   UNL A   1      39.534  32.301  34.938  1.00  0.00    -0.248 NA
ATOM     42  C   UNL A   1      37.933  33.929  35.423  1.00  0.00     0.031 C 
ATOM     43  C   UNL A   1      37.436  31.419  31.087  1.00  0.00     0.029 A 
ATOM     44  N   UNL A   1      39.163  30.876  32.400  1.00  0.00    -0.354 N 
ATOM     45  C   UNL A   1      39.856  32.919  36.140  1.00  0.00     0.074 A 
ATOM     46  C   UNL A   1      38.871  33.957  36.357  1.00  0.00     0.031 C 
ATOM     47  C   UNL A   1      38.112  30.433  30.477  1.00  0.00     0.029 A 
ATOM     48  C   UNL A   1      39.261  30.065  31.295  1.00  0.00     0.049 A 
ATOM     49  H   UNL A   1      39.806  30.853  33.146  1.00  0.00     0.167 HD
ATOM     50  C   UNL A   1      40.866  32.636  36.997  1.00  0.00     0.031 A 
ATOM     51  C   UNL A   1      40.178  29.133  30.975  1.00  0.00     0.031 A 
ATOM     52  C   UNL A   1      41.843  31.603  36.778  1.00  0.00     0.049 A 
ATOM     53  C   UNL A   1      41.305  28.856  31.932  1.00  0.00     0.074 A 
ATOM     54  C   UNL A   1      42.876  31.204  37.609  1.00  0.00     0.029 A 
ATOM     55  N   UNL A   1      41.912  30.808  35.644  1.00  0.00    -0.354 N 
ATOM     56  N   UNL A   1      41.554  29.402  33.098  1.00  0.00    -0.248 NA
ATOM     57  C   UNL A   1      42.270  27.823  31.531  1.00  0.00     0.031 C 
ATOM     58  C   UNL A   1      43.608  30.212  36.949  1.00  0.00     0.029 A 
ATOM     59  C   UNL A   1      42.988  29.941  35.740  1.00  0.00     0.049 A 
ATOM     60  H   UNL A   1      41.288  30.853  34.884  1.00  0.00     0.167 HD
ATOM     61  C   UNL A   1      42.685  28.757  33.584  1.00  0.00     0.074 A 
ATOM     62  C   UNL A   1      43.059  27.767  32.595  1.00  0.00     0.031 C 
ATOM     63  C   UNL A   1      43.352  28.964  34.745  1.00  0.00     0.031 A 
BRANCH  50  64
ATOM     64  C   UNL A   1      40.971  33.470  38.246  1.00  0.00    -0.014 A 
ATOM     65  C   UNL A   1      41.738  34.646  38.277  1.00  0.00     0.009 A 
ATOM     66  C   UNL A   1      40.263  33.095  39.397  1.00  0.00     0.009 A 
ATOM     67  C   UNL A   1      41.827  35.404  39.447  1.00  0.00     0.001 A 
ATOM     68  C   UNL A   1      40.326  33.872  40.556  1.00  0.00     0.001 A 
ATOM     69  C   UNL A   1      41.116  35.019  40.584  1.00  0.00     0.000 A 
ENDBRANCH  50  64
BRANCH  51  70
ATOM     70  C   UNL A   1      40.064  28.381  29.697  1.00  0.00    -0.014 A 
ATOM     71  C   UNL A   1      39.437  27.126  29.660  1.00  0.00     0.009 A 
ATOM     72  C   UNL A   1      40.590  28.911  28.508  1.00  0.00     0.009 A 
ATOM     73  C   UNL A   1      39.368  26.403  28.466  1.00  0.00     0.001 A 
ATOM     74  C   UNL A   1      40.490  28.202  27.310  1.00  0.00     0.001 A 
ATOM     75  C   UNL A   1      39.890  26.943  27.292  1.00  0.00     0.000 A 
ENDBRANCH  51  70
BRANCH  63  76
ATOM     76  C   UNL A   1      44.532  28.076  35.027  1.00  0.00    -0.014 A 
ATOM     77  C   UNL A   1      45.834  28.442  34.653  1.00  0.00     0.009 A 
ATOM     78  C   UNL A   1      44.337  26.862  35.707  1.00  0.00     0.009 A 
ATOM     79  C   UNL A   1      46.910  27.591  34.915  1.00  0.00     0.001 A 
ATOM     80  C   UNL A   1      45.419  26.031  35.999  1.00  0.00     0.001 A 
ATOM     81  C   UNL A   1      46.703  26.390  35.592  1.00  0.00     0.000 A 
ENDBRANCH  63  76
ENDBRANCH  37  38
ENDBRANCH  29  32
ENDBRANCH  27  28
ENDBRANCH  26  27
ENDBRANCH  25  26
ENDBRANCH  24  25
ENDBRANCH   1  24
TORSDOF 18
ENDMDL
MODEL 2
REMARK VINA RESULT:      -9.8      4.989      9.806
REMARK SMILES CS(=O)(=O)CCC[N@H+]1[C@@H]2CC[C@H]1C[C@H](CC(=O)NCCCCCCNC(=O)c1ccc(-c3c4nc(c(-c5ccccc5)c5ccc([nH]5)c(-c5ccccc5)c5nc(c(-c6ccccc6)c6ccc3[nH]6)C=C5)C=C4)cc1)C2
REMARK SMILES IDX 20 1 19 2 18 3 16 4 17 5 15 7 14 8 8 9 9 10 12 11 10 13
REMARK SMILES IDX 76 14 11 15 13 16 7 17 6 18 5 19 2 20 1 21 3 22 4 23 21 24
REMARK SMILES IDX 22 25 23 26 24 27 25 28 26 29 27 31 28 32 29 33 75 34 30 35
REMARK SMILES IDX 74 36 31 37 32 38 33 39 68 40 34 41 73 42 67 43 69 44 35 45
REMARK SMILES IDX 72 46 66 47 65 48 36 50 58 51 43 52 57 53 44 54 47 55 56 56
REMARK SMILES IDX 70 57 45 58 46 59 55 61 71 62 48 63 37 64 38 65 42 66 39 67
REMARK SMILES IDX 41 68 40 69 59 70 60 71 64 72 61 73 63 74 62 75 49 76 50 77
REMARK SMILES IDX 54 78 51 79 53 80 52 81
REMARK H PARENT 18 6 8 12 25 30 69 49 47 60
REMARK Flexibility Score: inf
ROOT
ATOM      1  C   UNL A   1      37.761  22.613  25.572  1.00  0.00     0.021 C 
ENDROOT
BRANCH   1   2
ATOM      2  C   UNL A   1      36.632  23.557  25.120  1.00  0.00     0.116 C 
BRANCH   2   3
ATOM      3  N   UNL A   1      35.407  23.341  25.878  1.00  0.00    -0.356 N 
ATOM      4  C   UNL A   1      34.197  23.956  25.952  1.00  0.00     0.220 C 
ATOM      5  O   UNL A   1      33.345  23.396  26.650  1.00  0.00    -0.275 OA
ATOM      6  H   UNL A   1      35.471  22.564  26.480  1.00  0.00     0.163 HD
BRANCH   4   7
ATOM      7  C   UNL A   1      33.816  25.220  25.185  1.00  0.00     0.104 C 
BRANCH   7   8
ATOM      8  C   UNL A   1      33.306  26.450  25.971  1.00  0.00     0.010 C 
ATOM      9  N   UNL A   1      31.858  29.007  25.283  1.00  0.00    -0.330 N 
ATOM     10  C   UNL A   1      31.228  28.001  26.163  1.00  0.00     0.184 C 
ATOM     11  C   UNL A   1      33.229  29.047  25.778  1.00  0.00     0.184 C 
ATOM     12  H   UNL A   1      31.477  29.952  25.329  1.00  0.00     0.348 HD
ATOM     13  C   UNL A   1      31.673  28.502  27.544  1.00  0.00     0.071 C 
ATOM     14  C   UNL A   1      31.761  26.568  25.894  1.00  0.00     0.069 C 
ATOM     15  C   UNL A   1      33.003  29.210  27.284  1.00  0.00     0.071 C 
ATOM     16  C   UNL A   1      33.966  27.741  25.495  1.00  0.00     0.069 C 
BRANCH   9  17
ATOM     17  C   UNL A   1      31.563  28.833  23.860  1.00  0.00     0.263 C 
BRANCH  17  18
ATOM     18  C   UNL A   1      30.108  28.980  23.373  1.00  0.00     0.077 C 
BRANCH  18  19
ATOM     19  C   UNL A   1      29.414  30.320  23.588  1.00  0.00     0.142 C 
BRANCH  19  20
ATOM     20  S   UNL A   1      27.777  30.524  22.885  1.00  0.00     0.147 S 
ATOM     21  C   UNL A   1      27.964  30.817  21.147  1.00  0.00     0.158 C 
ATOM     22  O   UNL A   1      27.254  31.762  23.445  1.00  0.00    -0.229 OA
ATOM     23  O   UNL A   1      27.051  29.284  23.040  1.00  0.00    -0.229 OA
ENDBRANCH  19  20
ENDBRANCH  18  19
ENDBRANCH  17  18
ENDBRANCH   9  17
ENDBRANCH   7   8
ENDBRANCH   4   7
ENDBRANCH   2   3
ENDBRANCH   1   2
BRANCH   1  24
ATOM     24  C   UNL A   1      38.825  23.265  26.458  1.00  0.00     0.002 C 
BRANCH  24  25
ATOM     25  C   UNL A   1      39.872  22.302  27.023  1.00  0.00     0.002 C 
BRANCH  25  26
ATOM     26  C   UNL A   1      40.129  21.037  26.199  1.00  0.00     0.021 C 
BRANCH  26  27
ATOM     27  C   UNL A   1      41.064  20.014  26.839  1.00  0.00     0.116 C 
BRANCH  27  28
ATOM     28  N   UNL A   1      42.275  19.807  26.063  1.00  0.00    -0.352 N 
ATOM     29  C   UNL A   1      43.222  20.705  25.645  1.00  0.00     0.251 C 
ATOM     30  H   UNL A   1      42.440  18.874  25.794  1.00  0.00     0.163 HD
ATOM     31  O   UNL A   1      44.063  20.368  24.816  1.00  0.00    -0.269 OA
BRANCH  29  32
ATOM     32  C   UNL A   1      43.239  22.080  26.183  1.00  0.00     0.039 A 
ATOM     33  C   UNL A   1      43.382  22.264  27.561  1.00  0.00     0.014 A 
ATOM     34  C   UNL A   1      43.072  23.186  25.343  1.00  0.00     0.014 A 
ATOM     35  C   UNL A   1      43.406  23.555  28.090  1.00  0.00     0.010 A 
ATOM     36  C   UNL A   1      43.175  24.473  25.861  1.00  0.00     0.010 A 
ATOM     37  C   UNL A   1      43.332  24.671  27.241  1.00  0.00    -0.014 A 
BRANCH  37  38
ATOM     38  C   UNL A   1      43.412  26.050  27.785  1.00  0.00     0.031 A 
ATOM     39  C   UNL A   1      44.747  26.677  28.079  1.00  0.00     0.074 A 
ATOM     40  C   UNL A   1      42.276  26.722  28.056  1.00  0.00     0.049 A 
ATOM     41  N   UNL A   1      45.014  27.857  28.578  1.00  0.00    -0.248 NA
ATOM     42  C   UNL A   1      45.941  25.863  27.795  1.00  0.00     0.031 C 
ATOM     43  C   UNL A   1      40.919  26.211  27.851  1.00  0.00     0.029 A 
ATOM     44  N   UNL A   1      42.083  27.982  28.564  1.00  0.00    -0.354 N 
ATOM     45  C   UNL A   1      46.398  27.921  28.681  1.00  0.00     0.074 A 
ATOM     46  C   UNL A   1      46.913  26.642  28.244  1.00  0.00     0.031 C 
ATOM     47  C   UNL A   1      40.035  27.160  28.197  1.00  0.00     0.029 A 
ATOM     48  C   UNL A   1      40.758  28.327  28.689  1.00  0.00     0.049 A 
ATOM     49  H   UNL A   1      42.823  28.581  28.816  1.00  0.00     0.167 HD
ATOM     50  C   UNL A   1      47.172  28.958  29.082  1.00  0.00     0.031 A 
ATOM     51  C   UNL A   1      40.190  29.456  29.153  1.00  0.00     0.031 A 
ATOM     52  C   UNL A   1      46.657  30.230  29.515  1.00  0.00     0.049 A 
ATOM     53  C   UNL A   1      41.072  30.582  29.617  1.00  0.00     0.074 A 
ATOM     54  C   UNL A   1      47.359  31.360  29.894  1.00  0.00     0.029 A 
ATOM     55  N   UNL A   1      45.310  30.537  29.633  1.00  0.00    -0.354 N 
ATOM     56  N   UNL A   1      42.381  30.652  29.641  1.00  0.00    -0.248 NA
ATOM     57  C   UNL A   1      40.395  31.791  30.105  1.00  0.00     0.031 C 
ATOM     58  C   UNL A   1      46.438  32.330  30.302  1.00  0.00     0.029 A 
ATOM     59  C   UNL A   1      45.160  31.830  30.108  1.00  0.00     0.049 A 
ATOM     60  H   UNL A   1      44.570  29.927  29.412  1.00  0.00     0.167 HD
ATOM     61  C   UNL A   1      42.684  31.922  30.117  1.00  0.00     0.074 A 
ATOM     62  C   UNL A   1      41.421  32.593  30.349  1.00  0.00     0.031 C 
ATOM     63  C   UNL A   1      43.897  32.483  30.339  1.00  0.00     0.031 A 
BRANCH  50  64
ATOM     64  C   UNL A   1      48.663  28.750  29.083  1.00  0.00    -0.014 A 
ATOM     65  C   UNL A   1      49.324  28.194  30.191  1.00  0.00     0.009 A 
ATOM     66  C   UNL A   1      49.415  29.082  27.946  1.00  0.00     0.009 A 
ATOM     67  C   UNL A   1      50.708  28.014  30.175  1.00  0.00     0.001 A 
ATOM     68  C   UNL A   1      50.795  28.870  27.919  1.00  0.00     0.001 A 
ATOM     69  C   UNL A   1      51.442  28.347  29.036  1.00  0.00     0.000 A 
ENDBRANCH  50  64
BRANCH  51  70
ATOM     70  C   UNL A   1      38.709  29.585  29.191  1.00  0.00    -0.014 A 
ATOM     71  C   UNL A   1      37.998  29.308  30.369  1.00  0.00     0.009 A 
ATOM     72  C   UNL A   1      37.997  29.978  28.047  1.00  0.00     0.009 A 
ATOM     73  C   UNL A   1      36.603  29.390  30.391  1.00  0.00     0.001 A 
ATOM     74  C   UNL A   1      36.606  30.091  28.080  1.00  0.00     0.001 A 
ATOM     75  C   UNL A   1      35.909  29.785  29.248  1.00  0.00     0.000 A 
ENDBRANCH  51  70
BRANCH  63  76
ATOM     76  C   UNL A   1      43.917  33.907  30.823  1.00  0.00    -0.014 A 
ATOM     77  C   UNL A   1      43.917  34.988  29.928  1.00  0.00     0.009 A 
ATOM     78  C   UNL A   1      43.906  34.169  32.203  1.00  0.00     0.009 A 
ATOM     79  C   UNL A   1      43.950  36.300  30.404  1.00  0.00     0.001 A 
ATOM     80  C   UNL A   1      43.901  35.481  32.676  1.00  0.00     0.001 A 
ATOM     81  C   UNL A   1      43.936  36.546  31.776  1.00  0.00     0.000 A 
ENDBRANCH  63  76
ENDBRANCH  37  38
ENDBRANCH  29  32
ENDBRANCH  27  28
ENDBRANCH  26  27
ENDBRANCH  25  26
ENDBRANCH  24  25
ENDBRANCH   1  24
TORSDOF 18
ENDMDL
MODEL 3
REMARK VINA RESULT:      -9.5      2.177      3.191
REMARK SMILES CS(=O)(=O)CCC[N@H+]1[C@@H]2CC[C@H]1C[C@H](CC(=O)NCCCCCCNC(=O)c1ccc(-c3c4nc(c(-c5ccccc5)c5ccc([nH]5)c(-c5ccccc5)c5nc(c(-c6ccccc6)c6ccc3[nH]6)C=C5)C=C4)cc1)C2
REMARK SMILES IDX 20 1 19 2 18 3 16 4 17 5 15 7 14 8 8 9 9 10 12 11 10 13
REMARK SMILES IDX 76 14 11 15 13 16 7 17 6 18 5 19 2 20 1 21 3 22 4 23 21 24
REMARK SMILES IDX 22 25 23 26 24 27 25 28 26 29 27 31 28 32 29 33 75 34 30 35
REMARK SMILES IDX 74 36 31 37 32 38 33 39 68 40 34 41 73 42 67 43 69 44 35 45
REMARK SMILES IDX 72 46 66 47 65 48 36 50 58 51 43 52 57 53 44 54 47 55 56 56
REMARK SMILES IDX 70 57 45 58 46 59 55 61 71 62 48 63 37 64 38 65 42 66 39 67
REMARK SMILES IDX 41 68 40 69 59 70 60 71 64 72 61 73 63 74 62 75 49 76 50 77
REMARK SMILES IDX 54 78 51 79 53 80 52 81
REMARK H PARENT 18 6 8 12 25 30 69 49 47 60
REMARK Flexibility Score: inf
ROOT
ATOM      1  C   UNL A   1      34.797  32.183  28.956  1.00  0.00     0.021 C 
ENDROOT
BRANCH   1   2
ATOM      2  C   UNL A   1      34.423  31.468  27.645  1.00  0.00     0.116 C 
BRANCH   2   3
ATOM      3  N   UNL A   1      33.605  30.286  27.884  1.00  0.00    -0.356 N 
ATOM      4  C   UNL A   1      32.646  29.620  27.189  1.00  0.00     0.220 C 
ATOM      5  O   UNL A   1      32.250  28.561  27.687  1.00  0.00    -0.275 OA
ATOM      6  H   UNL A   1      33.791  29.873  28.758  1.00  0.00     0.163 HD
BRANCH   4   7
ATOM      7  C   UNL A   1      32.099  30.052  25.829  1.00  0.00     0.104 C 
BRANCH   7   8
ATOM      8  C   UNL A   1      32.216  29.081  24.631  1.00  0.00     0.010 C 
ATOM      9  N   UNL A   1      32.627  26.112  24.287  1.00  0.00    -0.330 N 
ATOM     10  C   UNL A   1      31.376  26.754  23.832  1.00  0.00     0.184 C 
ATOM     11  C   UNL A   1      33.647  27.053  23.841  1.00  0.00     0.184 C 
ATOM     12  H   UNL A   1      32.841  25.200  23.884  1.00  0.00     0.348 HD
ATOM     13  C   UNL A   1      31.728  27.077  22.374  1.00  0.00     0.071 C 
ATOM     14  C   UNL A   1      31.058  28.049  24.627  1.00  0.00     0.069 C 
ATOM     15  C   UNL A   1      33.245  27.265  22.378  1.00  0.00     0.071 C 
ATOM     16  C   UNL A   1      33.566  28.372  24.605  1.00  0.00     0.069 C 
BRANCH   9  17
ATOM     17  C   UNL A   1      32.587  25.622  25.665  1.00  0.00     0.263 C 
BRANCH  17  18
ATOM     18  C   UNL A   1      33.615  24.566  26.116  1.00  0.00     0.077 C 
BRANCH  18  19
ATOM     19  C   UNL A   1      33.585  23.203  25.433  1.00  0.00     0.142 C 
BRANCH  19  20
ATOM     20  S   UNL A   1      34.040  21.776  26.420  1.00  0.00     0.147 S 
ATOM     21  C   UNL A   1      33.307  20.345  25.674  1.00  0.00     0.158 C 
ATOM     22  O   UNL A   1      33.369  21.948  27.701  1.00  0.00    -0.229 OA
ATOM     23  O   UNL A   1      35.474  21.611  26.359  1.00  0.00    -0.229 OA
ENDBRANCH  19  20
ENDBRANCH  18  19
ENDBRANCH  17  18
ENDBRANCH   9  17
ENDBRANCH   7   8
ENDBRANCH   4   7
ENDBRANCH   2   3
ENDBRANCH   1   2
BRANCH   1  24
ATOM     24  C   UNL A   1      35.537  33.509  28.775  1.00  0.00     0.002 C 
BRANCH  24  25
ATOM     25  C   UNL A   1      34.774  34.570  27.976  1.00  0.00     0.002 C 
BRANCH  25  26
ATOM     26  C   UNL A   1      33.993  35.594  28.804  1.00  0.00     0.021 C 
BRANCH  26  27
ATOM     27  C   UNL A   1      32.859  35.025  29.653  1.00  0.00     0.116 C 
BRANCH  27  28
ATOM     28  N   UNL A   1      32.508  35.895  30.763  1.00  0.00    -0.352 N 
ATOM     29  C   UNL A   1      32.986  35.928  32.047  1.00  0.00     0.251 C 
ATOM     30  H   UNL A   1      31.816  36.566  30.561  1.00  0.00     0.163 HD
ATOM     31  O   UNL A   1      32.410  36.599  32.899  1.00  0.00    -0.269 OA
BRANCH  29  32
ATOM     32  C   UNL A   1      34.192  35.159  32.416  1.00  0.00     0.039 A 
ATOM     33  C   UNL A   1      34.036  33.892  32.984  1.00  0.00     0.014 A 
ATOM     34  C   UNL A   1      35.471  35.696  32.243  1.00  0.00     0.014 A 
ATOM     35  C   UNL A   1      35.161  33.145  33.334  1.00  0.00     0.010 A 
ATOM     36  C   UNL A   1      36.593  34.920  32.519  1.00  0.00     0.010 A 
ATOM     37  C   UNL A   1      36.450  33.641  33.078  1.00  0.00    -0.014 A 
BRANCH  37  38
ATOM     38  C   UNL A   1      37.655  32.834  33.394  1.00  0.00     0.031 A 
ATOM     39  C   UNL A   1      38.425  33.080  34.663  1.00  0.00     0.074 A 
ATOM     40  C   UNL A   1      38.083  31.909  32.514  1.00  0.00     0.049 A 
ATOM     41  N   UNL A   1      39.512  32.495  35.096  1.00  0.00    -0.248 NA
ATOM     42  C   UNL A   1      37.919  34.138  35.554  1.00  0.00     0.031 C 
ATOM     43  C   UNL A   1      37.446  31.600  31.231  1.00  0.00     0.029 A 
ATOM     44  N   UNL A   1      39.156  31.055  32.565  1.00  0.00    -0.354 N 
ATOM     45  C   UNL A   1      39.827  33.120  36.296  1.00  0.00     0.074 A 
ATOM     46  C   UNL A   1      38.848  34.166  36.497  1.00  0.00     0.031 C 
ATOM     47  C   UNL A   1      38.121  30.604  30.635  1.00  0.00     0.029 A 
ATOM     48  C   UNL A   1      39.259  30.235  31.467  1.00  0.00     0.049 A 
ATOM     49  H   UNL A   1      39.792  31.033  33.317  1.00  0.00     0.167 HD
ATOM     50  C   UNL A   1      40.827  32.836  37.165  1.00  0.00     0.031 A 
ATOM     51  C   UNL A   1      40.172  29.294  31.163  1.00  0.00     0.031 A 
ATOM     52  C   UNL A   1      41.798  31.795  36.964  1.00  0.00     0.049 A 
ATOM     53  C   UNL A   1      41.288  29.016  32.133  1.00  0.00     0.074 A 
ATOM     54  C   UNL A   1      42.821  31.395  37.807  1.00  0.00     0.029 A 
ATOM     55  N   UNL A   1      41.873  30.991  35.837  1.00  0.00    -0.354 N 
ATOM     56  N   UNL A   1      41.530  29.569  33.297  1.00  0.00    -0.248 NA
ATOM     57  C   UNL A   1      42.249  27.973  31.749  1.00  0.00     0.031 C 
ATOM     58  C   UNL A   1      43.552  30.393  37.163  1.00  0.00     0.029 A 
ATOM     59  C   UNL A   1      42.942  30.117  35.949  1.00  0.00     0.049 A 
ATOM     60  H   UNL A   1      41.257  31.034  35.070  1.00  0.00     0.167 HD
ATOM     61  C   UNL A   1      42.651  28.920  33.799  1.00  0.00     0.074 A 
ATOM     62  C   UNL A   1      43.027  27.920  32.821  1.00  0.00     0.031 C 
ATOM     63  C   UNL A   1      43.308  29.131  34.965  1.00  0.00     0.031 A 
BRANCH  50  64
ATOM     64  C   UNL A   1      40.925  33.679  38.409  1.00  0.00    -0.014 A 
ATOM     65  C   UNL A   1      40.272  33.309  39.596  1.00  0.00     0.009 A 
ATOM     66  C   UNL A   1      41.713  34.840  38.405  1.00  0.00     0.009 A 
ATOM     67  C   UNL A   1      40.370  34.107  40.739  1.00  0.00     0.001 A 
ATOM     68  C   UNL A   1      41.838  35.618  39.558  1.00  0.00     0.001 A 
ATOM     69  C   UNL A   1      41.158  35.257  40.720  1.00  0.00     0.000 A 
ENDBRANCH  50  64
BRANCH  51  70
ATOM     70  C   UNL A   1      40.065  28.534  29.890  1.00  0.00    -0.014 A 
ATOM     71  C   UNL A   1      40.634  29.035  28.708  1.00  0.00     0.009 A 
ATOM     72  C   UNL A   1      39.386  27.306  29.846  1.00  0.00     0.009 A 
ATOM     73  C   UNL A   1      40.497  28.339  27.504  1.00  0.00     0.001 A 
ATOM     74  C   UNL A   1      39.278  26.597  28.648  1.00  0.00     0.001 A 
ATOM     75  C   UNL A   1      39.823  27.120  27.476  1.00  0.00     0.000 A 
ENDBRANCH  51  70
BRANCH  63  76
ATOM     76  C   UNL A   1      44.479  28.236  35.265  1.00  0.00    -0.014 A 
ATOM     77  C   UNL A   1      45.795  28.624  34.972  1.00  0.00     0.009 A 
ATOM     78  C   UNL A   1      44.259  26.992  35.880  1.00  0.00     0.009 A 
ATOM     79  C   UNL A   1      46.863  27.767  35.248  1.00  0.00     0.001 A 
ATOM     80  C   UNL A   1      45.331  26.154  36.188  1.00  0.00     0.001 A 
ATOM     81  C   UNL A   1      46.631  26.536  35.861  1.00  0.00     0.000 A 
ENDBRANCH  63  76
ENDBRANCH  37  38
ENDBRANCH  29  32
ENDBRANCH  27  28
ENDBRANCH  26  27
ENDBRANCH  25  26
ENDBRANCH  24  25
ENDBRANCH   1  24
TORSDOF 18
ENDMDL
