MODEL 1
REMARK VINA RESULT:     -10.6      0.000      0.000
REMARK SMILES CC1(C)C(C(=O)Nc2ccc(CC(=O)NCCCCCCNC(=O)c3ccc(-c4c5nc(c(-c6ccccc6)c6ccc([nH]6)c(-c6ccccc6)c6nc(c(-c7ccccc7)c7ccc4[nH]7)C=C6)C=C5)cc3)cc2)C1(C)C
REMARK SMILES IDX 18 1 17 2 16 3 15 4 13 5 14 6 12 8 11 9 8 10 9 11 74 12
REMARK SMILES IDX 10 13 73 14 7 15 5 16 6 17 4 19 1 20 2 21 3 22 75 23 76 24
REMARK SMILES IDX 77 25 19 26 20 27 21 28 22 29 23 30 24 32 25 33 26 34 72 35
REMARK SMILES IDX 27 36 71 37 28 38 29 39 30 40 65 41 31 42 70 43 64 44 66 45
REMARK SMILES IDX 32 46 69 47 63 48 62 49 33 51 55 52 40 53 54 54 41 55 44 56
REMARK SMILES IDX 53 57 67 58 42 59 43 60 52 62 68 63 45 64 34 65 35 66 39 67
REMARK SMILES IDX 36 68 38 69 37 70 56 71 57 72 61 73 58 74 60 75 59 76 46 77
REMARK SMILES IDX 47 78 51 79 48 80 50 81 49 82
REMARK H PARENT 15 7 7 18 22 31 66 50 44 61
REMARK Flexibility Score: inf
ROOT
ATOM      1  C   UNL A   1      41.770  21.833  26.632  1.00  0.00     0.002 C 
ENDROOT
BRANCH   1   2
ATOM      2  C   UNL A   1      40.391  22.480  26.769  1.00  0.00     0.021 C 
BRANCH   2   3
ATOM      3  C   UNL A   1      39.262  21.654  26.146  1.00  0.00     0.116 C 
BRANCH   3   4
ATOM      4  N   UNL A   1      38.400  22.489  25.336  1.00  0.00    -0.356 N 
ATOM      5  C   UNL A   1      37.273  22.144  24.646  1.00  0.00     0.224 C 
ATOM      6  O   UNL A   1      36.769  22.979  23.892  1.00  0.00    -0.275 OA
ATOM      7  H   UNL A   1      38.662  23.435  25.274  1.00  0.00     0.163 HD
BRANCH   5   8
ATOM      8  C   UNL A   1      36.621  20.797  24.870  1.00  0.00     0.135 C 
BRANCH   8   9
ATOM      9  C   UNL A   1      35.182  20.818  25.322  1.00  0.00    -0.039 A 
ATOM     10  C   UNL A   1      32.513  21.365  25.921  1.00  0.00     0.041 A 
ATOM     11  C   UNL A   1      32.811  20.510  24.861  1.00  0.00     0.026 A 
ATOM     12  C   UNL A   1      33.505  21.696  26.825  1.00  0.00     0.026 A 
ATOM     13  C   UNL A   1      34.156  20.226  24.570  1.00  0.00     0.006 A 
ATOM     14  C   UNL A   1      34.831  21.522  26.476  1.00  0.00     0.006 A 
BRANCH  10  15
ATOM     15  N   UNL A   1      31.282  22.036  25.981  1.00  0.00    -0.326 N 
ATOM     16  C   UNL A   1      31.185  23.398  26.215  1.00  0.00     0.228 C 
ATOM     17  O   UNL A   1      30.861  23.830  27.313  1.00  0.00    -0.274 OA
ATOM     18  H   UNL A   1      30.454  21.518  25.852  1.00  0.00     0.169 HD
BRANCH  16  19
ATOM     19  C   UNL A   1      31.184  24.347  25.043  1.00  0.00     0.091 C 
ATOM     20  C   UNL A   1      30.591  26.841  24.592  1.00  0.00     0.012 C 
ATOM     21  C   UNL A   1      31.595  25.832  25.109  1.00  0.00    -0.017 C 
ATOM     22  C   UNL A   1      32.404  26.451  26.227  1.00  0.00     0.012 C 
ATOM     23  C   UNL A   1      32.298  24.852  24.137  1.00  0.00    -0.017 C 
ATOM     24  C   UNL A   1      31.988  24.948  22.655  1.00  0.00     0.012 C 
ATOM     25  C   UNL A   1      33.743  24.465  24.336  1.00  0.00     0.012 C 
ENDBRANCH  16  19
ENDBRANCH  10  15
ENDBRANCH   8   9
ENDBRANCH   5   8
ENDBRANCH   3   4
ENDBRANCH   2   3
ENDBRANCH   1   2
BRANCH   1  26
ATOM     26  C   UNL A   1      41.998  20.638  27.557  1.00  0.00     0.002 C 
BRANCH  26  27
ATOM     27  C   UNL A   1      42.593  19.403  26.874  1.00  0.00     0.021 C 
BRANCH  27  28
ATOM     28  C   UNL A   1      42.491  19.412  25.352  1.00  0.00     0.116 C 
BRANCH  28  29
ATOM     29  N   UNL A   1      43.729  18.969  24.732  1.00  0.00    -0.352 N 
ATOM     30  C   UNL A   1      44.825  19.693  24.345  1.00  0.00     0.251 C 
ATOM     31  H   UNL A   1      43.789  18.000  24.565  1.00  0.00     0.163 HD
ATOM     32  O   UNL A   1      45.671  19.182  23.619  1.00  0.00    -0.269 OA
BRANCH  30  33
ATOM     33  C   UNL A   1      44.994  21.090  24.798  1.00  0.00     0.039 A 
ATOM     34  C   UNL A   1      45.484  21.322  26.085  1.00  0.00     0.014 A 
ATOM     35  C   UNL A   1      44.616  22.165  23.987  1.00  0.00     0.014 A 
ATOM     36  C   UNL A   1      45.622  22.630  26.549  1.00  0.00     0.010 A 
ATOM     37  C   UNL A   1      44.820  23.471  24.424  1.00  0.00     0.010 A 
ATOM     38  C   UNL A   1      45.305  23.716  25.717  1.00  0.00    -0.014 A 
BRANCH  38  39
ATOM     39  C   UNL A   1      45.442  25.109  26.207  1.00  0.00     0.031 A 
ATOM     40  C   UNL A   1      46.775  25.804  26.149  1.00  0.00     0.074 A 
ATOM     41  C   UNL A   1      44.372  25.742  26.725  1.00  0.00     0.049 A 
ATOM     42  N   UNL A   1      47.089  27.019  26.524  1.00  0.00    -0.248 NA
ATOM     43  C   UNL A   1      47.909  25.029  25.621  1.00  0.00     0.031 C 
ATOM     44  C   UNL A   1      43.036  25.163  26.878  1.00  0.00     0.029 A 
ATOM     45  N   UNL A   1      44.242  27.016  27.215  1.00  0.00    -0.354 N 
ATOM     46  C   UNL A   1      48.451  27.149  26.283  1.00  0.00     0.074 A 
ATOM     47  C   UNL A   1      48.916  25.872  25.787  1.00  0.00     0.031 C 
ATOM     48  C   UNL A   1      42.215  26.088  27.399  1.00  0.00     0.029 A 
ATOM     49  C   UNL A   1      42.971  27.313  27.643  1.00  0.00     0.049 A 
ATOM     50  H   UNL A   1      44.987  27.656  27.259  1.00  0.00     0.167 HD
ATOM     51  C   UNL A   1      49.242  28.238  26.435  1.00  0.00     0.031 A 
ATOM     52  C   UNL A   1      42.469  28.445  28.168  1.00  0.00     0.031 A 
ATOM     53  C   UNL A   1      48.782  29.510  26.925  1.00  0.00     0.049 A 
ATOM     54  C   UNL A   1      43.366  29.641  28.326  1.00  0.00     0.074 A 
ATOM     55  C   UNL A   1      49.497  30.683  27.084  1.00  0.00     0.029 A 
ATOM     56  N   UNL A   1      47.485  29.772  27.334  1.00  0.00    -0.354 N 
ATOM     57  N   UNL A   1      44.638  29.765  28.033  1.00  0.00    -0.248 NA
ATOM     58  C   UNL A   1      42.750  30.860  28.866  1.00  0.00     0.031 C 
ATOM     59  C   UNL A   1      48.640  31.647  27.627  1.00  0.00     0.029 A 
ATOM     60  C   UNL A   1      47.379  31.087  27.755  1.00  0.00     0.049 A 
ATOM     61  H   UNL A   1      46.747  29.121  27.325  1.00  0.00     0.167 HD
ATOM     62  C   UNL A   1      44.968  31.080  28.333  1.00  0.00     0.074 A 
ATOM     63  C   UNL A   1      43.758  31.719  28.805  1.00  0.00     0.031 C 
ATOM     64  C   UNL A   1      46.168  31.703  28.227  1.00  0.00     0.031 A 
BRANCH  51  65
ATOM     65  C   UNL A   1      50.691  28.094  26.059  1.00  0.00    -0.014 A 
ATOM     66  C   UNL A   1      51.125  28.351  24.748  1.00  0.00     0.009 A 
ATOM     67  C   UNL A   1      51.637  27.722  27.026  1.00  0.00     0.009 A 
ATOM     68  C   UNL A   1      52.471  28.202  24.406  1.00  0.00     0.001 A 
ATOM     69  C   UNL A   1      52.986  27.601  26.688  1.00  0.00     0.001 A 
ATOM     70  C   UNL A   1      53.400  27.832  25.377  1.00  0.00     0.000 A 
ENDBRANCH  51  65
BRANCH  52  71
ATOM     71  C   UNL A   1      41.039  28.513  28.566  1.00  0.00    -0.014 A 
ATOM     72  C   UNL A   1      40.643  28.173  29.868  1.00  0.00     0.009 A 
ATOM     73  C   UNL A   1      40.061  28.905  27.639  1.00  0.00     0.009 A 
ATOM     74  C   UNL A   1      39.292  28.193  30.225  1.00  0.00     0.001 A 
ATOM     75  C   UNL A   1      38.715  28.952  28.007  1.00  0.00     0.001 A 
ATOM     76  C   UNL A   1      38.331  28.586  29.296  1.00  0.00     0.000 A 
ENDBRANCH  52  71
BRANCH  64  77
ATOM     77  C   UNL A   1      46.214  33.157  28.605  1.00  0.00    -0.014 A 
ATOM     78  C   UNL A   1      46.518  33.561  29.914  1.00  0.00     0.009 A 
ATOM     79  C   UNL A   1      45.970  34.136  27.629  1.00  0.00     0.009 A 
ATOM     80  C   UNL A   1      46.535  34.916  30.248  1.00  0.00     0.001 A 
ATOM     81  C   UNL A   1      46.017  35.491  27.959  1.00  0.00     0.001 A 
ATOM     82  C   UNL A   1      46.287  35.879  29.270  1.00  0.00     0.000 A 
ENDBRANCH  64  77
ENDBRANCH  38  39
ENDBRANCH  30  33
ENDBRANCH  28  29
ENDBRANCH  27  28
ENDBRANCH  26  27
ENDBRANCH   1  26
TORSDOF 16
ENDMDL
MODEL 2
REMARK VINA RESULT:     -10.6      0.345      5.886
REMARK SMILES CC1(C)C(C(=O)Nc2ccc(CC(=O)NCCCCCCNC(=O)c3ccc(-c4c5nc(c(-c6ccccc6)c6ccc([nH]6)c(-c6ccccc6)c6nc(c(-c7ccccc7)c7ccc4[nH]7)C=C6)C=C5)cc3)cc2)C1(C)C
REMARK SMILES IDX 18 1 17 2 16 3 15 4 13 5 14 6 12 8 11 9 8 10 9 11 74 12
REMARK SMILES IDX 10 13 73 14 7 15 5 16 6 17 4 19 1 20 2 21 3 22 75 23 76 24
REMARK SMILES IDX 77 25 19 26 20 27 21 28 22 29 23 30 24 32 25 33 26 34 72 35
REMARK SMILES IDX 27 36 71 37 28 38 29 39 30 40 65 41 31 42 70 43 64 44 66 45
REMARK SMILES IDX 32 46 69 47 63 48 62 49 33 51 55 52 40 53 54 54 41 55 44 56
REMARK SMILES IDX 53 57 67 58 42 59 43 60 52 62 68 63 45 64 34 65 35 66 39 67
REMARK SMILES IDX 36 68 38 69 37 70 56 71 57 72 61 73 58 74 60 75 59 76 46 77
REMARK SMILES IDX 47 78 51 79 48 80 50 81 49 82
REMARK H PARENT 15 7 7 18 22 31 66 50 44 61
REMARK Flexibility Score: inf
ROOT
ATOM      1  C   UNL A   1      41.817  21.792  26.778  1.00  0.00     0.002 C 
ENDROOT
BRANCH   1   2
ATOM      2  C   UNL A   1      40.473  22.517  26.862  1.00  0.00     0.021 C 
BRANCH   2   3
ATOM      3  C   UNL A   1      39.303  21.708  26.294  1.00  0.00     0.116 C 
BRANCH   3   4
ATOM      4  N   UNL A   1      38.486  22.527  25.423  1.00  0.00    -0.356 N 
ATOM      5  C   UNL A   1      37.391  22.171  24.689  1.00  0.00     0.224 C 
ATOM      6  O   UNL A   1      36.929  22.989  23.892  1.00  0.00    -0.275 OA
ATOM      7  H   UNL A   1      38.757  23.470  25.350  1.00  0.00     0.163 HD
BRANCH   5   8
ATOM      8  C   UNL A   1      36.720  20.833  24.916  1.00  0.00     0.135 C 
BRANCH   8   9
ATOM      9  C   UNL A   1      35.291  20.875  25.396  1.00  0.00    -0.039 A 
ATOM     10  C   UNL A   1      32.639  21.456  26.037  1.00  0.00     0.041 A 
ATOM     11  C   UNL A   1      32.909  20.577  24.989  1.00  0.00     0.026 A 
ATOM     12  C   UNL A   1      33.651  21.797  26.914  1.00  0.00     0.026 A 
ATOM     13  C   UNL A   1      34.245  20.275  24.677  1.00  0.00     0.006 A 
ATOM     14  C   UNL A   1      34.969  21.606  26.542  1.00  0.00     0.006 A 
BRANCH  10  15
ATOM     15  N   UNL A   1      31.414  22.138  26.108  1.00  0.00    -0.326 N 
ATOM     16  C   UNL A   1      31.334  23.510  26.277  1.00  0.00     0.228 C 
ATOM     17  O   UNL A   1      31.051  23.997  27.364  1.00  0.00    -0.274 OA
ATOM     18  H   UNL A   1      30.580  21.620  26.034  1.00  0.00     0.169 HD
BRANCH  16  19
ATOM     19  C   UNL A   1      31.296  24.400  25.061  1.00  0.00     0.091 C 
ATOM     20  C   UNL A   1      30.760  26.890  24.519  1.00  0.00     0.012 C 
ATOM     21  C   UNL A   1      31.758  25.872  25.030  1.00  0.00    -0.017 C 
ATOM     22  C   UNL A   1      32.650  26.515  26.068  1.00  0.00     0.012 C 
ATOM     23  C   UNL A   1      32.371  24.821  24.070  1.00  0.00    -0.017 C 
ATOM     24  C   UNL A   1      31.980  24.856  22.604  1.00  0.00     0.012 C 
ATOM     25  C   UNL A   1      33.812  24.393  24.207  1.00  0.00     0.012 C 
ENDBRANCH  16  19
ENDBRANCH  10  15
ENDBRANCH   8   9
ENDBRANCH   5   8
ENDBRANCH   3   4
ENDBRANCH   2   3
ENDBRANCH   1   2
BRANCH   1  26
ATOM     26  C   UNL A   1      41.889  20.504  27.598  1.00  0.00     0.002 C 
BRANCH  26  27
ATOM     27  C   UNL A   1      42.475  19.301  26.854  1.00  0.00     0.021 C 
BRANCH  27  28
ATOM     28  C   UNL A   1      42.474  19.437  25.334  1.00  0.00     0.116 C 
BRANCH  28  29
ATOM     29  N   UNL A   1      43.724  18.973  24.756  1.00  0.00    -0.352 N 
ATOM     30  C   UNL A   1      44.843  19.679  24.405  1.00  0.00     0.251 C 
ATOM     31  H   UNL A   1      43.773  18.003  24.592  1.00  0.00     0.163 HD
ATOM     32  O   UNL A   1      45.705  19.153  23.709  1.00  0.00    -0.269 OA
BRANCH  30  33
ATOM     33  C   UNL A   1      45.020  21.073  24.863  1.00  0.00     0.039 A 
ATOM     34  C   UNL A   1      44.751  22.111  23.967  1.00  0.00     0.014 A 
ATOM     35  C   UNL A   1      45.505  21.360  26.143  1.00  0.00     0.014 A 
ATOM     36  C   UNL A   1      44.942  23.435  24.363  1.00  0.00     0.010 A 
ATOM     37  C   UNL A   1      45.627  22.682  26.561  1.00  0.00     0.010 A 
ATOM     38  C   UNL A   1      45.367  23.732  25.668  1.00  0.00    -0.014 A 
BRANCH  38  39
ATOM     39  C   UNL A   1      45.578  25.137  26.093  1.00  0.00     0.031 A 
ATOM     40  C   UNL A   1      44.434  25.941  26.647  1.00  0.00     0.074 A 
ATOM     41  C   UNL A   1      46.796  25.698  25.960  1.00  0.00     0.049 A 
ATOM     42  N   UNL A   1      44.426  27.179  27.074  1.00  0.00    -0.248 NA
ATOM     43  C   UNL A   1      43.122  25.277  26.710  1.00  0.00     0.031 C 
ATOM     44  C   UNL A   1      47.976  25.039  25.396  1.00  0.00     0.029 A 
ATOM     45  N   UNL A   1      47.241  26.951  26.294  1.00  0.00    -0.354 N 
ATOM     46  C   UNL A   1      43.113  27.441  27.449  1.00  0.00     0.074 A 
ATOM     47  C   UNL A   1      42.342  26.256  27.143  1.00  0.00     0.031 C 
ATOM     48  C   UNL A   1      49.017  25.885  25.450  1.00  0.00     0.029 A 
ATOM     49  C   UNL A   1      48.572  27.151  26.023  1.00  0.00     0.049 A 
ATOM     50  H   UNL A   1      46.662  27.642  26.689  1.00  0.00     0.167 HD
ATOM     51  C   UNL A   1      42.598  28.555  28.020  1.00  0.00     0.031 A 
ATOM     52  C   UNL A   1      49.349  28.232  26.219  1.00  0.00     0.031 A 
ATOM     53  C   UNL A   1      43.363  29.734  28.329  1.00  0.00     0.049 A 
ATOM     54  C   UNL A   1      48.755  29.457  26.856  1.00  0.00     0.074 A 
ATOM     55  C   UNL A   1      42.941  30.902  28.938  1.00  0.00     0.029 A 
ATOM     56  N   UNL A   1      44.712  29.891  28.051  1.00  0.00    -0.354 N 
ATOM     57  N   UNL A   1      47.526  29.664  27.263  1.00  0.00    -0.248 NA
ATOM     58  C   UNL A   1      49.664  30.590  27.081  1.00  0.00     0.031 C 
ATOM     59  C   UNL A   1      44.027  31.783  28.994  1.00  0.00     0.029 A 
ATOM     60  C   UNL A   1      45.137  31.141  28.467  1.00  0.00     0.049 A 
ATOM     61  H   UNL A   1      45.283  29.214  27.623  1.00  0.00     0.167 HD
ATOM     62  C   UNL A   1      47.519  30.940  27.811  1.00  0.00     0.074 A 
ATOM     63  C   UNL A   1      48.871  31.448  27.707  1.00  0.00     0.031 C 
ATOM     64  C   UNL A   1      46.485  31.631  28.351  1.00  0.00     0.031 A 
BRANCH  51  65
ATOM     65  C   UNL A   1      41.132  28.543  28.352  1.00  0.00    -0.014 A 
ATOM     66  C   UNL A   1      40.674  28.049  29.585  1.00  0.00     0.009 A 
ATOM     67  C   UNL A   1      40.198  29.052  27.437  1.00  0.00     0.009 A 
ATOM     68  C   UNL A   1      39.309  28.031  29.879  1.00  0.00     0.001 A 
ATOM     69  C   UNL A   1      38.836  29.058  27.744  1.00  0.00     0.001 A 
ATOM     70  C   UNL A   1      38.392  28.539  28.960  1.00  0.00     0.000 A 
ENDBRANCH  51  65
BRANCH  52  71
ATOM     71  C   UNL A   1      50.782  28.202  25.827  1.00  0.00    -0.014 A 
ATOM     72  C   UNL A   1      51.173  28.537  24.521  1.00  0.00     0.009 A 
ATOM     73  C   UNL A   1      51.765  27.822  26.754  1.00  0.00     0.009 A 
ATOM     74  C   UNL A   1      52.515  28.462  24.144  1.00  0.00     0.001 A 
ATOM     75  C   UNL A   1      53.109  27.777  26.381  1.00  0.00     0.001 A 
ATOM     76  C   UNL A   1      53.482  28.086  25.074  1.00  0.00     0.000 A 
ENDBRANCH  52  71
BRANCH  64  77
ATOM     77  C   UNL A   1      46.790  32.998  28.895  1.00  0.00    -0.014 A 
ATOM     78  C   UNL A   1      47.204  33.178  30.224  1.00  0.00     0.009 A 
ATOM     79  C   UNL A   1      46.681  34.120  28.059  1.00  0.00     0.009 A 
ATOM     80  C   UNL A   1      47.462  34.459  30.716  1.00  0.00     0.001 A 
ATOM     81  C   UNL A   1      46.968  35.396  28.544  1.00  0.00     0.001 A 
ATOM     82  C   UNL A   1      47.347  35.565  29.875  1.00  0.00     0.000 A 
ENDBRANCH  64  77
ENDBRANCH  38  39
ENDBRANCH  30  33
ENDBRANCH  28  29
ENDBRANCH  27  28
ENDBRANCH  26  27
ENDBRANCH   1  26
TORSDOF 16
ENDMDL
MODEL 3
REMARK VINA RESULT:     -10.2      3.804      8.240
REMARK SMILES CC1(C)C(C(=O)Nc2ccc(CC(=O)NCCCCCCNC(=O)c3ccc(-c4c5nc(c(-c6ccccc6)c6ccc([nH]6)c(-c6ccccc6)c6nc(c(-c7ccccc7)c7ccc4[nH]7)C=C6)C=C5)cc3)cc2)C1(C)C
REMARK SMILES IDX 18 1 17 2 16 3 15 4 13 5 14 6 12 8 11 9 8 10 9 11 74 12
REMARK SMILES IDX 10 13 73 14 7 15 5 16 6 17 4 19 1 20 2 21 3 22 75 23 76 24
REMARK SMILES IDX 77 25 19 26 20 27 21 28 22 29 23 30 24 32 25 33 26 34 72 35
REMARK SMILES IDX 27 36 71 37 28 38 29 39 30 40 65 41 31 42 70 43 64 44 66 45
REMARK SMILES IDX 32 46 69 47 63 48 62 49 33 51 55 52 40 53 54 54 41 55 44 56
REMARK SMILES IDX 53 57 67 58 42 59 43 60 52 62 68 63 45 64 34 65 35 66 39 67
REMARK SMILES IDX 36 68 38 69 37 70 56 71 57 72 61 73 58 74 60 75 59 76 46 77
REMARK SMILES IDX 47 78 51 79 48 80 50 81 49 82
REMARK H PARENT 15 7 7 18 22 31 66 50 44 61
REMARK Flexibility Score: inf
ROOT
ATOM      1  C   UNL A   1      34.672  25.265  26.086  1.00  0.00     0.002 C 
ENDROOT
BRANCH   1   2
ATOM      2  C   UNL A   1      35.126  24.495  24.846  1.00  0.00     0.021 C 
BRANCH   2   3
ATOM      3  C   UNL A   1      36.069  23.329  25.160  1.00  0.00     0.116 C 
BRANCH   3   4
ATOM      4  N   UNL A   1      35.681  22.671  26.390  1.00  0.00    -0.356 N 
ATOM      5  C   UNL A   1      34.729  21.712  26.587  1.00  0.00     0.224 C 
ATOM      6  O   UNL A   1      34.450  21.392  27.744  1.00  0.00    -0.275 OA
ATOM      7  H   UNL A   1      36.170  22.955  27.196  1.00  0.00     0.163 HD
BRANCH   5   8
ATOM      8  C   UNL A   1      34.097  21.008  25.405  1.00  0.00     0.135 C 
BRANCH   8   9
ATOM      9  C   UNL A   1      32.862  21.652  24.826  1.00  0.00    -0.039 A 
ATOM     10  C   UNL A   1      30.863  23.320  23.826  1.00  0.00     0.041 A 
ATOM     11  C   UNL A   1      31.652  22.593  22.935  1.00  0.00     0.026 A 
ATOM     12  C   UNL A   1      30.882  22.996  25.169  1.00  0.00     0.026 A 
ATOM     13  C   UNL A   1      32.649  21.744  23.442  1.00  0.00     0.006 A 
ATOM     14  C   UNL A   1      31.936  22.259  25.677  1.00  0.00     0.006 A 
BRANCH  10  15
ATOM     15  N   UNL A   1      30.194  24.483  23.413  1.00  0.00    -0.326 N 
ATOM     16  C   UNL A   1      30.306  25.687  24.089  1.00  0.00     0.228 C 
ATOM     17  O   UNL A   1      29.411  26.084  24.825  1.00  0.00    -0.274 OA
ATOM     18  H   UNL A   1      29.624  24.441  22.611  1.00  0.00     0.169 HD
BRANCH  16  19
ATOM     19  C   UNL A   1      31.389  26.656  23.692  1.00  0.00     0.091 C 
ATOM     20  C   UNL A   1      33.598  26.610  22.314  1.00  0.00     0.012 C 
ATOM     21  C   UNL A   1      32.085  26.687  22.315  1.00  0.00    -0.017 C 
ATOM     22  C   UNL A   1      31.545  26.032  21.064  1.00  0.00     0.012 C 
ATOM     23  C   UNL A   1      31.361  27.938  22.872  1.00  0.00    -0.017 C 
ATOM     24  C   UNL A   1      32.197  29.098  23.380  1.00  0.00     0.012 C 
ATOM     25  C   UNL A   1      30.102  28.459  22.223  1.00  0.00     0.012 C 
ENDBRANCH  16  19
ENDBRANCH  10  15
ENDBRANCH   8   9
ENDBRANCH   5   8
ENDBRANCH   3   4
ENDBRANCH   2   3
ENDBRANCH   1   2
BRANCH   1  26
ATOM     26  C   UNL A   1      33.589  26.309  25.816  1.00  0.00     0.002 C 
BRANCH  26  27
ATOM     27  C   UNL A   1      33.994  27.752  26.132  1.00  0.00     0.021 C 
BRANCH  27  28
ATOM     28  C   UNL A   1      33.417  28.299  27.434  1.00  0.00     0.116 C 
BRANCH  28  29
ATOM     29  N   UNL A   1      33.375  29.752  27.430  1.00  0.00    -0.352 N 
ATOM     30  C   UNL A   1      34.288  30.657  27.901  1.00  0.00     0.251 C 
ATOM     31  H   UNL A   1      32.567  30.146  27.026  1.00  0.00     0.163 HD
ATOM     32  O   UNL A   1      33.971  31.835  28.030  1.00  0.00    -0.269 OA
BRANCH  30  33
ATOM     33  C   UNL A   1      35.655  30.222  28.256  1.00  0.00     0.039 A 
ATOM     34  C   UNL A   1      36.650  30.271  27.277  1.00  0.00     0.014 A 
ATOM     35  C   UNL A   1      35.946  29.712  29.526  1.00  0.00     0.014 A 
ATOM     36  C   UNL A   1      37.940  29.835  27.576  1.00  0.00     0.010 A 
ATOM     37  C   UNL A   1      37.250  29.343  29.846  1.00  0.00     0.010 A 
ATOM     38  C   UNL A   1      38.254  29.381  28.867  1.00  0.00    -0.014 A 
BRANCH  38  39
ATOM     39  C   UNL A   1      39.623  28.910  29.191  1.00  0.00     0.031 A 
ATOM     40  C   UNL A   1      40.570  29.797  29.951  1.00  0.00     0.074 A 
ATOM     41  C   UNL A   1      40.022  27.690  28.780  1.00  0.00     0.049 A 
ATOM     42  N   UNL A   1      41.801  29.558  30.330  1.00  0.00    -0.248 NA
ATOM     43  C   UNL A   1      40.080  31.136  30.317  1.00  0.00     0.031 C 
ATOM     44  C   UNL A   1      39.215  26.753  27.997  1.00  0.00     0.029 A 
ATOM     45  N   UNL A   1      41.210  27.032  28.969  1.00  0.00    -0.354 N 
ATOM     46  C   UNL A   1      42.231  30.714  30.970  1.00  0.00     0.074 A 
ATOM     47  C   UNL A   1      41.153  31.674  30.876  1.00  0.00     0.031 C 
ATOM     48  C   UNL A   1      39.921  25.629  27.797  1.00  0.00     0.029 A 
ATOM     49  C   UNL A   1      41.236  25.777  28.411  1.00  0.00     0.049 A 
ATOM     50  H   UNL A   1      41.971  27.420  29.456  1.00  0.00     0.167 HD
ATOM     51  C   UNL A   1      43.405  30.950  31.602  1.00  0.00     0.031 A 
ATOM     52  C   UNL A   1      42.210  24.848  28.399  1.00  0.00     0.031 A 
ATOM     53  C   UNL A   1      44.477  29.996  31.699  1.00  0.00     0.049 A 
ATOM     54  C   UNL A   1      43.504  25.132  29.109  1.00  0.00     0.074 A 
ATOM     55  C   UNL A   1      45.693  30.127  32.347  1.00  0.00     0.029 A 
ATOM     56  N   UNL A   1      44.459  28.732  31.133  1.00  0.00    -0.354 N 
ATOM     57  N   UNL A   1      43.869  26.207  29.764  1.00  0.00    -0.248 NA
ATOM     58  C   UNL A   1      44.512  24.063  29.095  1.00  0.00     0.031 C 
ATOM     59  C   UNL A   1      46.427  28.954  32.138  1.00  0.00     0.029 A 
ATOM     60  C   UNL A   1      45.646  28.074  31.406  1.00  0.00     0.049 A 
ATOM     61  H   UNL A   1      43.712  28.356  30.613  1.00  0.00     0.167 HD
ATOM     62  C   UNL A   1      45.138  25.936  30.258  1.00  0.00     0.074 A 
ATOM     63  C   UNL A   1      45.468  24.587  29.849  1.00  0.00     0.031 C 
ATOM     64  C   UNL A   1      45.958  26.734  30.986  1.00  0.00     0.031 A 
BRANCH  51  65
ATOM     65  C   UNL A   1      43.583  32.298  32.242  1.00  0.00    -0.014 A 
ATOM     66  C   UNL A   1      44.159  33.366  31.533  1.00  0.00     0.009 A 
ATOM     67  C   UNL A   1      43.149  32.515  33.559  1.00  0.00     0.009 A 
ATOM     68  C   UNL A   1      44.331  34.610  32.143  1.00  0.00     0.001 A 
ATOM     69  C   UNL A   1      43.296  33.768  34.156  1.00  0.00     0.001 A 
ATOM     70  C   UNL A   1      43.895  34.812  33.451  1.00  0.00     0.000 A 
ENDBRANCH  51  65
BRANCH  52  71
ATOM     71  C   UNL A   1      41.993  23.550  27.708  1.00  0.00    -0.014 A 
ATOM     72  C   UNL A   1      42.454  23.353  26.398  1.00  0.00     0.009 A 
ATOM     73  C   UNL A   1      41.311  22.507  28.353  1.00  0.00     0.009 A 
ATOM     74  C   UNL A   1      42.208  22.148  25.735  1.00  0.00     0.001 A 
ATOM     75  C   UNL A   1      41.093  21.293  27.698  1.00  0.00     0.001 A 
ATOM     76  C   UNL A   1      41.532  21.118  26.386  1.00  0.00     0.000 A 
ENDBRANCH  52  71
BRANCH  64  77
ATOM     77  C   UNL A   1      47.277  26.150  31.406  1.00  0.00    -0.014 A 
ATOM     78  C   UNL A   1      47.458  25.602  32.686  1.00  0.00     0.009 A 
ATOM     79  C   UNL A   1      48.349  26.130  30.500  1.00  0.00     0.009 A 
ATOM     80  C   UNL A   1      48.698  25.084  33.064  1.00  0.00     0.001 A 
ATOM     81  C   UNL A   1      49.579  25.584  30.870  1.00  0.00     0.001 A 
ATOM     82  C   UNL A   1      49.755  25.073  32.155  1.00  0.00     0.000 A 
ENDBRANCH  64  77
ENDBRANCH  38  39
ENDBRANCH  30  33
ENDBRANCH  28  29
ENDBRANCH  27  28
ENDBRANCH  26  27
ENDBRANCH   1  26
TORSDOF 16
ENDMDL
