MODEL 1
REMARK VINA RESULT:      -9.7      0.000      0.000
REMARK SMILES O=C(CCCCc1nc(C[C@H]2CCCO2)no1)NCCCCCCNC(=O)c1ccc(-c2c3nc(c(-c4ccccc4)c4ccc([nH]4)c(-c4ccccc4)c4nc(c(-c5ccccc5)c5ccc2[nH]5)C=C4)C=C3)cc1
REMARK SMILES IDX 19 1 18 2 1 3 2 4 3 6 4 7 5 8 6 9 7 10 8 11 17 12 9 13 16 14
REMARK SMILES IDX 10 15 11 16 12 17 15 18 13 19 14 20 20 21 21 22 22 23 23 24
REMARK SMILES IDX 24 25 25 26 26 27 27 29 28 30 29 31 75 32 30 33 74 34 31 35
REMARK SMILES IDX 32 36 33 37 68 38 34 39 73 40 67 41 69 42 35 43 72 44 66 45
REMARK SMILES IDX 65 46 36 48 58 49 43 50 57 51 44 52 47 53 56 54 70 55 45 56
REMARK SMILES IDX 46 57 55 59 71 60 48 61 37 62 38 63 42 64 39 65 41 66 40 67
REMARK SMILES IDX 59 68 60 69 64 70 61 71 63 72 62 73 49 74 50 75 54 76 51 77
REMARK SMILES IDX 53 78 52 79
REMARK H PARENT 18 5 25 28 69 47 47 58
REMARK Flexibility Score: inf
ROOT
ATOM      1  C   UNL A   1      31.952  22.858  27.254  1.00  0.00     0.116 C 
ENDROOT
BRANCH   1   2
ATOM      2  N   UNL A   1      31.912  23.052  25.824  1.00  0.00    -0.356 N 
ATOM      3  O   UNL A   1      31.764  20.844  25.218  1.00  0.00    -0.275 OA
ATOM      4  C   UNL A   1      31.787  22.031  24.917  1.00  0.00     0.219 C 
ATOM      5  H   UNL A   1      31.980  23.972  25.480  1.00  0.00     0.163 HD
BRANCH   4   6
ATOM      6  C   UNL A   1      31.683  22.516  23.484  1.00  0.00     0.100 C 
BRANCH   6   7
ATOM      7  C   UNL A   1      33.037  22.539  22.772  1.00  0.00     0.010 C 
BRANCH   7   8
ATOM      8  C   UNL A   1      33.609  23.915  22.382  1.00  0.00     0.010 C 
BRANCH   8   9
ATOM      9  C   UNL A   1      33.471  25.044  23.412  1.00  0.00     0.100 C 
BRANCH   9  10
ATOM     10  C   UNL A   1      32.420  26.026  23.074  1.00  0.00     0.226 A 
ATOM     11  N   UNL A   1      31.701  26.797  23.854  1.00  0.00    -0.196 NA
ATOM     12  O   UNL A   1      32.090  26.134  21.754  1.00  0.00    -0.339 OA
ATOM     13  C   UNL A   1      30.853  27.400  22.966  1.00  0.00     0.174 A 
ATOM     14  N   UNL A   1      31.033  27.043  21.688  1.00  0.00    -0.062 NA
BRANCH  13  15
ATOM     15  C   UNL A   1      29.774  28.308  23.417  1.00  0.00     0.113 C 
BRANCH  15  16
ATOM     16  C   UNL A   1      29.886  29.727  22.856  1.00  0.00     0.126 C 
ATOM     17  C   UNL A   1      28.911  30.044  21.729  1.00  0.00     0.035 C 
ATOM     18  O   UNL A   1      29.556  30.649  23.922  1.00  0.00    -0.378 OA
ATOM     19  C   UNL A   1      27.690  30.518  22.475  1.00  0.00     0.031 C 
ATOM     20  C   UNL A   1      28.311  31.292  23.614  1.00  0.00     0.160 C 
ENDBRANCH  15  16
ENDBRANCH  13  15
ENDBRANCH   9  10
ENDBRANCH   8   9
ENDBRANCH   7   8
ENDBRANCH   6   7
ENDBRANCH   4   6
ENDBRANCH   1   2
BRANCH   1  21
ATOM     21  C   UNL A   1      33.363  22.497  27.714  1.00  0.00     0.021 C 
BRANCH  21  22
ATOM     22  C   UNL A   1      34.496  23.123  26.883  1.00  0.00     0.002 C 
BRANCH  22  23
ATOM     23  C   UNL A   1      35.378  22.133  26.119  1.00  0.00     0.002 C 
BRANCH  23  24
ATOM     24  C   UNL A   1      36.044  22.697  24.863  1.00  0.00     0.021 C 
BRANCH  24  25
ATOM     25  C   UNL A   1      37.329  23.480  25.115  1.00  0.00     0.116 C 
BRANCH  25  26
ATOM     26  N   UNL A   1      38.446  22.621  25.479  1.00  0.00    -0.352 N 
ATOM     27  C   UNL A   1      39.584  22.931  26.182  1.00  0.00     0.251 C 
ATOM     28  H   UNL A   1      38.376  21.686  25.178  1.00  0.00     0.163 HD
ATOM     29  O   UNL A   1      40.501  22.118  26.263  1.00  0.00    -0.269 OA
BRANCH  27  30
ATOM     30  C   UNL A   1      39.720  24.259  26.817  1.00  0.00     0.039 A 
ATOM     31  C   UNL A   1      39.181  24.457  28.090  1.00  0.00     0.014 A 
ATOM     32  C   UNL A   1      40.390  25.300  26.168  1.00  0.00     0.014 A 
ATOM     33  C   UNL A   1      39.379  25.674  28.743  1.00  0.00     0.010 A 
ATOM     34  C   UNL A   1      40.652  26.486  26.850  1.00  0.00     0.010 A 
ATOM     35  C   UNL A   1      40.154  26.683  28.146  1.00  0.00    -0.014 A 
BRANCH  35  36
ATOM     36  C   UNL A   1      40.481  27.933  28.879  1.00  0.00     0.031 A 
ATOM     37  C   UNL A   1      41.787  28.077  29.606  1.00  0.00     0.074 A 
ATOM     38  C   UNL A   1      39.565  28.919  28.946  1.00  0.00     0.049 A 
ATOM     39  N   UNL A   1      42.223  29.077  30.332  1.00  0.00    -0.248 NA
ATOM     40  C   UNL A   1      42.715  26.938  29.531  1.00  0.00     0.031 C 
ATOM     41  C   UNL A   1      38.239  28.885  28.326  1.00  0.00     0.029 A 
ATOM     42  N   UNL A   1      39.606  30.138  29.575  1.00  0.00    -0.354 N 
ATOM     43  C   UNL A   1      43.469  28.685  30.804  1.00  0.00     0.074 A 
ATOM     44  C   UNL A   1      43.692  27.335  30.333  1.00  0.00     0.031 C 
ATOM     45  C   UNL A   1      37.603  30.039  28.584  1.00  0.00     0.029 A 
ATOM     46  C   UNL A   1      38.457  30.874  29.423  1.00  0.00     0.049 A 
ATOM     47  H   UNL A   1      40.386  30.454  30.087  1.00  0.00     0.167 HD
ATOM     48  C   UNL A   1      44.356  29.391  31.547  1.00  0.00     0.031 A 
ATOM     49  C   UNL A   1      38.118  32.081  29.914  1.00  0.00     0.031 A 
ATOM     50  C   UNL A   1      44.126  30.728  32.029  1.00  0.00     0.049 A 
ATOM     51  C   UNL A   1      39.103  32.835  30.761  1.00  0.00     0.074 A 
ATOM     52  C   UNL A   1      44.984  31.546  32.744  1.00  0.00     0.029 A 
ATOM     53  N   UNL A   1      42.948  31.438  31.856  1.00  0.00    -0.354 N 
ATOM     54  N   UNL A   1      40.310  32.483  31.133  1.00  0.00    -0.248 NA
ATOM     55  C   UNL A   1      38.682  34.155  31.247  1.00  0.00     0.031 C 
ATOM     56  C   UNL A   1      44.299  32.726  33.060  1.00  0.00     0.029 A 
ATOM     57  C   UNL A   1      43.041  32.671  32.483  1.00  0.00     0.049 A 
ATOM     58  H   UNL A   1      42.160  31.115  31.360  1.00  0.00     0.167 HD
ATOM     59  C   UNL A   1      40.800  33.545  31.882  1.00  0.00     0.074 A 
ATOM     60  C   UNL A   1      39.767  34.561  31.891  1.00  0.00     0.031 C 
ATOM     61  C   UNL A   1      41.999  33.666  32.504  1.00  0.00     0.031 A 
BRANCH  48  62
ATOM     62  C   UNL A   1      45.651  28.708  31.897  1.00  0.00    -0.014 A 
ATOM     63  C   UNL A   1      45.783  27.951  33.074  1.00  0.00     0.009 A 
ATOM     64  C   UNL A   1      46.755  28.816  31.037  1.00  0.00     0.009 A 
ATOM     65  C   UNL A   1      47.006  27.364  33.407  1.00  0.00     0.001 A 
ATOM     66  C   UNL A   1      47.965  28.197  31.354  1.00  0.00     0.001 A 
ATOM     67  C   UNL A   1      48.095  27.485  32.545  1.00  0.00     0.000 A 
ENDBRANCH  48  62
BRANCH  49  68
ATOM     68  C   UNL A   1      36.779  32.648  29.605  1.00  0.00    -0.014 A 
ATOM     69  C   UNL A   1      35.757  32.633  30.565  1.00  0.00     0.009 A 
ATOM     70  C   UNL A   1      36.526  33.233  28.353  1.00  0.00     0.009 A 
ATOM     71  C   UNL A   1      34.504  33.178  30.272  1.00  0.00     0.001 A 
ATOM     72  C   UNL A   1      35.283  33.803  28.074  1.00  0.00     0.001 A 
ATOM     73  C   UNL A   1      34.270  33.769  29.032  1.00  0.00     0.000 A 
ENDBRANCH  49  68
BRANCH  61  74
ATOM     74  C   UNL A   1      42.264  34.952  33.239  1.00  0.00    -0.014 A 
ATOM     75  C   UNL A   1      43.045  35.970  32.669  1.00  0.00     0.009 A 
ATOM     76  C   UNL A   1      41.696  35.161  34.505  1.00  0.00     0.009 A 
ATOM     77  C   UNL A   1      43.277  37.157  33.368  1.00  0.00     0.001 A 
ATOM     78  C   UNL A   1      41.903  36.361  35.186  1.00  0.00     0.001 A 
ATOM     79  C   UNL A   1      42.701  37.354  34.622  1.00  0.00     0.000 A 
ENDBRANCH  61  74
ENDBRANCH  35  36
ENDBRANCH  27  30
ENDBRANCH  25  26
ENDBRANCH  24  25
ENDBRANCH  23  24
ENDBRANCH  22  23
ENDBRANCH  21  22
ENDBRANCH   1  21
TORSDOF 19
ENDMDL
MODEL 2
REMARK VINA RESULT:      -9.7      3.293      8.699
REMARK SMILES O=C(CCCCc1nc(C[C@H]2CCCO2)no1)NCCCCCCNC(=O)c1ccc(-c2c3nc(c(-c4ccccc4)c4ccc([nH]4)c(-c4ccccc4)c4nc(c(-c5ccccc5)c5ccc2[nH]5)C=C4)C=C3)cc1
REMARK SMILES IDX 19 1 18 2 1 3 2 4 3 6 4 7 5 8 6 9 7 10 8 11 17 12 9 13 16 14
REMARK SMILES IDX 10 15 11 16 12 17 15 18 13 19 14 20 20 21 21 22 22 23 23 24
REMARK SMILES IDX 24 25 25 26 26 27 27 29 28 30 29 31 75 32 30 33 74 34 31 35
REMARK SMILES IDX 32 36 33 37 68 38 34 39 73 40 67 41 69 42 35 43 72 44 66 45
REMARK SMILES IDX 65 46 36 48 58 49 43 50 57 51 44 52 47 53 56 54 70 55 45 56
REMARK SMILES IDX 46 57 55 59 71 60 48 61 37 62 38 63 42 64 39 65 41 66 40 67
REMARK SMILES IDX 59 68 60 69 64 70 61 71 63 72 62 73 49 74 50 75 54 76 51 77
REMARK SMILES IDX 53 78 52 79
REMARK H PARENT 18 5 25 28 69 47 47 58
REMARK Flexibility Score: inf
ROOT
ATOM      1  C   UNL A   1      34.389  30.683  27.724  1.00  0.00     0.116 C 
ENDROOT
BRANCH   1   2
ATOM      2  N   UNL A   1      33.965  30.279  26.405  1.00  0.00    -0.356 N 
ATOM      3  O   UNL A   1      32.041  29.191  27.021  1.00  0.00    -0.275 OA
ATOM      4  C   UNL A   1      32.804  29.592  26.152  1.00  0.00     0.219 C 
ATOM      5  H   UNL A   1      34.543  30.509  25.642  1.00  0.00     0.163 HD
BRANCH   4   6
ATOM      6  C   UNL A   1      32.554  29.370  24.673  1.00  0.00     0.100 C 
BRANCH   6   7
ATOM      7  C   UNL A   1      31.064  29.274  24.339  1.00  0.00     0.010 C 
BRANCH   7   8
ATOM      8  C   UNL A   1      30.514  27.888  23.949  1.00  0.00     0.010 C 
BRANCH   8   9
ATOM      9  C   UNL A   1      30.674  27.463  22.484  1.00  0.00     0.100 C 
BRANCH   9  10
ATOM     10  C   UNL A   1      31.670  26.388  22.286  1.00  0.00     0.226 A 
ATOM     11  N   UNL A   1      31.618  25.118  22.609  1.00  0.00    -0.196 NA
ATOM     12  O   UNL A   1      32.859  26.757  21.727  1.00  0.00    -0.339 OA
ATOM     13  C   UNL A   1      32.863  24.677  22.253  1.00  0.00     0.174 A 
ATOM     14  N   UNL A   1      33.658  25.613  21.720  1.00  0.00    -0.062 NA
BRANCH  13  15
ATOM     15  C   UNL A   1      33.301  23.289  22.526  1.00  0.00     0.113 C 
BRANCH  15  16
ATOM     16  C   UNL A   1      32.726  22.701  23.816  1.00  0.00     0.126 C 
ATOM     17  C   UNL A   1      32.957  21.205  23.992  1.00  0.00     0.035 C 
ATOM     18  O   UNL A   1      33.406  23.330  24.928  1.00  0.00    -0.378 OA
ATOM     19  C   UNL A   1      34.306  21.159  24.663  1.00  0.00     0.031 C 
ATOM     20  C   UNL A   1      34.229  22.355  25.584  1.00  0.00     0.160 C 
ENDBRANCH  15  16
ENDBRANCH  13  15
ENDBRANCH   9  10
ENDBRANCH   8   9
ENDBRANCH   7   8
ENDBRANCH   6   7
ENDBRANCH   4   6
ENDBRANCH   1   2
BRANCH   1  21
ATOM     21  C   UNL A   1      35.527  31.700  27.640  1.00  0.00     0.021 C 
BRANCH  21  22
ATOM     22  C   UNL A   1      35.431  32.864  28.640  1.00  0.00     0.002 C 
BRANCH  22  23
ATOM     23  C   UNL A   1      34.040  33.119  29.224  1.00  0.00     0.002 C 
BRANCH  23  24
ATOM     24  C   UNL A   1      33.335  34.367  28.693  1.00  0.00     0.021 C 
BRANCH  24  25
ATOM     25  C   UNL A   1      33.624  35.647  29.470  1.00  0.00     0.116 C 
BRANCH  25  26
ATOM     26  N   UNL A   1      32.679  35.871  30.554  1.00  0.00    -0.352 N 
ATOM     27  C   UNL A   1      32.745  35.456  31.861  1.00  0.00     0.251 C 
ATOM     28  H   UNL A   1      31.880  36.395  30.317  1.00  0.00     0.163 HD
ATOM     29  O   UNL A   1      31.778  35.599  32.605  1.00  0.00    -0.269 OA
BRANCH  27  30
ATOM     30  C   UNL A   1      33.970  34.801  32.366  1.00  0.00     0.039 A 
ATOM     31  C   UNL A   1      33.869  33.535  32.947  1.00  0.00     0.014 A 
ATOM     32  C   UNL A   1      35.217  35.423  32.252  1.00  0.00     0.014 A 
ATOM     33  C   UNL A   1      35.025  32.863  33.346  1.00  0.00     0.010 A 
ATOM     34  C   UNL A   1      36.374  34.721  32.579  1.00  0.00     0.010 A 
ATOM     35  C   UNL A   1      36.290  33.432  33.124  1.00  0.00    -0.014 A 
BRANCH  35  36
ATOM     36  C   UNL A   1      37.533  32.676  33.426  1.00  0.00     0.031 A 
ATOM     37  C   UNL A   1      38.307  32.943  34.685  1.00  0.00     0.074 A 
ATOM     38  C   UNL A   1      38.004  31.791  32.525  1.00  0.00     0.049 A 
ATOM     39  N   UNL A   1      39.432  32.411  35.091  1.00  0.00    -0.248 NA
ATOM     40  C   UNL A   1      37.758  33.960  35.595  1.00  0.00     0.031 C 
ATOM     41  C   UNL A   1      37.375  31.475  31.241  1.00  0.00     0.029 A 
ATOM     42  N   UNL A   1      39.127  31.003  32.548  1.00  0.00    -0.354 N 
ATOM     43  C   UNL A   1      39.729  33.033  36.297  1.00  0.00     0.074 A 
ATOM     44  C   UNL A   1      38.699  34.023  36.526  1.00  0.00     0.031 C 
ATOM     45  C   UNL A   1      38.107  30.542  30.612  1.00  0.00     0.029 A 
ATOM     46  C   UNL A   1      39.278  30.228  31.425  1.00  0.00     0.049 A 
ATOM     47  H   UNL A   1      39.764  30.994  33.299  1.00  0.00     0.167 HD
ATOM     48  C   UNL A   1      40.757  32.790  37.148  1.00  0.00     0.031 A 
ATOM     49  C   UNL A   1      40.255  29.369  31.077  1.00  0.00     0.031 A 
ATOM     50  C   UNL A   1      41.791  31.817  36.912  1.00  0.00     0.049 A 
ATOM     51  C   UNL A   1      41.401  29.136  32.019  1.00  0.00     0.074 A 
ATOM     52  C   UNL A   1      42.844  31.461  37.736  1.00  0.00     0.029 A 
ATOM     53  N   UNL A   1      41.909  31.054  35.760  1.00  0.00    -0.354 N 
ATOM     54  N   UNL A   1      41.625  29.675  33.193  1.00  0.00    -0.248 NA
ATOM     55  C   UNL A   1      42.422  28.171  31.591  1.00  0.00     0.031 C 
ATOM     56  C   UNL A   1      43.637  30.530  37.055  1.00  0.00     0.029 A 
ATOM     57  C   UNL A   1      43.040  30.255  35.835  1.00  0.00     0.049 A 
ATOM     58  H   UNL A   1      41.283  31.076  35.000  1.00  0.00     0.167 HD
ATOM     59  C   UNL A   1      42.804  29.101  33.654  1.00  0.00     0.074 A 
ATOM     60  C   UNL A   1      43.232  28.157  32.640  1.00  0.00     0.031 C 
ATOM     61  C   UNL A   1      43.469  29.335  34.812  1.00  0.00     0.031 A 
BRANCH  48  62
ATOM     62  C   UNL A   1      40.814  33.616  38.405  1.00  0.00    -0.014 A 
ATOM     63  C   UNL A   1      40.182  33.194  39.587  1.00  0.00     0.009 A 
ATOM     64  C   UNL A   1      41.517  34.831  38.414  1.00  0.00     0.009 A 
ATOM     65  C   UNL A   1      40.205  33.995  40.730  1.00  0.00     0.001 A 
ATOM     66  C   UNL A   1      41.569  35.613  39.569  1.00  0.00     0.001 A 
ATOM     67  C   UNL A   1      40.902  35.202  40.722  1.00  0.00     0.000 A 
ENDBRANCH  48  62
BRANCH  49  68
ATOM     68  C   UNL A   1      40.179  28.663  29.770  1.00  0.00    -0.014 A 
ATOM     69  C   UNL A   1      40.748  29.225  28.619  1.00  0.00     0.009 A 
ATOM     70  C   UNL A   1      39.557  27.407  29.676  1.00  0.00     0.009 A 
ATOM     71  C   UNL A   1      40.683  28.552  27.397  1.00  0.00     0.001 A 
ATOM     72  C   UNL A   1      39.520  26.723  28.460  1.00  0.00     0.001 A 
ATOM     73  C   UNL A   1      40.078  27.298  27.320  1.00  0.00     0.000 A 
ENDBRANCH  49  68
BRANCH  61  74
ATOM     74  C   UNL A   1      44.727  28.547  35.053  1.00  0.00    -0.014 A 
ATOM     75  C   UNL A   1      44.691  27.289  35.676  1.00  0.00     0.009 A 
ATOM     76  C   UNL A   1      45.962  29.053  34.618  1.00  0.00     0.009 A 
ATOM     77  C   UNL A   1      45.872  26.572  35.888  1.00  0.00     0.001 A 
ATOM     78  C   UNL A   1      47.134  28.320  34.802  1.00  0.00     0.001 A 
ATOM     79  C   UNL A   1      47.090  27.085  35.446  1.00  0.00     0.000 A 
ENDBRANCH  61  74
ENDBRANCH  35  36
ENDBRANCH  27  30
ENDBRANCH  25  26
ENDBRANCH  24  25
ENDBRANCH  23  24
ENDBRANCH  22  23
ENDBRANCH  21  22
ENDBRANCH   1  21
TORSDOF 19
ENDMDL
MODEL 3
REMARK VINA RESULT:      -9.7      2.789      8.468
REMARK SMILES O=C(CCCCc1nc(C[C@H]2CCCO2)no1)NCCCCCCNC(=O)c1ccc(-c2c3nc(c(-c4ccccc4)c4ccc([nH]4)c(-c4ccccc4)c4nc(c(-c5ccccc5)c5ccc2[nH]5)C=C4)C=C3)cc1
REMARK SMILES IDX 19 1 18 2 1 3 2 4 3 6 4 7 5 8 6 9 7 10 8 11 17 12 9 13 16 14
REMARK SMILES IDX 10 15 11 16 12 17 15 18 13 19 14 20 20 21 21 22 22 23 23 24
REMARK SMILES IDX 24 25 25 26 26 27 27 29 28 30 29 31 75 32 30 33 74 34 31 35
REMARK SMILES IDX 32 36 33 37 68 38 34 39 73 40 67 41 69 42 35 43 72 44 66 45
REMARK SMILES IDX 65 46 36 48 58 49 43 50 57 51 44 52 47 53 56 54 70 55 45 56
REMARK SMILES IDX 46 57 55 59 71 60 48 61 37 62 38 63 42 64 39 65 41 66 40 67
REMARK SMILES IDX 59 68 60 69 64 70 61 71 63 72 62 73 49 74 50 75 54 76 51 77
REMARK SMILES IDX 53 78 52 79
REMARK H PARENT 18 5 25 28 69 47 47 58
REMARK Flexibility Score: inf
ROOT
ATOM      1  C   UNL A   1      30.785  23.903  25.252  1.00  0.00     0.116 C 
ENDROOT
BRANCH   1   2
ATOM      2  N   UNL A   1      31.938  23.372  24.564  1.00  0.00    -0.356 N 
ATOM      3  O   UNL A   1      31.833  24.714  22.707  1.00  0.00    -0.275 OA
ATOM      4  C   UNL A   1      32.393  23.842  23.359  1.00  0.00     0.219 C 
ATOM      5  H   UNL A   1      32.426  22.627  24.986  1.00  0.00     0.163 HD
BRANCH   4   6
ATOM      6  C   UNL A   1      33.672  23.168  22.901  1.00  0.00     0.100 C 
BRANCH   6   7
ATOM      7  C   UNL A   1      34.925  23.857  23.445  1.00  0.00     0.010 C 
BRANCH   7   8
ATOM      8  C   UNL A   1      35.236  23.679  24.944  1.00  0.00     0.010 C 
BRANCH   8   9
ATOM      9  C   UNL A   1      36.591  23.057  25.305  1.00  0.00     0.100 C 
BRANCH   9  10
ATOM     10  C   UNL A   1      36.653  21.599  25.068  1.00  0.00     0.226 A 
ATOM     11  N   UNL A   1      35.687  20.723  24.937  1.00  0.00    -0.196 NA
ATOM     12  O   UNL A   1      37.898  21.043  25.022  1.00  0.00    -0.339 OA
ATOM     13  C   UNL A   1      36.374  19.545  24.831  1.00  0.00     0.174 A 
ATOM     14  N   UNL A   1      37.707  19.668  24.878  1.00  0.00    -0.062 NA
BRANCH  13  15
ATOM     15  C   UNL A   1      35.676  18.242  24.758  1.00  0.00     0.113 C 
BRANCH  15  16
ATOM     16  C   UNL A   1      34.234  18.341  24.253  1.00  0.00     0.126 C 
ATOM     17  C   UNL A   1      33.800  17.201  23.340  1.00  0.00     0.035 C 
ATOM     18  O   UNL A   1      33.359  18.269  25.403  1.00  0.00    -0.378 OA
ATOM     19  C   UNL A   1      33.305  16.168  24.319  1.00  0.00     0.031 C 
ATOM     20  C   UNL A   1      32.633  17.032  25.359  1.00  0.00     0.160 C 
ENDBRANCH  15  16
ENDBRANCH  13  15
ENDBRANCH   9  10
ENDBRANCH   8   9
ENDBRANCH   7   8
ENDBRANCH   6   7
ENDBRANCH   4   6
ENDBRANCH   1   2
BRANCH   1  21
ATOM     21  C   UNL A   1      31.206  24.667  26.506  1.00  0.00     0.021 C 
BRANCH  21  22
ATOM     22  C   UNL A   1      32.118  25.879  26.251  1.00  0.00     0.002 C 
BRANCH  22  23
ATOM     23  C   UNL A   1      31.477  27.248  26.491  1.00  0.00     0.002 C 
BRANCH  23  24
ATOM     24  C   UNL A   1      32.089  28.055  27.637  1.00  0.00     0.021 C 
BRANCH  24  25
ATOM     25  C   UNL A   1      33.446  28.680  27.328  1.00  0.00     0.116 C 
BRANCH  25  26
ATOM     26  N   UNL A   1      33.496  30.098  27.651  1.00  0.00    -0.352 N 
ATOM     27  C   UNL A   1      34.519  30.825  28.208  1.00  0.00     0.251 C 
ATOM     28  H   UNL A   1      32.682  30.610  27.438  1.00  0.00     0.163 HD
ATOM     29  O   UNL A   1      34.332  31.988  28.559  1.00  0.00    -0.269 OA
BRANCH  27  30
ATOM     30  C   UNL A   1      35.840  30.196  28.420  1.00  0.00     0.039 A 
ATOM     31  C   UNL A   1      36.753  30.173  27.363  1.00  0.00     0.014 A 
ATOM     32  C   UNL A   1      36.184  29.646  29.658  1.00  0.00     0.014 A 
ATOM     33  C   UNL A   1      38.037  29.667  27.570  1.00  0.00     0.010 A 
ATOM     34  C   UNL A   1      37.488  29.213  29.884  1.00  0.00     0.010 A 
ATOM     35  C   UNL A   1      38.430  29.223  28.844  1.00  0.00    -0.014 A 
BRANCH  35  36
ATOM     36  C   UNL A   1      39.828  28.801  29.112  1.00  0.00     0.031 A 
ATOM     37  C   UNL A   1      40.811  29.753  29.731  1.00  0.00     0.074 A 
ATOM     38  C   UNL A   1      40.233  27.574  28.731  1.00  0.00     0.049 A 
ATOM     39  N   UNL A   1      42.081  29.571  29.998  1.00  0.00    -0.248 NA
ATOM     40  C   UNL A   1      40.310  31.093  30.072  1.00  0.00     0.031 C 
ATOM     41  C   UNL A   1      39.392  26.571  28.075  1.00  0.00     0.029 A 
ATOM     42  N   UNL A   1      41.458  26.964  28.832  1.00  0.00    -0.354 N 
ATOM     43  C   UNL A   1      42.530  30.774  30.529  1.00  0.00     0.074 A 
ATOM     44  C   UNL A   1      41.414  31.694  30.491  1.00  0.00     0.031 C 
ATOM     45  C   UNL A   1      40.118  25.464  27.855  1.00  0.00     0.029 A 
ATOM     46  C   UNL A   1      41.484  25.693  28.313  1.00  0.00     0.049 A 
ATOM     47  H   UNL A   1      42.244  27.397  29.239  1.00  0.00     0.167 HD
ATOM     48  C   UNL A   1      43.755  31.079  31.021  1.00  0.00     0.031 A 
ATOM     49  C   UNL A   1      42.496  24.811  28.203  1.00  0.00     0.031 A 
ATOM     50  C   UNL A   1      44.870  30.169  31.043  1.00  0.00     0.049 A 
ATOM     51  C   UNL A   1      43.855  25.181  28.727  1.00  0.00     0.074 A 
ATOM     52  C   UNL A   1      46.136  30.367  31.568  1.00  0.00     0.029 A 
ATOM     53  N   UNL A   1      44.856  28.891  30.506  1.00  0.00    -0.354 N 
ATOM     54  N   UNL A   1      44.243  26.294  29.300  1.00  0.00    -0.248 NA
ATOM     55  C   UNL A   1      44.910  24.167  28.597  1.00  0.00     0.031 C 
ATOM     56  C   UNL A   1      46.907  29.233  31.288  1.00  0.00     0.029 A 
ATOM     57  C   UNL A   1      46.103  28.302  30.652  1.00  0.00     0.049 A 
ATOM     58  H   UNL A   1      44.077  28.464  30.081  1.00  0.00     0.167 HD
ATOM     59  C   UNL A   1      45.583  26.110  29.615  1.00  0.00     0.074 A 
ATOM     60  C   UNL A   1      45.932  24.770  29.190  1.00  0.00     0.031 C 
ATOM     61  C   UNL A   1      46.445  26.975  30.205  1.00  0.00     0.031 A 
BRANCH  48  62
ATOM     62  C   UNL A   1      43.949  32.473  31.557  1.00  0.00    -0.014 A 
ATOM     63  C   UNL A   1      43.699  32.780  32.905  1.00  0.00     0.009 A 
ATOM     64  C   UNL A   1      44.397  33.495  30.704  1.00  0.00     0.009 A 
ATOM     65  C   UNL A   1      43.839  34.089  33.373  1.00  0.00     0.001 A 
ATOM     66  C   UNL A   1      44.571  34.794  31.184  1.00  0.00     0.001 A 
ATOM     67  C   UNL A   1      44.278  35.094  32.513  1.00  0.00     0.000 A 
ENDBRANCH  48  62
BRANCH  49  68
ATOM     68  C   UNL A   1      42.250  23.489  27.571  1.00  0.00    -0.014 A 
ATOM     69  C   UNL A   1      42.510  23.287  26.208  1.00  0.00     0.009 A 
ATOM     70  C   UNL A   1      41.778  22.411  28.338  1.00  0.00     0.009 A 
ATOM     71  C   UNL A   1      42.288  22.039  25.623  1.00  0.00     0.001 A 
ATOM     72  C   UNL A   1      41.585  21.157  27.757  1.00  0.00     0.001 A 
ATOM     73  C   UNL A   1      41.834  20.973  26.398  1.00  0.00     0.000 A 
ENDBRANCH  49  68
BRANCH  61  74
ATOM     74  C   UNL A   1      47.851  26.492  30.438  1.00  0.00    -0.014 A 
ATOM     75  C   UNL A   1      48.874  26.751  29.512  1.00  0.00     0.009 A 
ATOM     76  C   UNL A   1      48.163  25.797  31.617  1.00  0.00     0.009 A 
ATOM     77  C   UNL A   1      50.173  26.296  29.749  1.00  0.00     0.001 A 
ATOM     78  C   UNL A   1      49.468  25.372  31.866  1.00  0.00     0.001 A 
ATOM     79  C   UNL A   1      50.470  25.613  30.927  1.00  0.00     0.000 A 
ENDBRANCH  61  74
ENDBRANCH  35  36
ENDBRANCH  27  30
ENDBRANCH  25  26
ENDBRANCH  24  25
ENDBRANCH  23  24
ENDBRANCH  22  23
ENDBRANCH  21  22
ENDBRANCH   1  21
TORSDOF 19
ENDMDL
