MODEL 1
REMARK VINA RESULT:     -12.8      0.000      0.000
REMARK SMILES Cc1ccc(-c2cc(OCC(=O)NCCCCCCNC(=O)c3ccc(-c4c5nc(c(-c6ccccc6)c6ccc([nH]6)c(-c6ccccc6)c6nc(c(-c7ccccc7)c7ccc4[nH]7)C=C6)C=C5)cc3)nc(NCc3ccc4c(c3)OCO4)n2)cc1
REMARK SMILES IDX 15 1 14 2 13 3 11 4 12 5 10 7 9 8 8 9 6 10 7 11 84 12 72 13
REMARK SMILES IDX 71 14 5 15 1 16 2 17 3 18 86 19 4 20 85 21 73 22 74 24 75 25
REMARK SMILES IDX 76 26 80 27 77 28 79 29 78 30 81 31 83 32 82 33 16 34 17 35
REMARK SMILES IDX 18 36 19 37 20 38 21 39 22 41 23 42 24 43 70 44 25 45 69 46
REMARK SMILES IDX 26 47 27 48 28 49 63 50 29 51 68 52 62 53 64 54 30 55 67 56
REMARK SMILES IDX 61 57 60 58 31 60 53 61 38 62 52 63 39 64 42 65 51 66 65 67
REMARK SMILES IDX 40 68 41 69 50 71 66 72 43 73 32 74 33 75 37 76 34 77 36 78
REMARK SMILES IDX 35 79 54 80 55 81 59 82 56 83 58 84 57 85 44 86 45 87 49 88
REMARK SMILES IDX 46 89 48 90 47 91
REMARK H PARENT 13 6 73 23 20 40 64 59 42 70
REMARK Flexibility Score: inf
ROOT
ATOM      1  C   UNL A   1      32.540  28.900  23.912  1.00  0.00     0.021 C 
ENDROOT
BRANCH   1   2
ATOM      2  C   UNL A   1      32.617  27.393  23.670  1.00  0.00     0.116 C 
BRANCH   2   3
ATOM      3  N   UNL A   1      32.810  27.059  22.275  1.00  0.00    -0.353 N 
ATOM      4  C   UNL A   1      33.031  25.833  21.723  1.00  0.00     0.258 C 
ATOM      5  O   UNL A   1      33.108  25.737  20.497  1.00  0.00    -0.271 OA
ATOM      6  H   UNL A   1      32.777  27.814  21.645  1.00  0.00     0.163 HD
BRANCH   4   7
ATOM      7  C   UNL A   1      33.164  24.602  22.628  1.00  0.00     0.331 C 
BRANCH   7   8
ATOM      8  O   UNL A   1      34.436  23.978  22.662  1.00  0.00    -0.467 OA
BRANCH   8   9
ATOM      9  C   UNL A   1      34.685  23.096  23.675  1.00  0.00     0.219 A 
ATOM     10  C   UNL A   1      34.562  21.089  24.856  1.00  0.00     0.080 A 
ATOM     11  C   UNL A   1      34.143  21.843  23.781  1.00  0.00     0.097 A 
ATOM     12  N   UNL A   1      35.392  21.568  25.801  1.00  0.00    -0.213 NA
ATOM     13  C   UNL A   1      35.863  22.807  25.622  1.00  0.00     0.226 A 
ATOM     14  N   UNL A   1      35.550  23.582  24.577  1.00  0.00    -0.177 NA
BRANCH  10  15
ATOM     15  C   UNL A   1      34.166  19.682  24.966  1.00  0.00     0.000 A 
ATOM     16  C   UNL A   1      32.968  15.525  25.010  1.00  0.00     0.044 C 
ATOM     17  C   UNL A   1      33.397  16.962  25.014  1.00  0.00    -0.051 A 
ATOM     18  C   UNL A   1      32.516  17.962  25.445  1.00  0.00     0.004 A 
ATOM     19  C   UNL A   1      34.671  17.327  24.570  1.00  0.00     0.004 A 
ATOM     20  C   UNL A   1      32.899  19.308  25.429  1.00  0.00     0.010 A 
ATOM     21  C   UNL A   1      35.049  18.671  24.547  1.00  0.00     0.010 A 
ENDBRANCH  10  15
BRANCH  13  22
ATOM     22  N   UNL A   1      36.740  23.362  26.513  1.00  0.00    -0.350 N 
ATOM     23  H   UNL A   1      36.469  23.454  27.456  1.00  0.00     0.164 HD
BRANCH  22  24
ATOM     24  C   UNL A   1      38.047  23.815  26.113  1.00  0.00     0.152 C 
BRANCH  24  25
ATOM     25  C   UNL A   1      39.157  22.848  26.490  1.00  0.00    -0.025 A 
ATOM     26  C   UNL A   1      40.133  23.274  27.426  1.00  0.00     0.009 A 
ATOM     27  C   UNL A   1      39.245  21.545  25.966  1.00  0.00     0.056 A 
ATOM     28  C   UNL A   1      41.198  22.444  27.799  1.00  0.00     0.051 A 
ATOM     29  C   UNL A   1      40.317  20.758  26.334  1.00  0.00     0.166 A 
ATOM     30  C   UNL A   1      41.270  21.199  27.220  1.00  0.00     0.165 A 
ATOM     31  O   UNL A   1      40.576  19.506  25.871  1.00  0.00    -0.454 OA
ATOM     32  O   UNL A   1      42.254  20.279  27.418  1.00  0.00    -0.454 OA
ATOM     33  C   UNL A   1      41.876  19.277  26.451  1.00  0.00     0.468 C 
ENDBRANCH  24  25
ENDBRANCH  22  24
ENDBRANCH  13  22
ENDBRANCH   8   9
ENDBRANCH   7   8
ENDBRANCH   4   7
ENDBRANCH   2   3
ENDBRANCH   1   2
BRANCH   1  34
ATOM     34  C   UNL A   1      31.690  29.350  25.108  1.00  0.00     0.002 C 
BRANCH  34  35
ATOM     35  C   UNL A   1      32.305  29.203  26.509  1.00  0.00     0.002 C 
BRANCH  35  36
ATOM     36  C   UNL A   1      33.832  29.187  26.597  1.00  0.00     0.021 C 
BRANCH  36  37
ATOM     37  C   UNL A   1      34.428  30.193  27.569  1.00  0.00     0.116 C 
BRANCH  37  38
ATOM     38  N   UNL A   1      33.757  31.483  27.601  1.00  0.00    -0.352 N 
ATOM     39  C   UNL A   1      34.047  32.614  28.350  1.00  0.00     0.251 C 
ATOM     40  H   UNL A   1      32.981  31.566  27.000  1.00  0.00     0.163 HD
ATOM     41  O   UNL A   1      33.309  33.581  28.295  1.00  0.00    -0.269 OA
BRANCH  39  42
ATOM     42  C   UNL A   1      35.331  32.700  29.098  1.00  0.00     0.039 A 
ATOM     43  C   UNL A   1      36.417  33.296  28.443  1.00  0.00     0.014 A 
ATOM     44  C   UNL A   1      35.534  32.026  30.296  1.00  0.00     0.014 A 
ATOM     45  C   UNL A   1      37.714  32.974  28.835  1.00  0.00     0.010 A 
ATOM     46  C   UNL A   1      36.808  31.613  30.621  1.00  0.00     0.010 A 
ATOM     47  C   UNL A   1      37.889  32.028  29.842  1.00  0.00    -0.014 A 
BRANCH  47  48
ATOM     48  C   UNL A   1      39.138  31.321  30.072  1.00  0.00     0.031 A 
ATOM     49  C   UNL A   1      39.360  29.990  29.485  1.00  0.00     0.074 A 
ATOM     50  C   UNL A   1      40.129  31.945  30.744  1.00  0.00     0.049 A 
ATOM     51  N   UNL A   1      40.222  29.137  29.922  1.00  0.00    -0.248 NA
ATOM     52  C   UNL A   1      38.556  29.484  28.379  1.00  0.00     0.031 C 
ATOM     53  C   UNL A   1      41.537  31.570  30.819  1.00  0.00     0.029 A 
ATOM     54  N   UNL A   1      39.993  32.959  31.687  1.00  0.00    -0.354 N 
ATOM     55  C   UNL A   1      40.314  28.134  28.986  1.00  0.00     0.074 A 
ATOM     56  C   UNL A   1      39.173  28.328  28.123  1.00  0.00     0.031 C 
ATOM     57  C   UNL A   1      42.085  32.157  31.896  1.00  0.00     0.029 A 
ATOM     58  C   UNL A   1      41.010  32.795  32.638  1.00  0.00     0.049 A 
ATOM     59  H   UNL A   1      39.306  33.664  31.687  1.00  0.00     0.167 HD
ATOM     60  C   UNL A   1      41.437  27.361  28.949  1.00  0.00     0.031 A 
ATOM     61  C   UNL A   1      40.701  32.516  33.940  1.00  0.00     0.031 A 
ATOM     62  C   UNL A   1      42.313  27.632  30.092  1.00  0.00     0.049 A 
ATOM     63  C   UNL A   1      41.191  31.161  34.404  1.00  0.00     0.074 A 
ATOM     64  C   UNL A   1      43.488  28.353  30.231  1.00  0.00     0.029 A 
ATOM     65  N   UNL A   1      41.850  27.382  31.381  1.00  0.00    -0.354 N 
ATOM     66  N   UNL A   1      41.556  30.201  33.599  1.00  0.00    -0.248 NA
ATOM     67  C   UNL A   1      41.275  30.767  35.810  1.00  0.00     0.031 C 
ATOM     68  C   UNL A   1      43.677  28.619  31.614  1.00  0.00     0.029 A 
ATOM     69  C   UNL A   1      42.641  28.026  32.314  1.00  0.00     0.049 A 
ATOM     70  H   UNL A   1      41.071  26.823  31.599  1.00  0.00     0.167 HD
ATOM     71  C   UNL A   1      41.913  29.099  34.327  1.00  0.00     0.074 A 
ATOM     72  C   UNL A   1      41.729  29.504  35.710  1.00  0.00     0.031 C 
ATOM     73  C   UNL A   1      42.323  27.941  33.734  1.00  0.00     0.031 A 
BRANCH  60  74
ATOM     74  C   UNL A   1      41.883  26.588  27.724  1.00  0.00    -0.014 A 
ATOM     75  C   UNL A   1      43.000  25.735  27.813  1.00  0.00     0.009 A 
ATOM     76  C   UNL A   1      41.321  26.712  26.442  1.00  0.00     0.009 A 
ATOM     77  C   UNL A   1      43.566  25.122  26.684  1.00  0.00     0.001 A 
ATOM     78  C   UNL A   1      41.890  26.122  25.305  1.00  0.00     0.001 A 
ATOM     79  C   UNL A   1      43.023  25.335  25.425  1.00  0.00     0.000 A 
ENDBRANCH  60  74
BRANCH  61  80
ATOM     80  C   UNL A   1      39.438  33.166  34.396  1.00  0.00    -0.014 A 
ATOM     81  C   UNL A   1      38.216  32.575  34.020  1.00  0.00     0.009 A 
ATOM     82  C   UNL A   1      39.443  34.068  35.471  1.00  0.00     0.009 A 
ATOM     83  C   UNL A   1      37.057  32.781  34.776  1.00  0.00     0.001 A 
ATOM     84  C   UNL A   1      38.276  34.280  36.218  1.00  0.00     0.001 A 
ATOM     85  C   UNL A   1      37.097  33.608  35.894  1.00  0.00     0.000 A 
ENDBRANCH  61  80
BRANCH  73  86
ATOM     86  C   UNL A   1      42.534  26.623  34.434  1.00  0.00    -0.014 A 
ATOM     87  C   UNL A   1      41.561  25.980  35.210  1.00  0.00     0.009 A 
ATOM     88  C   UNL A   1      43.730  25.909  34.192  1.00  0.00     0.009 A 
ATOM     89  C   UNL A   1      41.789  24.709  35.755  1.00  0.00     0.001 A 
ATOM     90  C   UNL A   1      43.944  24.625  34.697  1.00  0.00     0.001 A 
ATOM     91  C   UNL A   1      42.974  24.029  35.490  1.00  0.00     0.000 A 
ENDBRANCH  73  86
ENDBRANCH  47  48
ENDBRANCH  39  42
ENDBRANCH  37  38
ENDBRANCH  36  37
ENDBRANCH  35  36
ENDBRANCH  34  35
ENDBRANCH   1  34
TORSDOF 19
ENDMDL
MODEL 2
REMARK VINA RESULT:     -12.4      1.698      2.609
REMARK SMILES Cc1ccc(-c2cc(OCC(=O)NCCCCCCNC(=O)c3ccc(-c4c5nc(c(-c6ccccc6)c6ccc([nH]6)c(-c6ccccc6)c6nc(c(-c7ccccc7)c7ccc4[nH]7)C=C6)C=C5)cc3)nc(NCc3ccc4c(c3)OCO4)n2)cc1
REMARK SMILES IDX 15 1 14 2 13 3 11 4 12 5 10 7 9 8 8 9 6 10 7 11 84 12 72 13
REMARK SMILES IDX 71 14 5 15 1 16 2 17 3 18 86 19 4 20 85 21 73 22 74 24 75 25
REMARK SMILES IDX 76 26 80 27 77 28 79 29 78 30 81 31 83 32 82 33 16 34 17 35
REMARK SMILES IDX 18 36 19 37 20 38 21 39 22 41 23 42 24 43 70 44 25 45 69 46
REMARK SMILES IDX 26 47 27 48 28 49 63 50 29 51 68 52 62 53 64 54 30 55 67 56
REMARK SMILES IDX 61 57 60 58 31 60 53 61 38 62 52 63 39 64 42 65 51 66 65 67
REMARK SMILES IDX 40 68 41 69 50 71 66 72 43 73 32 74 33 75 37 76 34 77 36 78
REMARK SMILES IDX 35 79 54 80 55 81 59 82 56 83 58 84 57 85 44 86 45 87 49 88
REMARK SMILES IDX 46 89 48 90 47 91
REMARK H PARENT 13 6 73 23 20 40 64 59 42 70
REMARK Flexibility Score: inf
ROOT
ATOM      1  C   UNL A   1      32.010  28.204  24.263  1.00  0.00     0.021 C 
ENDROOT
BRANCH   1   2
ATOM      2  C   UNL A   1      32.392  27.282  23.107  1.00  0.00     0.116 C 
BRANCH   2   3
ATOM      3  N   UNL A   1      31.718  26.002  23.164  1.00  0.00    -0.353 N 
ATOM      4  C   UNL A   1      32.269  24.757  23.220  1.00  0.00     0.258 C 
ATOM      5  O   UNL A   1      31.526  23.781  23.328  1.00  0.00    -0.271 OA
ATOM      6  H   UNL A   1      30.733  26.036  23.163  1.00  0.00     0.163 HD
BRANCH   4   7
ATOM      7  C   UNL A   1      33.793  24.597  23.162  1.00  0.00     0.331 C 
BRANCH   7   8
ATOM      8  O   UNL A   1      34.459  24.443  24.403  1.00  0.00    -0.467 OA
BRANCH   8   9
ATOM      9  C   UNL A   1      35.043  23.237  24.667  1.00  0.00     0.219 A 
ATOM     10  C   UNL A   1      35.165  20.929  24.973  1.00  0.00     0.080 A 
ATOM     11  C   UNL A   1      34.383  22.040  24.744  1.00  0.00     0.097 A 
ATOM     12  N   UNL A   1      36.491  21.005  25.194  1.00  0.00    -0.213 NA
ATOM     13  C   UNL A   1      37.049  22.218  25.113  1.00  0.00     0.226 A 
ATOM     14  N   UNL A   1      36.370  23.338  24.837  1.00  0.00    -0.177 NA
BRANCH  10  15
ATOM     15  C   UNL A   1      34.576  19.589  24.908  1.00  0.00     0.000 A 
ATOM     16  C   UNL A   1      32.830  15.631  25.001  1.00  0.00     0.044 C 
ATOM     17  C   UNL A   1      33.424  17.007  24.948  1.00  0.00    -0.051 A 
ATOM     18  C   UNL A   1      34.778  17.181  24.637  1.00  0.00     0.004 A 
ATOM     19  C   UNL A   1      32.643  18.132  25.228  1.00  0.00     0.004 A 
ATOM     20  C   UNL A   1      35.347  18.460  24.609  1.00  0.00     0.010 A 
ATOM     21  C   UNL A   1      33.214  19.406  25.208  1.00  0.00     0.010 A 
ENDBRANCH  10  15
BRANCH  13  22
ATOM     22  N   UNL A   1      38.396  22.385  25.287  1.00  0.00    -0.350 N 
ATOM     23  H   UNL A   1      38.925  22.793  24.563  1.00  0.00     0.164 HD
BRANCH  22  24
ATOM     24  C   UNL A   1      39.062  21.981  26.498  1.00  0.00     0.152 C 
BRANCH  24  25
ATOM     25  C   UNL A   1      40.445  21.399  26.254  1.00  0.00    -0.025 A 
ATOM     26  C   UNL A   1      41.527  22.292  26.053  1.00  0.00     0.009 A 
ATOM     27  C   UNL A   1      40.698  20.014  26.239  1.00  0.00     0.056 A 
ATOM     28  C   UNL A   1      42.822  21.824  25.797  1.00  0.00     0.051 A 
ATOM     29  C   UNL A   1      41.978  19.582  25.962  1.00  0.00     0.166 A 
ATOM     30  C   UNL A   1      43.009  20.462  25.740  1.00  0.00     0.165 A 
ATOM     31  O   UNL A   1      42.370  18.284  25.851  1.00  0.00    -0.454 OA
ATOM     32  O   UNL A   1      44.178  19.826  25.454  1.00  0.00    -0.454 OA
ATOM     33  C   UNL A   1      43.724  18.459  25.388  1.00  0.00     0.468 C 
ENDBRANCH  24  25
ENDBRANCH  22  24
ENDBRANCH  13  22
ENDBRANCH   8   9
ENDBRANCH   7   8
ENDBRANCH   4   7
ENDBRANCH   2   3
ENDBRANCH   1   2
BRANCH   1  34
ATOM     34  C   UNL A   1      32.197  27.632  25.676  1.00  0.00     0.002 C 
BRANCH  34  35
ATOM     35  C   UNL A   1      31.792  28.523  26.860  1.00  0.00     0.002 C 
BRANCH  35  36
ATOM     36  C   UNL A   1      32.295  29.968  26.844  1.00  0.00     0.021 C 
BRANCH  36  37
ATOM     37  C   UNL A   1      33.808  30.118  26.802  1.00  0.00     0.116 C 
BRANCH  37  38
ATOM     38  N   UNL A   1      34.333  31.225  27.586  1.00  0.00    -0.352 N 
ATOM     39  C   UNL A   1      35.473  31.290  28.375  1.00  0.00     0.251 C 
ATOM     40  H   UNL A   1      33.799  32.053  27.553  1.00  0.00     0.163 HD
ATOM     41  O   UNL A   1      35.702  32.294  29.025  1.00  0.00    -0.269 OA
BRANCH  39  42
ATOM     42  C   UNL A   1      36.486  30.201  28.306  1.00  0.00     0.039 A 
ATOM     43  C   UNL A   1      36.560  29.322  29.395  1.00  0.00     0.014 A 
ATOM     44  C   UNL A   1      37.475  30.175  27.329  1.00  0.00     0.014 A 
ATOM     45  C   UNL A   1      37.747  28.637  29.643  1.00  0.00     0.010 A 
ATOM     46  C   UNL A   1      38.688  29.592  27.626  1.00  0.00     0.010 A 
ATOM     47  C   UNL A   1      38.842  28.887  28.821  1.00  0.00    -0.014 A 
BRANCH  47  48
ATOM     48  C   UNL A   1      40.212  28.562  29.187  1.00  0.00     0.031 A 
ATOM     49  C   UNL A   1      40.847  27.335  28.682  1.00  0.00     0.074 A 
ATOM     50  C   UNL A   1      40.924  29.452  29.910  1.00  0.00     0.049 A 
ATOM     51  N   UNL A   1      41.867  26.766  29.228  1.00  0.00    -0.248 NA
ATOM     52  C   UNL A   1      40.321  26.602  27.536  1.00  0.00     0.031 C 
ATOM     53  C   UNL A   1      42.368  29.487  30.120  1.00  0.00     0.029 A 
ATOM     54  N   UNL A   1      40.426  30.406  30.792  1.00  0.00    -0.354 N 
ATOM     55  C   UNL A   1      42.319  25.810  28.349  1.00  0.00     0.074 A 
ATOM     56  C   UNL A   1      41.255  25.659  27.386  1.00  0.00     0.031 C 
ATOM     57  C   UNL A   1      42.630  30.226  31.211  1.00  0.00     0.029 A 
ATOM     58  C   UNL A   1      41.356  30.553  31.831  1.00  0.00     0.049 A 
ATOM     59  H   UNL A   1      39.573  30.890  30.702  1.00  0.00     0.167 HD
ATOM     60  C   UNL A   1      43.611  25.381  28.442  1.00  0.00     0.031 A 
ATOM     61  C   UNL A   1      41.015  30.225  33.113  1.00  0.00     0.031 A 
ATOM     62  C   UNL A   1      44.268  25.910  29.641  1.00  0.00     0.049 A 
ATOM     63  C   UNL A   1      41.816  29.071  33.678  1.00  0.00     0.074 A 
ATOM     64  C   UNL A   1      45.179  26.934  29.845  1.00  0.00     0.029 A 
ATOM     65  N   UNL A   1      43.774  25.566  30.896  1.00  0.00    -0.354 N 
ATOM     66  N   UNL A   1      42.506  28.236  32.952  1.00  0.00    -0.248 NA
ATOM     67  C   UNL A   1      41.875  28.745  35.102  1.00  0.00     0.031 C 
ATOM     68  C   UNL A   1      45.157  27.270  31.224  1.00  0.00     0.029 A 
ATOM     69  C   UNL A   1      44.265  26.425  31.862  1.00  0.00     0.049 A 
ATOM     70  H   UNL A   1      43.163  24.816  31.073  1.00  0.00     0.167 HD
ATOM     71  C   UNL A   1      43.085  27.292  33.756  1.00  0.00     0.074 A 
ATOM     72  C   UNL A   1      42.668  27.658  35.099  1.00  0.00     0.031 C 
ATOM     73  C   UNL A   1      43.852  26.283  33.252  1.00  0.00     0.031 A 
BRANCH  60  74
ATOM     74  C   UNL A   1      44.366  24.740  27.295  1.00  0.00    -0.014 A 
ATOM     75  C   UNL A   1      45.178  23.616  27.543  1.00  0.00     0.009 A 
ATOM     76  C   UNL A   1      44.401  25.228  25.977  1.00  0.00     0.009 A 
ATOM     77  C   UNL A   1      46.029  23.077  26.566  1.00  0.00     0.001 A 
ATOM     78  C   UNL A   1      45.264  24.712  25.001  1.00  0.00     0.001 A 
ATOM     79  C   UNL A   1      46.090  23.642  25.300  1.00  0.00     0.000 A 
ENDBRANCH  60  74
BRANCH  61  80
ATOM     80  C   UNL A   1      39.586  30.505  33.432  1.00  0.00    -0.014 A 
ATOM     81  C   UNL A   1      39.179  31.850  33.523  1.00  0.00     0.009 A 
ATOM     82  C   UNL A   1      38.604  29.519  33.251  1.00  0.00     0.009 A 
ATOM     83  C   UNL A   1      37.844  32.212  33.311  1.00  0.00     0.001 A 
ATOM     84  C   UNL A   1      37.266  29.886  33.051  1.00  0.00     0.001 A 
ATOM     85  C   UNL A   1      36.894  31.230  33.043  1.00  0.00     0.000 A 
ENDBRANCH  61  80
BRANCH  73  86
ATOM     86  C   UNL A   1      44.354  25.092  34.027  1.00  0.00    -0.014 A 
ATOM     87  C   UNL A   1      43.590  23.948  34.292  1.00  0.00     0.009 A 
ATOM     88  C   UNL A   1      45.718  25.046  34.396  1.00  0.00     0.009 A 
ATOM     89  C   UNL A   1      44.148  22.834  34.935  1.00  0.00     0.001 A 
ATOM     90  C   UNL A   1      46.288  23.922  34.997  1.00  0.00     0.001 A 
ATOM     91  C   UNL A   1      45.497  22.818  35.278  1.00  0.00     0.000 A 
ENDBRANCH  73  86
ENDBRANCH  47  48
ENDBRANCH  39  42
ENDBRANCH  37  38
ENDBRANCH  36  37
ENDBRANCH  35  36
ENDBRANCH  34  35
ENDBRANCH   1  34
TORSDOF 19
ENDMDL
MODEL 3
REMARK VINA RESULT:     -12.1      2.156      4.375
REMARK SMILES Cc1ccc(-c2cc(OCC(=O)NCCCCCCNC(=O)c3ccc(-c4c5nc(c(-c6ccccc6)c6ccc([nH]6)c(-c6ccccc6)c6nc(c(-c7ccccc7)c7ccc4[nH]7)C=C6)C=C5)cc3)nc(NCc3ccc4c(c3)OCO4)n2)cc1
REMARK SMILES IDX 15 1 14 2 13 3 11 4 12 5 10 7 9 8 8 9 6 10 7 11 84 12 72 13
REMARK SMILES IDX 71 14 5 15 1 16 2 17 3 18 86 19 4 20 85 21 73 22 74 24 75 25
REMARK SMILES IDX 76 26 80 27 77 28 79 29 78 30 81 31 83 32 82 33 16 34 17 35
REMARK SMILES IDX 18 36 19 37 20 38 21 39 22 41 23 42 24 43 70 44 25 45 69 46
REMARK SMILES IDX 26 47 27 48 28 49 63 50 29 51 68 52 62 53 64 54 30 55 67 56
REMARK SMILES IDX 61 57 60 58 31 60 53 61 38 62 52 63 39 64 42 65 51 66 65 67
REMARK SMILES IDX 40 68 41 69 50 71 66 72 43 73 32 74 33 75 37 76 34 77 36 78
REMARK SMILES IDX 35 79 54 80 55 81 59 82 56 83 58 84 57 85 44 86 45 87 49 88
REMARK SMILES IDX 46 89 48 90 47 91
REMARK H PARENT 13 6 73 23 20 40 64 59 42 70
REMARK Flexibility Score: inf
ROOT
ATOM      1  C   UNL A   1      31.277  29.145  23.098  1.00  0.00     0.021 C 
ENDROOT
BRANCH   1   2
ATOM      2  C   UNL A   1      32.557  28.537  22.528  1.00  0.00     0.116 C 
BRANCH   2   3
ATOM      3  N   UNL A   1      32.341  27.237  21.929  1.00  0.00    -0.353 N 
ATOM      4  C   UNL A   1      32.916  26.047  22.262  1.00  0.00     0.258 C 
ATOM      5  O   UNL A   1      32.555  25.026  21.674  1.00  0.00    -0.271 OA
ATOM      6  H   UNL A   1      31.696  27.209  21.186  1.00  0.00     0.163 HD
BRANCH   4   7
ATOM      7  C   UNL A   1      33.982  25.998  23.363  1.00  0.00     0.331 C 
BRANCH   7   8
ATOM      8  O   UNL A   1      33.641  25.283  24.539  1.00  0.00    -0.467 OA
BRANCH   8   9
ATOM      9  C   UNL A   1      34.170  24.034  24.701  1.00  0.00     0.219 A 
ATOM     10  C   UNL A   1      35.828  22.429  25.038  1.00  0.00     0.080 A 
ATOM     11  C   UNL A   1      35.503  23.753  24.835  1.00  0.00     0.097 A 
ATOM     12  N   UNL A   1      34.909  21.445  25.025  1.00  0.00    -0.213 NA
ATOM     13  C   UNL A   1      33.632  21.811  24.875  1.00  0.00     0.226 A 
ATOM     14  N   UNL A   1      33.229  23.079  24.731  1.00  0.00    -0.177 NA
BRANCH  10  15
ATOM     15  C   UNL A   1      37.207  22.050  25.355  1.00  0.00     0.000 A 
ATOM     16  C   UNL A   1      41.175  20.757  26.495  1.00  0.00     0.044 C 
ATOM     17  C   UNL A   1      39.808  21.209  26.077  1.00  0.00    -0.051 A 
ATOM     18  C   UNL A   1      39.343  22.480  26.436  1.00  0.00     0.004 A 
ATOM     19  C   UNL A   1      38.971  20.363  25.344  1.00  0.00     0.004 A 
ATOM     20  C   UNL A   1      38.058  22.900  26.072  1.00  0.00     0.010 A 
ATOM     21  C   UNL A   1      37.687  20.780  24.989  1.00  0.00     0.010 A 
ENDBRANCH  10  15
BRANCH  13  22
ATOM     22  N   UNL A   1      32.628  20.882  24.887  1.00  0.00    -0.350 N 
ATOM     23  H   UNL A   1      31.976  20.891  25.625  1.00  0.00     0.164 HD
BRANCH  22  24
ATOM     24  C   UNL A   1      32.497  19.891  23.851  1.00  0.00     0.152 C 
BRANCH  24  25
ATOM     25  C   UNL A   1      32.954  18.507  24.285  1.00  0.00    -0.025 A 
ATOM     26  C   UNL A   1      34.300  18.135  24.042  1.00  0.00     0.009 A 
ATOM     27  C   UNL A   1      32.105  17.592  24.934  1.00  0.00     0.056 A 
ATOM     28  C   UNL A   1      34.782  16.868  24.392  1.00  0.00     0.051 A 
ATOM     29  C   UNL A   1      32.600  16.343  25.246  1.00  0.00     0.166 A 
ATOM     30  C   UNL A   1      33.900  15.989  24.976  1.00  0.00     0.165 A 
ATOM     31  O   UNL A   1      31.893  15.330  25.816  1.00  0.00    -0.454 OA
ATOM     32  O   UNL A   1      34.170  14.704  25.335  1.00  0.00    -0.454 OA
ATOM     33  C   UNL A   1      32.855  14.260  25.731  1.00  0.00     0.468 C 
ENDBRANCH  24  25
ENDBRANCH  22  24
ENDBRANCH  13  22
ENDBRANCH   8   9
ENDBRANCH   7   8
ENDBRANCH   4   7
ENDBRANCH   2   3
ENDBRANCH   1   2
BRANCH   1  34
ATOM     34  C   UNL A   1      31.196  29.243  24.628  1.00  0.00     0.002 C 
BRANCH  34  35
ATOM     35  C   UNL A   1      32.495  29.562  25.386  1.00  0.00     0.002 C 
BRANCH  35  36
ATOM     36  C   UNL A   1      32.408  30.606  26.500  1.00  0.00     0.021 C 
BRANCH  36  37
ATOM     37  C   UNL A   1      33.324  30.355  27.687  1.00  0.00     0.116 C 
BRANCH  37  38
ATOM     38  N   UNL A   1      34.068  31.519  28.142  1.00  0.00    -0.352 N 
ATOM     39  C   UNL A   1      35.358  31.605  28.644  1.00  0.00     0.251 C 
ATOM     40  H   UNL A   1      33.582  32.374  28.085  1.00  0.00     0.163 HD
ATOM     41  O   UNL A   1      35.778  32.674  29.052  1.00  0.00    -0.269 OA
BRANCH  39  42
ATOM     42  C   UNL A   1      36.274  30.436  28.544  1.00  0.00     0.039 A 
ATOM     43  C   UNL A   1      36.420  29.634  29.683  1.00  0.00     0.014 A 
ATOM     44  C   UNL A   1      37.129  30.260  27.461  1.00  0.00     0.014 A 
ATOM     45  C   UNL A   1      37.576  28.875  29.843  1.00  0.00     0.010 A 
ATOM     46  C   UNL A   1      38.324  29.602  27.657  1.00  0.00     0.010 A 
ATOM     47  C   UNL A   1      38.576  28.975  28.879  1.00  0.00    -0.014 A 
BRANCH  47  48
ATOM     48  C   UNL A   1      39.954  28.567  29.104  1.00  0.00     0.031 A 
ATOM     49  C   UNL A   1      40.427  27.254  28.638  1.00  0.00     0.074 A 
ATOM     50  C   UNL A   1      40.815  29.450  29.652  1.00  0.00     0.049 A 
ATOM     51  N   UNL A   1      41.464  26.648  29.106  1.00  0.00    -0.248 NA
ATOM     52  C   UNL A   1      39.706  26.478  27.636  1.00  0.00     0.031 C 
ATOM     53  C   UNL A   1      42.273  29.380  29.681  1.00  0.00     0.029 A 
ATOM     54  N   UNL A   1      40.505  30.510  30.497  1.00  0.00    -0.354 N 
ATOM     55  C   UNL A   1      41.729  25.589  28.270  1.00  0.00     0.074 A 
ATOM     56  C   UNL A   1      40.542  25.451  27.460  1.00  0.00     0.031 C 
ATOM     57  C   UNL A   1      42.725  30.180  30.661  1.00  0.00     0.029 A 
ATOM     58  C   UNL A   1      41.568  30.662  31.399  1.00  0.00     0.049 A 
ATOM     59  H   UNL A   1      39.686  31.055  30.468  1.00  0.00     0.167 HD
ATOM     60  C   UNL A   1      42.987  25.063  28.243  1.00  0.00     0.031 A 
ATOM     61  C   UNL A   1      41.372  30.468  32.737  1.00  0.00     0.031 A 
ATOM     62  C   UNL A   1      43.829  25.629  29.301  1.00  0.00     0.049 A 
ATOM     63  C   UNL A   1      42.152  29.300  33.303  1.00  0.00     0.074 A 
ATOM     64  C   UNL A   1      44.831  26.586  29.299  1.00  0.00     0.029 A 
ATOM     65  N   UNL A   1      43.477  25.431  30.633  1.00  0.00    -0.354 N 
ATOM     66  N   UNL A   1      42.680  28.354  32.577  1.00  0.00    -0.248 NA
ATOM     67  C   UNL A   1      42.368  29.087  34.733  1.00  0.00     0.031 C 
ATOM     68  C   UNL A   1      45.011  27.033  30.636  1.00  0.00     0.029 A 
ATOM     69  C   UNL A   1      44.148  26.320  31.450  1.00  0.00     0.049 A 
ATOM     70  H   UNL A   1      42.840  24.751  30.950  1.00  0.00     0.167 HD
ATOM     71  C   UNL A   1      43.286  27.433  33.387  1.00  0.00     0.074 A 
ATOM     72  C   UNL A   1      43.073  27.940  34.732  1.00  0.00     0.031 C 
ATOM     73  C   UNL A   1      43.908  26.326  32.888  1.00  0.00     0.031 A 
BRANCH  60  74
ATOM     74  C   UNL A   1      43.540  24.269  27.076  1.00  0.00    -0.014 A 
ATOM     75  C   UNL A   1      43.386  24.764  25.767  1.00  0.00     0.009 A 
ATOM     76  C   UNL A   1      44.138  23.001  27.174  1.00  0.00     0.009 A 
ATOM     77  C   UNL A   1      43.724  24.006  24.635  1.00  0.00     0.001 A 
ATOM     78  C   UNL A   1      44.459  22.226  26.050  1.00  0.00     0.001 A 
ATOM     79  C   UNL A   1      44.239  22.725  24.777  1.00  0.00     0.000 A 
ENDBRANCH  60  74
BRANCH  61  80
ATOM     80  C   UNL A   1      40.019  30.892  33.200  1.00  0.00    -0.014 A 
ATOM     81  C   UNL A   1      39.706  32.264  33.161  1.00  0.00     0.009 A 
ATOM     82  C   UNL A   1      38.968  29.967  33.285  1.00  0.00     0.009 A 
ATOM     83  C   UNL A   1      38.376  32.694  33.079  1.00  0.00     0.001 A 
ATOM     84  C   UNL A   1      37.638  30.403  33.215  1.00  0.00     0.001 A 
ATOM     85  C   UNL A   1      37.345  31.760  33.073  1.00  0.00     0.000 A 
ENDBRANCH  61  80
BRANCH  73  86
ATOM     86  C   UNL A   1      44.416  25.163  33.700  1.00  0.00    -0.014 A 
ATOM     87  C   UNL A   1      43.591  24.268  34.394  1.00  0.00     0.009 A 
ATOM     88  C   UNL A   1      45.795  24.857  33.660  1.00  0.00     0.009 A 
ATOM     89  C   UNL A   1      44.122  23.150  35.052  1.00  0.00     0.001 A 
ATOM     90  C   UNL A   1      46.323  23.721  34.277  1.00  0.00     0.001 A 
ATOM     91  C   UNL A   1      45.484  22.872  34.984  1.00  0.00     0.000 A 
ENDBRANCH  73  86
ENDBRANCH  47  48
ENDBRANCH  39  42
ENDBRANCH  37  38
ENDBRANCH  36  37
ENDBRANCH  35  36
ENDBRANCH  34  35
ENDBRANCH   1  34
TORSDOF 19
ENDMDL
